data_PCOD8115762
_publ_section_title
;
Structure prediction by ZEFSAII (Michael W. Deem and Ramdas Pophale) SiO2 
 PCOD8115762
Probable space group: C 2/M
;
_chemical_formula_sum "Si O2"
_cell_formula_units_Z 40
_cell_length_a 21.694288
_cell_length_b 17.241070
_cell_length_c 8.833066
_cell_angle_alpha 90.000000
_cell_angle_beta 30.711895
_cell_angle_gamma 90.000000
_cell_volume 1687.349951
_symmetry_space_group_name_H-M "C 2/M"
_symmetry_group_IT_number 12
_symmetry_cell_setting 'monoclinic'
loop_
_space_group_symop_operation_xyz
x,y,z
-x,y,-z
-x,-y,-z
x,-y,z
1/2+x,1/2+y,z
1/2-x,1/2+y,-z
1/2-x,1/2-y,-z
1/2+x,1/2-y,z
loop_
_atom_site_type_symbol
_atom_site_label
_atom_site_fract_x
_atom_site_fract_y
_atom_site_fract_z
Si Si1 0.942861 0.588299 0.784680
Si Si2 0.398069 0.817524 0.324588
Si Si3 0.037116 0.912959 0.675199
Si Si4 0.717468 0.302368 0.210865
Si Si5 0.685065 0.412659 0.670618
O O1 0.906214 0.500000 0.909551
O O2 0.000000 0.587481 0.500000
O O3 0.044403 0.621120 0.681674
O O4 0.827565 0.644010 0.029843
O O5 0.324697 0.750050 0.560568
O O6 0.305108 0.862030 0.412471
O O7 0.500000 0.780437 0.000000
O O8 0.101022 0.857069 0.416019
O O9 0.122022 0.909470 0.642717
O O10 0.031333 0.000000 0.621774
O O11 0.904637 0.883484 0.004807
O O12 0.750000 0.250000 0.000000
O O13 0.721751 0.500000 0.632816
#
# Coordination Sequence:
#
# PCOD8115762 Si02
#       5
#     8   8   8   8   8
#     4  11  25  48  73 100 141 192 232 277 353 425
#     4  12  27  42  72 107 140 176 231 295 345 403
#     4   9  20  41  70  98 135 179 224 279 347 413
#     4  12  26  44  67  98 137 185 230 280 340 414
#     4   9  20  41  70 104 135 172 225 286 345 408
#
# _framework density 23.705812000000002
#
# number of rings (size 3 to 8) (size 9 to 14) (size 15 to 20)
#    0.000    1.400    2.000    3.600    5.600    4.800 
#    0.000    0.000    0.000    2.400    0.000    0.000 
#    0.000    0.000    0.000    0.000    0.000    0.000 
#
# Total GULP energy -247970.276054 kJ/mol
# GULP energy per Si atom -12398.513803 kJ/mol
# Density = 2.365186 g / cm^3
# Si number density = 23.705812 Si / 1000 Ang^3
#
#
#
# Elastic Constant Matrix: (Units=GPa)
#
#
# Indices 1 2 3 4 5 6 
#
# 1 46.5372 28.8044 19.0262 0.0000 -8.1724 0.0000
# 2 28.8044 143.0849 69.5435 0.0000 -9.4261 0.0000
# 3 19.0262 69.5435 153.2701 0.0000 -6.0190 0.0000
# 4 0.0000 0.0000 0.0000 57.0393 0.0000 -16.2502
# 5 -8.1724 -9.4261 -6.0190 0.0000 37.6501 0.0000
# 6 0.0000 0.0000 0.0000 -16.2502 0.0000 23.9608
#
#
#
# Elastic Compliance Matrix: (Units=1/GPa)
#
#
# Indices 1 2 3 4 5 6 
#
# 1 0.025327 -0.004325 -0.001014 0.000000 0.004252 0.000000
# 2 -0.004325 0.009802 -0.003875 0.000000 0.000896 0.000000
# 3 -0.001014 -0.003875 0.008415 0.000000 0.000155 0.000000
# 4 0.000000 0.000000 0.000000 0.021730 0.000000 0.014738
# 5 0.004252 0.000896 0.000155 0.000000 0.027732 0.000000
# 6 0.000000 0.000000 0.000000 0.014738 0.000000 0.051730
#
#
# Mechanical properties :
#
#
# Convention : Reuss Voigt Hill
#
# Bulk Modulus (GPa) = 39.81927 64.18227 52.00077
# Shear Modulus (GPa) = 29.14799 38.76457 33.95628
#
# Velocity S-wave (km/s) = 3.51033 4.04819 3.78882
# Velocity P-wave (km/s) = 5.76746 6.99884 6.41277
#
# Compressibility (1/GPa) = 0.02511347
#
# Stress axis : x y z
#
# Youngs Moduli (GPa) = 39.48366 102.01790 118.83751
#
# Poissons Ratio (x) = 0.44127 0.12055
# Poissons Ratio (y) = 0.17078 0.46055
# Poissons Ratio (z) = 0.04005 0.39537
#
# Static dielectric constant tensor:
#      x y z
#    x 3.892670 0.000000 -0.095540 
#    y 0.000000 4.767820 0.000000 
#    z -0.095540 0.000000 4.911250 
# 
# 
# High freq. dielectric constant tensor:
#      x y z
#    x 1.911010 0.000000 -0.006510 
#    y 0.000000 1.954320 0.000000 
#    z -0.006510 0.000000 1.965130 
# 
# From -- ./inp_files/98286.got.cif
#   From: 2010.06.25/outbox.cif.g09.slc.cpg/sg12_50_cif.got.tgz:98286.got - 2010.06.28 00:19:55.
