data_PCOD8115787
_publ_section_title
;
Structure prediction by ZEFSAII (Michael W. Deem and Ramdas Pophale) SiO2 
 PCOD8115787
Probable space group: C 2/M
;
_chemical_formula_sum "Si O2"
_cell_formula_units_Z 32
_cell_length_a 8.363298
_cell_length_b 22.066801
_cell_length_c 7.608031
_cell_angle_alpha 90.000000
_cell_angle_beta 105.855138
_cell_angle_gamma 90.000000
_cell_volume 1350.654332
_symmetry_space_group_name_H-M "C 2/M"
_symmetry_group_IT_number 12
_symmetry_cell_setting 'monoclinic'
loop_
_space_group_symop_operation_xyz
x,y,z
-x,y,-z
-x,-y,-z
x,-y,z
1/2+x,1/2+y,z
1/2-x,1/2+y,-z
1/2-x,1/2-y,-z
1/2+x,1/2-y,z
loop_
_atom_site_type_symbol
_atom_site_label
_atom_site_fract_x
_atom_site_fract_y
_atom_site_fract_z
Si Si1 0.187055 0.130914 0.615554
Si Si2 0.426312 0.771054 0.787151
Si Si3 0.190416 0.569033 0.021824
Si Si4 0.718744 0.157730 0.715899
O O1 0.251425 0.192803 0.726028
O O2 0.210453 0.077631 0.765430
O O3 0.297341 0.119838 0.471039
O O4 0.000000 0.135157 0.500000
O O5 0.557429 0.799838 0.690906
O O6 0.381765 0.700891 0.738244
O O7 0.500000 0.779522 0.000000
O O8 0.212718 0.500000 0.966536
O O9 0.255980 0.612321 0.887095
O O10 0.000000 0.585968 0.000000
#
# Coordination Sequence:
#
# PCOD8115787 Si02
#       4
#     8   8   8   8
#     4  12  26  45  71 110 150 185 235 296 360 427
#     4  12  24  44  72 106 149 187 233 288 361 437
#     4  11  26  51  77 103 139 192 250 295 347 424
#     4  12  25  45  75 108 145 190 233 296 360 424
#
# _framework density 23.692219999999999
#
# number of rings (size 3 to 8) (size 9 to 14) (size 15 to 20)
#    0.000    0.250    5.000    3.750    3.500    1.500 
#    0.000    3.750    0.000    0.000    0.000    0.000 
#    0.000    0.000    0.000    0.000    0.000    0.000 
#
# Total GULP energy -198379.931779 kJ/mol
# GULP energy per Si atom -12398.745736 kJ/mol
# Density = 2.363830 g / cm^3
# Si number density = 23.692220 Si / 1000 Ang^3
#
#
#
# Elastic Constant Matrix: (Units=GPa)
#
#
# Indices 1 2 3 4 5 6 
#
# 1 54.7299 31.2389 13.9384 0.0000 17.5382 0.0000
# 2 31.2389 109.2921 39.1750 0.0000 -6.8644 0.0000
# 3 13.9384 39.1750 126.0046 0.0000 12.7815 0.0000
# 4 0.0000 0.0000 0.0000 27.6310 0.0000 0.6527
# 5 17.5382 -6.8644 12.7815 0.0000 48.8510 0.0000
# 6 0.0000 0.0000 0.0000 0.6527 0.0000 23.4019
#
#
#
# Elastic Compliance Matrix: (Units=1/GPa)
#
#
# Indices 1 2 3 4 5 6 
#
# 1 0.026427 -0.008539 0.000838 0.000000 -0.010907 0.000000
# 2 -0.008539 0.013325 -0.003800 0.000000 0.005932 0.000000
# 3 0.000838 -0.003800 0.009358 0.000000 -0.003283 0.000000
# 4 0.000000 0.000000 0.000000 0.036215 0.000000 -0.001010
# 5 -0.010907 0.005932 -0.003283 0.000000 0.026079 0.000000
# 6 0.000000 0.000000 0.000000 -0.001010 0.000000 0.042760
#
#
# Mechanical properties :
#
#
# Convention : Reuss Voigt Hill
#
# Bulk Modulus (GPa) = 38.30248 50.97014 44.63631
# Shear Modulus (GPa) = 26.90067 33.68840 30.29454
#
# Velocity S-wave (km/s) = 3.37326 3.77492 3.57973
# Velocity P-wave (km/s) = 5.60122 6.36869 5.99724
#
# Compressibility (1/GPa) = 0.02610797
#
# Stress axis : x y z
#
# Youngs Moduli (GPa) = 37.83982 75.04597 106.86049
#
# Poissons Ratio (x) = 0.64082 -0.08953
# Poissons Ratio (y) = 0.32311 0.40607
# Poissons Ratio (z) = -0.03170 0.28517
#
# Static dielectric constant tensor:
#      x y z
#    x 4.423480 0.000000 -0.030750 
#    y 0.000000 4.126130 0.000000 
#    z -0.030750 0.000000 4.642110 
# 
# 
# High freq. dielectric constant tensor:
#      x y z
#    x 1.938960 0.000000 -0.000670 
#    y 0.000000 1.910520 0.000000 
#    z -0.000670 0.000000 1.963060 
# 
# From -- ./inp_files/38331.got.cif
#   From: 2010.06.25/outbox.cif.g09.slc.cpg/sg12_20_cif.got.tgz:38331.got - 2010.06.28 00:19:55.
