data_PCOD8115467
_publ_section_title
;
Structure prediction by ZEFSAII (Michael W. Deem and Ramdas Pophale) SiO2 
 PCOD8115467
Probable space group: C 2/M
;
_chemical_formula_sum "Si O2"
_cell_formula_units_Z 40
_cell_length_a 14.008460
_cell_length_b 16.969400
_cell_length_c 14.710558
_cell_angle_alpha 90.000000
_cell_angle_beta 150.651450
_cell_angle_gamma 90.000000
_cell_volume 1713.916039
_symmetry_space_group_name_H-M "C 2/M"
_symmetry_group_IT_number 12
_symmetry_cell_setting 'monoclinic'
loop_
_space_group_symop_operation_xyz
x,y,z
-x,y,-z
-x,-y,-z
x,-y,z
1/2+x,1/2+y,z
1/2-x,1/2+y,-z
1/2-x,1/2-y,-z
1/2+x,1/2-y,z
loop_
_atom_site_type_symbol
_atom_site_label
_atom_site_fract_x
_atom_site_fract_y
_atom_site_fract_z
Si Si1 0.978872 0.915121 0.876361
Si Si2 0.277130 0.773888 0.302206
Si Si3 0.393242 0.000000 0.005961
Si Si4 0.959985 0.000000 0.574387
Si Si5 0.809760 0.689076 0.125195
Si Si6 0.644954 0.128115 0.307111
O O1 0.827365 0.845064 0.730798
O O2 0.915197 0.000000 0.779953
O O3 0.188522 0.891567 0.009125
O O4 0.000000 0.927728 0.000000
O O5 0.500000 0.790397 0.500000
O O6 0.239864 0.773976 0.163014
O O7 0.213272 0.690163 0.288379
O O8 0.500000 0.000000 0.000000
O O9 0.467854 0.922596 0.119423
O O10 0.158712 0.000000 0.796972
O O11 0.832233 0.077320 0.493670
O O12 0.000000 0.000000 0.500000
O O13 0.042610 0.670956 0.309432
O O14 0.750000 0.750000 0.000000
#
# Coordination Sequence:
#
# PCOD8115467 Si02
#       6
#     8   8   4   4   8   8
#     4   9  20  42  67  93 131 183 234 280 340 413
#     4  11  25  44  69  98 138 185 231 296 351 413
#     4  11  25  42  73 101 138 194 224 279 370 420
#     4  11  23  44  67 105 138 182 227 288 351 422
#     4  11  24  42  69 101 134 181 240 285 350 420
#     4  11  25  44  69 103 144 182 236 289 346 428
#
# _framework density 23.338367999999999
#
# number of rings (size 3 to 8) (size 9 to 14) (size 15 to 20)
#    0.000    1.400    4.000    0.600    5.600    1.200 
#    3.600    0.000    0.000    0.000    0.000    0.000 
#    0.000    0.000    0.000    0.000    0.000    0.000 
#
# Total GULP energy -247890.071218 kJ/mol
# GULP energy per Si atom -12394.503561 kJ/mol
# Density = 2.328525 g / cm^3
# Si number density = 23.338368 Si / 1000 Ang^3
#
#
#
# Elastic Constant Matrix: (Units=GPa)
#
#
# Indices 1 2 3 4 5 6 
#
# 1 88.8131 19.8609 7.9108 -0.0027 31.8700 0.0146
# 2 19.8609 143.4283 42.1643 -0.0061 17.1342 0.0299
# 3 7.9108 42.1643 115.1685 0.0008 35.5974 0.0046
# 4 -0.0027 -0.0061 0.0008 27.7700 0.0015 16.1847
# 5 31.8700 17.1342 35.5974 0.0015 38.0839 0.0043
# 6 0.0146 0.0299 0.0046 16.1847 0.0043 -8.8314
#
#
#
# Elastic Compliance Matrix: (Units=1/GPa)
#
#
# Indices 1 2 3 4 5 6 
#
# 1 0.018159 -0.001783 0.005420 -0.000004 -0.019460 0.000010
# 2 -0.001783 0.008026 -0.003039 -0.000006 0.000722 0.000013
# 3 0.005420 -0.003039 0.014629 0.000001 -0.016843 -0.000001
# 4 -0.000004 -0.000006 0.000001 0.017412 0.000001 0.031910
# 5 -0.019460 0.000722 -0.016843 0.000001 0.057961 -0.000009
# 6 0.000010 0.000013 -0.000001 0.031910 -0.000009 -0.054752
#
#
# Mechanical properties :
#
#
# Convention : Reuss Voigt Hill
#
# Bulk Modulus (GPa) = 23.80360 54.14243 38.97301
# Shear Modulus (GPa) = 67.34682 29.90275 48.62479
#
# Velocity S-wave (km/s) = 5.37767 3.58337 4.56946
# Velocity P-wave (km/s) = 6.98431 6.35373 6.67647
#
# Compressibility (1/GPa) = 0.04201046
#
# Stress axis : x y z
#
# Youngs Moduli (GPa) = 55.06990 124.59139 68.35657
#
# Poissons Ratio (x) = 0.22217 -0.37053
# Poissons Ratio (y) = 0.09820 0.20774
# Poissons Ratio (z) = -0.29851 0.37865
#
# Static dielectric constant tensor:
#      x y z
#    x 4.741630 -0.000070 -0.072350 
#    y -0.000070 4.556050 0.000000 
#    z -0.072350 0.000000 4.471450 
# 
# 
# High freq. dielectric constant tensor:
#      x y z
#    x 1.943490 0.000000 0.023660 
#    y 0.000000 1.935590 0.000000 
#    z 0.023660 0.000000 1.901430 
# 
# From -- ./inp_files/216973.got.cif
#   From: 2010.06.25/outbox.cif.g09.slc.cpg/sg12_109_cif.got.tgz:216973.got - 2010.06.28 00:19:55.
