data_PCOD8115501
_publ_section_title
;
Structure prediction by ZEFSAII (Michael W. Deem and Ramdas Pophale) SiO2 
 PCOD8115501
Probable space group: C 2/M
;
_chemical_formula_sum "Si O2"
_cell_formula_units_Z 48
_cell_length_a 12.300595
_cell_length_b 21.936998
_cell_length_c 8.670910
_cell_angle_alpha 90.000000
_cell_angle_beta 72.306426
_cell_angle_gamma 90.000000
_cell_volume 2229.061964
_symmetry_space_group_name_H-M "C 2/M"
_symmetry_group_IT_number 12
_symmetry_cell_setting 'monoclinic'
loop_
_space_group_symop_operation_xyz
x,y,z
-x,y,-z
-x,-y,-z
x,-y,z
1/2+x,1/2+y,z
1/2-x,1/2+y,-z
1/2-x,1/2-y,-z
1/2+x,1/2-y,z
loop_
_atom_site_type_symbol
_atom_site_label
_atom_site_fract_x
_atom_site_fract_y
_atom_site_fract_z
Si Si1 0.226239 0.764876 0.830611
Si Si2 0.112564 0.367784 0.364149
Si Si3 0.703454 0.639099 0.225075
Si Si4 0.694237 0.428289 0.540323
Si Si5 0.968720 0.145643 0.173064
Si Si6 0.889116 0.571319 0.953240
O O1 0.323964 0.807989 0.721906
O O2 0.231153 0.699508 0.740998
O O3 0.103355 0.794111 0.844614
O O4 0.250000 0.750000 0.000000
O O5 0.182596 0.407140 0.457174
O O6 0.086134 0.412492 0.233794
O O7 0.000000 0.345774 0.500000
O O8 0.676540 0.592741 0.373128
O O9 0.585322 0.664521 0.206071
O O10 0.776901 0.606296 0.060607
O O11 0.682261 0.500000 0.551326
O O12 0.598686 0.400552 0.691210
O O13 0.000000 0.111015 0.000000
O O14 0.865799 0.500000 0.981738
O O15 0.000000 0.592071 0.000000
#
# Coordination Sequence:
#
# PCOD8115501 Si02
#       6
#     8   8   8   8   8   8
#     4  11  23  46  69 100 136 178 225 286 345 414
#     4  11  24  43  69 101 132 182 229 281 346 409
#     4  12  24  43  70 100 135 179 230 285 342 413
#     4  11  26  45  66  98 141 181 227 286 343 407
#     4  11  24  43  69 101 134 178 232 280 346 410
#     4  11  24  42  68 101 137 182 233 284 341 408
#
# _framework density 21.533721
#
# number of rings (size 3 to 8) (size 9 to 14) (size 15 to 20)
#    0.000    0.833    3.333    3.500    0.000   12.333 
#    0.000    0.000    0.000    0.000    0.000    0.000 
#    0.000    0.000    0.000    0.000    0.000    0.000 
#
# Total GULP energy -297648.610011 kJ/mol
# GULP energy per Si atom -12402.025417 kJ/mol
# Density = 2.148471 g / cm^3
# Si number density = 21.533721 Si / 1000 Ang^3
#
#
#
# Elastic Constant Matrix: (Units=GPa)
#
#
# Indices 1 2 3 4 5 6 
#
# 1 146.9537 51.3982 56.7763 0.0000 -8.2178 0.0000
# 2 51.3982 136.1822 43.4546 0.0000 -9.0661 0.0000
# 3 56.7763 43.4546 135.6919 0.0000 -13.1077 0.0000
# 4 0.0000 0.0000 0.0000 25.6604 0.0000 10.4396
# 5 -8.2178 -9.0661 -13.1077 0.0000 39.3379 0.0000
# 6 0.0000 0.0000 0.0000 10.4396 0.0000 16.7167
#
#
#
# Elastic Compliance Matrix: (Units=1/GPa)
#
#
# Indices 1 2 3 4 5 6 
#
# 1 0.008763 -0.002368 -0.002877 0.000000 0.000326 0.000000
# 2 -0.002368 0.008860 -0.001754 0.000000 0.000963 0.000000
# 3 -0.002877 -0.001754 0.009338 0.000000 0.002106 0.000000
# 4 0.000000 0.000000 0.000000 0.052244 0.000000 -0.032627
# 5 0.000326 0.000963 0.002106 0.000000 0.026413 0.000000
# 6 0.000000 0.000000 0.000000 -0.032627 0.000000 0.080196
#
#
# Mechanical properties :
#
#
# Convention : Reuss Voigt Hill
#
# Bulk Modulus (GPa) = 77.12924 80.23178 78.68051
# Shear Modulus (GPa) = 24.49392 34.15624 29.32508
#
# Velocity S-wave (km/s) = 3.37630 3.98700 3.69429
# Velocity P-wave (km/s) = 7.14806 7.65078 7.40369
#
# Compressibility (1/GPa) = 0.01296525
#
# Stress axis : x y z
#
# Youngs Moduli (GPa) = 114.12105 112.86147 107.08396
#
# Poissons Ratio (x) = 0.26720 0.30805
# Poissons Ratio (y) = 0.27019 0.18781
# Poissons Ratio (z) = 0.32830 0.19794
#
# Static dielectric constant tensor:
#      x y z
#    x 4.305750 0.000000 -0.131720 
#    y 0.000000 3.933790 0.000000 
#    z -0.131720 0.000000 4.106920 
# 
# 
# High freq. dielectric constant tensor:
#      x y z
#    x 1.855170 0.000000 -0.003660 
#    y 0.000000 1.846030 0.000000 
#    z -0.003660 0.000000 1.861160 
# 
# From -- ./inp_files/51319.got.cif
#   From: 2010.06.25/outbox.cif.g09.slc.cpg/sg12_26_cif.got.tgz:51319.got - 2010.06.28 00:19:55.
