data_PCOD8115653
_publ_section_title
;
Structure prediction by ZEFSAII (Michael W. Deem and Ramdas Pophale) SiO2 
 PCOD8115653
Probable space group: C 2/M
;
_chemical_formula_sum "Si O2"
_cell_formula_units_Z 40
_cell_length_a 13.827517
_cell_length_b 21.784351
_cell_length_c 10.841737
_cell_angle_alpha 90.000000
_cell_angle_beta 33.479745
_cell_angle_gamma 90.000000
_cell_volume 1801.545122
_symmetry_space_group_name_H-M "C 2/M"
_symmetry_group_IT_number 12
_symmetry_cell_setting 'monoclinic'
loop_
_space_group_symop_operation_xyz
x,y,z
-x,y,-z
-x,-y,-z
x,-y,z
1/2+x,1/2+y,z
1/2-x,1/2+y,-z
1/2-x,1/2-y,-z
1/2+x,1/2-y,z
loop_
_atom_site_type_symbol
_atom_site_label
_atom_site_fract_x
_atom_site_fract_y
_atom_site_fract_z
Si Si1 0.196990 0.210859 0.439259
Si Si2 0.999528 0.387154 0.130647
Si Si3 0.625415 0.068050 0.482971
Si Si4 0.690148 0.681648 0.088464
Si Si5 0.804393 0.177902 0.188105
O O1 0.250000 0.250000 0.500000
O O2 0.344507 0.160245 0.269211
O O3 0.188457 0.260337 0.334870
O O4 0.008785 0.177973 0.651880
O O5 0.969697 0.428833 0.282835
O O6 0.185704 0.352258 0.946332
O O7 0.000000 0.425555 0.000000
O O8 0.500000 0.079766 0.500000
O O9 0.766429 0.122895 0.326109
O O10 0.710126 0.000000 0.382337
O O11 0.750000 0.750000 0.000000
O O12 0.717514 0.649935 0.925352
O O13 0.000000 0.201209 0.000000
#
# Coordination Sequence:
#
# PCOD8115653 Si02
#       5
#     8   8   8   8   8
#     4  12  22  37  59  99 137 167 211 256 321 409
#     4  12  25  42  63  96 132 170 212 263 332 394
#     4  11  24  44  68  91 120 169 231 277 316 375
#     4  12  22  36  60  90 132 175 203 254 319 380
#     4  12  22  39  63  94 131 168 217 267 321 387
#
# _framework density 22.203161999999999
#
# number of rings (size 3 to 8) (size 9 to 14) (size 15 to 20)
#    0.000    0.200    8.000    1.800    0.000    3.200 
#    0.000    0.000    0.000    0.000    0.000    4.200 
#    0.000    0.000    0.000    0.000    0.000    0.000 
#
# Total GULP energy -247878.287693 kJ/mol
# GULP energy per Si atom -12393.914385 kJ/mol
# Density = 2.215263 g / cm^3
# Si number density = 22.203162 Si / 1000 Ang^3
#
#
#
# Elastic Constant Matrix: (Units=GPa)
#
#
# Indices 1 2 3 4 5 6 
#
# 1 128.6503 5.6285 56.8434 0.0021 24.8193 -0.0009
# 2 5.6285 81.9875 31.7827 0.0001 -2.0529 0.0000
# 3 56.8434 31.7827 127.4979 0.0032 -5.6012 0.0006
# 4 0.0021 0.0001 0.0032 15.4203 -0.0024 1.1823
# 5 24.8193 -2.0529 -5.6012 -0.0024 49.5788 0.0001
# 6 -0.0009 0.0000 0.0006 1.1823 0.0001 11.8002
#
#
#
# Elastic Compliance Matrix: (Units=1/GPa)
#
#
# Indices 1 2 3 4 5 6 
#
# 1 0.011458 0.001265 -0.005702 -0.000002 -0.006327 0.000001
# 2 0.001265 0.013643 -0.003988 0.000000 -0.000519 0.000000
# 3 -0.005702 -0.003988 0.011555 -0.000001 0.003995 -0.000001
# 4 -0.000002 0.000000 -0.000001 0.065351 0.000004 -0.006548
# 5 -0.006327 -0.000519 0.003995 0.000004 0.023767 -0.000001
# 6 0.000001 0.000000 -0.000001 -0.006548 -0.000001 0.085400
#
#
# Mechanical properties :
#
#
# Convention : Reuss Voigt Hill
#
# Bulk Modulus (GPa) = 50.48708 58.51610 54.50159
# Shear Modulus (GPa) = 21.31057 31.61860 26.46458
#
# Velocity S-wave (km/s) = 3.10142 3.77776 3.45618
# Velocity P-wave (km/s) = 5.96768 6.74097 6.36608
#
# Compressibility (1/GPa) = 0.01980705
#
# Stress axis : x y z
#
# Youngs Moduli (GPa) = 87.27857 73.29751 86.54395
#
# Poissons Ratio (x) = -0.09274 0.49344
# Poissons Ratio (y) = -0.11043 0.34512
# Poissons Ratio (z) = 0.49763 0.29230
#
# Static dielectric constant tensor:
#      x y z
#    x 4.581490 -0.000010 0.438420 
#    y -0.000010 3.664480 -0.000010 
#    z 0.438420 -0.000010 4.214630 
# 
# 
# High freq. dielectric constant tensor:
#      x y z
#    x 1.897280 0.000000 0.021590 
#    y 0.000000 1.827140 0.000000 
#    z 0.021590 0.000000 1.881840 
# 
# From -- ./inp_files/148788.got.cif
#   From: 2010.06.25/outbox.cif.g09.slc.cpg/sg12_75_cif.got.tgz:148788.got - 2010.06.28 00:19:55.
