data_PCOD8115438
_publ_section_title
;
Structure prediction by ZEFSAII (Michael W. Deem and Ramdas Pophale) SiO2 
 PCOD8115438
Probable space group: C 2/M
;
_chemical_formula_sum "Si O2"
_cell_formula_units_Z 40
_cell_length_a 13.754703
_cell_length_b 24.556922
_cell_length_c 4.877638
_cell_angle_alpha 90.000000
_cell_angle_beta 92.329627
_cell_angle_gamma 90.000000
_cell_volume 1646.173571
_symmetry_space_group_name_H-M "C 2/M"
_symmetry_group_IT_number 12
_symmetry_cell_setting 'monoclinic'
loop_
_space_group_symop_operation_xyz
x,y,z
-x,y,-z
-x,-y,-z
x,-y,z
1/2+x,1/2+y,z
1/2-x,1/2+y,-z
1/2-x,1/2-y,-z
1/2+x,1/2-y,z
loop_
_atom_site_type_symbol
_atom_site_label
_atom_site_fract_x
_atom_site_fract_y
_atom_site_fract_z
Si Si1 0.645084 0.941460 0.825790
Si Si2 0.892861 0.774370 0.961065
Si Si3 0.701075 0.674114 0.552582
Si Si4 0.277364 0.441485 0.343432
Si Si5 0.909127 0.328617 0.304696
O O1 0.683174 0.946824 0.522115
O O2 0.573319 0.889303 0.819915
O O3 0.594471 0.000000 0.896808
O O4 0.737660 0.930402 0.032831
O O5 0.812059 0.802756 0.143616
O O6 0.899418 0.710731 0.040649
O O7 0.859397 0.784760 0.646159
O O8 0.000000 0.801222 0.000000
O O9 0.660257 0.611400 0.551710
O O10 0.813703 0.673648 0.484332
O O11 0.335401 0.500000 0.358917
O O12 0.000000 0.309893 0.500000
#
# Coordination Sequence:
#
# PCOD8115438 Si02
#       5
#     8   8   8   8   8
#     4   9  19  36  58  89 130 170 206 246 299 371
#     4  12  26  44  64  91 126 167 218 270 318 369
#     4  11  23  43  68  93 127 168 209 259 321 380
#     4   9  18  36  63  93 123 161 207 256 313 374
#     4  11  24  41  65  98 134 169 212 257 310 380
#
# _framework density 24.298774999999999
#
# number of rings (size 3 to 8) (size 9 to 14) (size 15 to 20)
#    0.000    1.600    0.000    5.400    0.000    8.400 
#    0.000    0.000    0.000   15.000    0.000    0.000 
#    0.000    0.000    0.000    0.000    0.000    0.000 
#
# Total GULP energy -247815.506133 kJ/mol
# GULP energy per Si atom -12390.775307 kJ/mol
# Density = 2.424347 g / cm^3
# Si number density = 24.298775 Si / 1000 Ang^3
#
#
#
# Elastic Constant Matrix: (Units=GPa)
#
#
# Indices 1 2 3 4 5 6 
#
# 1 75.7208 14.3176 8.4373 0.0000 3.8625 0.0000
# 2 14.3176 225.3505 24.9664 0.0000 21.9468 0.0000
# 3 8.4373 24.9664 74.0439 0.0000 5.7481 0.0000
# 4 0.0000 0.0000 0.0000 28.9364 0.0000 20.0916
# 5 3.8625 21.9468 5.7481 0.0000 27.5479 0.0000
# 6 0.0000 0.0000 0.0000 20.0916 0.0000 0.8516
#
#
#
# Elastic Compliance Matrix: (Units=1/GPa)
#
#
# Indices 1 2 3 4 5 6 
#
# 1 0.013519 -0.000609 -0.001246 0.000000 -0.001150 0.000000
# 2 -0.000609 0.004974 -0.001328 0.000000 -0.003600 0.000000
# 3 -0.001246 -0.001328 0.014230 0.000000 -0.001736 0.000000
# 4 0.000000 0.000000 0.000000 -0.002247 0.000000 0.053008
# 5 -0.001150 -0.003600 -0.001736 0.000000 0.039692 0.000000
# 6 0.000000 0.000000 0.000000 0.053008 0.000000 -0.076344
#
#
# Mechanical properties :
#
#
# Convention : Reuss Voigt Hill
#
# Bulk Modulus (GPa) = 37.94038 52.28420 45.11229
# Shear Modulus (GPa) = 557.01756 33.29344 295.15550
#
# Velocity S-wave (km/s) = 15.15700 3.70560 11.03327
# Velocity P-wave (km/s) = 17.94326 6.31447 13.45052
#
# Compressibility (1/GPa) = 0.02635714
#
# Stress axis : x y z
#
# Youngs Moduli (GPa) = 73.96969 201.04564 70.27336
#
# Poissons Ratio (x) = 0.12241 0.08755
# Poissons Ratio (y) = 0.04504 0.09334
# Poissons Ratio (z) = 0.09216 0.26705
#
# Static dielectric constant tensor:
#      x y z
#    x 3.854840 0.000000 -0.151360 
#    y 0.000000 5.365490 0.000000 
#    z -0.151360 0.000000 4.367150 
# 
# 
# High freq. dielectric constant tensor:
#      x y z
#    x 1.899600 0.000000 -0.008020 
#    y 0.000000 1.997360 0.000000 
#    z -0.008020 0.000000 1.982380 
# 
# From -- ./inp_files/7672.got.cif
#   From: 2010.06.25/outbox.cif.g09.slc.cpg/sg12_4_cif.got.tgz:7672.got - 2010.06.28 00:19:55.
