data_PCOD8115147
_publ_section_title
;
Structure prediction by ZEFSAII (Michael W. Deem and Ramdas Pophale) SiO2 
 PCOD8115147
Probable space group: C 2/M
;
_chemical_formula_sum "Si O2"
_cell_formula_units_Z 56
_cell_length_a 7.953213
_cell_length_b 18.646391
_cell_length_c 21.241869
_cell_angle_alpha 90.000000
_cell_angle_beta 68.012024
_cell_angle_gamma 90.000000
_cell_volume 2921.008355
_symmetry_space_group_name_H-M "C 2/M"
_symmetry_group_IT_number 12
_symmetry_cell_setting 'monoclinic'
loop_
_space_group_symop_operation_xyz
x,y,z
-x,y,-z
-x,-y,-z
x,-y,z
1/2+x,1/2+y,z
1/2-x,1/2+y,-z
1/2-x,1/2-y,-z
1/2+x,1/2-y,z
loop_
_atom_site_type_symbol
_atom_site_label
_atom_site_fract_x
_atom_site_fract_y
_atom_site_fract_z
Si Si1 0.924195 0.414995 0.075805
Si Si2 0.496713 0.169263 0.698801
Si Si3 0.605686 0.669263 0.698801
Si Si4 0.271180 0.078656 0.425407
Si Si5 0.975378 0.915496 0.830928
Si Si6 0.362766 0.084504 0.830928
Si Si7 0.878007 0.078656 0.425407
O O1 0.927174 0.500000 0.072826
O O2 0.714843 0.389363 0.112129
O O3 0.060899 0.389363 0.112129
O O4 0.000000 0.382269 0.000000
O O5 0.538792 0.250000 0.711208
O O6 0.306718 0.164057 0.693282
O O7 0.637233 0.139980 0.628449
O O8 0.494849 0.121672 0.761960
O O9 0.481232 0.621672 0.761960
O O10 0.605870 0.639980 0.628449
O O11 0.269714 0.099996 0.500000
O O12 0.068307 0.071486 0.431693
O O13 0.366091 0.000000 0.403814
O O14 0.149343 0.894201 0.850657
O O15 0.974383 0.000000 0.819331
O O16 0.386955 0.000000 0.819331
O O17 0.826280 0.000000 0.403814
#
# Coordination Sequence:
#
# PCOD8115147 Si02
#       7
#     8   8   8   8   8   8   8
#     4   9  18  32  56  88 113 141 178 219 277 333
#     4  11  23  36  53  79 107 145 186 227 277 324
#     4  11  23  36  53  79 107 145 186 227 277 324
#     4   9  19  36  57  80 107 141 181 226 276 329
#     4   9  19  35  55  82 112 143 182 229 276 329
#     4   9  19  35  55  82 112 143 182 229 276 329
#     4   9  19  36  57  80 107 141 181 226 276 329
#
# _framework density 19.171462999999999
#
# number of rings (size 3 to 8) (size 9 to 14) (size 15 to 20)
#    0.000    2.429    0.000    2.571    4.000    3.429 
#    0.000    4.286    0.000    0.857    0.000    0.000 
#    0.000    0.000    0.000    0.000    0.000    0.000 
#
# Total GULP energy -347016.970140 kJ/mol
# GULP energy per Si atom -12393.463219 kJ/mol
# Density = 1.912783 g / cm^3
# Si number density = 19.171463 Si / 1000 Ang^3
#
#
#
# Elastic Constant Matrix: (Units=GPa)
#
#
# Indices 1 2 3 4 5 6 
#
# 1 69.0979 33.0343 70.0296 0.0000 1.7584 0.0000
# 2 33.0343 62.3720 47.0656 0.0000 0.5207 0.0000
# 3 70.0296 47.0656 154.2196 0.0000 1.4006 0.0000
# 4 0.0000 0.0000 0.0000 12.2125 0.0000 -0.0285
# 5 1.7584 0.5207 1.4006 0.0000 23.2114 0.0000
# 6 0.0000 0.0000 0.0000 -0.0285 0.0000 12.9811
#
#
#
# Elastic Compliance Matrix: (Units=1/GPa)
#
#
# Indices 1 2 3 4 5 6 
#
# 1 0.029059 -0.007056 -0.011029 0.000000 -0.001378 0.000000
# 2 -0.007056 0.022543 -0.003678 0.000000 0.000251 0.000000
# 3 -0.011029 -0.003678 0.012614 0.000000 0.000157 0.000000
# 4 0.000000 0.000000 0.000000 0.081884 0.000000 0.000180
# 5 -0.001378 0.000251 0.000157 0.000000 0.043172 0.000000
# 6 0.000000 0.000000 0.000000 0.000180 0.000000 0.077036
#
#
# Mechanical properties :
#
#
# Convention : Reuss Voigt Hill
#
# Bulk Modulus (GPa) = 48.33595 65.10536 56.72066
# Shear Modulus (GPa) = 15.78632 18.71834 17.25233
#
# Velocity S-wave (km/s) = 2.87266 3.12807 3.00308
# Velocity P-wave (km/s) = 6.02246 6.86146 6.45561
#
# Compressibility (1/GPa) = 0.02068854
#
# Stress axis : x y z
#
# Youngs Moduli (GPa) = 34.41297 44.35891 79.27948
#
# Poissons Ratio (x) = 0.31301 0.87440
# Poissons Ratio (y) = 0.24283 0.29159
# Poissons Ratio (z) = 0.37955 0.16315
#
# Static dielectric constant tensor:
#      x y z
#    x 3.659020 0.000000 0.226980 
#    y 0.000000 3.263260 0.000000 
#    z 0.226980 0.000000 9.775380 
# 
# 
# High freq. dielectric constant tensor:
#      x y z
#    x 1.752080 0.000000 -0.000200 
#    y 0.000000 1.722750 0.000000 
#    z -0.000200 0.000000 1.746660 
# 
# From -- ./inp_files/300675.got.cif
#   From: 2010.06.25/outbox.cif.g09.slc.cpg/sg12_151_cif.got.tgz:300675.got - 2010.06.28 00:19:55.
