data_PCOD8115886
_publ_section_title
;
Structure prediction by ZEFSAII (Michael W. Deem and Ramdas Pophale) SiO2 
 PCOD8115886
Probable space group: C 2/M
;
_chemical_formula_sum "Si O2"
_cell_formula_units_Z 56
_cell_length_a 8.840088
_cell_length_b 27.045362
_cell_length_c 18.063340
_cell_angle_alpha 90.000000
_cell_angle_beta 138.141871
_cell_angle_gamma 90.000000
_cell_volume 2881.781491
_symmetry_space_group_name_H-M "C 2/M"
_symmetry_group_IT_number 12
_symmetry_cell_setting 'monoclinic'
loop_
_space_group_symop_operation_xyz
x,y,z
-x,y,-z
-x,-y,-z
x,-y,z
1/2+x,1/2+y,z
1/2-x,1/2+y,-z
1/2-x,1/2-y,-z
1/2+x,1/2-y,z
loop_
_atom_site_type_symbol
_atom_site_label
_atom_site_fract_x
_atom_site_fract_y
_atom_site_fract_z
Si Si1 0.701419 0.944908 0.457752
Si Si2 0.258088 0.786140 0.619053
Si Si3 0.275713 0.445483 0.317721
Si Si4 0.485997 0.687604 0.770568
Si Si5 0.172822 0.196858 0.995755
Si Si6 0.146247 0.651820 0.207543
Si Si7 0.018676 0.655062 0.587199
O O1 0.658282 0.939310 0.354603
O O2 0.570861 0.900620 0.449235
O O3 0.959514 0.937363 0.574301
O O4 0.619064 0.000000 0.452850
O O5 0.388157 0.740683 0.706917
O O6 0.254413 0.829219 0.678330
O O7 0.398777 0.806677 0.600031
O O8 0.000000 0.774194 0.500000
O O9 0.226191 0.500000 0.267610
O O10 0.172890 0.407322 0.220816
O O11 0.548085 0.678424 0.877996
O O12 0.705489 0.674895 0.803425
O O13 0.285778 0.648108 0.695462
O O14 0.250000 0.250000 0.000000
O O15 0.384373 0.163599 0.097840
O O16 0.000000 0.199740 0.000000
O O17 0.000000 0.680566 0.500000
#
# Coordination Sequence:
#
# PCOD8115886 Si02
#       7
#     8   8   8   8   8   8   8
#     4   9  18  35  60  91 127 166 206 256 312 373
#     4  12  24  39  59  86 127 170 208 250 307 372
#     4   9  18  35  63  94 122 162 213 255 310 374
#     4  12  26  41  60  90 125 164 210 258 309 372
#     4  12  26  45  66  92 120 160 214 261 311 368
#     4  12  23  41  68  88 124 167 207 262 310 369
#     4  12  24  38  57  91 131 165 210 257 310 373
#
# _framework density 19.432424999999999
#
# number of rings (size 3 to 8) (size 9 to 14) (size 15 to 20)
#    0.000    0.857    2.857    6.857    0.000    2.000 
#    0.000    0.714    0.000    3.000    0.000    0.000 
#    0.000    0.000    0.000    0.000    0.000    0.000 
#
# Total GULP energy -346989.727739 kJ/mol
# GULP energy per Si atom -12392.490276 kJ/mol
# Density = 1.938820 g / cm^3
# Si number density = 19.432425 Si / 1000 Ang^3
#
#
#
# Elastic Constant Matrix: (Units=GPa)
#
#
# Indices 1 2 3 4 5 6 
#
# 1 142.7796 35.4658 51.3783 0.0000 -4.2147 0.0000
# 2 35.4658 115.6470 43.1387 0.0000 2.1546 0.0000
# 3 51.3783 43.1387 123.0192 0.0000 -3.5790 0.0000
# 4 0.0000 0.0000 0.0000 15.9930 0.0000 21.1268
# 5 -4.2147 2.1546 -3.5790 0.0000 34.9518 0.0000
# 6 0.0000 0.0000 0.0000 21.1268 0.0000 -12.0571
#
#
#
# Elastic Compliance Matrix: (Units=1/GPa)
#
#
# Indices 1 2 3 4 5 6 
#
# 1 0.008476 -0.001499 -0.002991 0.000000 0.000808 0.000000
# 2 -0.001499 0.010246 -0.003000 0.000000 -0.001120 0.000000
# 3 -0.002991 -0.003000 0.010456 0.000000 0.000895 0.000000
# 4 0.000000 0.000000 0.000000 0.018864 0.000000 0.033053
# 5 0.000808 -0.001120 0.000895 0.000000 0.028869 0.000000
# 6 0.000000 0.000000 0.000000 0.033053 0.000000 -0.025021
#
#
# Mechanical properties :
#
#
# Convention : Reuss Voigt Hill
#
# Bulk Modulus (GPa) = 70.42414 71.26794 70.84604
# Shear Modulus (GPa) = 69.83061 24.54174 47.18617
#
# Velocity S-wave (km/s) = 6.00109 3.55762 4.93304
# Velocity P-wave (km/s) = 9.18350 7.32325 8.30562
#
# Compressibility (1/GPa) = 0.01419968
#
# Stress axis : x y z
#
# Youngs Moduli (GPa) = 117.97695 97.59477 95.63979
#
# Poissons Ratio (x) = 0.14627 0.28605
# Poissons Ratio (y) = 0.17682 0.28689
# Poissons Ratio (z) = 0.35286 0.29275
#
# Static dielectric constant tensor:
#      x y z
#    x 3.651300 0.000000 0.024530 
#    y 0.000000 3.586110 0.000000 
#    z 0.024530 0.000000 3.382360 
# 
# 
# High freq. dielectric constant tensor:
#      x y z
#    x 1.765870 0.000000 -0.001700 
#    y 0.000000 1.753540 0.000000 
#    z -0.001700 0.000000 1.750270 
# 
# From -- ./inp_files/124330.got.cif
#   From: 2010.06.25/outbox.cif.g09.slc.cpg/sg12_63_cif.got.tgz:124330.got - 2010.06.28 00:19:55.
