data_PCOD8115180
_publ_section_title
;
Structure prediction by ZEFSAII (Michael W. Deem and Ramdas Pophale) SiO2 
 PCOD8115180
Probable space group: C 2/M
;
_chemical_formula_sum "Si O2"
_cell_formula_units_Z 48
_cell_length_a 29.003924
_cell_length_b 18.927974
_cell_length_c 10.139832
_cell_angle_alpha 90.000000
_cell_angle_beta 28.884019
_cell_angle_gamma 90.000000
_cell_volume 2688.890440
_symmetry_space_group_name_H-M "C 2/M"
_symmetry_group_IT_number 12
_symmetry_cell_setting 'monoclinic'
loop_
_space_group_symop_operation_xyz
x,y,z
-x,y,-z
-x,-y,-z
x,-y,z
1/2+x,1/2+y,z
1/2-x,1/2+y,-z
1/2-x,1/2-y,-z
1/2+x,1/2-y,z
loop_
_atom_site_type_symbol
_atom_site_label
_atom_site_fract_x
_atom_site_fract_y
_atom_site_fract_z
Si Si1 0.690594 0.919732 0.424228
Si Si2 0.000000 0.633618 0.500000
Si Si3 0.289049 0.285320 0.271016
Si Si4 0.805072 0.579979 0.892605
Si Si5 0.500000 0.862640 0.000000
Si Si6 0.200969 0.789519 0.242618
Si Si7 0.508940 0.233212 0.229715
O O1 0.760044 0.867155 0.328529
O O2 0.683945 0.896476 0.287709
O O3 0.586921 0.914085 0.748967
O O4 0.727791 0.000000 0.345865
O O5 0.907372 0.585456 0.708050
O O6 0.983091 0.682056 0.667344
O O7 0.250000 0.250000 0.500000
O O8 0.244821 0.238290 0.266927
O O9 0.403398 0.287460 0.981611
O O10 0.768576 0.500000 0.994274
O O11 0.725757 0.627692 0.163840
O O12 0.477411 0.812139 0.935133
O O13 0.087587 0.778709 0.526453
O O14 0.250000 0.750000 0.000000
#
# Coordination Sequence:
#
# PCOD8115180 Si02
#       7
#     8   4   8   8   4   8   8
#     4  11  23  39  58  87 126 158 191 245 307 357
#     4  12  19  36  58  88 117 148 194 258 291 338
#     4  12  22  38  61  88 119 155 201 244 287 355
#     4  11  23  38  58  88 124 158 195 246 304 352
#     4  12  19  40  58  90 119 158 190 244 309 352
#     4  12  20  40  59  83 121 158 196 244 292 344
#     4  12  22  34  64  89 116 149 207 244 286 349
#
# _framework density 17.851227999999999
#
# number of rings (size 3 to 8) (size 9 to 14) (size 15 to 20)
#    0.000    0.333   10.000    0.500    0.000    0.000 
#    0.000    3.333    0.000    2.000    0.000    3.500 
#    0.000    0.000    0.000    0.000    0.000    0.000 
#
# Total GULP energy -297647.870929 kJ/mol
# GULP energy per Si atom -12401.994622 kJ/mol
# Density = 1.781060 g / cm^3
# Si number density = 17.851228 Si / 1000 Ang^3
#
#
#
# Elastic Constant Matrix: (Units=GPa)
#
#
# Indices 1 2 3 4 5 6 
#
# 1 116.6020 52.3296 57.6780 0.0000 7.4971 0.0000
# 2 52.3296 116.0328 51.5929 0.0000 0.1113 0.0000
# 3 57.6780 51.5929 108.5011 0.0000 -14.4279 0.0000
# 4 0.0000 0.0000 0.0000 32.3490 0.0000 -3.1889
# 5 7.4971 0.1113 -14.4279 0.0000 39.9198 0.0000
# 6 0.0000 0.0000 0.0000 -3.1889 0.0000 28.7975
#
#
#
# Elastic Compliance Matrix: (Units=1/GPa)
#
#
# Indices 1 2 3 4 5 6 
#
# 1 0.013429 -0.003293 -0.006206 0.000000 -0.004756 0.000000
# 2 -0.003293 0.011891 -0.004019 0.000000 -0.000867 0.000000
# 3 -0.006206 -0.004019 0.015319 0.000000 0.006713 0.000000
# 4 0.000000 0.000000 0.000000 0.031254 0.000000 0.003461
# 5 -0.004756 -0.000867 0.006713 0.000000 0.028372 0.000000
# 6 0.000000 0.000000 0.000000 0.003461 0.000000 0.035108
#
#
# Mechanical properties :
#
#
# Convention : Reuss Voigt Hill
#
# Bulk Modulus (GPa) = 73.50467 73.81520 73.65994
# Shear Modulus (GPa) = 29.95009 32.18230 31.06620
#
# Velocity S-wave (km/s) = 4.10049 4.25055 4.17620
# Velocity P-wave (km/s) = 7.98025 8.09503 8.03785
#
# Compressibility (1/GPa) = 0.01360458
#
# Stress axis : x y z
#
# Youngs Moduli (GPa) = 74.46402 84.09582 65.27730
#
# Poissons Ratio (x) = 0.27690 0.40508
# Poissons Ratio (y) = 0.24518 0.26237
# Poissons Ratio (z) = 0.46209 0.33801
#
# Static dielectric constant tensor:
#      x y z
#    x 3.556760 0.000000 0.009640 
#    y 0.000000 3.278630 0.000000 
#    z 0.009640 0.000000 3.520710 
# 
# 
# High freq. dielectric constant tensor:
#      x y z
#    x 1.702420 0.000000 0.008220 
#    y 0.000000 1.681690 0.000000 
#    z 0.008220 0.000000 1.694550 
# 
# From -- ./inp_files/89457.got.cif
#   From: 2010.06.25/outbox.cif.g09.slc.cpg/sg12_45_cif.got.tgz:89457.got - 2010.06.28 00:19:55.
