data_PCOD8115135
_publ_section_title
;
Structure prediction by ZEFSAII (Michael W. Deem and Ramdas Pophale) SiO2 
 PCOD8115135
Probable space group: C 2/M
;
_chemical_formula_sum "Si O2"
_cell_formula_units_Z 64
_cell_length_a 27.808683
_cell_length_b 9.352963
_cell_length_c 20.375091
_cell_angle_alpha 90.000000
_cell_angle_beta 52.647346
_cell_angle_gamma 90.000000
_cell_volume 4212.603363
_symmetry_space_group_name_H-M "C 2/M"
_symmetry_group_IT_number 12
_symmetry_cell_setting 'monoclinic'
loop_
_space_group_symop_operation_xyz
x,y,z
-x,y,-z
-x,-y,-z
x,-y,z
1/2+x,1/2+y,z
1/2-x,1/2+y,-z
1/2-x,1/2-y,-z
1/2+x,1/2-y,z
loop_
_atom_site_type_symbol
_atom_site_label
_atom_site_fract_x
_atom_site_fract_y
_atom_site_fract_z
Si Si1 0.647364 0.662172 0.974606
Si Si2 0.780710 0.664729 0.683455
Si Si3 0.807447 0.165552 0.926753
Si Si4 0.070611 0.333530 0.938928
Si Si5 0.714600 0.165804 0.173660
Si Si6 0.359451 0.662047 0.224004
Si Si7 0.202230 0.163965 0.450426
Si Si8 0.182434 0.162829 0.606396
O O1 0.632084 0.500000 0.966547
O O2 0.600313 0.766475 0.979088
O O3 0.714730 0.700544 0.894791
O O4 0.641563 0.679949 0.058688
O O5 0.792893 0.500000 0.659495
O O6 0.803661 0.707064 0.736987
O O7 0.709729 0.700372 0.736369
O O8 0.819291 0.751114 0.596678
O O9 0.826405 0.238482 0.841883
O O10 0.790900 0.000000 0.928920
O O11 0.750000 0.250000 0.000000
O O12 0.085609 0.500000 0.926009
O O13 0.096173 0.266650 0.850893
O O14 0.000000 0.301933 0.000000
O O15 0.701893 0.000000 0.169161
O O16 0.373855 0.500000 0.190205
O O17 0.369333 0.681789 0.294820
O O18 0.158262 0.183629 0.551163
O O19 0.266894 0.220471 0.420637
O O20 0.207674 0.000000 0.425134
O O21 0.208903 0.000000 0.591317
#
# Coordination Sequence:
#
# PCOD8115135 Si02
#       8
#     8   8   8   8   8   8   8   8
#     4   9  17  31  45  56  73 101 133 163 197 240
#     4   9  16  26  38  54  80 107 131 161 192 225
#     4   9  17  27  40  59  79  98 127 162 195 234
#     4  11  23  33  41  58  80  99 128 174 216 242
#     4   9  16  27  41  58  80 105 133 162 193 230
#     4   9  16  29  44  54  69 100 135 165 199 236
#     4   9  15  22  34  54  75  98 129 159 189 227
#     4   8  15  26  37  50  72  98 126 161 195 228
#
# _framework density 15.192505000000001
#
# number of rings (size 3 to 8) (size 9 to 14) (size 15 to 20)
#    0.000    2.875    1.250    2.625    0.000    6.500 
#    0.000    0.000    0.000    0.000    0.000    0.000 
#    0.000    0.000    0.000    1.125    0.000   22.000 
#
# Total GULP energy -396444.009655 kJ/mol
# GULP energy per Si atom -12388.875302 kJ/mol
# Density = 1.515793 g / cm^3
# Si number density = 15.192505 Si / 1000 Ang^3
#
#
#
# Elastic Constant Matrix: (Units=GPa)
#
#
# Indices 1 2 3 4 5 6 
#
# 1 52.0145 43.1237 49.3736 0.0000 24.6130 0.0001
# 2 43.1237 87.5779 56.0124 0.0028 21.2295 -0.0025
# 3 49.3736 56.0124 93.8715 -0.0031 39.7787 0.0015
# 4 0.0000 0.0028 -0.0031 24.6193 0.0014 8.7663
# 5 24.6130 21.2295 39.7787 0.0014 30.2375 -0.0004
# 6 0.0001 -0.0025 0.0015 8.7663 -0.0004 20.9054
#
#
#
# Elastic Compliance Matrix: (Units=1/GPa)
#
#
# Indices 1 2 3 4 5 6 
#
# 1 0.047193 -0.012618 -0.010776 0.000002 -0.015379 -0.000002
# 2 -0.012618 0.022000 -0.009712 -0.000006 0.007601 0.000006
# 3 -0.010776 -0.009712 0.035047 0.000010 -0.030516 -0.000008
# 4 0.000002 -0.000006 0.000010 0.047748 -0.000013 -0.020022
# 5 -0.015379 0.007601 -0.030516 -0.000013 0.080398 0.000010
# 6 -0.000002 0.000006 -0.000008 -0.020022 0.000010 0.056231
#
#
# Mechanical properties :
#
#
# Convention : Reuss Voigt Hill
#
# Bulk Modulus (GPa) = 26.29576 58.94258 42.61917
# Shear Modulus (GPa) = 13.60532 20.81605 17.21068
#
# Velocity S-wave (km/s) = 2.99578 3.70557 3.36942
# Velocity P-wave (km/s) = 5.41408 7.56239 6.57655
#
# Compressibility (1/GPa) = 0.03802895
#
# Stress axis : x y z
#
# Youngs Moduli (GPa) = 21.18976 45.45385 28.53340
#
# Poissons Ratio (x) = 0.57353 0.30747
# Poissons Ratio (y) = 0.26737 0.27711
# Poissons Ratio (z) = 0.22834 0.44143
#
# Static dielectric constant tensor:
#      x y z
#    x 2.787120 0.000000 0.668230 
#    y 0.000000 3.044760 0.000010 
#    z 0.668230 0.000010 3.201790 
# 
# 
# High freq. dielectric constant tensor:
#      x y z
#    x 1.528580 0.000000 0.057530 
#    y 0.000000 1.592850 0.000000 
#    z 0.057530 0.000000 1.568710 
# 
# From -- ./inp_files/323599.got.cif
#   From: 2010.06.25/outbox.cif.g09.slc.cpg/sg12_162_cif.got.tgz:323599.got - 2010.06.28 00:19:55.
