data_PCOD8115138
_publ_section_title
;
Structure prediction by ZEFSAII (Michael W. Deem and Ramdas Pophale) SiO2 
 PCOD8115138
Probable space group: C 2/M
;
_chemical_formula_sum "Si O2"
_cell_formula_units_Z 48
_cell_length_a 27.486344
_cell_length_b 9.181324
_cell_length_c 11.280903
_cell_angle_alpha 90.000000
_cell_angle_beta 79.349984
_cell_angle_gamma 90.000000
_cell_volume 2797.821409
_symmetry_space_group_name_H-M "C 2/M"
_symmetry_group_IT_number 12
_symmetry_cell_setting 'monoclinic'
loop_
_space_group_symop_operation_xyz
x,y,z
-x,y,-z
-x,-y,-z
x,-y,z
1/2+x,1/2+y,z
1/2-x,1/2+y,-z
1/2-x,1/2-y,-z
1/2+x,1/2-y,z
loop_
_atom_site_type_symbol
_atom_site_label
_atom_site_fract_x
_atom_site_fract_y
_atom_site_fract_z
Si Si1 0.453039 0.171549 0.098233
Si Si2 0.256012 0.667955 0.119510
Si Si3 0.666932 0.331265 0.226816
Si Si4 0.427447 0.671940 0.595538
Si Si5 0.636195 0.664167 0.970474
Si Si6 0.472860 0.327753 0.331615
O O1 0.403709 0.219775 0.053124
O O2 0.454354 0.246440 0.224588
O O3 0.451992 0.000000 0.116849
O O4 0.500000 0.221604 0.000000
O O5 0.241514 0.500000 0.108926
O O6 0.217748 0.742138 0.229204
O O7 0.313682 0.682803 0.131189
O O8 0.250000 0.750000 0.000000
O O9 0.678119 0.500000 0.246550
O O10 0.624984 0.267520 0.334085
O O11 0.648046 0.306331 0.102199
O O12 0.428247 0.500000 0.609227
O O13 0.472510 0.729687 0.657099
O O14 0.435351 0.714737 0.455024
O O15 0.615424 0.500000 0.964060
O O16 0.472459 0.500000 0.308394
#
# Coordination Sequence:
#
# PCOD8115138 Si02
#       6
#     8   8   8   8   8   8
#     4  11  23  34  45  67  98 126 153 189 233 277
#     4   9  17  29  45  68  95 122 155 192 232 275
#     4   9  16  28  48  74  99 120 150 191 234 278
#     4   8  15  29  51  75  94 118 155 194 228 270
#     4   9  18  31  48  69  93 124 158 190 224 271
#     4   9  17  32  52  70  92 124 159 191 225 270
#
# _framework density 17.156205
#
# number of rings (size 3 to 8) (size 9 to 14) (size 15 to 20)
#    0.000    2.833    0.000    4.000    0.000    6.000 
#    0.000    3.333    0.000    1.000    0.000    0.000 
#    0.000    0.000    0.000    0.000    0.000    0.000 
#
# Total GULP energy -297472.075223 kJ/mol
# GULP energy per Si atom -12394.669801 kJ/mol
# Density = 1.711716 g / cm^3
# Si number density = 17.156205 Si / 1000 Ang^3
#
#
#
# Elastic Constant Matrix: (Units=GPa)
#
#
# Indices 1 2 3 4 5 6 
#
# 1 104.1178 44.8639 49.3158 0.0000 -30.4494 0.0000
# 2 44.8639 65.6014 32.6118 0.0000 -9.7577 0.0000
# 3 49.3158 32.6118 79.0414 0.0000 -21.9036 0.0000
# 4 0.0000 0.0000 0.0000 18.3753 0.0000 -4.9140
# 5 -30.4494 -9.7577 -21.9036 0.0000 34.3855 0.0000
# 6 0.0000 0.0000 0.0000 -4.9140 0.0000 26.5250
#
#
#
# Elastic Compliance Matrix: (Units=1/GPa)
#
#
# Indices 1 2 3 4 5 6 
#
# 1 0.019132 -0.008841 -0.005209 0.000000 0.011115 0.000000
# 2 -0.008841 0.023270 -0.005373 0.000000 -0.004648 0.000000
# 3 -0.005209 -0.005373 0.019937 0.000000 0.006563 0.000000
# 4 0.000000 0.000000 0.000000 0.057257 0.000000 0.010607
# 5 0.011115 -0.004648 0.006563 0.000000 0.041786 0.000000
# 6 0.000000 0.000000 0.000000 0.010607 0.000000 0.039665
#
#
# Mechanical properties :
#
#
# Convention : Reuss Voigt Hill
#
# Bulk Modulus (GPa) = 42.56669 55.81595 49.19132
# Shear Modulus (GPa) = 20.18376 23.98844 22.08610
#
# Velocity S-wave (km/s) = 3.43369 3.74336 3.59186
# Velocity P-wave (km/s) = 6.37067 7.16158 6.77767
#
# Compressibility (1/GPa) = 0.02349255
#
# Stress axis : x y z
#
# Youngs Moduli (GPa) = 52.26826 42.97466 50.15844
#
# Poissons Ratio (x) = 0.37996 0.26127
# Poissons Ratio (y) = 0.46213 0.26948
# Poissons Ratio (z) = 0.27226 0.23088
#
# Static dielectric constant tensor:
#      x y z
#    x 3.697090 0.000000 -0.594580 
#    y 0.000000 3.112410 0.000000 
#    z -0.594580 0.000000 3.275670 
# 
# 
# High freq. dielectric constant tensor:
#      x y z
#    x 1.662460 0.000000 -0.026200 
#    y 0.000000 1.647640 0.000000 
#    z -0.026200 0.000000 1.640920 
# 
# From -- ./inp_files/172286.got.cif
#   From: 2010.06.25/outbox.cif.g09.slc.cpg/sg12_87_cif.got.tgz:172286.got - 2010.06.28 00:19:55.
