data_PCOD8115561
_publ_section_title
;
Structure prediction by ZEFSAII (Michael W. Deem and Ramdas Pophale) SiO2 
 PCOD8115561
Probable space group: C 2/M
;
_chemical_formula_sum "Si O2"
_cell_formula_units_Z 32
_cell_length_a 10.147821
_cell_length_b 8.763274
_cell_length_c 18.393528
_cell_angle_alpha 90.000000
_cell_angle_beta 73.955070
_cell_angle_gamma 90.000000
_cell_volume 1571.983793
_symmetry_space_group_name_H-M "C 2/M"
_symmetry_group_IT_number 12
_symmetry_cell_setting 'monoclinic'
loop_
_space_group_symop_operation_xyz
x,y,z
-x,y,-z
-x,-y,-z
x,-y,z
1/2+x,1/2+y,z
1/2-x,1/2+y,-z
1/2-x,1/2-y,-z
1/2+x,1/2-y,z
loop_
_atom_site_type_symbol
_atom_site_label
_atom_site_fract_x
_atom_site_fract_y
_atom_site_fract_z
Si Si1 0.289457 0.177306 0.708706
Si Si2 0.607225 0.320113 0.043232
Si Si3 0.009340 0.323058 0.795901
Si Si4 0.843698 0.823981 0.546497
O O1 0.164053 0.267507 0.763165
O O2 0.425630 0.207330 0.734824
O O3 0.319447 0.234689 0.624021
O O4 0.250027 0.000000 0.712542
O O5 0.620251 0.500000 0.040231
O O6 0.563300 0.268723 0.129419
O O7 0.500000 0.261094 0.000000
O O8 0.750000 0.250000 0.000000
O O9 0.009970 0.500000 0.816742
O O10 0.750000 0.750000 0.500000
O O11 0.000000 0.805972 0.500000
O O12 0.802295 0.000000 0.563459
#
# Coordination Sequence:
#
# PCOD8115561 Si02
#       4
#     8   8   8   8
#     4  11  24  41  62  90 123 158 200 249 299 356
#     4  11  24  41  62  90 123 159 202 250 300 357
#     4  11  24  41  63  91 122 159 202 248 301 358
#     4  11  24  41  63  91 122 159 202 247 299 357
#
# _framework density 20.356445000000001
#
# number of rings (size 3 to 8) (size 9 to 14) (size 15 to 20)
#    0.000    1.000    0.000    6.000    0.000   18.000 
#    0.000    0.000    0.000    0.000    0.000    0.000 
#    0.000    0.000    0.000    0.000    0.000    0.000 
#
# Total GULP energy -198519.759726 kJ/mol
# GULP energy per Si atom -12407.484983 kJ/mol
# Density = 2.031011 g / cm^3
# Si number density = 20.356445 Si / 1000 Ang^3
#
#
#
# Elastic Constant Matrix: (Units=GPa)
#
#
# Indices 1 2 3 4 5 6 
#
# 1 102.7756 59.6318 18.6709 0.0000 1.4833 0.0000
# 2 59.6318 52.5498 22.3986 0.0000 19.8224 0.0000
# 3 18.6709 22.3986 107.7014 0.0000 7.2025 0.0000
# 4 0.0000 0.0000 0.0000 42.7031 0.0000 -2.9470
# 5 1.4833 19.8224 7.2025 0.0000 38.5041 0.0000
# 6 0.0000 0.0000 0.0000 -2.9470 0.0000 35.0503
#
#
#
# Elastic Compliance Matrix: (Units=1/GPa)
#
#
# Indices 1 2 3 4 5 6 
#
# 1 0.049280 -0.070192 0.003813 0.000000 0.033524 0.000000
# 2 -0.070192 0.125579 -0.009930 0.000000 -0.060088 0.000000
# 3 0.003813 -0.009930 0.010488 0.000000 0.003003 0.000000
# 4 0.000000 0.000000 0.000000 0.023554 0.000000 0.001980
# 5 0.033524 -0.060088 0.003003 0.000000 0.055052 0.000000
# 6 0.000000 0.000000 0.000000 0.001980 0.000000 0.028697
#
#
# Mechanical properties :
#
#
# Convention : Reuss Voigt Hill
#
# Bulk Modulus (GPa) = 30.55350 51.60326 41.07838
# Shear Modulus (GPa) = 10.96064 34.07317 22.51691
#
# Velocity S-wave (km/s) = 2.32294 4.09568 3.32946
# Velocity P-wave (km/s) = 4.71557 6.91166 5.91640
#
# Compressibility (1/GPa) = 0.03272947
#
# Stress axis : x y z
#
# Youngs Moduli (GPa) = 20.29241 7.96310 95.34482
#
# Poissons Ratio (x) = 0.55894 -0.36353
# Poissons Ratio (y) = 1.42436 0.94678
# Poissons Ratio (z) = -0.07737 0.07907
#
# Static dielectric constant tensor:
#      x y z
#    x 4.669350 0.000000 -0.424390 
#    y 0.000000 3.943770 0.000000 
#    z -0.424390 0.000000 4.051990 
# 
# 
# High freq. dielectric constant tensor:
#      x y z
#    x 1.814680 0.000000 0.001160 
#    y 0.000000 1.813380 0.000000 
#    z 0.001160 0.000000 1.813700 
# 
# From -- ./inp_files/202052.got.cif
#   From: 2010.06.25/outbox.cif.g09.slc.cpg/sg12_102_cif.got.tgz:202052.got - 2010.06.28 00:19:55.
