data_PCOD8115228
_publ_section_title
;
Structure prediction by ZEFSAII (Michael W. Deem and Ramdas Pophale) SiO2 
 PCOD8115228
Probable space group: C 2/M
;
_chemical_formula_sum "Si O2"
_cell_formula_units_Z 48
_cell_length_a 15.473766
_cell_length_b 9.028558
_cell_length_c 17.037473
_cell_angle_alpha 90.000000
_cell_angle_beta 90.085710
_cell_angle_gamma 90.000000
_cell_volume 2380.231027
_symmetry_space_group_name_H-M "C 2/M"
_symmetry_group_IT_number 12
_symmetry_cell_setting 'monoclinic'
loop_
_space_group_symop_operation_xyz
x,y,z
-x,y,-z
-x,-y,-z
x,-y,z
1/2+x,1/2+y,z
1/2-x,1/2+y,-z
1/2-x,1/2-y,-z
1/2+x,1/2-y,z
loop_
_atom_site_type_symbol
_atom_site_label
_atom_site_fract_x
_atom_site_fract_y
_atom_site_fract_z
Si Si1 0.078825 0.674292 0.329993
Si Si2 0.769387 0.176739 0.582424
Si Si3 0.402882 0.161598 0.134055
Si Si4 0.601728 0.160161 0.156650
Si Si5 0.615949 0.824106 0.696287
Si Si6 0.160326 0.172864 0.010270
O O1 0.083176 0.500000 0.350343
O O2 0.136385 0.766487 0.391002
O O3 0.123278 0.707192 0.245506
O O4 0.978879 0.732028 0.333284
O O5 0.750000 0.250000 0.500000
O O6 0.692615 0.231863 0.640272
O O7 0.770772 0.000000 0.575687
O O8 0.500788 0.134251 0.155081
O O9 0.361422 0.230087 0.214088
O O10 0.361053 0.000000 0.112623
O O11 0.400122 0.270687 0.060059
O O12 0.627301 0.287797 0.096579
O O13 0.645410 0.000000 0.135488
O O14 0.611830 0.000000 0.699247
O O15 0.168164 0.000000 0.003055
O O16 0.250000 0.250000 0.000000
#
# Coordination Sequence:
#
# PCOD8115228 Si02
#       6
#     8   8   8   8   8   8
#     4   9  19  39  64  88 115 151 194 239 288 346
#     4  11  23  39  60  89 120 153 193 237 291 348
#     4   9  18  37  61  82 108 147 190 235 286 344
#     4   9  19  37  60  83 111 147 187 232 290 347
#     4   8  18  38  63  86 114 155 195 231 287 358
#     4  12  25  36  50  78 115 153 194 238 284 333
#
# _framework density 20.16611
#
# number of rings (size 3 to 8) (size 9 to 14) (size 15 to 20)
#    0.000    2.333    0.000    4.500    2.333    4.000 
#    0.000    8.333    0.000    0.000    0.000    0.000 
#    0.000    0.000    0.000    0.000    0.000    0.000 
#
# Total GULP energy -297428.295324 kJ/mol
# GULP energy per Si atom -12392.845638 kJ/mol
# Density = 2.012021 g / cm^3
# Si number density = 20.166110 Si / 1000 Ang^3
#
#
#
# Elastic Constant Matrix: (Units=GPa)
#
#
# Indices 1 2 3 4 5 6 
#
# 1 46.8466 12.3071 5.8401 0.0000 -0.3769 0.0000
# 2 12.3071 92.9130 33.2154 0.0000 3.4629 0.0000
# 3 5.8401 33.2154 75.9363 0.0000 4.4798 0.0000
# 4 0.0000 0.0000 0.0000 23.6976 0.0000 -1.4046
# 5 -0.3769 3.4629 4.4798 0.0000 36.4562 0.0000
# 6 0.0000 0.0000 0.0000 -1.4046 0.0000 26.9874
#
#
#
# Elastic Compliance Matrix: (Units=1/GPa)
#
#
# Indices 1 2 3 4 5 6 
#
# 1 0.022143 -0.002766 -0.000526 0.000000 0.000556 0.000000
# 2 -0.002766 0.013113 -0.005488 0.000000 -0.000600 0.000000
# 3 -0.000526 -0.005488 0.015693 0.000000 -0.001413 0.000000
# 4 0.000000 0.000000 0.000000 0.042329 0.000000 0.002203
# 5 0.000556 -0.000600 -0.001413 0.000000 0.027666 0.000000
# 6 0.000000 0.000000 0.000000 0.002203 0.000000 0.037169
#
#
# Mechanical properties :
#
#
# Convention : Reuss Voigt Hill
#
# Bulk Modulus (GPa) = 29.94883 35.38012 32.66448
# Shear Modulus (GPa) = 26.76617 28.38379 27.57498
#
# Velocity S-wave (km/s) = 3.64714 3.75574 3.70184
# Velocity P-wave (km/s) = 5.71129 6.03240 5.87404
#
# Compressibility (1/GPa) = 0.03339028
#
# Stress axis : x y z
#
# Youngs Moduli (GPa) = 45.16122 76.25853 63.72199
#
# Poissons Ratio (x) = 0.21091 0.03352
# Poissons Ratio (y) = 0.12490 0.34969
# Poissons Ratio (z) = 0.02376 0.41849
#
# Static dielectric constant tensor:
#      x y z
#    x 3.667710 0.000000 -0.034750 
#    y 0.000000 3.342800 0.000000 
#    z -0.034750 0.000000 3.255370 
# 
# 
# High freq. dielectric constant tensor:
#      x y z
#    x 1.785170 0.000000 0.002010 
#    y 0.000000 1.764890 0.000000 
#    z 0.002010 0.000000 1.794920 
# 
# From -- ./inp_files/267703.got.cif
#   From: 2010.06.25/outbox.cif.g09.slc.cpg/sg12_134_cif.got.tgz:267703.got - 2010.06.28 00:19:55.
