data_PCOD8115606
_publ_section_title
;
Structure prediction by ZEFSAII (Michael W. Deem and Ramdas Pophale) SiO2 
 PCOD8115606
Probable space group: C 2/M
;
_chemical_formula_sum "Si O2"
_cell_formula_units_Z 64
_cell_length_a 17.462887
_cell_length_b 14.881473
_cell_length_c 19.536664
_cell_angle_alpha 90.000000
_cell_angle_beta 142.470143
_cell_angle_gamma 90.000000
_cell_volume 3092.817374
_symmetry_space_group_name_H-M "C 2/M"
_symmetry_group_IT_number 12
_symmetry_cell_setting 'monoclinic'
loop_
_space_group_symop_operation_xyz
x,y,z
-x,y,-z
-x,-y,-z
x,-y,z
1/2+x,1/2+y,z
1/2-x,1/2+y,-z
1/2-x,1/2-y,-z
1/2+x,1/2-y,z
loop_
_atom_site_type_symbol
_atom_site_label
_atom_site_fract_x
_atom_site_fract_y
_atom_site_fract_z
Si Si1 0.330856 0.758094 0.245047
Si Si2 0.077012 0.772276 0.123954
Si Si3 0.504910 0.101532 0.857446
Si Si4 0.786863 0.147490 0.530905
Si Si5 0.484245 0.900113 0.687228
Si Si6 0.735659 0.672533 0.935410
Si Si7 0.971714 0.103449 0.784220
Si Si8 0.500858 0.399074 0.581447
O O1 0.225770 0.794348 0.222907
O O2 0.431279 0.835210 0.299250
O O3 0.246967 0.726393 0.122262
O O4 0.399677 0.670964 0.321136
O O5 0.026601 0.838929 0.145843
O O6 0.063745 0.668847 0.139152
O O7 0.000000 0.790164 0.000000
O O8 0.480752 0.135820 0.762718
O O9 0.453018 0.000000 0.831182
O O10 0.653890 0.100452 0.977161
O O11 0.750000 0.250000 0.500000
O O12 0.656903 0.092941 0.441882
O O13 0.863294 0.130802 0.654502
O O14 0.864705 0.118727 0.518782
O O15 0.543937 0.000000 0.727312
O O16 0.604409 0.620199 0.841742
O O17 0.750000 0.750000 0.000000
O O18 0.956637 0.000000 0.793875
O O19 0.500000 0.387315 0.500000
O O20 0.543259 0.500000 0.631388
#
# Coordination Sequence:
#
# PCOD8115606 Si02
#       8
#     8   8   8   8   8   8   8   8
#     4  12  24  42  68  93 135 181 218 274 339 398
#     4  12  26  45  64  94 141 181 223 278 340 406
#     4  11  24  42  68 100 134 177 224 280 344 407
#     4  12  23  45  73 100 136 177 223 279 336 399
#     4  11  24  43  69 101 132 173 228 279 330 399
#     4  12  20  43  69  97 133 173 227 282 332 395
#     4  12  26  44  72 104 134 178 234 283 333 403
#     4  11  26  44  67 101 136 173 218 274 341 406
#
# _framework density 20.693107000000001
#
# number of rings (size 3 to 8) (size 9 to 14) (size 15 to 20)
#    0.000    0.375    6.250    2.250    3.500    2.000 
#    0.000    0.000    0.000    1.875    0.000    0.000 
#    0.000    0.000    0.000    0.000    0.000    0.000 
#
# Total GULP energy -396851.383232 kJ/mol
# GULP energy per Si atom -12401.605726 kJ/mol
# Density = 2.064601 g / cm^3
# Si number density = 20.693107 Si / 1000 Ang^3
#
#
#
# Elastic Constant Matrix: (Units=GPa)
#
#
# Indices 1 2 3 4 5 6 
#
# 1 110.1372 33.3175 42.4040 0.0000 6.3674 0.0000
# 2 33.3175 112.3083 31.9590 0.0000 -9.1755 0.0000
# 3 42.4040 31.9590 111.9056 0.0000 8.3705 0.0000
# 4 0.0000 0.0000 0.0000 29.4564 0.0000 -1.3230
# 5 6.3674 -9.1755 8.3705 0.0000 36.3189 0.0000
# 6 0.0000 0.0000 0.0000 -1.3230 0.0000 18.7077
#
#
#
# Elastic Compliance Matrix: (Units=1/GPa)
#
#
# Indices 1 2 3 4 5 6 
#
# 1 0.011260 -0.002519 -0.003411 0.000000 -0.001824 0.000000
# 2 -0.002519 0.010620 -0.002353 0.000000 0.003667 0.000000
# 3 -0.003411 -0.002353 0.011092 0.000000 -0.002553 0.000000
# 4 0.000000 0.000000 0.000000 0.034057 0.000000 0.002408
# 5 -0.001824 0.003667 -0.002553 0.000000 0.029368 0.000000
# 6 0.000000 0.000000 0.000000 0.002408 0.000000 0.053624
#
#
# Mechanical properties :
#
#
# Convention : Reuss Voigt Hill
#
# Bulk Modulus (GPa) = 60.95066 61.07911 61.01488
# Shear Modulus (GPa) = 29.06029 32.00798 30.53414
#
# Velocity S-wave (km/s) = 3.75153 3.93720 3.84548
# Velocity P-wave (km/s) = 6.94865 7.08868 7.01902
#
# Compressibility (1/GPa) = 0.01640671
#
# Stress axis : x y z
#
# Youngs Moduli (GPa) = 88.80749 94.15785 90.15889
#
# Poissons Ratio (x) = 0.23717 0.30753
# Poissons Ratio (y) = 0.22370 0.21213
# Poissons Ratio (z) = 0.30292 0.22154
#
# Static dielectric constant tensor:
#      x y z
#    x 4.635360 0.000000 0.912200 
#    y 0.000000 3.785560 0.000000 
#    z 0.912200 0.000000 4.569580 
# 
# 
# High freq. dielectric constant tensor:
#      x y z
#    x 1.808890 0.000000 0.003140 
#    y 0.000000 1.817910 0.000000 
#    z 0.003140 0.000000 1.820610 
# 
# From -- ./inp_files/278211.got.cif
#   From: 2010.06.25/outbox.cif.g09.slc.cpg/sg12_140_cif.got.tgz:278211.got - 2010.06.28 00:19:55.
