data_PCOD8115198
_publ_section_title
;
Structure prediction by ZEFSAII (Michael W. Deem and Ramdas Pophale) SiO2 
 PCOD8115198
Probable space group: C 2/M
;
_chemical_formula_sum "Si O2"
_cell_formula_units_Z 56
_cell_length_a 31.259445
_cell_length_b 8.661739
_cell_length_c 11.783543
_cell_angle_alpha 90.000000
_cell_angle_beta 58.548197
_cell_angle_gamma 90.000000
_cell_volume 2721.771706
_symmetry_space_group_name_H-M "C 2/M"
_symmetry_group_IT_number 12
_symmetry_cell_setting 'monoclinic'
loop_
_space_group_symop_operation_xyz
x,y,z
-x,y,-z
-x,-y,-z
x,-y,z
1/2+x,1/2+y,z
1/2-x,1/2+y,-z
1/2-x,1/2-y,-z
1/2+x,1/2-y,z
loop_
_atom_site_type_symbol
_atom_site_label
_atom_site_fract_x
_atom_site_fract_y
_atom_site_fract_z
Si Si1 0.069214 0.182140 0.136552
Si Si2 0.101906 0.182415 0.627265
Si Si3 0.788780 0.321226 0.533164
Si Si4 0.327970 0.318510 0.907735
Si Si5 0.481767 0.817706 0.401418
Si Si6 0.736121 0.177279 0.179376
Si Si7 0.559250 0.175798 0.915441
O O1 0.116947 0.244947 0.140714
O O2 0.021392 0.272078 0.250162
O O3 0.060157 0.000000 0.161786
O O4 0.079905 0.223391 0.991075
O O5 0.159536 0.229366 0.537633
O O6 0.071471 0.242010 0.558714
O O7 0.079075 0.254288 0.771885
O O8 0.097280 0.000000 0.640210
O O9 0.799296 0.500000 0.490664
O O10 0.750000 0.250000 0.500000
O O11 0.761409 0.299647 0.690672
O O12 0.330308 0.500000 0.913969
O O13 0.312169 0.266483 0.803778
O O14 0.287211 0.253856 0.054703
O O15 0.500000 0.757871 0.500000
O O16 0.474526 0.000000 0.412224
O O17 0.729573 0.000000 0.153751
O O18 0.578210 0.000000 0.900280
O O19 0.500000 0.184640 0.000000
#
# Coordination Sequence:
#
# PCOD8115198 Si02
#       7
#     8   8   8   8   8   8   8
#     4  11  23  38  63  96 128 163 207 259 316 379
#     4  12  26  44  68  94 127 169 213 267 325 382
#     4  11  25  44  66  94 128 169 217 265 318 381
#     4   9  20  38  61  92 124 157 202 256 310 370
#     4  11  25  44  65  92 130 171 215 264 317 383
#     4   9  20  40  63  87 121 163 206 255 310 369
#     4  11  23  41  65  92 125 162 207 258 310 374
#
# _framework density 20.574833999999999
#
# number of rings (size 3 to 8) (size 9 to 14) (size 15 to 20)
#    0.000    1.429    1.429    3.000    4.000    4.000 
#    0.000    0.000    0.000    0.000    0.000    0.000 
#    0.000    0.000    0.000    0.000    0.000    0.000 
#
# Total GULP energy -347292.586361 kJ/mol
# GULP energy per Si atom -12403.306656 kJ/mol
# Density = 2.052800 g / cm^3
# Si number density = 20.574834 Si / 1000 Ang^3
#
#
#
# Elastic Constant Matrix: (Units=GPa)
#
#
# Indices 1 2 3 4 5 6 
#
# 1 139.6507 18.7798 24.4105 0.0000 -1.7644 0.0000
# 2 18.7798 44.1383 12.6909 0.0000 -8.7523 0.0000
# 3 24.4105 12.6909 65.0114 0.0000 5.6938 0.0000
# 4 0.0000 0.0000 0.0000 31.6393 0.0000 3.9947
# 5 -1.7644 -8.7523 5.6938 0.0000 32.6723 0.0000
# 6 0.0000 0.0000 0.0000 3.9947 0.0000 35.7508
#
#
#
# Elastic Compliance Matrix: (Units=1/GPa)
#
#
# Indices 1 2 3 4 5 6 
#
# 1 0.007952 -0.002638 -0.002484 0.000000 0.000156 0.000000
# 2 -0.002638 0.026757 -0.004923 0.000000 0.007883 0.000000
# 3 -0.002484 -0.004923 0.017673 0.000000 -0.004533 0.000000
# 4 0.000000 0.000000 0.000000 0.032059 0.000000 -0.003582
# 5 0.000156 0.007883 -0.004533 0.000000 0.033517 0.000000
# 6 0.000000 0.000000 0.000000 -0.003582 0.000000 0.028372
#
#
# Mechanical properties :
#
#
# Convention : Reuss Voigt Hill
#
# Bulk Modulus (GPa) = 30.96886 40.06253 35.51569
# Shear Modulus (GPa) = 28.21929 32.87376 30.54653
#
# Velocity S-wave (km/s) = 3.70745 4.00154 3.85730
# Velocity P-wave (km/s) = 5.78026 6.39247 6.09406
#
# Compressibility (1/GPa) = 0.03229050
#
# Stress axis : x y z
#
# Youngs Moduli (GPa) = 125.75915 37.37308 56.58410
#
# Poissons Ratio (x) = 0.09859 0.14058
# Poissons Ratio (y) = 0.33176 0.27857
# Poissons Ratio (z) = 0.31243 0.18400
#
# Static dielectric constant tensor:
#      x y z
#    x 4.026860 0.000000 -0.086040 
#    y 0.000000 3.767900 0.000000 
#    z -0.086040 0.000000 4.181030 
# 
# 
# High freq. dielectric constant tensor:
#      x y z
#    x 1.817380 0.000000 0.003740 
#    y 0.000000 1.807480 0.000000 
#    z 0.003740 0.000000 1.806950 
# 
# From -- ./inp_files/187254.got.cif
#   From: 2010.06.25/outbox.cif.g09.slc.cpg/sg12_94_cif.got.tgz:187254.got - 2010.06.28 00:19:55.
