data_PCOD8115121
_publ_section_title
;
Structure prediction by ZEFSAII (Michael W. Deem and Ramdas Pophale) SiO2 
 PCOD8115121
Probable space group: C 2/M
;
_chemical_formula_sum "Si O2"
_cell_formula_units_Z 40
_cell_length_a 9.262756
_cell_length_b 21.593747
_cell_length_c 16.605876
_cell_angle_alpha 90.000000
_cell_angle_beta 32.120843
_cell_angle_gamma 90.000000
_cell_volume 1766.046620
_symmetry_space_group_name_H-M "C 2/M"
_symmetry_group_IT_number 12
_symmetry_cell_setting 'monoclinic'
loop_
_space_group_symop_operation_xyz
x,y,z
-x,y,-z
-x,-y,-z
x,-y,z
1/2+x,1/2+y,z
1/2-x,1/2+y,-z
1/2-x,1/2-y,-z
1/2+x,1/2-y,z
loop_
_atom_site_type_symbol
_atom_site_label
_atom_site_fract_x
_atom_site_fract_y
_atom_site_fract_z
Si Si1 0.175485 0.500000 0.249524
Si Si2 0.534792 0.131012 0.891060
Si Si3 0.680801 0.000000 0.060679
Si Si4 0.108291 0.630238 0.332895
Si Si5 0.089986 0.827003 0.664209
Si Si6 0.301726 0.792293 0.858966
O O1 0.036861 0.557969 0.359767
O O2 0.099482 0.500000 0.192038
O O3 0.499510 0.500000 0.106365
O O4 0.372931 0.181100 0.913448
O O5 0.856034 0.139646 0.722403
O O6 0.447719 0.060735 0.918519
O O7 0.500000 0.150555 0.000000
O O8 0.358948 0.636490 0.276409
O O9 0.201423 0.649945 0.200385
O O10 0.857992 0.671691 0.482394
O O11 0.018088 0.756967 0.723661
O O12 0.000000 0.763069 0.000000
#
# Coordination Sequence:
#
# PCOD8115121 Si02
#       6
#     4   8   4   8   8   8
#     4  11  22  44  73  99 135 184 226 275 347 409
#     4  12  25  42  70 108 140 176 230 286 334 404
#     4  11  23  43  71 106 138 173 227 286 338 406
#     4  11  25  46  69  99 140 186 225 278 344 412
#     4  11  26  43  66  99 139 182 232 279 336 399
#     4  12  24  44  71 100 141 184 225 280 344 407
#
# _framework density 22.649457999999999
#
# number of rings (size 3 to 8) (size 9 to 14) (size 15 to 20)
#    0.000    0.600    2.000    6.300    0.000    8.000 
#    0.000    1.000    0.000    0.000    0.000    0.000 
#    0.000    0.000    0.000    0.000    0.000    0.000 
#
# Total GULP energy -248071.173046 kJ/mol
# GULP energy per Si atom -12403.558652 kJ/mol
# Density = 2.259791 g / cm^3
# Si number density = 22.649458 Si / 1000 Ang^3
#
#
#
# Elastic Constant Matrix: (Units=GPa)
#
#
# Indices 1 2 3 4 5 6 
#
# 1 151.5615 42.2947 48.6888 0.0046 -1.9879 -0.0029
# 2 42.2947 146.3923 44.1052 0.0131 1.3202 0.0060
# 3 48.6888 44.1052 79.8622 0.0812 -7.4774 0.0915
# 4 0.0046 0.0131 0.0812 35.5842 0.0327 -1.0702
# 5 -1.9879 1.3202 -7.4774 0.0327 35.6614 0.0118
# 6 -0.0029 0.0060 0.0915 -1.0702 0.0118 39.6292
#
#
#
# Elastic Compliance Matrix: (Units=1/GPa)
#
#
# Indices 1 2 3 4 5 6 
#
# 1 0.008345 -0.001033 -0.004559 0.000010 -0.000453 0.000012
# 2 -0.001033 0.008380 -0.004113 0.000008 -0.001230 0.000009
# 3 -0.004559 -0.004113 0.017915 -0.000043 0.003655 -0.000043
# 4 0.000010 0.000008 -0.000043 0.028125 -0.000035 0.000760
# 5 -0.000453 -0.001230 0.003655 -0.000035 0.028828 -0.000018
# 6 0.000012 0.000009 -0.000043 0.000760 -0.000018 0.025255
#
#
# Mechanical properties :
#
#
# Convention : Reuss Voigt Hill
#
# Bulk Modulus (GPa) = 65.66727 71.99929 68.83328
# Shear Modulus (GPa) = 35.37674 38.35677 36.86676
#
# Velocity S-wave (km/s) = 3.95641 4.11968 4.03887
# Velocity P-wave (km/s) = 7.06588 7.38150 7.22541
#
# Compressibility (1/GPa) = 0.01522829
#
# Stress axis : x y z
#
# Youngs Moduli (GPa) = 119.83091 119.33478 55.81891
#
# Poissons Ratio (x) = 0.12330 0.25450
# Poissons Ratio (y) = 0.12382 0.22959
# Poissons Ratio (z) = 0.54636 0.49084
#
# Static dielectric constant tensor:
#      x y z
#    x 4.417610 -0.000100 -0.184610 
#    y -0.000100 3.987520 0.000140 
#    z -0.184610 0.000140 3.925940 
# 
# 
# High freq. dielectric constant tensor:
#      x y z
#    x 1.909910 0.000000 -0.001160 
#    y 0.000000 1.904120 0.000010 
#    z -0.001160 0.000010 1.884650 
# 
# From -- ./inp_files/259650.got.cif
#   From: 2010.06.25/outbox.cif.g09.slc.cpg/sg12_130_cif.got.tgz:259650.got - 2010.06.28 00:19:55.
