data_PCOD8115666
_publ_section_title
;
Structure prediction by ZEFSAII (Michael W. Deem and Ramdas Pophale) SiO2 
 PCOD8115666
Probable space group: C 2/M
;
_chemical_formula_sum "Si O2"
_cell_formula_units_Z 28
_cell_length_a 9.984826
_cell_length_b 18.223399
_cell_length_c 13.307824
_cell_angle_alpha 90.000000
_cell_angle_beta 154.066816
_cell_angle_gamma 90.000000
_cell_volume 1058.958563
_symmetry_space_group_name_H-M "C 2/M"
_symmetry_group_IT_number 12
_symmetry_cell_setting 'monoclinic'
loop_
_space_group_symop_operation_xyz
x,y,z
-x,y,-z
-x,-y,-z
x,-y,z
1/2+x,1/2+y,z
1/2-x,1/2+y,-z
1/2-x,1/2-y,-z
1/2+x,1/2-y,z
loop_
_atom_site_type_symbol
_atom_site_label
_atom_site_fract_x
_atom_site_fract_y
_atom_site_fract_z
Si Si1 0.353474 0.000000 0.749403
Si Si2 0.684657 0.160331 0.723548
Si Si3 0.151569 0.500000 0.741324
Si Si4 0.986717 0.776486 0.243043
Si Si5 0.000000 0.378943 0.000000
O O1 0.475948 0.072623 0.884727
O O2 0.000000 0.000000 0.500000
O O3 0.463882 0.000000 0.713567
O O4 0.435414 0.207217 0.626575
O O5 0.737277 0.189158 0.641423
O O6 0.573685 0.076270 0.632851
O O7 0.000000 0.166587 0.000000
O O8 0.500000 0.500000 0.000000
O O9 0.809940 0.832687 0.196871
O O10 0.750000 0.750000 0.000000
#
# Coordination Sequence:
#
# PCOD8115666 Si02
#       5
#     4   8   4   8   4
#     4  11  27  45  72 110 147 196 248 311 365 447
#     4  12  27  44  73 107 146 185 249 307 367 434
#     4  12  26  49  73 100 150 200 247 297 381 443
#     4  12  23  46  73 103 141 193 240 296 371 448
#     4  11  24  44  74 101 150 190 246 299 380 436
#
# _framework density 26.441071000000001
#
# number of rings (size 3 to 8) (size 9 to 14) (size 15 to 20)
#    0.000    0.286    2.857    6.429    4.000    2.286 
#    0.000    0.000    0.000    0.000    0.000    0.000 
#    0.000    0.000    0.000    0.000    0.000    0.000 
#
# Total GULP energy -173559.742652 kJ/mol
# GULP energy per Si atom -12397.124475 kJ/mol
# Density = 2.638089 g / cm^3
# Si number density = 26.441071 Si / 1000 Ang^3
#
#
#
# Elastic Constant Matrix: (Units=GPa)
#
#
# Indices 1 2 3 4 5 6 
#
# 1 220.5193 98.3256 88.3229 -0.0002 2.5620 -0.0005
# 2 98.3256 223.6498 64.4953 -0.0018 -2.7793 -0.0007
# 3 88.3229 64.4953 104.4594 0.0085 -18.5130 -0.0014
# 4 -0.0002 -0.0018 0.0085 29.6544 0.0040 -0.9828
# 5 2.5620 -2.7793 -18.5130 0.0040 73.8011 -0.0006
# 6 -0.0005 -0.0007 -0.0014 -0.9828 -0.0006 57.3341
#
#
#
# Elastic Compliance Matrix: (Units=1/GPa)
#
#
# Indices 1 2 3 4 5 6 
#
# 1 0.007594 -0.001727 -0.005665 0.000002 -0.001750 0.000000
# 2 -0.001727 0.005864 -0.002209 0.000001 -0.000273 0.000000
# 3 -0.005665 -0.002209 0.016479 -0.000005 0.004247 0.000000
# 4 0.000002 0.000001 -0.000005 0.033741 -0.000003 0.000578
# 5 -0.001750 -0.000273 0.004247 -0.000003 0.014666 0.000000
# 6 0.000000 0.000000 0.000000 0.000578 0.000000 0.017452
#
#
# Mechanical properties :
#
#
# Convention : Reuss Voigt Hill
#
# Bulk Modulus (GPa) = 93.14200 116.76845 104.95522
# Shear Modulus (GPa) = 42.16725 51.99024 47.07874
#
# Velocity S-wave (km/s) = 3.99778 4.43907 4.22419
# Velocity P-wave (km/s) = 7.52412 8.39830 7.97320
#
# Compressibility (1/GPa) = 0.01073630
#
# Stress axis : x y z
#
# Youngs Moduli (GPa) = 131.68545 170.53042 60.68175
#
# Poissons Ratio (x) = 0.29446 0.34375
# Poissons Ratio (y) = 0.22739 0.13405
# Poissons Ratio (z) = 0.74596 0.37671
#
# Static dielectric constant tensor:
#      x y z
#    x 5.662440 -0.000060 0.629020 
#    y -0.000060 6.134110 -0.000050 
#    z 0.629020 -0.000050 6.148730 
# 
# 
# High freq. dielectric constant tensor:
#      x y z
#    x 2.094340 0.000000 -0.009340 
#    y 0.000000 2.069920 0.000000 
#    z -0.009340 0.000000 2.128650 
# 
# From -- ./inp_files/120601.got.cif
#   From: 2010.06.25/outbox.cif.g09.slc.cpg/sg12_61_cif.got.tgz:120601.got - 2010.06.28 00:19:55.
