data_PCOD8115757
_publ_section_title
;
Structure prediction by ZEFSAII (Michael W. Deem and Ramdas Pophale) SiO2 
 PCOD8115757
Probable space group: C 2/M
;
_chemical_formula_sum "Si O2"
_cell_formula_units_Z 32
_cell_length_a 8.038265
_cell_length_b 22.373622
_cell_length_c 12.247137
_cell_angle_alpha 90.000000
_cell_angle_beta 36.000064
_cell_angle_gamma 90.000000
_cell_volume 1294.650505
_symmetry_space_group_name_H-M "C 2/M"
_symmetry_group_IT_number 12
_symmetry_cell_setting 'monoclinic'
loop_
_space_group_symop_operation_xyz
x,y,z
-x,y,-z
-x,-y,-z
x,-y,z
1/2+x,1/2+y,z
1/2-x,1/2+y,-z
1/2-x,1/2-y,-z
1/2+x,1/2-y,z
loop_
_atom_site_type_symbol
_atom_site_label
_atom_site_fract_x
_atom_site_fract_y
_atom_site_fract_z
Si Si1 0.320720 0.867923 0.366031
Si Si2 0.310331 0.067931 0.995080
Si Si3 0.870753 0.157320 0.310808
Si Si4 0.807611 0.265690 0.786457
O O1 0.505311 0.919461 0.210986
O O2 0.326678 0.877196 0.495747
O O3 0.469840 0.804149 0.257193
O O4 0.000000 0.872546 0.500000
O O5 0.202949 0.000000 0.046672
O O6 0.500000 0.079820 0.000000
O O7 0.037312 0.110771 0.145863
O O8 0.691685 0.203129 0.332043
O O9 0.085528 0.197374 0.272056
O O10 0.500000 0.269131 0.000000
#
# Coordination Sequence:
#
# PCOD8115757 Si02
#       4
#     8   8   8   8
#     4  12  25  44  72 106 146 187 236 291 356 428
#     4  11  25  47  75 105 142 190 243 298 352 419
#     4  12  25  46  71 110 146 188 236 292 358 429
#     4  12  25  44  74 106 153 189 229 290 367 431
#
# _framework density 24.717096999999999
#
# number of rings (size 3 to 8) (size 9 to 14) (size 15 to 20)
#    0.000    0.250    5.000    4.500    0.000    1.500 
#    0.000    2.500    0.000    3.000    0.000    0.000 
#    0.000    0.000    0.000    0.000    0.000    0.000 
#
# Total GULP energy -198390.227108 kJ/mol
# GULP energy per Si atom -12399.389194 kJ/mol
# Density = 2.466084 g / cm^3
# Si number density = 24.717097 Si / 1000 Ang^3
#
#
#
# Elastic Constant Matrix: (Units=GPa)
#
#
# Indices 1 2 3 4 5 6 
#
# 1 75.2507 34.3968 33.7342 0.0000 27.4353 0.0000
# 2 34.3968 135.9963 46.9462 0.0000 2.2376 0.0000
# 3 33.7342 46.9462 150.7101 0.0000 17.3989 0.0000
# 4 0.0000 0.0000 0.0000 31.3583 0.0000 9.7346
# 5 27.4353 2.2376 17.3989 0.0000 43.9494 0.0000
# 6 0.0000 0.0000 0.0000 9.7346 0.0000 22.3358
#
#
#
# Elastic Compliance Matrix: (Units=1/GPa)
#
#
# Indices 1 2 3 4 5 6 
#
# 1 0.020390 -0.004322 -0.001859 0.000000 -0.011772 0.000000
# 2 -0.004322 0.009172 -0.002250 0.000000 0.003122 0.000000
# 3 -0.001859 -0.002250 0.007969 0.000000 -0.001880 0.000000
# 4 0.000000 0.000000 0.000000 0.036879 0.000000 -0.016073
# 5 -0.011772 0.003122 -0.001880 0.000000 0.030688 0.000000
# 6 0.000000 0.000000 0.000000 -0.016073 0.000000 0.051776
#
#
# Mechanical properties :
#
#
# Convention : Reuss Voigt Hill
#
# Bulk Modulus (GPa) = 48.37998 65.79017 57.08508
# Shear Modulus (GPa) = 27.68185 35.98734 31.83460
#
# Velocity S-wave (km/s) = 3.35019 3.81986 3.59271
# Velocity P-wave (km/s) = 5.88056 6.79192 6.35260
#
# Compressibility (1/GPa) = 0.02066971
#
# Stress axis : x y z
#
# Youngs Moduli (GPa) = 49.04462 109.03289 125.48330
#
# Poissons Ratio (x) = 0.47121 0.23323
# Poissons Ratio (y) = 0.21196 0.28233
# Poissons Ratio (z) = 0.09116 0.24532
#
# Static dielectric constant tensor:
#      x y z
#    x 4.923540 0.000000 0.101540 
#    y 0.000000 4.300770 0.000000 
#    z 0.101540 0.000000 4.680900 
# 
# 
# High freq. dielectric constant tensor:
#      x y z
#    x 1.991640 0.000000 0.001800 
#    y 0.000000 1.950850 0.000000 
#    z 0.001800 0.000000 2.008810 
# 
# From -- ./inp_files/160562.got.cif
#   From: 2010.06.25/outbox.cif.g09.slc.cpg/sg12_81_cif.got.tgz:160562.got - 2010.06.28 00:19:55.
