data_PCOD8115505
_publ_section_title
;
Structure prediction by ZEFSAII (Michael W. Deem and Ramdas Pophale) SiO2 
 PCOD8115505
Probable space group: C 2/M
;
_chemical_formula_sum "Si O2"
_cell_formula_units_Z 28
_cell_length_a 8.090032
_cell_length_b 12.782494
_cell_length_c 12.027939
_cell_angle_alpha 90.000000
_cell_angle_beta 116.820281
_cell_angle_gamma 90.000000
_cell_volume 1110.016281
_symmetry_space_group_name_H-M "C 2/M"
_symmetry_group_IT_number 12
_symmetry_cell_setting 'monoclinic'
loop_
_space_group_symop_operation_xyz
x,y,z
-x,y,-z
-x,-y,-z
x,-y,z
1/2+x,1/2+y,z
1/2-x,1/2+y,-z
1/2-x,1/2-y,-z
1/2+x,1/2-y,z
loop_
_atom_site_type_symbol
_atom_site_label
_atom_site_fract_x
_atom_site_fract_y
_atom_site_fract_z
Si Si1 0.217112 0.000000 0.678055
Si Si2 0.633037 0.617639 0.144880
Si Si3 0.971152 0.695018 0.737710
Si Si4 0.500000 0.838396 0.500000
Si Si5 0.693241 0.500000 0.409417
O O1 0.326442 0.107936 0.737912
O O2 0.191523 0.000000 0.540254
O O3 0.025701 0.000000 0.690000
O O4 0.647315 0.500000 0.203859
O O5 0.556242 0.694427 0.213906
O O6 0.832442 0.652012 0.162692
O O7 0.500000 0.613377 0.000000
O O8 0.955765 0.724298 0.600262
O O9 0.316495 0.901381 0.405785
#
# Coordination Sequence:
#
# PCOD8115505 Si02
#       5
#     4   8   8   4   4
#     4   9  18  38  72 107 145 190 250 292 362 436
#     4  11  26  50  76 103 147 196 252 308 361 425
#     4  11  23  46  74 109 147 194 241 304 367 441
#     4   9  20  38  73 108 156 188 237 293 370 450
#     4   8  16  34  66 109 150 200 228 289 361 448
#
# _framework density 25.224855999999999
#
# number of rings (size 3 to 8) (size 9 to 14) (size 15 to 20)
#    0.000    2.000    1.429    1.714    0.000    3.429 
#    2.571    4.286    0.000    0.000    0.000    0.000 
#    0.000    0.000    0.000    0.000    0.000    0.000 
#
# Total GULP energy -173550.218741 kJ/mol
# GULP energy per Si atom -12396.444196 kJ/mol
# Density = 2.516744 g / cm^3
# Si number density = 25.224856 Si / 1000 Ang^3
#
#
#
# Elastic Constant Matrix: (Units=GPa)
#
#
# Indices 1 2 3 4 5 6 
#
# 1 183.7201 90.1896 68.3301 0.0000 31.3962 0.0000
# 2 90.1896 198.4370 82.2971 0.0000 -3.5750 0.0000
# 3 68.3301 82.2971 111.8622 0.0000 18.3133 0.0000
# 4 0.0000 0.0000 0.0000 58.1752 0.0000 -14.4662
# 5 31.3962 -3.5750 18.3133 0.0000 48.8694 0.0000
# 6 0.0000 0.0000 0.0000 -14.4662 0.0000 107.4758
#
#
#
# Elastic Compliance Matrix: (Units=1/GPa)
#
#
# Indices 1 2 3 4 5 6 
#
# 1 0.008622 -0.003109 -0.002169 0.000000 -0.004954 0.000000
# 2 -0.003109 0.008722 -0.005273 0.000000 0.004611 0.000000
# 3 -0.002169 -0.005273 0.014892 0.000000 -0.004573 0.000000
# 4 0.000000 0.000000 0.000000 0.017785 0.000000 0.002394
# 5 -0.004954 0.004611 -0.004573 0.000000 0.025697 0.000000
# 6 0.000000 0.000000 0.000000 0.002394 0.000000 0.009627
#
#
# Mechanical properties :
#
#
# Convention : Reuss Voigt Hill
#
# Bulk Modulus (GPa) = 89.79794 108.40587 99.10191
# Shear Modulus (GPa) = 45.38952 59.78425 52.58689
#
# Velocity S-wave (km/s) = 4.24653 4.87360 4.57083
# Velocity P-wave (km/s) = 7.72789 8.64514 8.19935
#
# Compressibility (1/GPa) = 0.01113611
#
# Stress axis : x y z
#
# Youngs Moduli (GPa) = 115.97722 114.65038 67.14862
#
# Poissons Ratio (x) = 0.35641 0.14563
# Poissons Ratio (y) = 0.36053 0.35407
# Poissons Ratio (z) = 0.25153 0.60454
#
# Static dielectric constant tensor:
#      x y z
#    x 5.389350 0.000000 0.292820 
#    y 0.000000 4.690990 0.000000 
#    z 0.292820 0.000000 4.638530 
# 
# 
# High freq. dielectric constant tensor:
#      x y z
#    x 2.027490 0.000000 0.014270 
#    y 0.000000 2.012770 0.000000 
#    z 0.014270 0.000000 2.012440 
# 
# From -- ./inp_files/193536.got.cif
#   From: 2010.06.25/outbox.cif.g09.slc.cpg/sg12_97_cif.got.tgz:193536.got - 2010.06.28 00:19:55.
