data_PCOD8115786
_publ_section_title
;
Structure prediction by ZEFSAII (Michael W. Deem and Ramdas Pophale) SiO2 
 PCOD8115786
Probable space group: C 2/M
;
_chemical_formula_sum "Si O2"
_cell_formula_units_Z 36
_cell_length_a 7.800489
_cell_length_b 26.542286
_cell_length_c 13.328253
_cell_angle_alpha 90.000000
_cell_angle_beta 36.382197
_cell_angle_gamma 90.000000
_cell_volume 1636.860437
_symmetry_space_group_name_H-M "C 2/M"
_symmetry_group_IT_number 12
_symmetry_cell_setting 'monoclinic'
loop_
_space_group_symop_operation_xyz
x,y,z
-x,y,-z
-x,-y,-z
x,-y,z
1/2+x,1/2+y,z
1/2-x,1/2+y,-z
1/2-x,1/2-y,-z
1/2+x,1/2-y,z
loop_
_atom_site_type_symbol
_atom_site_label
_atom_site_fract_x
_atom_site_fract_y
_atom_site_fract_z
Si Si1 0.319185 0.359576 0.391145
Si Si2 0.015676 0.322226 0.711148
Si Si3 0.177619 0.058676 0.122748
Si Si4 0.000000 0.895076 0.000000
Si Si5 0.751910 0.278686 0.193975
O O1 0.286278 0.348171 0.525921
O O2 0.452127 0.414000 0.303768
O O3 0.532197 0.317532 0.243149
O O4 0.000000 0.353904 0.500000
O O5 0.109463 0.306632 0.777300
O O6 0.755291 0.361608 0.835315
O O7 0.914965 0.272355 0.697541
O O8 0.118232 0.070345 0.034277
O O9 0.135293 0.000000 0.162874
O O10 0.500000 0.076416 0.000000
O O11 0.000000 0.263198 0.000000
#
# Coordination Sequence:
#
# PCOD8115786 Si02
#       5
#     8   8   8   4   8
#     4  12  24  44  67 101 141 183 235 287 352 411
#     4  12  25  41  68 102 146 189 236 283 348 421
#     4  11  26  50  78 104 138 183 237 301 363 425
#     4  12  23  46  72 108 142 184 235 290 360 426
#     4  12  25  43  68 100 146 194 237 283 344 424
#
# _framework density 21.993323
#
# number of rings (size 3 to 8) (size 9 to 14) (size 15 to 20)
#    0.000    0.222    3.333    7.000    0.000    0.444 
#    0.000    0.000    0.000    5.333    0.000    0.000 
#    0.000    0.000    0.000    0.000    0.000    0.000 
#
# Total GULP energy -223254.727051 kJ/mol
# GULP energy per Si atom -12403.040392 kJ/mol
# Density = 2.194327 g / cm^3
# Si number density = 21.993323 Si / 1000 Ang^3
#
#
#
# Elastic Constant Matrix: (Units=GPa)
#
#
# Indices 1 2 3 4 5 6 
#
# 1 135.1559 39.6609 35.9674 0.0000 -6.4903 0.0000
# 2 39.6609 109.1793 53.9414 0.0000 -7.0752 0.0000
# 3 35.9674 53.9414 115.8939 0.0000 -1.7866 0.0000
# 4 0.0000 0.0000 0.0000 41.0681 0.0000 -0.8696
# 5 -6.4903 -7.0752 -1.7866 0.0000 39.8232 0.0000
# 6 0.0000 0.0000 0.0000 -0.8696 0.0000 31.1569
#
#
#
# Elastic Compliance Matrix: (Units=1/GPa)
#
#
# Indices 1 2 3 4 5 6 
#
# 1 0.008526 -0.002256 -0.001582 0.000000 0.000918 0.000000
# 2 -0.002256 0.012632 -0.005154 0.000000 0.001645 0.000000
# 3 -0.001582 -0.005154 0.011508 0.000000 -0.000657 0.000000
# 4 0.000000 0.000000 0.000000 0.024364 0.000000 0.000680
# 5 0.000918 0.001645 -0.000657 0.000000 0.025523 0.000000
# 6 0.000000 0.000000 0.000000 0.000680 0.000000 0.032115
#
#
# Mechanical properties :
#
#
# Convention : Reuss Voigt Hill
#
# Bulk Modulus (GPa) = 68.10867 68.81872 68.46369
# Shear Modulus (GPa) = 36.35166 37.78694 37.06930
#
# Velocity S-wave (km/s) = 4.06994 4.14951 4.10991
# Velocity P-wave (km/s) = 7.28841 7.36997 7.32931
#
# Compressibility (1/GPa) = 0.01468242
#
# Stress axis : x y z
#
# Youngs Moduli (GPa) = 117.28910 79.16577 86.89560
#
# Poissons Ratio (x) = 0.17862 0.13744
# Poissons Ratio (y) = 0.26463 0.44783
# Poissons Ratio (z) = 0.18552 0.40800
#
# Static dielectric constant tensor:
#      x y z
#    x 4.180290 0.000000 -0.086200 
#    y 0.000000 3.886640 0.000000 
#    z -0.086200 0.000000 4.380600 
# 
# 
# High freq. dielectric constant tensor:
#      x y z
#    x 1.881420 0.000000 -0.010890 
#    y 0.000000 1.856470 0.000000 
#    z -0.010890 0.000000 1.877280 
# 
# From -- ./inp_files/200078.got.cif
#   From: 2010.06.25/outbox.cif.g09.slc.cpg/sg12_101_cif.got.tgz:200078.got - 2010.06.28 00:19:55.
