data_PCOD8115410
_publ_section_title
;
Structure prediction by ZEFSAII (Michael W. Deem and Ramdas Pophale) SiO2 
 PCOD8115410
Probable space group: C 2/M
;
_chemical_formula_sum "Si O2"
_cell_formula_units_Z 40
_cell_length_a 8.801512
_cell_length_b 19.390482
_cell_length_c 13.665430
_cell_angle_alpha 90.000000
_cell_angle_beta 130.647961
_cell_angle_gamma 90.000000
_cell_volume 1769.515318
_symmetry_space_group_name_H-M "C 2/M"
_symmetry_group_IT_number 12
_symmetry_cell_setting 'monoclinic'
loop_
_space_group_symop_operation_xyz
x,y,z
-x,y,-z
-x,-y,-z
x,-y,z
1/2+x,1/2+y,z
1/2-x,1/2+y,-z
1/2-x,1/2-y,-z
1/2+x,1/2-y,z
loop_
_atom_site_type_symbol
_atom_site_label
_atom_site_fract_x
_atom_site_fract_y
_atom_site_fract_z
Si Si1 0.631616 0.617106 0.192225
Si Si2 0.057354 0.378255 0.286507
Si Si3 0.867303 0.500000 0.810740
Si Si4 0.675328 0.500000 0.932400
Si Si5 0.784868 0.577178 0.455684
Si Si6 0.478051 0.233751 0.095909
O O1 0.837367 0.593733 0.225702
O O2 0.448443 0.567388 0.083034
O O3 0.643267 0.612541 0.315241
O O4 0.599749 0.695198 0.145646
O O5 0.048322 0.308240 0.220292
O O6 0.174087 0.432356 0.268996
O O7 0.196435 0.372088 0.441997
O O8 0.704281 0.500000 0.827914
O O9 0.102043 0.500000 0.934388
O O10 0.705697 0.500000 0.450301
O O11 0.000000 0.567664 0.500000
O O12 0.500000 0.194030 0.000000
O O13 0.250000 0.250000 0.000000
#
# Coordination Sequence:
#
# PCOD8115410 Si02
#       6
#     8   8   4   4   8   8
#     4  11  23  43  68  94 126 176 216 263 319 389
#     4  11  23  42  69  93 130 173 214 263 326 379
#     4  11  25  38  61  98 132 168 212 271 327 371
#     4  11  25  38  63  96 133 165 219 267 319 389
#     4   9  18  39  67  98 127 161 217 270 313 380
#     4  12  26  43  64  93 132 173 218 266 319 384
#
# _framework density 22.605059000000001
#
# number of rings (size 3 to 8) (size 9 to 14) (size 15 to 20)
#    0.000    1.200    4.000    1.800    5.600    1.600 
#    0.000    2.000    0.000    0.000    0.000    0.000 
#    0.000    0.000    0.000    0.000    0.000    0.000 
#
# Total GULP energy -247848.838259 kJ/mol
# GULP energy per Si atom -12392.441913 kJ/mol
# Density = 2.255361 g / cm^3
# Si number density = 22.605059 Si / 1000 Ang^3
#
#
#
# Elastic Constant Matrix: (Units=GPa)
#
#
# Indices 1 2 3 4 5 6 
#
# 1 71.5449 8.3697 -2.5583 0.0000 -21.2120 0.0000
# 2 8.3697 93.9645 15.6109 0.0000 -20.6171 0.0000
# 3 -2.5583 15.6109 86.2431 0.0000 -30.8493 0.0000
# 4 0.0000 0.0000 0.0000 42.4815 0.0000 -13.9705
# 5 -21.2120 -20.6171 -30.8493 0.0000 38.4755 0.0000
# 6 0.0000 0.0000 0.0000 -13.9705 0.0000 27.2841
#
#
#
# Elastic Compliance Matrix: (Units=1/GPa)
#
#
# Indices 1 2 3 4 5 6 
#
# 1 0.018693 0.000742 0.005957 0.000000 0.015480 0.000000
# 2 0.000742 0.012092 0.000417 0.000000 0.007222 0.000000
# 3 0.005957 0.000417 0.018159 0.000000 0.018068 0.000000
# 4 0.000000 0.000000 0.000000 0.028306 0.000000 0.014494
# 5 0.015480 0.007222 0.018068 0.000000 0.052881 0.000000
# 6 0.000000 0.000000 0.000000 0.014494 0.000000 0.044073
#
#
# Mechanical properties :
#
#
# Convention : Reuss Voigt Hill
#
# Bulk Modulus (GPa) = 15.82895 32.73299 24.28097
# Shear Modulus (GPa) = 27.61961 37.00358 32.31160
#
# Velocity S-wave (km/s) = 3.49927 4.05033 3.78484
# Velocity P-wave (km/s) = 4.83157 6.03203 5.46486
#
# Compressibility (1/GPa) = 0.06317538
#
# Stress axis : x y z
#
# Youngs Moduli (GPa) = 53.49607 82.70122 55.06854
#
# Poissons Ratio (x) = -0.06134 -0.32806
# Poissons Ratio (y) = -0.03968 -0.02295
# Poissons Ratio (z) = -0.31869 -0.03446
#
# Static dielectric constant tensor:
#      x y z
#    x 3.224610 0.000000 -0.632280 
#    y 0.000000 3.188730 0.000000 
#    z -0.632280 0.000000 4.160130 
# 
# 
# High freq. dielectric constant tensor:
#      x y z
#    x 1.892720 0.000000 -0.019220 
#    y 0.000000 1.867580 0.000000 
#    z -0.019220 0.000000 1.900030 
# 
# From -- ./inp_files/196805.got.cif
#   From: 2010.06.25/outbox.cif.g09.slc.cpg/sg12_99_cif.got.tgz:196805.got - 2010.06.28 00:19:55.
