data_PCOD8115755
_publ_section_title
;
Structure prediction by ZEFSAII (Michael W. Deem and Ramdas Pophale) SiO2 
 PCOD8115755
Probable space group: C 2/M
;
_chemical_formula_sum "Si O2"
_cell_formula_units_Z 32
_cell_length_a 14.473313
_cell_length_b 16.687120
_cell_length_c 11.344902
_cell_angle_alpha 90.000000
_cell_angle_beta 150.899322
_cell_angle_gamma 90.000000
_cell_volume 1332.585828
_symmetry_space_group_name_H-M "C 2/M"
_symmetry_group_IT_number 12
_symmetry_cell_setting 'monoclinic'
loop_
_space_group_symop_operation_xyz
x,y,z
-x,y,-z
-x,-y,-z
x,-y,z
1/2+x,1/2+y,z
1/2-x,1/2+y,-z
1/2-x,1/2-y,-z
1/2+x,1/2-y,z
loop_
_atom_site_type_symbol
_atom_site_label
_atom_site_fract_x
_atom_site_fract_y
_atom_site_fract_z
Si Si1 0.217995 0.808437 0.247661
Si Si2 0.129702 0.589851 0.377985
Si Si3 0.099346 0.856502 0.499951
Si Si4 0.728632 0.405436 0.026232
O O1 0.244332 0.854604 0.398839
O O2 0.354082 0.731955 0.401644
O O3 0.278064 0.866563 0.207384
O O4 0.000000 0.781067 0.000000
O O5 0.165240 0.500000 0.460346
O O6 0.206345 0.601916 0.329504
O O7 0.906385 0.609724 0.136926
O O8 0.000000 0.902738 0.500000
O O9 0.948889 0.857977 0.225423
O O10 0.683444 0.500000 0.990970
#
# Coordination Sequence:
#
# PCOD8115755 Si02
#       4
#     8   8   8   8
#     4  12  26  44  76 107 142 183 237 294 352 412
#     4  11  25  47  74 105 141 184 237 291 350 418
#     4  12  28  45  71 104 148 186 234 286 353 417
#     4  11  26  49  76 104 139 185 236 293 353 413
#
# _framework density 24.013463000000002
#
# number of rings (size 3 to 8) (size 9 to 14) (size 15 to 20)
#    0.000    0.500    2.500    4.500    3.500    7.000 
#    0.000    2.500    0.000    0.000    0.000    0.000 
#    0.000    0.000    0.000    0.000    0.000    0.000 
#
# Total GULP energy -198414.546803 kJ/mol
# GULP energy per Si atom -12400.909175 kJ/mol
# Density = 2.395881 g / cm^3
# Si number density = 24.013463 Si / 1000 Ang^3
#
#
#
# Elastic Constant Matrix: (Units=GPa)
#
#
# Indices 1 2 3 4 5 6 
#
# 1 169.9330 33.6008 32.9418 -0.0003 36.1700 0.0001
# 2 33.6008 98.5123 66.5616 0.0000 11.5317 0.0000
# 3 32.9418 66.5616 99.0187 -0.0009 20.8960 0.0004
# 4 -0.0003 0.0000 -0.0009-9236.0223 -0.0006 4380.2025
# 5 36.1700 11.5317 20.8960 -0.0006 35.9593 0.0003
# 6 0.0001 0.0000 0.0004 4380.2025 0.0003-2042.9354
#
#
#
# Elastic Compliance Matrix: (Units=1/GPa)
#
#
# Indices 1 2 3 4 5 6 
#
# 1 0.007790 -0.002005 0.000312 0.000000 -0.007374 0.000000
# 2 -0.002005 0.019184 -0.012943 0.000000 0.003386 0.000000
# 3 0.000312 -0.012943 0.020386 0.000000 -0.008010 0.000000
# 4 0.000000 0.000000 0.000000 0.006433 0.000000 0.013793
# 5 -0.007374 0.003386 -0.008010 0.000000 0.038795 0.000000
# 6 0.000000 0.000000 0.000000 0.013793 0.000000 0.029083
#
#
# Mechanical properties :
#
#
# Convention : Reuss Voigt Hill
#
# Bulk Modulus (GPa) = 55.28358 70.40805 62.84581
# Shear Modulus (GPa) = 31.85285 -2232.97569 -1100.56142
#
# Velocity S-wave (km/s) = 3.64601 -30.52710 -21.43140
# Velocity P-wave (km/s) = 6.38721 34.83036 24.21113
#
# Compressibility (1/GPa) = 0.01808855
#
# Stress axis : x y z
#
# Youngs Moduli (GPa) = 128.36671 52.12761 49.05326
#
# Poissons Ratio (x) = 0.10451 -0.01532
# Poissons Ratio (y) = 0.25735 0.63490
# Poissons Ratio (z) = -0.04008 0.67469
#
# Static dielectric constant tensor:
#      x y z
#    x 4.665480 0.000000 0.226730 
#    y 0.000000 4.207990 0.000000 
#    z 0.226730 0.000000 4.210090 
# 
# 
# High freq. dielectric constant tensor:
#      x y z
#    x 1.979000 0.000000 0.022790 
#    y 0.000000 1.941440 0.000000 
#    z 0.022790 0.000000 1.951500 
# 
# From -- ./inp_files/130745.got.cif
#   From: 2010.06.25/outbox.cif.g09.slc.cpg/sg12_66_cif.got.tgz:130745.got - 2010.06.28 00:19:55.
