data_PCOD8115256
_publ_section_title
;
Structure prediction by ZEFSAII (Michael W. Deem and Ramdas Pophale) SiO2 
 PCOD8115256
Probable space group: C 2/M
;
_chemical_formula_sum "Si O2"
_cell_formula_units_Z 48
_cell_length_a 29.147108
_cell_length_b 8.698949
_cell_length_c 14.493285
_cell_angle_alpha 90.000000
_cell_angle_beta 38.900324
_cell_angle_gamma 90.000000
_cell_volume 2307.630265
_symmetry_space_group_name_H-M "C 2/M"
_symmetry_group_IT_number 12
_symmetry_cell_setting 'monoclinic'
loop_
_space_group_symop_operation_xyz
x,y,z
-x,y,-z
-x,-y,-z
x,-y,z
1/2+x,1/2+y,z
1/2-x,1/2+y,-z
1/2-x,1/2-y,-z
1/2+x,1/2-y,z
loop_
_atom_site_type_symbol
_atom_site_label
_atom_site_fract_x
_atom_site_fract_y
_atom_site_fract_z
Si Si1 0.708366 0.320896 0.478494
Si Si2 0.472876 0.820569 0.645222
Si Si3 0.552631 0.179556 0.998739
Si Si4 0.319031 0.683238 0.944871
Si Si5 0.697715 0.320290 0.817885
Si Si6 0.456492 0.320422 0.299228
O O1 0.723322 0.500000 0.457635
O O2 0.750000 0.250000 0.500000
O O3 0.733977 0.257588 0.339471
O O4 0.622751 0.281748 0.617733
O O5 0.500000 0.791316 0.500000
O O6 0.534026 0.733875 0.610540
O O7 0.470434 0.000000 0.673522
O O8 0.392595 0.750404 0.785918
O O9 0.516568 0.221761 0.151829
O O10 0.570261 0.000000 0.966244
O O11 0.500000 0.234789 0.000000
O O12 0.626865 0.273550 0.869838
O O13 0.320863 0.500000 0.934348
O O14 0.310702 0.737230 0.064077
O O15 0.250000 0.750000 0.000000
O O16 0.710020 0.500000 0.794120
O O17 0.474887 0.500000 0.261592
#
# Coordination Sequence:
#
# PCOD8115256 Si02
#       6
#     8   8   8   8   8   8
#     4  11  25  43  65  95 131 173 218 266 321 382
#     4  11  25  44  68  98 130 167 213 266 323 385
#     4  11  23  39  64  95 126 166 212 261 318 380
#     4  11  25  44  68  98 131 170 215 265 322 384
#     4  11  24  42  65  94 129 169 214 265 319 380
#     4  11  24  42  64  94 129 168 213 263 320 382
#
# _framework density 20.800560000000001
#
# number of rings (size 3 to 8) (size 9 to 14) (size 15 to 20)
#    0.000    1.000    1.667    4.000    2.333   10.000 
#    0.000    0.000    0.000    0.000    0.000    0.000 
#    0.000    0.000    0.000    0.000    0.000    0.000 
#
# Total GULP energy -297721.502477 kJ/mol
# GULP energy per Si atom -12405.062603 kJ/mol
# Density = 2.075322 g / cm^3
# Si number density = 20.800560 Si / 1000 Ang^3
#
#
#
# Elastic Constant Matrix: (Units=GPa)
#
#
# Indices 1 2 3 4 5 6 
#
# 1 114.7803 36.1276 21.9191 0.0000 -7.9372 0.0000
# 2 36.1276 66.2086 37.6044 0.0007 -7.9787 -0.0001
# 3 21.9191 37.6044 91.0438 0.0001 4.5530 0.0000
# 4 0.0000 0.0007 0.0001 35.4337 0.0001 -1.1234
# 5 -7.9372 -7.9787 4.5530 0.0001 29.5494 0.0000
# 6 0.0000 -0.0001 0.0000 -1.1234 0.0000 37.3755
#
#
#
# Elastic Compliance Matrix: (Units=1/GPa)
#
#
# Indices 1 2 3 4 5 6 
#
# 1 0.010580 -0.005369 -0.000402 0.000000 0.001454 0.000000
# 2 -0.005369 0.023839 -0.008872 0.000000 0.006362 0.000000
# 3 -0.000402 -0.008872 0.014986 0.000000 -0.004813 0.000000
# 4 0.000000 0.000000 0.000000 0.028249 0.000000 0.000849
# 5 0.001454 0.006362 -0.004813 0.000000 0.036691 0.000000
# 6 0.000000 0.000000 0.000000 0.000849 0.000000 0.026781
#
#
# Mechanical properties :
#
#
# Convention : Reuss Voigt Hill
#
# Bulk Modulus (GPa) = 49.70714 51.48167 50.59441
# Shear Modulus (GPa) = 28.22972 32.23047 30.23010
#
# Velocity S-wave (km/s) = 3.68796 3.94064 3.81639
# Velocity P-wave (km/s) = 6.48719 6.74602 6.61787
#
# Compressibility (1/GPa) = 0.02011783
#
# Stress axis : x y z
#
# Youngs Moduli (GPa) = 94.52108 41.94758 66.73067
#
# Poissons Ratio (x) = 0.22523 0.02683
# Poissons Ratio (y) = 0.50752 0.59203
# Poissons Ratio (z) = 0.03800 0.37216
#
# Static dielectric constant tensor:
#      x y z
#    x 4.068980 0.000000 -0.217180 
#    y 0.000000 3.832070 0.000010 
#    z -0.217180 0.000010 3.688110 
# 
# 
# High freq. dielectric constant tensor:
#      x y z
#    x 1.827410 0.000000 0.000350 
#    y 0.000000 1.825610 0.000000 
#    z 0.000350 0.000000 1.824260 
# 
# From -- ./inp_files/244663.got.cif
#   From: 2010.06.25/outbox.cif.g09.slc.cpg/sg12_123_cif.got.tgz:244663.got - 2010.06.28 00:19:55.
