data_PCOD8115908
_publ_section_title
;
Structure prediction by ZEFSAII (Michael W. Deem and Ramdas Pophale) SiO2 
 PCOD8115908
Probable space group: C 2/M
;
_chemical_formula_sum "Si O2"
_cell_formula_units_Z 40
_cell_length_a 10.238526
_cell_length_b 14.835091
_cell_length_c 31.208133
_cell_angle_alpha 90.000000
_cell_angle_beta 153.882217
_cell_angle_gamma 90.000000
_cell_volume 2086.714864
_symmetry_space_group_name_H-M "C 2/M"
_symmetry_group_IT_number 12
_symmetry_cell_setting 'monoclinic'
loop_
_space_group_symop_operation_xyz
x,y,z
-x,y,-z
-x,-y,-z
x,-y,z
1/2+x,1/2+y,z
1/2-x,1/2+y,-z
1/2-x,1/2-y,-z
1/2+x,1/2-y,z
loop_
_atom_site_type_symbol
_atom_site_label
_atom_site_fract_x
_atom_site_fract_y
_atom_site_fract_z
Si Si1 0.912974 0.895988 0.796747
Si Si2 0.194636 0.745694 0.933796
Si Si3 0.313409 0.892709 0.576465
Si Si4 0.793449 0.103519 0.207216
Si Si5 0.905657 0.607046 0.426628
O O1 0.577586 0.864867 0.686646
O O2 0.037657 0.838037 0.872707
O O3 0.124099 0.880854 0.818065
O O4 0.918373 0.000000 0.812760
O O5 0.985506 0.661973 0.860775
O O6 0.500000 0.728606 0.000000
O O7 0.250000 0.750000 0.000000
O O8 0.382116 0.855792 0.548853
O O9 0.000000 0.851636 0.500000
O O10 0.299224 0.000000 0.570676
O O11 0.067359 0.133994 0.317613
O O12 0.711373 0.000000 0.191335
O O13 0.935040 0.500000 0.436440
O O14 0.000000 0.649900 0.500000
#
# Coordination Sequence:
#
# PCOD8115908 Si02
#       5
#     8   8   8   8   8
#     4   9  19  38  62  83 110 153 191 220 275 348
#     4  12  24  40  60  83 111 144 189 246 287 324
#     4   8  14  28  52  81 110 140 179 223 263 319
#     4   9  19  38  61  83 113 151 187 225 278 341
#     4   8  14  28  52  80 110 144 177 215 270 330
#
# _framework density 19.168885
#
# number of rings (size 3 to 8) (size 9 to 14) (size 15 to 20)
#    0.000    2.800    2.000    2.400    0.000    1.600 
#    3.600    1.000    0.000    4.800    0.000    0.000 
#    0.000    0.000    0.000    0.000    0.000    0.000 
#
# Total GULP energy -247957.821914 kJ/mol
# GULP energy per Si atom -12397.891096 kJ/mol
# Density = 1.912526 g / cm^3
# Si number density = 19.168885 Si / 1000 Ang^3
#
#
#
# Elastic Constant Matrix: (Units=GPa)
#
#
# Indices 1 2 3 4 5 6 
#
# 1 131.9887 45.4555 102.6270 -0.0013 -3.0478 -0.0001
# 2 45.4555 67.1001 58.9265 -0.0007 1.8239 0.0002
# 3 102.6270 58.9265 155.4497 -0.0045 4.4229 0.0000
# 4 -0.0013 -0.0007 -0.0045 11.6632 -0.0002 1.7578
# 5 -3.0478 1.8239 4.4229 -0.0002 45.0265 -0.0004
# 6 -0.0001 0.0002 0.0000 1.7578 -0.0004 19.0800
#
#
#
# Elastic Compliance Matrix: (Units=1/GPa)
#
#
# Indices 1 2 3 4 5 6 
#
# 1 0.016006 -0.002350 -0.009737 -0.000002 0.002135 0.000000
# 2 -0.002350 0.022685 -0.007037 -0.000002 -0.000387 0.000000
# 3 -0.009737 -0.007037 0.015583 0.000004 -0.001905 0.000000
# 4 -0.000002 -0.000002 0.000004 0.086947 0.000000 -0.008010
# 5 0.002135 -0.000387 -0.001905 0.000000 0.022556 0.000001
# 6 0.000000 0.000000 0.000000 -0.008010 0.000001 0.053149
#
#
# Mechanical properties :
#
#
# Convention : Reuss Voigt Hill
#
# Bulk Modulus (GPa) = 62.39690 85.39514 73.89602
# Shear Modulus (GPa) = 19.19266 24.98925 22.09095
#
# Velocity S-wave (km/s) = 3.16767 3.61451 3.39844
# Velocity P-wave (km/s) = 6.78238 7.87814 7.35071
#
# Compressibility (1/GPa) = 0.01602644
#
# Stress axis : x y z
#
# Youngs Moduli (GPa) = 62.47685 44.08150 64.17306
#
# Poissons Ratio (x) = 0.10359 0.62485
# Poissons Ratio (y) = 0.14682 0.45157
# Poissons Ratio (z) = 0.60833 0.31019
#
# Static dielectric constant tensor:
#      x y z
#    x 3.644970 0.000000 -0.012030 
#    y 0.000000 3.186260 0.000000 
#    z -0.012030 0.000000 3.711300 
# 
# 
# High freq. dielectric constant tensor:
#      x y z
#    x 1.734990 0.000000 -0.000500 
#    y 0.000000 1.724600 0.000000 
#    z -0.000500 0.000000 1.755480 
# 
# From -- ./inp_files/129154.got.cif
#   From: 2010.06.25/outbox.cif.g09.slc.cpg/sg12_65_cif.got.tgz:129154.got - 2010.06.28 00:19:55.
