data_PCOD8115421
_publ_section_title
;
Structure prediction by ZEFSAII (Michael W. Deem and Ramdas Pophale) SiO2 
 PCOD8115421
Probable space group: C 2/M
;
_chemical_formula_sum "Si O2"
_cell_formula_units_Z 48
_cell_length_a 9.612434
_cell_length_b 27.207908
_cell_length_c 8.311089
_cell_angle_alpha 90.000000
_cell_angle_beta 82.635346
_cell_angle_gamma 90.000000
_cell_volume 2155.702627
_symmetry_space_group_name_H-M "C 2/M"
_symmetry_group_IT_number 12
_symmetry_cell_setting 'monoclinic'
loop_
_space_group_symop_operation_xyz
x,y,z
-x,y,-z
-x,-y,-z
x,-y,z
1/2+x,1/2+y,z
1/2-x,1/2+y,-z
1/2-x,1/2-y,-z
1/2+x,1/2-y,z
loop_
_atom_site_type_symbol
_atom_site_label
_atom_site_fract_x
_atom_site_fract_y
_atom_site_fract_z
Si Si1 0.185380 0.608884 0.623813
Si Si2 0.040684 0.206400 0.812587
Si Si3 0.251593 0.219171 0.335448
Si Si4 0.937206 0.945542 0.687188
Si Si5 0.060040 0.556772 0.167695
Si Si6 0.192463 0.893304 0.737321
O O1 0.176252 0.667241 0.641008
O O2 0.304146 0.589581 0.728527
O O3 0.226958 0.593085 0.438522
O O4 0.040743 0.582570 0.687759
O O5 0.904405 0.213556 0.717928
O O6 0.139350 0.254452 0.800980
O O7 0.141759 0.162919 0.735360
O O8 0.000000 0.194120 0.000000
O O9 0.250000 0.250000 0.500000
O O10 0.000000 0.942326 0.500000
O O11 0.056758 0.926931 0.789524
O O12 0.888916 0.000000 0.740875
O O13 0.088758 0.500000 0.214462
O O14 0.200438 0.590398 0.139153
O O15 0.000000 0.559250 0.000000
#
# Coordination Sequence:
#
# PCOD8115421 Si02
#       6
#     8   8   8   8   8   8
#     4  11  23  42  71 101 137 181 238 291 352 415
#     4  12  28  47  70 106 143 186 234 294 362 433
#     4  12  26  46  75 103 143 187 238 299 356 425
#     4   9  18  35  64 100 133 168 220 287 345 403
#     4  11  27  46  67 103 148 191 236 288 354 424
#     4  11  23  42  71 101 138 183 233 292 344 420
#
# _framework density 22.266521000000001
#
# number of rings (size 3 to 8) (size 9 to 14) (size 15 to 20)
#    0.000    1.000    3.333    2.500    4.667    4.667 
#    0.000    0.000    0.000    4.000    0.000    0.000 
#    0.000    0.000    0.000    0.000    0.000    0.000 
#
# Total GULP energy -297569.809222 kJ/mol
# GULP energy per Si atom -12398.742051 kJ/mol
# Density = 2.221584 g / cm^3
# Si number density = 22.266521 Si / 1000 Ang^3
#
#
#
# Elastic Constant Matrix: (Units=GPa)
#
#
# Indices 1 2 3 4 5 6 
#
# 1 142.8337 55.5829 27.5846 0.0000 27.1861 0.0000
# 2 55.5829 144.6913 15.8602 0.0000 10.6474 0.0000
# 3 27.5846 15.8602 61.8310 0.0000 7.7335 0.0000
# 4 0.0000 0.0000 0.0000 15.9212 0.0000 2.9692
# 5 27.1861 10.6474 7.7335 0.0000 33.2545 0.0000
# 6 0.0000 0.0000 0.0000 2.9692 0.0000 48.4410
#
#
#
# Elastic Compliance Matrix: (Units=1/GPa)
#
#
# Indices 1 2 3 4 5 6 
#
# 1 0.009976 -0.003040 -0.002856 0.000000 -0.006518 0.000000
# 2 -0.003040 0.008157 -0.000742 0.000000 0.000046 0.000000
# 3 -0.002856 -0.000742 0.017834 0.000000 -0.001575 0.000000
# 4 0.000000 0.000000 0.000000 0.063536 0.000000 -0.003894
# 5 -0.006518 0.000046 -0.001575 0.000000 0.035752 0.000000
# 6 0.000000 0.000000 0.000000 -0.003894 0.000000 0.020882
#
#
# Mechanical properties :
#
#
# Convention : Reuss Voigt Hill
#
# Bulk Modulus (GPa) = 44.06657 60.82349 52.44503
# Shear Modulus (GPa) = 28.25241 36.21191 32.23216
#
# Velocity S-wave (km/s) = 3.56593 4.03711 3.80881
# Velocity P-wave (km/s) = 6.06530 7.00760 6.55341
#
# Compressibility (1/GPa) = 0.02269294
#
# Stress axis : x y z
#
# Youngs Moduli (GPa) = 100.23891 122.59570 56.07119
#
# Poissons Ratio (x) = 0.37265 0.16012
# Poissons Ratio (y) = 0.30469 0.04160
# Poissons Ratio (z) = 0.28625 0.09096
#
# Static dielectric constant tensor:
#      x y z
#    x 4.390800 0.000000 0.033940 
#    y 0.000000 4.163920 0.000000 
#    z 0.033940 0.000000 3.725040 
# 
# 
# High freq. dielectric constant tensor:
#      x y z
#    x 1.893890 0.000000 0.003870 
#    y 0.000000 1.888460 0.000000 
#    z 0.003870 0.000000 1.859350 
# 
# From -- ./inp_files/42208.got.cif
#   From: 2010.06.25/outbox.cif.g09.slc.cpg/sg12_22_cif.got.tgz:42208.got - 2010.06.28 00:19:55.
