data_PCOD8115030
_publ_section_title
;
Structure prediction by ZEFSAII (Michael W. Deem and Ramdas Pophale) SiO2 
 PCOD8115030
Probable space group: C 2/M
;
_chemical_formula_sum "Si O2"
_cell_formula_units_Z 32
_cell_length_a 9.364568
_cell_length_b 21.345617
_cell_length_c 8.586827
_cell_angle_alpha 90.000000
_cell_angle_beta 62.984479
_cell_angle_gamma 90.000000
_cell_volume 1529.150015
_symmetry_space_group_name_H-M "C 2/M"
_symmetry_group_IT_number 12
_symmetry_cell_setting 'monoclinic'
loop_
_space_group_symop_operation_xyz
x,y,z
-x,y,-z
-x,-y,-z
x,-y,z
1/2+x,1/2+y,z
1/2-x,1/2+y,-z
1/2-x,1/2-y,-z
1/2+x,1/2-y,z
loop_
_atom_site_type_symbol
_atom_site_label
_atom_site_fract_x
_atom_site_fract_y
_atom_site_fract_z
Si Si1 0.719895 0.761046 0.332944
Si Si2 0.082789 0.137353 0.264313
Si Si3 0.227515 0.072202 0.453261
Si Si4 0.000000 0.811988 0.000000
Si Si5 0.000000 0.369262 0.500000
O O1 0.750000 0.750000 0.500000
O O2 0.611313 0.705705 0.321497
O O3 0.624943 0.825387 0.346972
O O4 0.885527 0.766323 0.155994
O O5 0.210496 0.088682 0.276845
O O6 0.097991 0.142489 0.069906
O O7 0.901402 0.115518 0.393354
O O8 0.406314 0.087181 0.422865
O O9 0.186946 0.000000 0.502284
#
# Coordination Sequence:
#
# PCOD8115030 Si02
#       5
#     8   8   8   4   4
#     4  12  23  42  71 102 138 175 218 282 349 405
#     4  11  22  41  65  97 132 171 223 276 335 403
#     4  11  23  43  69  95 130 184 234 276 327 393
#     4  12  24  42  65 110 137 176 214 284 348 404
#     4  12  21  40  70  98 131 174 234 276 340 394
#
# _framework density 20.926659000000001
#
# number of rings (size 3 to 8) (size 9 to 14) (size 15 to 20)
#    0.000    0.500    5.000    7.125    0.000    0.000 
#    0.000    2.500    0.000    1.500    0.000    0.000 
#    0.000    0.000    0.000    0.000    0.000    0.000 
#
# Total GULP energy -198330.308511 kJ/mol
# GULP energy per Si atom -12395.644282 kJ/mol
# Density = 2.087903 g / cm^3
# Si number density = 20.926659 Si / 1000 Ang^3
#
#
#
# Elastic Constant Matrix: (Units=GPa)
#
#
# Indices 1 2 3 4 5 6 
#
# 1 166.2282 58.6722 64.4786 0.0000 26.0980 0.0000
# 2 58.6722 117.9325 49.3030 0.0000 6.7541 0.0000
# 3 64.4786 49.3030 137.5261 0.0000 18.1274 0.0000
# 4 0.0000 0.0000 0.0000 13.2875 0.0000 -2.9015
# 5 26.0980 6.7541 18.1274 0.0000 46.3621 0.0000
# 6 0.0000 0.0000 0.0000 -2.9015 0.0000 33.0459
#
#
#
# Elastic Compliance Matrix: (Units=1/GPa)
#
#
# Indices 1 2 3 4 5 6 
#
# 1 0.008590 -0.003038 -0.002487 0.000000 -0.003420 0.000000
# 2 -0.003038 0.011049 -0.002689 0.000000 0.001152 0.000000
# 3 -0.002487 -0.002689 0.009663 0.000000 -0.001986 0.000000
# 4 0.000000 0.000000 0.000000 0.076730 0.000000 0.006737
# 5 -0.003420 0.001152 -0.001986 0.000000 0.024104 0.000000
# 6 0.000000 0.000000 0.000000 0.006737 0.000000 0.030852
#
#
# Mechanical properties :
#
#
# Convention : Reuss Voigt Hill
#
# Bulk Modulus (GPa) = 77.67355 85.17715 81.42535
# Shear Modulus (GPa) = 27.51686 35.15463 31.33574
#
# Velocity S-wave (km/s) = 3.63011 4.10310 3.87383
# Velocity P-wave (km/s) = 7.40054 7.95225 7.68135
#
# Compressibility (1/GPa) = 0.01287440
#
# Stress axis : x y z
#
# Youngs Moduli (GPa) = 116.41600 90.50813 103.48470
#
# Poissons Ratio (x) = 0.27494 0.25742
# Poissons Ratio (y) = 0.35364 0.27822
# Poissons Ratio (z) = 0.28958 0.24333
#
# Static dielectric constant tensor:
#      x y z
#    x 4.281580 0.000000 0.319820 
#    y 0.000000 3.760540 0.000000 
#    z 0.319820 0.000000 3.738630 
# 
# 
# High freq. dielectric constant tensor:
#      x y z
#    x 1.848480 0.000000 0.019490 
#    y 0.000000 1.809660 0.000000 
#    z 0.019490 0.000000 1.785880 
# 
# From -- ./inp_files/38365.got.cif
#   From: 2010.06.25/outbox.cif.g09.slc.cpg/sg12_20_cif.got.tgz:38365.got - 2010.06.28 00:19:55.
