data_PCOD8115481
_publ_section_title
;
Structure prediction by ZEFSAII (Michael W. Deem and Ramdas Pophale) SiO2 
 PCOD8115481
Probable space group: C 2/M
;
_chemical_formula_sum "Si O2"
_cell_formula_units_Z 40
_cell_length_a 16.550458
_cell_length_b 12.724594
_cell_length_c 28.184741
_cell_angle_alpha 90.000000
_cell_angle_beta 160.758811
_cell_angle_gamma 90.000000
_cell_volume 1956.065215
_symmetry_space_group_name_H-M "C 2/M"
_symmetry_group_IT_number 12
_symmetry_cell_setting 'monoclinic'
loop_
_space_group_symop_operation_xyz
x,y,z
-x,y,-z
-x,-y,-z
x,-y,z
1/2+x,1/2+y,z
1/2-x,1/2+y,-z
1/2-x,1/2-y,-z
1/2+x,1/2-y,z
loop_
_atom_site_type_symbol
_atom_site_label
_atom_site_fract_x
_atom_site_fract_y
_atom_site_fract_z
Si Si1 0.681962 0.357385 0.442299
Si Si2 0.388889 0.000000 0.736357
Si Si3 0.551175 0.765817 0.849676
Si Si4 0.122699 0.000000 0.495014
Si Si5 0.118215 0.615628 0.615235
Si Si6 0.723627 0.379409 0.859811
O O1 0.750000 0.250000 0.500000
O O2 0.640584 0.403257 0.470775
O O3 0.433974 0.366342 0.275056
O O4 0.908081 0.401499 0.537669
O O5 0.528395 0.108633 0.827670
O O6 0.347741 0.000000 0.657061
O O7 0.132088 0.000000 0.619572
O O8 0.303523 0.709614 0.731652
O O9 0.627553 0.703341 0.844851
O O10 0.750000 0.750000 0.000000
O O11 0.247134 0.500000 0.681498
O O12 0.000000 0.650178 0.500000
O O13 0.705827 0.500000 0.868650
O O14 0.000000 0.349901 0.000000
#
# Coordination Sequence:
#
# PCOD8115481 Si02
#       6
#     8   4   8   4   8   8
#     4  12  23  41  71 106 136 179 232 284 350 413
#     4  11  28  48  65 103 142 181 234 284 352 432
#     4  12  28  45  72  98 142 192 228 283 351 420
#     4  11  24  44  70 101 137 177 224 289 351 407
#     4  11  23  44  72 104 138 175 235 298 341 402
#     4  11  25  45  71 105 141 178 233 293 341 413
#
# _framework density 20.449214000000001
#
# number of rings (size 3 to 8) (size 9 to 14) (size 15 to 20)
#    0.000    0.600    4.000    3.000   11.200    0.000 
#    0.000    0.500    0.000    0.000    0.000    0.000 
#    0.000    0.000    0.000    0.000    0.000    0.000 
#
# Total GULP energy -247775.329525 kJ/mol
# GULP energy per Si atom -12388.766476 kJ/mol
# Density = 2.040267 g / cm^3
# Si number density = 20.449214 Si / 1000 Ang^3
#
#
#
# Elastic Constant Matrix: (Units=GPa)
#
#
# Indices 1 2 3 4 5 6 
#
# 1 105.2786 33.0430 54.7285 -0.0129 -14.1826 -0.0327
# 2 33.0430 173.4375 68.8744 -0.0046 -12.8573 -0.0547
# 3 54.7285 68.8744 148.4394 0.0120 -13.6747 -0.0899
# 4 -0.0129 -0.0046 0.0120 32.5319 -0.0282 -3.4318
# 5 -14.1826 -12.8573 -13.6747 -0.0282 40.6116 -0.0253
# 6 -0.0327 -0.0547 -0.0899 -3.4318 -0.0253 39.7989
#
#
#
# Elastic Compliance Matrix: (Units=1/GPa)
#
#
# Indices 1 2 3 4 5 6 
#
# 1 0.012091 -0.000528 -0.003962 0.000009 0.002721 0.000003
# 2 -0.000528 0.007145 -0.003023 0.000003 0.001060 0.000004
# 3 -0.003962 -0.003023 0.009685 -0.000003 0.000920 0.000015
# 4 0.000009 0.000003 -0.000003 0.031021 0.000026 0.002675
# 5 0.002721 0.001060 0.000920 0.000026 0.026219 0.000025
# 6 0.000003 0.000004 0.000015 0.002675 0.000025 0.025357
#
#
# Mechanical properties :
#
#
# Convention : Reuss Voigt Hill
#
# Bulk Modulus (GPa) = 71.97131 82.27192 77.12162
# Shear Modulus (GPa) = 38.11659 40.62244 39.36952
#
# Velocity S-wave (km/s) = 4.32205 4.46186 4.39251
# Velocity P-wave (km/s) = 7.75747 8.17703 7.97001
#
# Compressibility (1/GPa) = 0.01389443
#
# Stress axis : x y z
#
# Youngs Moduli (GPa) = 82.70904 139.94883 103.25365
#
# Poissons Ratio (x) = 0.07396 0.40907
# Poissons Ratio (y) = 0.04371 0.31213
# Poissons Ratio (z) = 0.32768 0.42306
#
# Static dielectric constant tensor:
#      x y z
#    x 4.511610 -0.001300 -0.384660 
#    y -0.001300 4.132760 0.000330 
#    z -0.384660 0.000330 3.923450 
# 
# 
# High freq. dielectric constant tensor:
#      x y z
#    x 1.811350 0.000000 -0.001810 
#    y 0.000000 1.823150 -0.000010 
#    z -0.001810 -0.000010 1.796330 
# 
# From -- ./inp_files/378990.got.cif
#   From: 2010.06.25/outbox.cif.g09.slc.cpg/sg12_190_cif.got.tgz:378990.got - 2010.06.28 00:19:55.
