data_PCOD8115184
_publ_section_title
;
Structure prediction by ZEFSAII (Michael W. Deem and Ramdas Pophale) SiO2 
 PCOD8115184
Probable space group: C 2/M
;
_chemical_formula_sum "Si O2"
_cell_formula_units_Z 56
_cell_length_a 21.062030
_cell_length_b 28.104551
_cell_length_c 9.083438
_cell_angle_alpha 90.000000
_cell_angle_beta 151.065677
_cell_angle_gamma 90.000000
_cell_volume 2601.351576
_symmetry_space_group_name_H-M "C 2/M"
_symmetry_group_IT_number 12
_symmetry_cell_setting 'monoclinic'
loop_
_space_group_symop_operation_xyz
x,y,z
-x,y,-z
-x,-y,-z
x,-y,z
1/2+x,1/2+y,z
1/2-x,1/2+y,-z
1/2-x,1/2-y,-z
1/2+x,1/2-y,z
loop_
_atom_site_type_symbol
_atom_site_label
_atom_site_fract_x
_atom_site_fract_y
_atom_site_fract_z
Si Si1 0.793532 0.697750 0.132494
Si Si2 0.612547 0.898750 0.122224
Si Si3 0.630789 0.617668 0.175092
Si Si4 0.128436 0.228597 0.170192
Si Si5 0.632845 0.943973 0.847180
Si Si6 0.545356 0.192013 0.814093
Si Si7 0.863243 0.108200 0.144587
O O1 0.877445 0.673247 0.172059
O O2 0.889209 0.698375 0.469460
O O3 0.750000 0.750000 0.000000
O O4 0.668715 0.664485 0.909457
O O5 0.748569 0.901004 0.485106
O O6 0.500000 0.920347 0.000000
O O7 0.628703 0.930023 0.009660
O O8 0.570176 0.844871 0.996266
O O9 0.645067 0.673437 0.174004
O O10 0.500000 0.605258 0.000000
O O11 0.627932 0.592598 0.009180
O O12 0.250000 0.250000 0.500000
O O13 0.109955 0.256441 0.979206
O O14 0.000000 0.240792 0.000000
O O15 0.500000 0.925958 0.500000
O O16 0.648181 0.000000 0.866877
O O17 0.753535 0.921829 0.004296
O O18 0.000000 0.097697 0.500000
#
# Coordination Sequence:
#
# PCOD8115184 Si02
#       7
#     8   8   8   8   8   8   8
#     4  11  25  37  60  92 134 182 233 283 331 388
#     4  12  23  41  70  99 135 175 222 279 338 402
#     4  11  25  41  62  95 137 180 226 276 331 395
#     4  11  24  37  56  85 128 182 228 272 332 389
#     4  11  25  49  78 106 136 173 221 281 352 424
#     4  11  23  38  59  88 132 181 231 283 326 392
#     4  12  26  45  71 100 139 180 233 283 343 410
#
# _framework density 21.527270999999999
#
# number of rings (size 3 to 8) (size 9 to 14) (size 15 to 20)
#    0.000    0.714    2.857    4.714    8.000    0.571 
#    0.000    0.714    0.000    1.714    0.000    0.000 
#    0.000    0.000    0.000    0.000    0.000    0.000 
#
# Total GULP energy -347287.859872 kJ/mol
# GULP energy per Si atom -12403.137853 kJ/mol
# Density = 2.147827 g / cm^3
# Si number density = 21.527271 Si / 1000 Ang^3
#
#
#
# Elastic Constant Matrix: (Units=GPa)
#
#
# Indices 1 2 3 4 5 6 
#
# 1 168.6209 38.1154 79.9281 0.0000 -1.8291 0.0000
# 2 38.1154 60.3028 42.8984 0.0000 3.7471 0.0000
# 3 79.9281 42.8984 207.4785 0.0000 -0.0268 0.0000
# 4 0.0000 0.0000 0.0000 19.4688 0.0000 -3.8547
# 5 -1.8291 3.7471 -0.0268 0.0000 41.6983 0.0000
# 6 0.0000 0.0000 0.0000 -3.8547 0.0000 20.3098
#
#
#
# Elastic Compliance Matrix: (Units=1/GPa)
#
#
# Indices 1 2 3 4 5 6 
#
# 1 0.007783 -0.003313 -0.002313 0.000000 0.000638 0.000000
# 2 -0.003313 0.020982 -0.003062 0.000000 -0.002033 0.000000
# 3 -0.002313 -0.003062 0.006344 0.000000 0.000178 0.000000
# 4 0.000000 0.000000 0.000000 0.053370 0.000000 0.010129
# 5 0.000638 -0.002033 0.000178 0.000000 0.024193 0.000000
# 6 0.000000 0.000000 0.000000 0.010129 0.000000 0.051160
#
#
# Mechanical properties :
#
#
# Convention : Reuss Voigt Hill
#
# Bulk Modulus (GPa) = 56.39635 84.25401 70.32518
# Shear Modulus (GPa) = 26.72109 34.65940 30.69025
#
# Velocity S-wave (km/s) = 3.52698 4.01686 3.77987
# Velocity P-wave (km/s) = 6.54528 7.79338 7.19644
#
# Compressibility (1/GPa) = 0.01773165
#
# Stress axis : x y z
#
# Youngs Moduli (GPa) = 128.48931 47.66016 157.62986
#
# Poissons Ratio (x) = 0.15792 0.36460
# Poissons Ratio (y) = 0.42574 0.48267
# Poissons Ratio (z) = 0.29720 0.14594
#
# Static dielectric constant tensor:
#      x y z
#    x 4.174620 0.000000 -0.028110 
#    y 0.000000 3.582220 0.000000 
#    z -0.028110 0.000000 4.014000 
# 
# 
# High freq. dielectric constant tensor:
#      x y z
#    x 1.869390 0.000000 -0.000520 
#    y 0.000000 1.816080 0.000000 
#    z -0.000520 0.000000 1.859630 
# 
# From -- ./inp_files/91617.got.cif
#   From: 2010.06.25/outbox.cif.g09.slc.cpg/sg12_46_cif.got.tgz:91617.got - 2010.06.28 00:19:55.
