data_PCOD8115407
_publ_section_title
;
Structure prediction by ZEFSAII (Michael W. Deem and Ramdas Pophale) SiO2 
 PCOD8115407
Probable space group: C 2/M
;
_chemical_formula_sum "Si O2"
_cell_formula_units_Z 40
_cell_length_a 24.173363
_cell_length_b 8.306948
_cell_length_c 18.471794
_cell_angle_alpha 90.000000
_cell_angle_beta 149.725222
_cell_angle_gamma 90.000000
_cell_volume 1870.015740
_symmetry_space_group_name_H-M "C 2/M"
_symmetry_group_IT_number 12
_symmetry_cell_setting 'monoclinic'
loop_
_space_group_symop_operation_xyz
x,y,z
-x,y,-z
-x,-y,-z
x,-y,z
1/2+x,1/2+y,z
1/2-x,1/2+y,-z
1/2-x,1/2-y,-z
1/2+x,1/2-y,z
loop_
_atom_site_type_symbol
_atom_site_label
_atom_site_fract_x
_atom_site_fract_y
_atom_site_fract_z
Si Si1 0.668390 0.687387 0.590373
Si Si2 0.566306 0.313959 0.732680
Si Si3 0.445899 0.813801 0.123583
Si Si4 0.735538 0.813410 0.816530
Si Si5 0.323042 0.313385 0.647891
O O1 0.684167 0.500000 0.590859
O O2 0.549918 0.746985 0.429347
O O3 0.676737 0.720617 0.684730
O O4 0.761255 0.787539 0.653663
O O5 0.586008 0.500000 0.735950
O O6 0.569491 0.291403 0.822028
O O7 0.662745 0.210190 0.805937
O O8 0.563783 0.783619 0.221215
O O9 0.432543 0.000000 0.128533
O O10 0.355649 0.760997 0.963284
O O11 0.746314 0.000000 0.809790
O O12 0.348813 0.500000 0.664809
O O13 0.250000 0.250000 0.500000
#
# Coordination Sequence:
#
# PCOD8115407 Si02
#       5
#     8   8   8   8   8
#     4  11  24  43  68  97 131 171 217 267 321 381
#     4  11  23  42  68  96 131 172 218 266 320 385
#     4  12  25  43  68  96 130 171 219 268 323 382
#     4  12  26  43  64  95 135 172 216 268 326 386
#     4  12  24  42  68  98 130 167 215 265 320 382
#
# _framework density 21.390194000000001
#
# number of rings (size 3 to 8) (size 9 to 14) (size 15 to 20)
#    0.000    0.400    2.000    7.800    0.000    5.600 
#    0.000    4.000    0.000    0.000    0.000    0.000 
#    0.000    0.000    0.000    0.000    0.000    0.000 
#
# Total GULP energy -248228.752007 kJ/mol
# GULP energy per Si atom -12411.437600 kJ/mol
# Density = 2.134151 g / cm^3
# Si number density = 21.390194 Si / 1000 Ang^3
#
#
#
# Elastic Constant Matrix: (Units=GPa)
#
#
# Indices 1 2 3 4 5 6 
#
# 1 67.7797 12.2580 16.8898 0.0000 14.3553 0.0000
# 2 12.2580 87.0221 31.4152 0.0000 3.4182 0.0000
# 3 16.8898 31.4152 107.8475 0.0000 9.5241 0.0000
# 4 0.0000 0.0000 0.0000 31.4668 0.0000 -0.5833
# 5 14.3553 3.4182 9.5241 0.0000 37.0950 0.0000
# 6 0.0000 0.0000 0.0000 -0.5833 0.0000 38.9875
#
#
#
# Elastic Compliance Matrix: (Units=1/GPa)
#
#
# Indices 1 2 3 4 5 6 
#
# 1 0.016689 -0.001524 -0.001649 0.000000 -0.005894 0.000000
# 2 -0.001524 0.012983 -0.003571 0.000000 0.000310 0.000000
# 3 -0.001649 -0.003571 0.010729 0.000000 -0.001787 0.000000
# 4 0.000000 0.000000 0.000000 0.031788 0.000000 0.000476
# 5 -0.005894 0.000310 -0.001787 0.000000 0.029669 0.000000
# 6 0.000000 0.000000 0.000000 0.000476 0.000000 0.025656
#
#
# Mechanical properties :
#
#
# Convention : Reuss Voigt Hill
#
# Bulk Modulus (GPa) = 37.15701 42.64171 39.89936
# Shear Modulus (GPa) = 33.33959 34.98229 34.16094
#
# Velocity S-wave (km/s) = 3.95224 4.04844 4.00063
# Velocity P-wave (km/s) = 6.18350 6.46773 6.32722
#
# Compressibility (1/GPa) = 0.02691282
#
# Stress axis : x y z
#
# Youngs Moduli (GPa) = 59.92110 77.02515 93.20946
#
# Poissons Ratio (x) = 0.11738 0.15371
# Poissons Ratio (y) = 0.09131 0.33281
# Poissons Ratio (z) = 0.09882 0.27502
#
# Static dielectric constant tensor:
#      x y z
#    x 3.784740 0.000000 0.120060 
#    y 0.000000 3.876740 0.000000 
#    z 0.120060 0.000000 3.939280 
# 
# 
# High freq. dielectric constant tensor:
#      x y z
#    x 1.841730 0.000000 0.006290 
#    y 0.000000 1.850210 0.000000 
#    z 0.006290 0.000000 1.849950 
# 
# From -- ./inp_files/162726.got.cif
#   From: 2010.06.25/outbox.cif.g09.slc.cpg/sg12_82_cif.got.tgz:162726.got - 2010.06.28 00:19:55.
