data_PCOD8115418
_publ_section_title
;
Structure prediction by ZEFSAII (Michael W. Deem and Ramdas Pophale) SiO2 
 PCOD8115418
Probable space group: C 2/M
;
_chemical_formula_sum "Si O2"
_cell_formula_units_Z 40
_cell_length_a 9.188926
_cell_length_b 19.842523
_cell_length_c 10.968532
_cell_angle_alpha 90.000000
_cell_angle_beta 78.414911
_cell_angle_gamma 90.000000
_cell_volume 1959.165578
_symmetry_space_group_name_H-M "C 2/M"
_symmetry_group_IT_number 12
_symmetry_cell_setting 'monoclinic'
loop_
_space_group_symop_operation_xyz
x,y,z
-x,y,-z
-x,-y,-z
x,-y,z
1/2+x,1/2+y,z
1/2-x,1/2+y,-z
1/2-x,1/2-y,-z
1/2+x,1/2-y,z
loop_
_atom_site_type_symbol
_atom_site_label
_atom_site_fract_x
_atom_site_fract_y
_atom_site_fract_z
Si Si1 0.851752 0.500000 0.160186
Si Si2 0.120432 0.365568 0.719305
Si Si3 0.202550 0.500000 0.089602
Si Si4 0.671742 0.421471 0.500059
Si Si5 0.854498 0.756774 0.096723
Si Si6 0.724640 0.120007 0.255219
O O1 0.810591 0.433529 0.238774
O O2 0.026315 0.500000 0.109348
O O3 0.746122 0.500000 0.058756
O O4 0.230493 0.362668 0.584239
O O5 0.131358 0.310207 0.823647
O O6 0.952262 0.370229 0.699304
O O7 0.261470 0.566612 0.144197
O O8 0.500000 0.408350 0.500000
O O9 0.715595 0.500000 0.463997
O O10 0.700852 0.408062 0.636541
O O11 0.801800 0.811142 0.203236
O O12 0.750000 0.750000 0.000000
O O13 0.000000 0.777972 0.000000
#
# Coordination Sequence:
#
# PCOD8115418 Si02
#       6
#     4   8   4   8   8   8
#     4   9  18  33  65  97 126 160 226 275 319 389
#     4  11  23  42  70  98 131 182 226 273 332 398
#     4   9  18  35  62  98 125 165 221 273 325 391
#     4  11  25  44  67 102 140 171 219 286 344 395
#     4  12  26  45  66 100 143 178 220 277 338 403
#     4  11  23  43  69  97 133 180 227 274 329 402
#
# _framework density 20.416855000000002
#
# number of rings (size 3 to 8) (size 9 to 14) (size 15 to 20)
#    0.000    1.200    4.000    1.800    5.600    1.600 
#    0.000    0.500    0.000    0.000    0.000    0.000 
#    0.000    0.000    0.000    0.000    0.000    0.000 
#
# Total GULP energy -247796.018663 kJ/mol
# GULP energy per Si atom -12389.800933 kJ/mol
# Density = 2.037039 g / cm^3
# Si number density = 20.416855 Si / 1000 Ang^3
#
#
#
# Elastic Constant Matrix: (Units=GPa)
#
#
# Indices 1 2 3 4 5 6 
#
# 1 123.7916 34.6487 53.1991 0.0000 11.3180 0.0000
# 2 34.6487 92.1619 26.1469 0.0000 1.4821 0.0000
# 3 53.1991 26.1469 94.8853 0.0000 12.8591 0.0000
# 4 0.0000 0.0000 0.0000 28.7779 0.0000 3.5231
# 5 11.3180 1.4821 12.8591 0.0000 45.1422 0.0000
# 6 0.0000 0.0000 0.0000 3.5231 0.0000 23.7859
#
#
#
# Elastic Compliance Matrix: (Units=1/GPa)
#
#
# Indices 1 2 3 4 5 6 
#
# 1 0.011264 -0.002679 -0.005416 0.000000 -0.001194 0.000000
# 2 -0.002679 0.012422 -0.002035 0.000000 0.000844 0.000000
# 3 -0.005416 -0.002035 0.014503 0.000000 -0.002707 0.000000
# 4 0.000000 0.000000 0.000000 0.035391 0.000000 -0.005242
# 5 -0.001194 0.000844 -0.002707 0.000000 0.023195 0.000000
# 6 0.000000 0.000000 0.000000 -0.005242 0.000000 0.042818
#
#
# Mechanical properties :
#
#
# Convention : Reuss Voigt Hill
#
# Bulk Modulus (GPa) = 55.77501 59.86980 57.82240
# Shear Modulus (GPa) = 30.15158 32.66414 31.40786
#
# Velocity S-wave (km/s) = 3.84708 4.00417 3.92641
# Velocity P-wave (km/s) = 6.86373 7.12497 6.99557
#
# Compressibility (1/GPa) = 0.01792918
#
# Stress axis : x y z
#
# Youngs Moduli (GPa) = 88.77482 80.50526 68.95147
#
# Poissons Ratio (x) = 0.21570 0.37341
# Poissons Ratio (y) = 0.23785 0.14032
# Poissons Ratio (z) = 0.48076 0.16383
#
# Static dielectric constant tensor:
#      x y z
#    x 3.510260 0.000000 0.143330 
#    y 0.000000 3.420980 0.000000 
#    z 0.143330 0.000000 3.945510 
# 
# 
# High freq. dielectric constant tensor:
#      x y z
#    x 1.794800 0.000000 0.011830 
#    y 0.000000 1.795170 0.000000 
#    z 0.011830 0.000000 1.816080 
# 
# From -- ./inp_files/118991.got.cif
#   From: 2010.06.25/outbox.cif.g09.slc.cpg/sg12_60_cif.got.tgz:118991.got - 2010.06.28 00:19:55.
