data_PCOD8115102
_publ_section_title
;
Structure prediction by ZEFSAII (Michael W. Deem and Ramdas Pophale) SiO2 
 PCOD8115102
Probable space group: C 2/M
;
_chemical_formula_sum "Si O2"
_cell_formula_units_Z 44
_cell_length_a 18.715697
_cell_length_b 23.968931
_cell_length_c 15.043111
_cell_angle_alpha 90.000000
_cell_angle_beta 17.807195
_cell_angle_gamma 90.000000
_cell_volume 2063.720728
_symmetry_space_group_name_H-M "C 2/M"
_symmetry_group_IT_number 12
_symmetry_cell_setting 'monoclinic'
loop_
_space_group_symop_operation_xyz
x,y,z
-x,y,-z
-x,-y,-z
x,-y,z
1/2+x,1/2+y,z
1/2-x,1/2+y,-z
1/2-x,1/2-y,-z
1/2+x,1/2-y,z
loop_
_atom_site_type_symbol
_atom_site_label
_atom_site_fract_x
_atom_site_fract_y
_atom_site_fract_z
Si Si1 0.513244 0.000000 0.590659
Si Si2 0.577653 0.711986 0.145159
Si Si3 0.817563 0.000000 0.387981
Si Si4 0.069540 0.299838 0.815454
Si Si5 0.797721 0.112430 0.797153
Si Si6 0.901798 0.500000 0.019254
Si Si7 0.339766 0.591089 0.947198
O O1 0.500000 0.000000 0.500000
O O2 0.762737 0.000000 0.346219
O O3 0.397741 0.056946 0.761498
O O4 0.348191 0.695307 0.474463
O O5 0.512099 0.742359 0.132072
O O6 0.692907 0.653728 0.975739
O O7 0.750000 0.750000 0.000000
O O8 0.585005 0.000000 0.721665
O O9 0.958483 0.943709 0.242648
O O10 0.000000 0.299792 0.000000
O O11 0.937976 0.350527 0.920913
O O12 0.897982 0.099577 0.775173
O O13 0.000000 0.143477 0.500000
O O14 0.755184 0.054336 0.799416
O O15 0.000000 0.500000 0.000000
#
# Coordination Sequence:
#
# PCOD8115102 Si02
#       7
#     4   8   4   8   8   4   8
#     4  11  26  48  67  98 132 179 236 296 354 406
#     4  11  24  45  69  97 140 178 233 287 348 417
#     4  11  22  43  71  92 140 169 229 283 345 419
#     4  11  25  43  66 100 137 184 231 283 353 421
#     4  12  22  39  64  98 143 176 226 279 347 432
#     4  12  21  34  59 100 133 176 218 270 339 421
#     4  11  23  43  68  98 129 182 223 289 350 414
#
# _framework density 21.320715
#
# number of rings (size 3 to 8) (size 9 to 14) (size 15 to 20)
#    0.000    0.727    3.636    4.636    0.000    1.455 
#    6.545    0.000    0.000    0.000    0.000    0.000 
#    0.000    0.000    0.000    0.000    0.000    0.000 
#
# Total GULP energy -272749.310086 kJ/mol
# GULP energy per Si atom -12397.695913 kJ/mol
# Density = 2.127219 g / cm^3
# Si number density = 21.320715 Si / 1000 Ang^3
#
#
#
# Elastic Constant Matrix: (Units=GPa)
#
#
# Indices 1 2 3 4 5 6 
#
# 1 154.7088 41.9864 25.2384 -0.0054 -13.3759 0.0526
# 2 41.9864 169.6403 36.3624 0.2678 -16.1553 -0.1905
# 3 25.2384 36.3624 83.5806 0.2563 -19.0435 0.1946
# 4 -0.0054 0.2678 0.2563 25.3194 0.1556 -9.6076
# 5 -13.3759 -16.1553 -19.0435 0.1556 33.8771 -0.0836
# 6 0.0526 -0.1905 0.1946 -9.6076 -0.0836 30.3413
#
#
#
# Elastic Compliance Matrix: (Units=1/GPa)
#
#
# Indices 1 2 3 4 5 6 
#
# 1 0.007164 -0.001368 -0.001230 0.000018 0.001485 -0.000003
# 2 -0.001368 0.006852 -0.002232 -0.000040 0.001473 0.000051
# 3 -0.001230 -0.002232 0.014858 -0.000230 0.006803 -0.000161
# 4 0.000018 -0.000040 -0.000230 0.044895 -0.000312 0.014216
# 5 0.001485 0.001473 0.006803 -0.000312 0.034633 -0.000040
# 6 -0.000003 0.000051 -0.000161 0.014216 -0.000040 0.037461
#
#
# Mechanical properties :
#
#
# Convention : Reuss Voigt Hill
#
# Bulk Modulus (GPa) = 52.04597 68.34488 60.19542
# Shear Modulus (GPa) = 30.87789 38.19706 34.53748
#
# Velocity S-wave (km/s) = 3.80973 4.23726 4.02917
# Velocity P-wave (km/s) = 6.61937 7.48761 7.06684
#
# Compressibility (1/GPa) = 0.01921379
#
# Stress axis : x y z
#
# Youngs Moduli (GPa) = 139.58569 145.93513 67.30309
#
# Poissons Ratio (x) = 0.19966 0.08277
# Poissons Ratio (y) = 0.19097 0.15025
# Poissons Ratio (z) = 0.17167 0.32579
#
# Static dielectric constant tensor:
#      x y z
#    x 3.835400 -0.001880 -0.379270 
#    y -0.001880 3.925400 -0.000190 
#    z -0.379270 -0.000190 3.656090 
# 
# 
# High freq. dielectric constant tensor:
#      x y z
#    x 1.844640 -0.000060 -0.019110 
#    y -0.000060 1.850720 0.000190 
#    z -0.019110 0.000190 1.826560 
# 
# From -- ./inp_files/17575.got.cif
#   From: 2010.06.25/outbox.cif.g09.slc.cpg/sg12_9_cif.got.tgz:17575.got - 2010.06.28 00:19:55.
