data_PCOD8115602
_publ_section_title
;
Structure prediction by ZEFSAII (Michael W. Deem and Ramdas Pophale) SiO2 
 PCOD8115602
Probable space group: C 2/M
;
_chemical_formula_sum "Si O2"
_cell_formula_units_Z 40
_cell_length_a 24.233900
_cell_length_b 12.586478
_cell_length_c 6.553338
_cell_angle_alpha 90.000000
_cell_angle_beta 105.920619
_cell_angle_gamma 90.000000
_cell_volume 1922.223227
_symmetry_space_group_name_H-M "C 2/M"
_symmetry_group_IT_number 12
_symmetry_cell_setting 'monoclinic'
loop_
_space_group_symop_operation_xyz
x,y,z
-x,y,-z
-x,-y,-z
x,-y,z
1/2+x,1/2+y,z
1/2-x,1/2+y,-z
1/2-x,1/2-y,-z
1/2+x,1/2-y,z
loop_
_atom_site_type_symbol
_atom_site_label
_atom_site_fract_x
_atom_site_fract_y
_atom_site_fract_z
Si Si1 0.147815 0.500000 0.911419
Si Si2 0.000000 0.818796 0.000000
Si Si3 0.162163 0.000000 0.632960
Si Si4 0.464676 0.500000 0.663213
Si Si5 0.721065 0.500000 0.096225
Si Si6 0.801916 0.822677 0.604006
Si Si7 0.900934 0.671662 0.837494
Si Si8 0.438260 0.000000 0.552193
O O1 0.215819 0.500000 0.939341
O O2 0.113015 0.500000 0.664322
O O3 0.132132 0.602807 0.028150
O O4 0.980527 0.892562 0.795286
O O5 0.947538 0.741695 0.007112
O O6 0.193498 0.105248 0.590284
O O7 0.100648 0.000000 0.466600
O O8 0.168124 0.000000 0.882281
O O9 0.500000 0.500000 0.500000
O O10 0.711947 0.393416 0.213658
O O11 0.750000 0.750000 0.500000
O O12 0.857853 0.751844 0.686364
O O13 0.932061 0.602591 0.692245
O O14 0.500000 0.000000 0.500000
#
# Coordination Sequence:
#
# PCOD8115602 Si02
#       8
#     4   4   4   4   4   8   8   4
#     4  11  24  43  65  98 137 172 218 275 325 392
#     4  11  24  45  66  96 130 175 218 269 340 388
#     4  11  24  45  65 100 135 171 219 274 332 385
#     4  11  26  42  68  97 132 169 222 275 325 401
#     4  11  26  42  70  99 134 176 223 271 325 404
#     4  11  24  44  67  95 135 175 219 271 328 388
#     4  11  24  42  67  96 133 173 216 276 328 389
#     4  11  24  43  66  97 134 172 223 273 331 393
#
# _framework density 20.809237
#
# number of rings (size 3 to 8) (size 9 to 14) (size 15 to 20)
#    0.000    1.000    2.000    3.600    2.800   12.000 
#    0.000    0.000    0.000    0.000    0.000    0.000 
#    0.000    0.000    0.000    0.000    0.000    0.000 
#
# Total GULP energy -247988.410586 kJ/mol
# GULP energy per Si atom -12399.420529 kJ/mol
# Density = 2.076187 g / cm^3
# Si number density = 20.809237 Si / 1000 Ang^3
#
#
#
# Elastic Constant Matrix: (Units=GPa)
#
#
# Indices 1 2 3 4 5 6 
#
# 1 118.2703 65.5152 41.2873 0.0000 4.8015 0.0000
# 2 65.5152 156.8701 59.9282 0.0000 2.7631 0.0000
# 3 41.2873 59.9282 132.4920 0.0000 6.7967 0.0000
# 4 0.0000 0.0000 0.0000 57.5855 0.0000 13.6922
# 5 4.8015 2.7631 6.7967 0.0000 46.1892 0.0000
# 6 0.0000 0.0000 0.0000 13.6922 0.0000 42.3622
#
#
#
# Elastic Compliance Matrix: (Units=1/GPa)
#
#
# Indices 1 2 3 4 5 6 
#
# 1 0.011322 -0.004088 -0.001643 0.000000 -0.000691 0.000000
# 2 -0.004088 0.009183 -0.002895 0.000000 0.000302 0.000000
# 3 -0.001643 -0.002895 0.009423 0.000000 -0.001043 0.000000
# 4 0.000000 0.000000 0.000000 0.018811 0.000000 -0.006080
# 5 -0.000691 0.000302 -0.001043 0.000000 0.021857 0.000000
# 6 0.000000 0.000000 0.000000 -0.006080 0.000000 0.025571
#
#
# Mechanical properties :
#
#
# Convention : Reuss Voigt Hill
#
# Bulk Modulus (GPa) = 78.90412 82.34376 80.62394
# Shear Modulus (GPa) = 42.50080 45.28749 43.89414
#
# Velocity S-wave (km/s) = 4.52420 4.67016 4.59776
# Velocity P-wave (km/s) = 8.08030 8.29079 8.18622
#
# Compressibility (1/GPa) = 0.01267361
#
# Stress axis : x y z
#
# Youngs Moduli (GPa) = 88.32598 108.89899 106.12710
#
# Poissons Ratio (x) = 0.44522 0.17441
# Poissons Ratio (y) = 0.36111 0.30724
# Poissons Ratio (z) = 0.14516 0.31526
#
# Static dielectric constant tensor:
#      x y z
#    x 3.782000 0.000000 0.007240 
#    y 0.000000 4.073920 0.000000 
#    z 0.007240 0.000000 3.794690 
# 
# 
# High freq. dielectric constant tensor:
#      x y z
#    x 1.828640 0.000000 0.011040 
#    y 0.000000 1.839320 0.000000 
#    z 0.011040 0.000000 1.820140 
# 
# From -- ./inp_files/27549.got.cif
#   From: 2010.06.25/outbox.cif.g09.slc.cpg/sg12_14_cif.got.tgz:27549.got - 2010.06.28 00:19:55.
