data_PCOD8115743
_publ_section_title
;
Structure prediction by ZEFSAII (Michael W. Deem and Ramdas Pophale) SiO2 
 PCOD8115743
Probable space group: C 2/M
;
_chemical_formula_sum "Si O2"
_cell_formula_units_Z 40
_cell_length_a 8.660585
_cell_length_b 28.015262
_cell_length_c 14.281549
_cell_angle_alpha 90.000000
_cell_angle_beta 34.835821
_cell_angle_gamma 90.000000
_cell_volume 1979.364750
_symmetry_space_group_name_H-M "C 2/M"
_symmetry_group_IT_number 12
_symmetry_cell_setting 'monoclinic'
loop_
_space_group_symop_operation_xyz
x,y,z
-x,y,-z
-x,-y,-z
x,-y,z
1/2+x,1/2+y,z
1/2-x,1/2+y,-z
1/2-x,1/2-y,-z
1/2+x,1/2-y,z
loop_
_atom_site_type_symbol
_atom_site_label
_atom_site_fract_x
_atom_site_fract_y
_atom_site_fract_z
Si Si1 0.552590 0.075229 0.217312
Si Si2 0.190344 0.500000 0.995760
Si Si3 0.490145 0.287213 0.371388
Si Si4 0.500000 0.372304 0.500000
Si Si5 0.500000 0.651856 0.000000
Si Si6 0.325913 0.000000 0.683011
Si Si7 0.015491 0.224930 0.833711
O O1 0.246057 0.091856 0.362346
O O2 0.607571 0.046649 0.286865
O O3 0.620709 0.045516 0.091862
O O4 0.736875 0.121176 0.113129
O O5 0.509921 0.500000 0.811286
O O6 0.000000 0.500000 0.000000
O O7 0.432226 0.338534 0.445552
O O8 0.544885 0.298432 0.236075
O O9 0.749772 0.264225 0.292248
O O10 0.250000 0.250000 0.500000
O O11 0.592598 0.683471 0.866325
O O12 0.500000 0.000000 0.500000
O O13 0.750000 0.250000 0.000000
#
# Coordination Sequence:
#
# PCOD8115743 Si02
#       7
#     8   4   8   4   4   4   8
#     4  11  25  46  69 102 144 176 224 284 347 408
#     4  11  25  48  79 103 139 176 216 276 350 430
#     4  12  23  43  62  92 134 181 234 288 334 385
#     4  12  26  39  70 104 138 180 244 287 334 396
#     4  12  22  41  70  94 134 180 232 285 334 404
#     4  11  25  48  79 103 139 176 216 272 360 424
#     4  12  23  39  66  90 126 183 236 280 338 387
#
# _framework density 20.208504000000001
#
# number of rings (size 3 to 8) (size 9 to 14) (size 15 to 20)
#    0.000    0.400    6.000    3.000    2.800    4.000 
#    0.000    0.000    0.000    0.000    0.000    0.000 
#    0.000    0.000    0.000    0.000    0.000    0.000 
#
# Total GULP energy -248036.028629 kJ/mol
# GULP energy per Si atom -12401.801431 kJ/mol
# Density = 2.016251 g / cm^3
# Si number density = 20.208504 Si / 1000 Ang^3
#
#
#
# Elastic Constant Matrix: (Units=GPa)
#
#
# Indices 1 2 3 4 5 6 
#
# 1 125.9147 32.1891 51.3781 0.0000 13.7534 0.0000
# 2 32.1891 95.3994 41.4185 0.0000 -3.3080 0.0000
# 3 51.3781 41.4185 141.7156 0.0000 -15.5806 0.0000
# 4 0.0000 0.0000 0.0000 109.5979 0.0000 -31.6109
# 5 13.7534 -3.3080 -15.5806 0.0000 58.9212 0.0000
# 6 0.0000 0.0000 0.0000 -31.6109 0.0000 34.8535
#
#
#
# Elastic Compliance Matrix: (Units=1/GPa)
#
#
# Indices 1 2 3 4 5 6 
#
# 1 0.010273 -0.002067 -0.003499 0.000000 -0.003439 0.000000
# 2 -0.002067 0.012425 -0.002835 0.000000 0.000430 0.000000
# 3 -0.003499 -0.002835 0.009502 0.000000 0.003170 0.000000
# 4 0.000000 0.000000 0.000000 0.012357 0.000000 0.011207
# 5 -0.003439 0.000430 0.003170 0.000000 0.018637 0.000000
# 6 0.000000 0.000000 0.000000 0.011207 0.000000 0.038856
#
#
# Mechanical properties :
#
#
# Convention : Reuss Voigt Hill
#
# Bulk Modulus (GPa) = 64.93455 68.11122 66.52289
# Shear Modulus (GPa) = 40.32771 56.54413 48.43592
#
# Velocity S-wave (km/s) = 4.47204 5.29539 4.90103
# Velocity P-wave (km/s) = 7.67252 8.43597 8.06328
#
# Compressibility (1/GPa) = 0.01540012
#
# Stress axis : x y z
#
# Youngs Moduli (GPa) = 97.33803 80.48094 105.24225
#
# Poissons Ratio (x) = 0.16633 0.36821
# Poissons Ratio (y) = 0.20117 0.29835
# Poissons Ratio (z) = 0.34055 0.22816
#
# Static dielectric constant tensor:
#      x y z
#    x 3.844840 0.000000 0.233110 
#    y 0.000000 3.389250 0.000000 
#    z 0.233110 0.000000 4.914450 
# 
# 
# High freq. dielectric constant tensor:
#      x y z
#    x 1.800400 0.000000 -0.001690 
#    y 0.000000 1.792640 0.000000 
#    z -0.001690 0.000000 1.809460 
# 
# From -- ./inp_files/201159.got.cif
#   From: 2010.06.25/outbox.cif.g09.slc.cpg/sg12_101_cif.got.tgz:201159.got - 2010.06.28 00:19:55.
