data_PCOD8115136
_publ_section_title
;
Structure prediction by ZEFSAII (Michael W. Deem and Ramdas Pophale) SiO2 
 PCOD8115136
Probable space group: C 2/M
;
_chemical_formula_sum "Si O2"
_cell_formula_units_Z 64
_cell_length_a 27.252072
_cell_length_b 9.291208
_cell_length_c 20.897800
_cell_angle_alpha 90.000000
_cell_angle_beta 128.878792
_cell_angle_gamma 90.000000
_cell_volume 4119.241438
_symmetry_space_group_name_H-M "C 2/M"
_symmetry_group_IT_number 12
_symmetry_cell_setting 'monoclinic'
loop_
_space_group_symop_operation_xyz
x,y,z
-x,y,-z
-x,-y,-z
x,-y,z
1/2+x,1/2+y,z
1/2-x,1/2+y,-z
1/2-x,1/2-y,-z
1/2+x,1/2-y,z
loop_
_atom_site_type_symbol
_atom_site_label
_atom_site_fract_x
_atom_site_fract_y
_atom_site_fract_z
Si Si1 0.197283 0.665875 0.418659
Si Si2 0.784309 0.664690 0.933402
Si Si3 0.393660 0.837056 0.275526
Si Si4 0.995425 0.829970 0.569475
Si Si5 0.245387 0.167982 0.349061
Si Si6 0.327178 0.836658 0.098952
Si Si7 0.745363 0.167137 0.788201
Si Si8 0.622229 0.162874 0.476598
O O1 0.217162 0.500000 0.426423
O O2 0.250000 0.750000 0.500000
O O3 0.192529 0.741704 0.345204
O O4 0.133793 0.677384 0.409306
O O5 0.776750 0.500000 0.906774
O O6 0.721505 0.717054 0.917487
O O7 0.794429 0.753901 0.876361
O O8 0.840031 0.684563 0.032854
O O9 0.445152 0.728374 0.343287
O O10 0.389372 0.820626 0.194335
O O11 0.326442 0.796718 0.251708
O O12 0.412695 0.000000 0.309924
O O13 0.931571 0.772215 0.547778
O O14 0.000000 0.778753 0.500000
O O15 0.995254 0.000000 0.575212
O O16 0.241833 0.220586 0.273096
O O17 0.314970 0.202031 0.432573
O O18 0.229888 0.000000 0.343750
O O19 0.300078 0.000000 0.087701
O O20 0.759132 0.000000 0.805809
O O21 0.601224 0.000000 0.475907
#
# Coordination Sequence:
#
# PCOD8115136 Si02
#       8
#     8   8   8   8   8   8   8   8
#     4   9  17  29  45  64  83 104 135 172 209 250
#     4   9  15  23  38  59  81 106 136 169 205 244
#     4   9  17  30  45  57  76 111 148 176 202 238
#     4  11  23  33  41  59  85 109 138 178 215 241
#     4   9  17  29  45  64  85 110 140 171 205 247
#     4   8  15  27  40  55  77 106 139 172 206 244
#     4   9  17  28  41  60  87 115 141 168 202 247
#     4   9  18  32  47  60  77 108 145 173 202 244
#
# _framework density 15.536841000000001
#
# number of rings (size 3 to 8) (size 9 to 14) (size 15 to 20)
#    0.000    2.875    0.000    3.375    0.000    7.500 
#    0.000    0.000    0.000    0.000    0.000    0.000 
#    0.000    1.000    0.000   11.250    0.000    5.875 
#
# Total GULP energy -396495.637362 kJ/mol
# GULP energy per Si atom -12390.488668 kJ/mol
# Density = 1.550148 g / cm^3
# Si number density = 15.536841 Si / 1000 Ang^3
#
#
#
# Elastic Constant Matrix: (Units=GPa)
#
#
# Indices 1 2 3 4 5 6 
#
# 1 71.6515 40.9842 47.6749 0.0000 -23.7039 0.0000
# 2 40.9842 70.7781 45.8703 0.0000 -13.3580 0.0000
# 3 47.6749 45.8703 106.3508 0.0000 -30.8446 0.0000
# 4 0.0000 0.0000 0.0000 25.3819 0.0000 -4.7571
# 5 -23.7039 -13.3580 -30.8446 0.0000 25.4151 0.0000
# 6 0.0000 0.0000 0.0000 -4.7571 0.0000 24.3427
#
#
#
# Elastic Compliance Matrix: (Units=1/GPa)
#
#
# Indices 1 2 3 4 5 6 
#
# 1 0.027621 -0.011044 -0.002825 0.000000 0.016528 0.000000
# 2 -0.011044 0.024026 -0.007310 0.000000 -0.006544 0.000000
# 3 -0.002825 -0.007310 0.018431 0.000000 0.015892 0.000000
# 4 0.000000 0.000000 0.000000 0.040896 0.000000 0.007992
# 5 0.016528 -0.006544 0.015892 0.000000 0.070610 0.000000
# 6 0.000000 0.000000 0.000000 0.007992 0.000000 0.042642
#
#
# Mechanical properties :
#
#
# Convention : Reuss Voigt Hill
#
# Bulk Modulus (GPa) = 36.07392 57.53770 46.80581
# Shear Modulus (GPa) = 18.12756 22.64467 20.38612
#
# Velocity S-wave (km/s) = 3.41947 3.82184 3.62624
# Velocity P-wave (km/s) = 6.23371 7.52255 6.90825
#
# Compressibility (1/GPa) = 0.02772086
#
# Stress axis : x y z
#
# Youngs Moduli (GPa) = 36.20432 41.62162 54.25607
#
# Poissons Ratio (x) = 0.45966 0.15327
# Poissons Ratio (y) = 0.39983 0.39661
# Poissons Ratio (z) = 0.10228 0.30425
#
# Static dielectric constant tensor:
#      x y z
#    x 2.973820 0.000000 -0.478970 
#    y 0.000000 3.062230 0.000000 
#    z -0.478970 0.000000 3.223760 
# 
# 
# High freq. dielectric constant tensor:
#      x y z
#    x 1.554940 0.000000 -0.036850 
#    y 0.000000 1.605880 0.000000 
#    z -0.036850 0.000000 1.586070 
# 
# From -- ./inp_files/326918.got.cif
#   From: 2010.06.25/outbox.cif.g09.slc.cpg/sg12_164_cif.got.tgz:326918.got - 2010.06.28 00:19:55.
