data_PCOD8115448
_publ_section_title
;
Structure prediction by ZEFSAII (Michael W. Deem and Ramdas Pophale) SiO2 
 PCOD8115448
Probable space group: C 2/M
;
_chemical_formula_sum "Si O2"
_cell_formula_units_Z 56
_cell_length_a 9.028009
_cell_length_b 17.115823
_cell_length_c 18.793771
_cell_angle_alpha 90.000000
_cell_angle_beta 119.151316
_cell_angle_gamma 90.000000
_cell_volume 2536.209996
_symmetry_space_group_name_H-M "C 2/M"
_symmetry_group_IT_number 12
_symmetry_cell_setting 'monoclinic'
loop_
_space_group_symop_operation_xyz
x,y,z
-x,y,-z
-x,-y,-z
x,-y,z
1/2+x,1/2+y,z
1/2-x,1/2+y,-z
1/2-x,1/2-y,-z
1/2+x,1/2-y,z
loop_
_atom_site_type_symbol
_atom_site_label
_atom_site_fract_x
_atom_site_fract_y
_atom_site_fract_z
Si Si1 0.886675 0.908607 0.684308
Si Si2 0.945915 0.152993 0.408770
Si Si3 0.548416 0.165451 0.588905
Si Si4 0.658888 0.841504 0.845488
Si Si5 0.601004 0.089025 0.323914
Si Si6 0.325148 0.909040 0.996838
Si Si7 0.983639 0.174112 0.150738
O O1 0.693874 0.888095 0.658479
O O2 0.907265 0.864265 0.613627
O O3 0.005196 0.875770 0.774419
O O4 0.918521 0.000000 0.684279
O O5 0.901366 0.244297 0.399678
O O6 0.789567 0.104265 0.338344
O O7 0.000000 0.123855 0.500000
O O8 0.500000 0.135214 0.500000
O O9 0.395035 0.147261 0.606677
O O10 0.543477 0.890988 0.765759
O O11 0.561661 0.761883 0.839328
O O12 0.843911 0.827120 0.854894
O O13 0.670895 0.893484 0.918574
O O14 0.579375 0.000000 0.342470
O O15 0.169317 0.860084 0.930463
O O16 0.292758 0.000000 0.974727
O O17 0.500000 0.881729 0.000000
#
# Coordination Sequence:
#
# PCOD8115448 Si02
#       7
#     8   8   8   8   8   8   8
#     4  12  26  42  67 101 137 179 230 288 349 410
#     4  11  25  45  67  96 135 184 233 285 351 421
#     4  11  23  43  69  96 133 178 231 285 343 415
#     4  12  26  46  73 103 140 184 234 286 347 419
#     4  12  26  42  67 101 137 179 230 288 349 410
#     4  11  26  47  74 107 145 185 230 285 346 409
#     4  12  26  46  73 103 140 184 234 286 347 419
#
# _framework density 22.080189000000001
#
# number of rings (size 3 to 8) (size 9 to 14) (size 15 to 20)
#    0.000    0.429    1.429    6.857    4.000    8.000 
#    0.000    0.000    0.000    0.000    0.000    0.000 
#    0.000    0.000    0.000    0.000    0.000    0.000 
#
# Total GULP energy -347309.145229 kJ/mol
# GULP energy per Si atom -12403.898044 kJ/mol
# Density = 2.202993 g / cm^3
# Si number density = 22.080189 Si / 1000 Ang^3
#
#
#
# Elastic Constant Matrix: (Units=GPa)
#
#
# Indices 1 2 3 4 5 6 
#
# 1 109.4558 28.8075 29.8756 0.0000 0.1020 0.0000
# 2 28.8075 99.7971 38.5042 0.0000 3.3144 0.0000
# 3 29.8756 38.5042 109.1210 0.0000 -7.6832 0.0000
# 4 0.0000 0.0000 0.0000 28.1083 0.0000 -14.8898
# 5 0.1020 3.3144 -7.6832 0.0000 43.0595 0.0000
# 6 0.0000 0.0000 0.0000 -14.8898 0.0000 12.9569
#
#
#
# Elastic Compliance Matrix: (Units=1/GPa)
#
#
# Indices 1 2 3 4 5 6 
#
# 1 0.010268 -0.002160 -0.002065 0.000000 -0.000227 0.000000
# 2 -0.002160 0.012170 -0.003816 0.000000 -0.001613 0.000000
# 3 -0.002065 -0.003816 0.011238 0.000000 0.002304 0.000000
# 4 0.000000 0.000000 0.000000 0.090933 0.000000 0.104498
# 5 -0.000227 -0.001613 0.002304 0.000000 0.023759 0.000000
# 6 0.000000 0.000000 0.000000 0.104498 0.000000 0.197267
#
#
# Mechanical properties :
#
#
# Convention : Reuss Voigt Hill
#
# Bulk Modulus (GPa) = 56.83800 56.97207 56.90504
# Shear Modulus (GPa) = 13.60237 31.57070 22.58653
#
# Velocity S-wave (km/s) = 2.48472 3.78540 3.20180
# Velocity P-wave (km/s) = 5.83346 6.70552 6.28464
#
# Compressibility (1/GPa) = 0.01759386
#
# Stress axis : x y z
#
# Youngs Moduli (GPa) = 97.38584 82.17051 88.98031
#
# Poissons Ratio (x) = 0.17747 0.18376
# Poissons Ratio (y) = 0.21033 0.33959
# Poissons Ratio (z) = 0.20112 0.31360
#
# Static dielectric constant tensor:
#      x y z
#    x 4.140310 0.000000 -0.115420 
#    y 0.000000 3.839220 0.000000 
#    z -0.115420 0.000000 4.160650 
# 
# 
# High freq. dielectric constant tensor:
#      x y z
#    x 1.888930 0.000000 -0.002250 
#    y 0.000000 1.874520 0.000000 
#    z -0.002250 0.000000 1.881290 
# 
# From -- ./inp_files/257184.got.cif
#   From: 2010.06.25/outbox.cif.g09.slc.cpg/sg12_129_cif.got.tgz:257184.got - 2010.06.28 00:19:55.
