data_PCOD8115963
_publ_section_title
;
Structure prediction by ZEFSAII (Michael W. Deem and Ramdas Pophale) SiO2 
 PCOD8115963
Probable space group: C 2/M
;
_chemical_formula_sum "Si O2"
_cell_formula_units_Z 64
_cell_length_a 24.317263
_cell_length_b 9.561666
_cell_length_c 21.433611
_cell_angle_alpha 90.000000
_cell_angle_beta 127.760763
_cell_angle_gamma 90.000000
_cell_volume 3939.911238
_symmetry_space_group_name_H-M "C 2/M"
_symmetry_group_IT_number 12
_symmetry_cell_setting 'monoclinic'
loop_
_space_group_symop_operation_xyz
x,y,z
-x,y,-z
-x,-y,-z
x,-y,z
1/2+x,1/2+y,z
1/2-x,1/2+y,-z
1/2-x,1/2-y,-z
1/2+x,1/2-y,z
loop_
_atom_site_type_symbol
_atom_site_label
_atom_site_fract_x
_atom_site_fract_y
_atom_site_fract_z
Si Si1 0.380949 0.337398 0.822321
Si Si2 0.926706 0.833502 0.227078
Si Si3 0.774700 0.839499 0.159822
Si Si4 0.993251 0.833687 0.397506
Si Si5 0.608151 0.334117 0.566449
Si Si6 0.644287 0.337334 0.051937
Si Si7 0.751100 0.339436 0.713457
Si Si8 0.971761 0.833596 0.124254
O O1 0.369990 0.500000 0.799714
O O2 0.383221 0.309413 0.897633
O O3 0.318336 0.253983 0.746240
O O4 0.452554 0.278751 0.843478
O O5 0.847871 0.783662 0.184102
O O6 0.977116 0.774966 0.317102
O O7 0.953930 0.773443 0.180298
O O8 0.928624 0.000000 0.227944
O O9 0.714619 0.746867 0.086927
O O10 0.775423 0.821761 0.234530
O O11 0.761733 0.000000 0.131869
O O12 0.935852 0.773934 0.405770
O O13 0.070359 0.787869 0.475405
O O14 0.988193 0.000000 0.392975
O O15 0.608325 0.500000 0.572813
O O16 0.688259 0.283303 0.625494
O O17 0.660150 0.500000 0.051724
O O18 0.585675 0.279480 0.964443
O O19 0.770371 0.500000 0.712593
O O20 0.971977 0.000000 0.123569
#
# Coordination Sequence:
#
# PCOD8115963 Si02
#       8
#     8   8   8   8   8   8   8   8
#     4   9  17  29  44  60  78 105 142 178 203 229
#     4   9  15  24  39  60  86 109 131 165 205 243
#     4   9  16  26  41  63  87 107 128 161 208 251
#     4   8  12  19  34  59  87 109 128 158 198 240
#     4   8  12  19  35  60  87 108 128 157 198 242
#     4   9  17  29  44  60  79 105 138 175 207 236
#     4   9  15  25  42  64  87 107 128 163 208 246
#     4   9  17  28  42  57  75 106 144 174 201 235
#
# _framework density 16.244019999999999
#
# number of rings (size 3 to 8) (size 9 to 14) (size 15 to 20)
#    0.000    3.250    1.250    1.125    0.000    2.000 
#    0.000    0.625    0.000    4.500    0.000    2.625 
#    0.000    0.000    0.000    0.000    0.000    0.000 
#
# Total GULP energy -396596.268000 kJ/mol
# GULP energy per Si atom -12393.633375 kJ/mol
# Density = 1.620705 g / cm^3
# Si number density = 16.244020 Si / 1000 Ang^3
#
#
#
# Elastic Constant Matrix: (Units=GPa)
#
#
# Indices 1 2 3 4 5 6 
#
# 1 100.5347 25.8919 81.4898 0.0000 14.2006 0.0000
# 2 25.8919 26.0769 35.1133 0.0000 8.7213 0.0000
# 3 81.4898 35.1133 158.5797 0.0000 29.3971 0.0000
# 4 0.0000 0.0000 0.0000 15.0494 0.0000 6.4815
# 5 14.2006 8.7213 29.3971 0.0000 22.2646 0.0000
# 6 0.0000 0.0000 0.0000 6.4815 0.0000 14.3403
#
#
#
# Elastic Compliance Matrix: (Units=1/GPa)
#
#
# Indices 1 2 3 4 5 6 
#
# 1 0.018153 -0.008030 -0.007928 0.000000 0.002034 0.000000
# 2 -0.008030 0.059074 -0.007433 0.000000 -0.008204 0.000000
# 3 -0.007928 -0.007433 0.013967 0.000000 -0.010474 0.000000
# 4 0.000000 0.000000 0.000000 0.082509 0.000000 -0.037292
# 5 0.002034 -0.008204 -0.010474 0.000000 0.060659 0.000000
# 6 0.000000 0.000000 0.000000 -0.037292 0.000000 0.086589
#
#
# Mechanical properties :
#
#
# Convention : Reuss Voigt Hill
#
# Bulk Modulus (GPa) = 22.51606 63.35349 42.93477
# Shear Modulus (GPa) = 13.07061 19.84394 16.45727
#
# Velocity S-wave (km/s) = 2.83970 3.49895 3.18642
# Velocity P-wave (km/s) = 4.96418 7.44375 6.32663
#
# Compressibility (1/GPa) = 0.04441275
#
# Stress axis : x y z
#
# Youngs Moduli (GPa) = 55.08610 16.92798 71.59661
#
# Poissons Ratio (x) = 0.13594 0.56759
# Poissons Ratio (y) = 0.44236 0.53217
# Poissons Ratio (z) = 0.43670 0.12583
#
# Static dielectric constant tensor:
#      x y z
#    x 3.039590 0.000000 0.096520 
#    y 0.000000 2.606810 0.000000 
#    z 0.096520 0.000000 3.412230 
# 
# 
# High freq. dielectric constant tensor:
#      x y z
#    x 1.605830 0.000000 0.014360 
#    y 0.000000 1.567790 0.000000 
#    z 0.014360 0.000000 1.635490 
# 
# From -- ./inp_files/239620.got.cif
#   From: 2010.06.25/outbox.cif.g09.slc.cpg/sg12_120_cif.got.tgz:239620.got - 2010.06.28 00:19:55.
