data_PCOD8115449
_publ_section_title
;
Structure prediction by ZEFSAII (Michael W. Deem and Ramdas Pophale) SiO2 
 PCOD8115449
Probable space group: C 2/M
;
_chemical_formula_sum "Si O2"
_cell_formula_units_Z 56
_cell_length_a 15.153668
_cell_length_b 17.575244
_cell_length_c 11.720108
_cell_angle_alpha 90.000000
_cell_angle_beta 124.221648
_cell_angle_gamma 90.000000
_cell_volume 2580.994062
_symmetry_space_group_name_H-M "C 2/M"
_symmetry_group_IT_number 12
_symmetry_cell_setting 'monoclinic'
loop_
_space_group_symop_operation_xyz
x,y,z
-x,y,-z
-x,-y,-z
x,-y,z
1/2+x,1/2+y,z
1/2-x,1/2+y,-z
1/2-x,1/2-y,-z
1/2+x,1/2-y,z
loop_
_atom_site_type_symbol
_atom_site_label
_atom_site_fract_x
_atom_site_fract_y
_atom_site_fract_z
Si Si1 0.374992 0.651181 0.400373
Si Si2 0.465656 0.309937 0.851077
Si Si3 0.378127 0.410456 0.161137
Si Si4 0.006204 0.363452 0.135801
Si Si5 0.812883 0.413610 0.142019
Si Si6 0.298537 0.087816 0.576917
Si Si7 0.786723 0.681402 0.344749
O O1 0.500000 0.637480 0.500000
O O2 0.334288 0.618667 0.250167
O O3 0.319846 0.604313 0.462222
O O4 0.346672 0.739066 0.393032
O O5 0.512292 0.367380 0.790861
O O6 0.514330 0.226525 0.865930
O O7 0.339345 0.306876 0.746888
O O8 0.500000 0.340820 0.000000
O O9 0.400340 0.500000 0.180847
O O10 0.289758 0.387382 0.004140
O O11 0.121347 0.386705 0.265724
O O12 0.917090 0.408420 0.140255
O O13 0.000000 0.388610 0.000000
O O14 0.798427 0.500000 0.173026
O O15 0.826303 0.361190 0.261296
O O16 0.323784 0.134660 0.481574
O O17 0.311124 0.000000 0.555002
#
# Coordination Sequence:
#
# PCOD8115449 Si02
#       7
#     8   8   8   8   8   8   8
#     4  12  27  45  70  99 135 180 228 281 337 400
#     4  11  23  43  70 102 134 178 224 278 340 402
#     4  11  25  43  69 103 136 175 226 284 341 398
#     4  11  25  45  71 102 137 180 230 279 336 402
#     4  11  25  43  68 102 140 177 223 284 341 396
#     4  12  27  46  71 101 137 182 226 278 341 404
#     4  12  26  45  69 101 139 180 227 277 336 410
#
# _framework density 21.697067000000001
#
# number of rings (size 3 to 8) (size 9 to 14) (size 15 to 20)
#    0.000    0.571    2.857    4.286    6.000    7.143 
#    0.000    1.429    0.000    0.000    0.000    0.000 
#    0.000    0.000    0.000    0.000    0.000    0.000 
#
# Total GULP energy -347459.875957 kJ/mol
# GULP energy per Si atom -12409.281284 kJ/mol
# Density = 2.164768 g / cm^3
# Si number density = 21.697067 Si / 1000 Ang^3
#
#
#
# Elastic Constant Matrix: (Units=GPa)
#
#
# Indices 1 2 3 4 5 6 
#
# 1 97.9097 16.8298 26.0654 0.0000 -1.9966 0.0000
# 2 16.8298 101.3359 33.8112 0.0000 -11.0176 0.0000
# 3 26.0654 33.8112 110.1327 0.0000 -7.7333 0.0000
# 4 0.0000 0.0000 0.0000 23.7569 0.0000 -8.7576
# 5 -1.9966 -11.0176 -7.7333 0.0000 37.3594 0.0000
# 6 0.0000 0.0000 0.0000 -8.7576 0.0000 27.5503
#
#
#
# Elastic Compliance Matrix: (Units=1/GPa)
#
#
# Indices 1 2 3 4 5 6 
#
# 1 0.011005 -0.001088 -0.002285 0.000000 -0.000206 0.000000
# 2 -0.001088 0.011353 -0.003041 0.000000 0.002660 0.000000
# 3 -0.002285 -0.003041 0.010637 0.000000 0.001183 0.000000
# 4 0.000000 0.000000 0.000000 0.047680 0.000000 0.015156
# 5 -0.000206 0.002660 0.001183 0.000000 0.027785 0.000000
# 6 0.000000 0.000000 0.000000 0.015156 0.000000 0.041115
#
#
# Mechanical properties :
#
#
# Convention : Reuss Voigt Hill
#
# Bulk Modulus (GPa) = 49.58524 51.42123 50.50324
# Shear Modulus (GPa) = 29.56387 33.24479 31.40433
#
# Velocity S-wave (km/s) = 3.69531 3.91861 3.80860
# Velocity P-wave (km/s) = 6.41172 6.65019 6.53205
#
# Compressibility (1/GPa) = 0.02016729
#
# Stress axis : x y z
#
# Youngs Moduli (GPa) = 90.87138 88.08458 94.00733
#
# Poissons Ratio (x) = 0.09580 0.21481
# Poissons Ratio (y) = 0.09883 0.28589
# Poissons Ratio (z) = 0.20764 0.26788
#
# Static dielectric constant tensor:
#      x y z
#    x 3.932480 0.000000 -0.049100 
#    y 0.000000 3.949980 0.000000 
#    z -0.049100 0.000000 4.079540 
# 
# 
# High freq. dielectric constant tensor:
#      x y z
#    x 1.861080 0.000000 -0.003800 
#    y 0.000000 1.861030 0.000000 
#    z -0.003800 0.000000 1.864980 
# 
# From -- ./inp_files/146241.got.cif
#   From: 2010.06.25/outbox.cif.g09.slc.cpg/sg12_74_cif.got.tgz:146241.got - 2010.06.28 00:19:55.
