data_PCOD8115286
_publ_section_title
;
Structure prediction by ZEFSAII (Michael W. Deem and Ramdas Pophale) SiO2 
 PCOD8115286
Probable space group: C 2/M
;
_chemical_formula_sum "Si O2"
_cell_formula_units_Z 40
_cell_length_a 16.371258
_cell_length_b 27.391372
_cell_length_c 9.639325
_cell_angle_alpha 90.000000
_cell_angle_beta 152.150494
_cell_angle_gamma 90.000000
_cell_volume 2019.293941
_symmetry_space_group_name_H-M "C 2/M"
_symmetry_group_IT_number 12
_symmetry_cell_setting 'monoclinic'
loop_
_space_group_symop_operation_xyz
x,y,z
-x,y,-z
-x,-y,-z
x,-y,z
1/2+x,1/2+y,z
1/2-x,1/2+y,-z
1/2-x,1/2-y,-z
1/2+x,1/2-y,z
loop_
_atom_site_type_symbol
_atom_site_label
_atom_site_fract_x
_atom_site_fract_y
_atom_site_fract_z
Si Si1 0.509001 0.054682 0.349269
Si Si2 0.228570 0.714192 0.093451
Si Si3 0.830989 0.722986 0.491976
Si Si4 0.162711 0.109076 0.828721
Si Si5 0.669963 0.620923 0.167260
O O1 0.500000 0.054205 0.500000
O O2 0.671041 0.087255 0.540439
O O3 0.530639 0.000000 0.322017
O O4 0.327604 0.077526 0.025841
O O5 0.337250 0.736252 0.383170
O O6 0.315068 0.663499 0.189523
O O7 0.250000 0.750000 0.000000
O O8 0.024777 0.705789 0.822387
O O9 0.750000 0.750000 0.500000
O O10 0.716737 0.677403 0.265914
O O11 0.000000 0.086104 0.500000
O O12 0.133157 0.110070 0.950187
O O13 0.500000 0.606397 0.000000
#
# Coordination Sequence:
#
# PCOD8115286 Si02
#       5
#     8   8   8   8   8
#     4   9  20  42  70  93 120 163 211 257 310 368
#     4  12  23  38  60  86 123 165 209 246 300 365
#     4  12  25  40  56  90 125 167 205 253 306 366
#     4  11  23  40  63  94 124 163 208 256 305 368
#     4  11  23  41  62  92 129 161 206 257 308 368
#
# _framework density 19.808903999999998
#
# number of rings (size 3 to 8) (size 9 to 14) (size 15 to 20)
#    0.000    1.000    4.000    3.600    2.800    0.800 
#    0.000    1.000    0.000    1.200    0.000    0.000 
#    0.000    0.000    0.000    0.000    0.000    0.000 
#
# Total GULP energy -248025.216807 kJ/mol
# GULP energy per Si atom -12401.260840 kJ/mol
# Density = 1.976382 g / cm^3
# Si number density = 19.808904 Si / 1000 Ang^3
#
#
#
# Elastic Constant Matrix: (Units=GPa)
#
#
# Indices 1 2 3 4 5 6 
#
# 1 94.8551 37.9390 37.5181 0.0000 13.9569 0.0000
# 2 37.9390 111.2198 43.5069 0.0000 5.1023 0.0000
# 3 37.5181 43.5069 139.9632 0.0000 18.8959 0.0000
# 4 0.0000 0.0000 0.0000 24.8813 0.0000 6.2745
# 5 13.9569 5.1023 18.8959 0.0000 39.2879 0.0000
# 6 0.0000 0.0000 0.0000 6.2745 0.0000 19.9361
#
#
#
# Elastic Compliance Matrix: (Units=1/GPa)
#
#
# Indices 1 2 3 4 5 6 
#
# 1 0.013249 -0.003589 -0.001993 0.000000 -0.003282 0.000000
# 2 -0.003589 0.011210 -0.002671 0.000000 0.001104 0.000000
# 3 -0.001993 -0.002671 0.008948 0.000000 -0.003249 0.000000
# 4 0.000000 0.000000 0.000000 0.043656 0.000000 -0.013740
# 5 -0.003282 0.001104 -0.003249 0.000000 0.028038 0.000000
# 6 0.000000 0.000000 0.000000 -0.013740 0.000000 0.054485
#
#
# Mechanical properties :
#
#
# Convention : Reuss Voigt Hill
#
# Bulk Modulus (GPa) = 59.17196 64.88512 62.02854
# Shear Modulus (GPa) = 27.51394 31.95934 29.73664
#
# Velocity S-wave (km/s) = 3.73093 4.02105 3.87870
# Velocity P-wave (km/s) = 6.96391 7.37463 7.17221
#
# Compressibility (1/GPa) = 0.01689990
#
# Stress axis : x y z
#
# Youngs Moduli (GPa) = 75.47647 89.20606 111.75821
#
# Poissons Ratio (x) = 0.32020 0.22270
# Poissons Ratio (y) = 0.27092 0.29856
# Poissons Ratio (z) = 0.15040 0.23831
#
# Static dielectric constant tensor:
#      x y z
#    x 3.603710 0.000000 -0.019760 
#    y 0.000000 1.164350 0.000000 
#    z -0.019760 0.000000 4.524500 
# 
# 
# High freq. dielectric constant tensor:
#      x y z
#    x 1.761830 0.000000 0.014330 
#    y 0.000000 1.768390 0.000000 
#    z 0.014330 0.000000 1.787350 
# 
# From -- ./inp_files/41390.got.cif
#   From: 2010.06.25/outbox.cif.g09.slc.cpg/sg12_21_cif.got.tgz:41390.got - 2010.06.28 00:19:55.
