data_PCOD8115316
_publ_section_title
;
Structure prediction by ZEFSAII (Michael W. Deem and Ramdas Pophale) SiO2 
 PCOD8115316
Probable space group: C 2/M
;
_chemical_formula_sum "Si O2"
_cell_formula_units_Z 60
_cell_length_a 10.430864
_cell_length_b 29.810385
_cell_length_c 9.300041
_cell_angle_alpha 90.000000
_cell_angle_beta 80.307945
_cell_angle_gamma 90.000000
_cell_volume 2850.554218
_symmetry_space_group_name_H-M "C 2/M"
_symmetry_group_IT_number 12
_symmetry_cell_setting 'monoclinic'
loop_
_space_group_symop_operation_xyz
x,y,z
-x,y,-z
-x,-y,-z
x,-y,z
1/2+x,1/2+y,z
1/2-x,1/2+y,-z
1/2-x,1/2-y,-z
1/2+x,1/2-y,z
loop_
_atom_site_type_symbol
_atom_site_label
_atom_site_fract_x
_atom_site_fract_y
_atom_site_fract_z
Si Si1 0.352307 0.051294 0.066144
Si Si2 0.412690 0.321790 0.141235
Si Si3 0.000000 0.343150 0.500000
Si Si4 0.906807 0.180567 0.651669
Si Si5 0.133590 0.919257 0.896245
Si Si6 0.306596 0.108814 0.353399
Si Si7 0.702233 0.228817 0.359719
Si Si8 0.876715 0.052454 0.430213
O O1 0.309552 0.083982 0.201425
O O2 0.342678 0.000000 0.121325
O O3 0.500000 0.063448 0.000000
O O4 0.257289 0.057276 0.947503
O O5 0.514359 0.342769 0.235892
O O6 0.337207 0.365803 0.099148
O O7 0.319925 0.285576 0.233509
O O8 0.500000 0.298540 0.000000
O O9 0.946882 0.374876 0.382315
O O10 0.887783 0.313700 0.593782
O O11 0.777401 0.153767 0.642310
O O12 0.873805 0.231561 0.707338
O O13 0.000000 0.183059 0.500000
O O14 0.113852 0.936683 0.738822
O O15 0.000000 0.932405 0.000000
O O16 0.251048 0.076104 0.485221
O O17 0.750000 0.250000 0.500000
O O18 0.000000 0.070863 0.500000
O O19 0.862492 0.000000 0.457899
#
# Coordination Sequence:
#
# PCOD8115316 Si02
#       8
#     8   8   4   8   8   8   8   8
#     4  11  27  49  69  96 141 191 231 280 354 430
#     4  11  24  41  67  99 133 170 226 291 342 394
#     4  12  24  40  67 104 130 182 237 282 346 418
#     4  12  22  42  69  96 134 178 223 278 346 402
#     4  11  23  44  72 101 136 181 233 283 346 416
#     4  12  25  41  67  99 134 178 228 290 338 412
#     4  12  22  43  68  97 134 181 231 278 340 426
#     4  11  23  40  68 105 138 173 227 290 344 401
#
# _framework density 21.048538000000001
#
# number of rings (size 3 to 8) (size 9 to 14) (size 15 to 20)
#    0.000    0.533    3.333    6.000    3.733    2.667 
#    0.000    1.333    0.000    0.000    0.000    0.000 
#    0.000    0.000    0.000    0.000    0.000    0.000 
#
# Total GULP energy -372058.715471 kJ/mol
# GULP energy per Si atom -12401.957182 kJ/mol
# Density = 2.100063 g / cm^3
# Si number density = 21.048538 Si / 1000 Ang^3
#
#
#
# Elastic Constant Matrix: (Units=GPa)
#
#
# Indices 1 2 3 4 5 6 
#
# 1 130.1237 40.1389 65.2417 0.0000 3.3912 0.0000
# 2 40.1389 90.4782 51.8885 0.0000 -4.0053 0.0000
# 3 65.2417 51.8885 130.8320 0.0000 -6.6742 0.0000
# 4 0.0000 0.0000 0.0000 45.9807 0.0000 -10.5157
# 5 3.3912 -4.0053 -6.6742 0.0000 32.0963 0.0000
# 6 0.0000 0.0000 0.0000 -10.5157 0.0000 49.6372
#
#
#
# Elastic Compliance Matrix: (Units=1/GPa)
#
#
# Indices 1 2 3 4 5 6 
#
# 1 0.010737 -0.002237 -0.004588 0.000000 -0.002368 0.000000
# 2 -0.002237 0.014784 -0.004692 0.000000 0.001106 0.000000
# 3 -0.004588 -0.004692 0.011913 0.000000 0.002376 0.000000
# 4 0.000000 0.000000 0.000000 0.022856 0.000000 0.004842
# 5 -0.002368 0.001106 0.002376 0.000000 0.032039 0.000000
# 6 0.000000 0.000000 0.000000 0.004842 0.000000 0.021172
#
#
# Mechanical properties :
#
#
# Convention : Reuss Voigt Hill
#
# Bulk Modulus (GPa) = 69.43640 73.99692 71.71666
# Shear Modulus (GPa) = 35.37725 38.48716 36.93221
#
# Velocity S-wave (km/s) = 4.10414 4.28073 4.19336
# Velocity P-wave (km/s) = 7.45110 7.72428 7.58892
#
# Compressibility (1/GPa) = 0.01440167
#
# Stress axis : x y z
#
# Youngs Moduli (GPa) = 93.13628 67.63919 83.94129
#
# Poissons Ratio (x) = 0.15131 0.38510
# Poissons Ratio (y) = 0.20835 0.39382
# Poissons Ratio (z) = 0.42729 0.31734
#
# Static dielectric constant tensor:
#      x y z
#    x 3.888500 0.000000 0.023210 
#    y 0.000000 4.024300 0.000000 
#    z 0.023210 0.000000 3.832400 
# 
# 
# High freq. dielectric constant tensor:
#      x y z
#    x 1.830390 0.000000 0.002310 
#    y 0.000000 1.835550 0.000000 
#    z 0.002310 0.000000 1.827390 
# 
# From -- ./inp_files/54685.got.cif
#   From: 2010.06.25/outbox.cif.g09.slc.cpg/sg12_28_cif.got.tgz:54685.got - 2010.06.28 00:19:55.
