data_PCOD8115277
_publ_section_title
;
Structure prediction by ZEFSAII (Michael W. Deem and Ramdas Pophale) SiO2 
 PCOD8115277
Probable space group: C 2/M
;
_chemical_formula_sum "Si O2"
_cell_formula_units_Z 56
_cell_length_a 24.609281
_cell_length_b 8.450829
_cell_length_c 16.642475
_cell_angle_alpha 90.000000
_cell_angle_beta 120.138757
_cell_angle_gamma 90.000000
_cell_volume 2993.214571
_symmetry_space_group_name_H-M "C 2/M"
_symmetry_group_IT_number 12
_symmetry_cell_setting 'monoclinic'
loop_
_space_group_symop_operation_xyz
x,y,z
-x,y,-z
-x,-y,-z
x,-y,z
1/2+x,1/2+y,z
1/2-x,1/2+y,-z
1/2-x,1/2-y,-z
1/2+x,1/2-y,z
loop_
_atom_site_type_symbol
_atom_site_label
_atom_site_fract_x
_atom_site_fract_y
_atom_site_fract_z
Si Si1 0.329532 0.183984 0.915279
Si Si2 0.004095 0.681661 0.213156
Si Si3 0.442955 0.315122 0.901323
Si Si4 0.198362 0.317913 0.786080
Si Si5 0.131341 0.184528 0.889232
Si Si6 0.901608 0.815377 0.395865
Si Si7 0.527089 0.684436 0.395507
O O1 0.377476 0.276882 0.894536
O O2 0.259899 0.209371 0.829759
O O3 0.346934 0.000000 0.928851
O O4 0.331244 0.252810 0.006157
O O5 0.983532 0.500000 0.193336
O O6 0.942871 0.790025 0.155232
O O7 0.053464 0.721370 0.179790
O O8 0.038074 0.716229 0.322981
O O9 0.447427 0.500000 0.886694
O O10 0.500000 0.258160 0.000000
O O11 0.218723 0.500000 0.803967
O O12 0.154822 0.278148 0.829377
O O13 0.158906 0.284265 0.675842
O O14 0.145412 0.000000 0.888281
O O15 0.917839 0.773997 0.500323
O O16 0.960203 0.768617 0.383394
O O17 0.886905 0.000000 0.374987
O O18 0.528177 0.500000 0.375101
#
# Coordination Sequence:
#
# PCOD8115277 Si02
#       7
#     8   8   8   8   8   8   8
#     4  12  25  41  60  83 114 152 195 239 283 339
#     4  12  23  35  57  88 119 151 190 237 286 339
#     4  11  23  40  62  84 112 152 193 237 284 335
#     4  12  24  38  57  85 119 155 192 234 286 344
#     4  12  23  38  57  82 117 155 193 234 284 340
#     4   9  18  34  57  84 115 152 191 232 284 340
#     4   9  18  34  57  84 116 152 189 233 286 341
#
# _framework density 18.708983
#
# number of rings (size 3 to 8) (size 9 to 14) (size 15 to 20)
#    0.000    1.000    2.857    6.857    0.000    1.143 
#    0.000    1.429    0.000    0.857    0.000    0.000 
#    0.000    0.000    0.000    0.000    0.000    0.000 
#
# Total GULP energy -347384.803451 kJ/mol
# GULP energy per Si atom -12406.600123 kJ/mol
# Density = 1.866640 g / cm^3
# Si number density = 18.708983 Si / 1000 Ang^3
#
#
#
# Elastic Constant Matrix: (Units=GPa)
#
#
# Indices 1 2 3 4 5 6 
#
# 1 59.8450 8.2813 35.0779 0.0000 3.9229 0.0000
# 2 8.2813 78.3597 34.3276 0.0000 -6.2732 0.0000
# 3 35.0779 34.3276 124.9605 0.0000 1.2259 0.0000
# 4 0.0000 0.0000 0.0000 29.4440 0.0000 1.6107
# 5 3.9229 -6.2732 1.2259 0.0000 27.1984 0.0000
# 6 0.0000 0.0000 0.0000 1.6107 0.0000 27.0559
#
#
#
# Elastic Compliance Matrix: (Units=1/GPa)
#
#
# Indices 1 2 3 4 5 6 
#
# 1 0.020192 0.000145 -0.005682 0.000000 -0.002623 0.000000
# 2 0.000145 0.014855 -0.004157 0.000000 0.003593 0.000000
# 3 -0.005682 -0.004157 0.010746 0.000000 -0.000623 0.000000
# 4 0.000000 0.000000 0.000000 0.034074 0.000000 -0.002028
# 5 -0.002623 0.003593 -0.000623 0.000000 0.038002 0.000000
# 6 0.000000 0.000000 0.000000 -0.002028 0.000000 0.037081
#
#
# Mechanical properties :
#
#
# Convention : Reuss Voigt Hill
#
# Bulk Modulus (GPa) = 37.87129 46.50430 42.18780
# Shear Modulus (GPa) = 27.30164 29.10491 28.20327
#
# Velocity S-wave (km/s) = 3.82420 3.94847 3.88683
# Velocity P-wave (km/s) = 6.30758 6.76002 6.53771
#
# Compressibility (1/GPa) = 0.02640523
#
# Stress axis : x y z
#
# Youngs Moduli (GPa) = 49.52369 67.31783 93.06060
#
# Poissons Ratio (x) = -0.00979 0.52881
# Poissons Ratio (y) = -0.00720 0.38684
# Poissons Ratio (z) = 0.28142 0.27983
#
# Static dielectric constant tensor:
#      x y z
#    x 3.217740 0.000000 -0.020050 
#    y 0.000000 3.394660 0.000000 
#    z -0.020050 0.000000 3.603210 
# 
# 
# High freq. dielectric constant tensor:
#      x y z
#    x 1.700290 0.000000 -0.002220 
#    y 0.000000 1.734420 0.000000 
#    z -0.002220 0.000000 1.731810 
# 
# From -- ./inp_files/238958.got.cif
#   From: 2010.06.25/outbox.cif.g09.slc.cpg/sg12_120_cif.got.tgz:238958.got - 2010.06.28 00:19:55.
