data_PCOD8115282
_publ_section_title
;
Structure prediction by ZEFSAII (Michael W. Deem and Ramdas Pophale) SiO2 
 PCOD8115282
Probable space group: C 2/M
;
_chemical_formula_sum "Si O2"
_cell_formula_units_Z 40
_cell_length_a 14.588992
_cell_length_b 8.468307
_cell_length_c 30.248701
_cell_angle_alpha 90.000000
_cell_angle_beta 146.996741
_cell_angle_gamma 90.000000
_cell_volume 2035.520171
_symmetry_space_group_name_H-M "C 2/M"
_symmetry_group_IT_number 12
_symmetry_cell_setting 'monoclinic'
loop_
_space_group_symop_operation_xyz
x,y,z
-x,y,-z
-x,-y,-z
x,-y,z
1/2+x,1/2+y,z
1/2-x,1/2+y,-z
1/2-x,1/2-y,-z
1/2+x,1/2-y,z
loop_
_atom_site_type_symbol
_atom_site_label
_atom_site_fract_x
_atom_site_fract_y
_atom_site_fract_z
Si Si1 0.647464 0.185240 0.499835
Si Si2 0.432306 0.683437 0.084414
Si Si3 0.724744 0.813122 0.629097
Si Si4 0.138352 0.316564 0.091861
Si Si5 0.527162 0.181186 0.805881
O O1 0.750000 0.250000 0.500000
O O2 0.451710 0.236278 0.419365
O O3 0.726727 0.240680 0.578535
O O4 0.657946 0.000000 0.501875
O O5 0.439071 0.500000 0.074507
O O6 0.568734 0.781201 0.112169
O O7 0.476621 0.704959 0.153454
O O8 0.250000 0.750000 0.000000
O O9 0.869076 0.716160 0.711297
O O10 0.755910 0.000000 0.645953
O O11 0.184290 0.500000 0.105398
O O12 0.304120 0.212898 0.153267
O O13 0.000000 0.264675 0.000000
O O14 0.523272 0.000000 0.819677
#
# Coordination Sequence:
#
# PCOD8115282 Si02
#       5
#     8   8   8   8   8
#     4   9  19  37  64  90 118 157 196 241 298 358
#     4  12  24  40  62  87 117 156 202 252 303 359
#     4   9  20  40  60  85 122 161 198 241 299 360
#     4  11  23  40  63  87 115 156 203 252 305 356
#     4  12  25  40  61  90 124 162 204 252 304 359
#
# _framework density 19.650997
#
# number of rings (size 3 to 8) (size 9 to 14) (size 15 to 20)
#    0.000    1.400    2.000    5.400    0.000    4.000 
#    0.000    6.000    0.000    0.000    0.000    0.000 
#    0.000    0.000    0.000    0.000    0.000    0.000 
#
# Total GULP energy -248075.072502 kJ/mol
# GULP energy per Si atom -12403.753625 kJ/mol
# Density = 1.960627 g / cm^3
# Si number density = 19.650997 Si / 1000 Ang^3
#
#
#
# Elastic Constant Matrix: (Units=GPa)
#
#
# Indices 1 2 3 4 5 6 
#
# 1 150.0333 15.1636 55.9902 0.0000 3.5673 0.0000
# 2 15.1636 68.5813 35.4508 0.0000 3.8936 0.0000
# 3 55.9902 35.4508 135.8868 0.0000 4.8684 0.0000
# 4 0.0000 0.0000 0.0000 27.6093 0.0000 0.5379
# 5 3.5673 3.8936 4.8684 0.0000 24.4535 0.0000
# 6 0.0000 0.0000 0.0000 0.5379 0.0000 37.4164
#
#
#
# Elastic Compliance Matrix: (Units=1/GPa)
#
#
# Indices 1 2 3 4 5 6 
#
# 1 0.007883 -0.000052 -0.003216 0.000000 -0.000501 0.000000
# 2 -0.000052 0.016935 -0.004331 0.000000 -0.001827 0.000000
# 3 -0.003216 -0.004331 0.009843 0.000000 -0.000801 0.000000
# 4 0.000000 0.000000 0.000000 0.036230 0.000000 -0.000521
# 5 -0.000501 -0.001827 -0.000801 0.000000 0.041417 0.000000
# 6 0.000000 0.000000 0.000000 -0.000521 0.000000 0.026734
#
#
# Mechanical properties :
#
#
# Convention : Reuss Voigt Hill
#
# Bulk Modulus (GPa) = 51.38279 63.07899 57.23089
# Shear Modulus (GPa) = 31.10835 34.42230 32.76532
#
# Velocity S-wave (km/s) = 3.98306 4.18985 4.08776
# Velocity P-wave (km/s) = 6.88168 7.45492 7.17402
#
# Compressibility (1/GPa) = 0.01946177
#
# Stress axis : x y z
#
# Youngs Moduli (GPa) = 126.86040 59.04805 101.59446
#
# Poissons Ratio (x) = 0.00306 0.32678
# Poissons Ratio (y) = 0.00657 0.44005
# Poissons Ratio (z) = 0.40804 0.25576
#
# Static dielectric constant tensor:
#      x y z
#    x 3.414560 0.000000 0.017290 
#    y 0.000000 3.682430 0.000000 
#    z 0.017290 0.000000 3.640010 
# 
# 
# High freq. dielectric constant tensor:
#      x y z
#    x 1.776510 0.000000 0.001580 
#    y 0.000000 1.766860 0.000000 
#    z 0.001580 0.000000 1.764900 
# 
# From -- ./inp_files/211230.got.cif
#   From: 2010.06.25/outbox.cif.g09.slc.cpg/sg12_106_cif.got.tgz:211230.got - 2010.06.28 00:19:55.
