data_PCOD8115051
_publ_section_title
;
Structure prediction by ZEFSAII (Michael W. Deem and Ramdas Pophale) SiO2 
 PCOD8115051
Probable space group: C 2/M
;
_chemical_formula_sum "Si O2"
_cell_formula_units_Z 40
_cell_length_a 15.184808
_cell_length_b 14.639536
_cell_length_c 11.526689
_cell_angle_alpha 90.000000
_cell_angle_beta 130.132802
_cell_angle_gamma 90.000000
_cell_volume 1959.063498
_symmetry_space_group_name_H-M "C 2/M"
_symmetry_group_IT_number 12
_symmetry_cell_setting 'monoclinic'
loop_
_space_group_symop_operation_xyz
x,y,z
-x,y,-z
-x,-y,-z
x,-y,z
1/2+x,1/2+y,z
1/2-x,1/2+y,-z
1/2-x,1/2-y,-z
1/2+x,1/2-y,z
loop_
_atom_site_type_symbol
_atom_site_label
_atom_site_fract_x
_atom_site_fract_y
_atom_site_fract_z
Si Si1 0.759190 0.643361 0.022324
Si Si2 0.024101 0.605306 0.650905
Si Si3 0.367114 0.898622 0.872096
Si Si4 0.362157 0.229875 0.666484
Si Si5 0.504175 0.397625 0.870778
O O1 0.842101 0.618340 0.200920
O O2 0.750000 0.750000 0.000000
O O3 0.806346 0.600891 0.944345
O O4 0.634960 0.601283 0.939124
O O5 0.987935 0.500000 0.630166
O O6 0.000000 0.640932 0.500000
O O7 0.947136 0.661270 0.674445
O O8 0.318455 0.819224 0.747363
O O9 0.350591 0.000000 0.803693
O O10 0.500000 0.874915 0.000000
O O11 0.250000 0.250000 0.500000
O O12 0.426455 0.326060 0.735959
O O13 0.453645 0.500000 0.810486
O O14 0.500000 0.367345 0.000000
#
# Coordination Sequence:
#
# PCOD8115051 Si02
#       5
#     8   8   8   8   8
#     4  12  22  42  72  98 133 171 218 273 329 388
#     4  11  25  43  67  98 132 171 218 270 327 389
#     4  11  22  41  69 100 129 165 221 274 321 385
#     4  12  26  42  66  94 136 177 214 269 330 388
#     4  11  25  44  66  97 132 171 220 271 327 390
#
# _framework density 20.417919000000001
#
# number of rings (size 3 to 8) (size 9 to 14) (size 15 to 20)
#    0.000    0.600    4.000    4.200    5.600    1.600 
#    0.000    0.000    0.000    3.000    0.000    0.000 
#    0.000    0.000    0.000    0.000    0.000    0.000 
#
# Total GULP energy -248074.842912 kJ/mol
# GULP energy per Si atom -12403.742146 kJ/mol
# Density = 2.037145 g / cm^3
# Si number density = 20.417919 Si / 1000 Ang^3
#
#
#
# Elastic Constant Matrix: (Units=GPa)
#
#
# Indices 1 2 3 4 5 6 
#
# 1 113.9588 21.6213 54.7198 0.0000 -0.7059 0.0000
# 2 21.6213 125.0656 56.3266 0.0000 0.6889 0.0000
# 3 54.7198 56.3266 154.5426 0.0000 4.7043 0.0000
# 4 0.0000 0.0000 0.0000 33.1990 0.0000 -7.0677
# 5 -0.7059 0.6889 4.7043 0.0000 34.0251 0.0000
# 6 0.0000 0.0000 0.0000 -7.0677 0.0000 30.5318
#
#
#
# Elastic Compliance Matrix: (Units=1/GPa)
#
#
# Indices 1 2 3 4 5 6 
#
# 1 0.010594 -0.000163 -0.003714 0.000000 0.000737 0.000000
# 2 -0.000163 0.009571 -0.003439 0.000000 0.000278 0.000000
# 3 -0.003714 -0.003439 0.009078 0.000000 -0.001263 0.000000
# 4 0.000000 0.000000 0.000000 0.031683 0.000000 0.007334
# 5 0.000737 0.000278 -0.001263 0.000000 0.029574 0.000000
# 6 0.000000 0.000000 0.000000 0.007334 0.000000 0.034451
#
#
# Mechanical properties :
#
#
# Convention : Reuss Voigt Hill
#
# Bulk Modulus (GPa) = 68.44350 73.21137 70.82744
# Shear Modulus (GPa) = 34.61321 36.94447 35.77884
#
# Velocity S-wave (km/s) = 4.12179 4.25834 4.19062
# Velocity P-wave (km/s) = 7.49975 7.75320 7.62753
#
# Compressibility (1/GPa) = 0.01461059
#
# Stress axis : x y z
#
# Youngs Moduli (GPa) = 94.39313 104.47767 110.15892
#
# Poissons Ratio (x) = 0.01701 0.40915
# Poissons Ratio (y) = 0.01536 0.37888
# Poissons Ratio (z) = 0.35059 0.35934
#
# Static dielectric constant tensor:
#      x y z
#    x 16.125020 0.000000 7.738750 
#    y 0.000000 3.574630 0.000000 
#    z 7.738750 0.000000 8.462090 
# 
# 
# High freq. dielectric constant tensor:
#      x y z
#    x 1.804160 0.000000 -0.006000 
#    y 0.000000 1.823260 0.000000 
#    z -0.006000 0.000000 1.788130 
# 
# From -- ./inp_files/142502.got.cif
#   From: 2010.06.25/outbox.cif.g09.slc.cpg/sg12_72_cif.got.tgz:142502.got - 2010.06.28 00:19:55.
