data_PCOD8115531
_publ_section_title
;
Structure prediction by ZEFSAII (Michael W. Deem and Ramdas Pophale) SiO2 
 PCOD8115531
Probable space group: C 2/M
;
_chemical_formula_sum "Si O2"
_cell_formula_units_Z 48
_cell_length_a 30.723742
_cell_length_b 8.842132
_cell_length_c 18.285029
_cell_angle_alpha 90.000000
_cell_angle_beta 151.333872
_cell_angle_gamma 90.000000
_cell_volume 2382.872905
_symmetry_space_group_name_H-M "C 2/M"
_symmetry_group_IT_number 12
_symmetry_cell_setting 'monoclinic'
loop_
_space_group_symop_operation_xyz
x,y,z
-x,y,-z
-x,-y,-z
x,-y,z
1/2+x,1/2+y,z
1/2-x,1/2+y,-z
1/2-x,1/2-y,-z
1/2+x,1/2-y,z
loop_
_atom_site_type_symbol
_atom_site_label
_atom_site_fract_x
_atom_site_fract_y
_atom_site_fract_z
Si Si1 0.829880 0.322797 0.865107
Si Si2 0.843287 0.677822 0.323110
Si Si3 0.471016 0.177305 0.778505
Si Si4 0.161399 0.174520 0.836595
Si Si5 0.598735 0.174822 0.176730
Si Si6 0.026984 0.173873 0.370675
O O1 0.804526 0.500000 0.829706
O O2 0.756719 0.227053 0.800572
O O3 0.832062 0.261358 0.783157
O O4 0.925782 0.294845 0.045156
O O5 0.845236 0.500000 0.315942
O O6 0.868793 0.751787 0.283772
O O7 0.917556 0.725972 0.491072
O O8 0.401848 0.238584 0.740768
O O9 0.447809 0.273703 0.673294
O O10 0.455443 0.000000 0.739852
O O11 0.079941 0.196913 0.773851
O O12 0.182988 0.000000 0.854292
O O13 0.250000 0.250000 0.000000
O O14 0.619757 0.000000 0.214482
O O15 0.500000 0.202498 0.000000
O O16 0.055767 0.000000 0.423154
#
# Coordination Sequence:
#
# PCOD8115531 Si02
#       6
#     8   8   8   8   8   8
#     4   9  17  33  58  84 113 148 185 228 277 328
#     4  12  25  39  57  82 113 148 187 229 275 328
#     4   9  17  32  57  86 113 144 185 229 274 328
#     4  11  24  42  64  88 113 142 180 225 272 327
#     4   7  12  26  51  82 111 142 182 226 272 323
#     4  11  24  40  57  80 112 148 185 226 275 329
#
# _framework density 20.143753
#
# number of rings (size 3 to 8) (size 9 to 14) (size 15 to 20)
#    0.000    2.167    0.000    6.000    0.000    8.000 
#    0.000    1.667    0.000    3.000    0.000    0.000 
#    0.000    0.000    0.000    0.000    0.000    0.000 
#
# Total GULP energy -297445.723257 kJ/mol
# GULP energy per Si atom -12393.571802 kJ/mol
# Density = 2.009790 g / cm^3
# Si number density = 20.143753 Si / 1000 Ang^3
#
#
#
# Elastic Constant Matrix: (Units=GPa)
#
#
# Indices 1 2 3 4 5 6 
#
# 1 104.2902 29.7485 7.4908 0.0000 -32.3075 0.0000
# 2 29.7485 91.6352 19.2993 0.0000 -9.7741 0.0000
# 3 7.4908 19.2993 51.8425 0.0000 -19.1461 0.0000
# 4 0.0000 0.0000 0.0000 28.1716 0.0000 -3.3198
# 5 -32.3075 -9.7741 -19.1461 0.0000 29.6191 0.0000
# 6 0.0000 0.0000 0.0000 -3.3198 0.0000 32.1627
#
#
#
# Elastic Compliance Matrix: (Units=1/GPa)
#
#
# Indices 1 2 3 4 5 6 
#
# 1 0.017257 -0.004818 0.007441 0.000000 0.022044 0.000000
# 2 -0.004818 0.013230 -0.005987 0.000000 -0.004760 0.000000
# 3 0.007441 -0.005987 0.029832 0.000000 0.025425 0.000000
# 4 0.000000 0.000000 0.000000 0.035934 0.000000 0.003709
# 5 0.022044 -0.004760 0.025425 0.000000 0.072671 0.000000
# 6 0.000000 0.000000 0.000000 0.003709 0.000000 0.031475
#
#
# Mechanical properties :
#
#
# Convention : Reuss Voigt Hill
#
# Bulk Modulus (GPa) = 18.65946 40.09389 29.37667
# Shear Modulus (GPa) = 22.22307 30.73931 26.48119
#
# Velocity S-wave (km/s) = 3.32509 3.91064 3.62969
# Velocity P-wave (km/s) = 4.90151 6.35121 5.67286
#
# Compressibility (1/GPa) = 0.05359213
#
# Stress axis : x y z
#
# Youngs Moduli (GPa) = 57.94618 75.58422 33.52056
#
# Poissons Ratio (x) = 0.36419 -0.24943
# Poissons Ratio (y) = 0.27921 0.20068
# Poissons Ratio (z) = -0.43119 0.45251
#
# Static dielectric constant tensor:
#      x y z
#    x 5.155970 0.000000 -0.513030 
#    y 0.000000 3.460800 0.000000 
#    z -0.513030 0.000000 3.579100 
# 
# 
# High freq. dielectric constant tensor:
#      x y z
#    x 1.814600 0.000000 -0.007700 
#    y 0.000000 1.766090 0.000000 
#    z -0.007700 0.000000 1.766360 
# 
# From -- ./inp_files/274130.got.cif
#   From: 2010.06.25/outbox.cif.g09.slc.cpg/sg12_138_cif.got.tgz:274130.got - 2010.06.28 00:19:55.
