data_PCOD8115629
_publ_section_title
;
Structure prediction by ZEFSAII (Michael W. Deem and Ramdas Pophale) SiO2 
 PCOD8115629
Probable space group: C 2/M
;
_chemical_formula_sum "Si O2"
_cell_formula_units_Z 40
_cell_length_a 19.443371
_cell_length_b 11.346530
_cell_length_c 17.027387
_cell_angle_alpha 90.000000
_cell_angle_beta 149.406388
_cell_angle_gamma 90.000000
_cell_volume 1911.850237
_symmetry_space_group_name_H-M "C 2/M"
_symmetry_group_IT_number 12
_symmetry_cell_setting 'monoclinic'
loop_
_space_group_symop_operation_xyz
x,y,z
-x,y,-z
-x,-y,-z
x,-y,z
1/2+x,1/2+y,z
1/2-x,1/2+y,-z
1/2-x,1/2-y,-z
1/2+x,1/2-y,z
loop_
_atom_site_type_symbol
_atom_site_label
_atom_site_fract_x
_atom_site_fract_y
_atom_site_fract_z
Si Si1 0.264010 0.254376 0.679385
Si Si2 0.987358 0.636402 0.149525
Si Si3 0.994975 0.271535 0.326726
Si Si4 0.092650 0.500000 0.667767
Si Si5 0.651404 0.500000 0.179207
Si Si6 0.716179 0.635825 0.791641
O O1 0.381483 0.163100 0.773615
O O2 0.322696 0.386166 0.741436
O O3 0.197475 0.216576 0.696499
O O4 0.150369 0.249701 0.501011
O O5 0.988503 0.500000 0.175747
O O6 0.985234 0.718978 0.223616
O O7 0.858203 0.667926 0.970584
O O8 0.936838 0.387476 0.309353
O O9 0.904432 0.161722 0.265968
O O10 0.249591 0.500000 0.798442
O O11 0.000000 0.500000 0.500000
O O12 0.500000 0.500000 0.000000
O O13 0.709053 0.500000 0.759772
#
# Coordination Sequence:
#
# PCOD8115629 Si02
#       6
#     8   8   8   4   4   8
#     4  12  24  42  67  95 131 171 220 269 321 390
#     4  11  25  44  65  93 135 174 212 268 336 388
#     4  12  23  43  67  96 131 168 218 273 324 392
#     4  12  20  42  70  94 127 171 217 267 323 387
#     4  12  24  40  66 102 128 167 221 270 317 383
#     4  11  24  43  67  96 127 171 222 266 323 393
#
# _framework density 20.922139999999999
#
# number of rings (size 3 to 8) (size 9 to 14) (size 15 to 20)
#    0.000    0.400    5.000    4.200    0.000    4.000 
#    1.800    0.000    0.000    0.000    0.000    0.000 
#    0.000    0.000    0.000    0.000    0.000    0.000 
#
# Total GULP energy -248188.692721 kJ/mol
# GULP energy per Si atom -12409.434636 kJ/mol
# Density = 2.087452 g / cm^3
# Si number density = 20.922140 Si / 1000 Ang^3
#
#
#
# Elastic Constant Matrix: (Units=GPa)
#
#
# Indices 1 2 3 4 5 6 
#
# 1 72.4927 11.3404 12.6713 0.0000 1.7301 0.0000
# 2 11.3404 71.4366 31.6631 0.0000 -3.3313 0.0000
# 3 12.6713 31.6631 82.0084 0.0000 20.5164 0.0000
# 4 0.0000 0.0000 0.0000 19.3940 0.0000 1.2691
# 5 1.7301 -3.3313 20.5164 0.0000 42.7611 0.0000
# 6 0.0000 0.0000 0.0000 1.2691 0.0000 41.0411
#
#
#
# Elastic Compliance Matrix: (Units=1/GPa)
#
#
# Indices 1 2 3 4 5 6 
#
# 1 0.014320 -0.001543 -0.001639 0.000000 0.000087 0.000000
# 2 -0.001543 0.018072 -0.008077 0.000000 0.005345 0.000000
# 3 -0.001639 -0.008077 0.017849 0.000000 -0.009126 0.000000
# 4 0.000000 0.000000 0.000000 0.051667 0.000000 -0.001598
# 5 0.000087 0.005345 -0.009126 0.000000 0.028177 0.000000
# 6 0.000000 0.000000 0.000000 -0.001598 0.000000 0.024415
#
#
# Mechanical properties :
#
#
# Convention : Reuss Voigt Hill
#
# Bulk Modulus (GPa) = 36.06852 37.47636 36.77244
# Shear Modulus (GPa) = 26.84437 31.99009 29.41723
#
# Velocity S-wave (km/s) = 3.58587 3.91449 3.75378
# Velocity P-wave (km/s) = 5.86698 6.19534 6.03339
#
# Compressibility (1/GPa) = 0.02772501
#
# Stress axis : x y z
#
# Youngs Moduli (GPa) = 69.83130 55.33285 56.02683
#
# Poissons Ratio (x) = 0.08538 0.09180
# Poissons Ratio (y) = 0.10775 0.45250
# Poissons Ratio (z) = 0.11442 0.44690
#
# Static dielectric constant tensor:
#      x y z
#    x 3.875650 0.000000 0.040610 
#    y 0.000000 3.836380 0.000000 
#    z 0.040610 0.000000 3.849200 
# 
# 
# High freq. dielectric constant tensor:
#      x y z
#    x 1.820920 0.000000 0.007250 
#    y 0.000000 1.825890 0.000000 
#    z 0.007250 0.000000 1.829640 
# 
# From -- ./inp_files/283420.got.cif
#   From: 2010.06.25/outbox.cif.g09.slc.cpg/sg12_142_cif.got.tgz:283420.got - 2010.06.28 00:19:55.
