data_PCOD8115484
_publ_section_title
;
Structure prediction by ZEFSAII (Michael W. Deem and Ramdas Pophale) SiO2 
 PCOD8115484
Probable space group: C 2/M
;
_chemical_formula_sum "Si O2"
_cell_formula_units_Z 56
_cell_length_a 10.509097
_cell_length_b 32.761256
_cell_length_c 8.852481
_cell_angle_alpha 90.000000
_cell_angle_beta 63.847343
_cell_angle_gamma 90.000000
_cell_volume 2735.803238
_symmetry_space_group_name_H-M "C 2/M"
_symmetry_group_IT_number 12
_symmetry_cell_setting 'monoclinic'
loop_
_space_group_symop_operation_xyz
x,y,z
-x,y,-z
-x,-y,-z
x,-y,z
1/2+x,1/2+y,z
1/2-x,1/2+y,-z
1/2-x,1/2-y,-z
1/2+x,1/2-y,z
loop_
_atom_site_type_symbol
_atom_site_label
_atom_site_fract_x
_atom_site_fract_y
_atom_site_fract_z
Si Si1 0.617910 0.344219 0.062533
Si Si2 0.330079 0.167378 0.429232
Si Si3 0.653657 0.500000 0.988954
Si Si4 0.608419 0.574835 0.222082
Si Si5 0.666141 0.000000 0.404713
Si Si6 0.650980 0.804828 0.256690
Si Si7 0.796941 0.922218 0.491742
Si Si8 0.878203 0.786329 0.680271
O O1 0.672732 0.384753 0.115484
O O2 0.555483 0.314147 0.222684
O O3 0.500000 0.353822 0.000000
O O4 0.757480 0.324983 0.920524
O O5 0.283719 0.186477 0.612807
O O6 0.495945 0.175621 0.318124
O O7 0.294155 0.119314 0.458223
O O8 0.249138 0.189697 0.335062
O O9 0.774766 0.500000 0.797529
O O10 0.500000 0.500000 0.000000
O O11 0.666260 0.539135 0.087453
O O12 0.665602 0.565992 0.357871
O O13 0.438477 0.581462 0.316199
O O14 0.500000 0.000000 0.500000
O O15 0.710575 0.959185 0.467195
O O16 0.665525 0.756451 0.223286
O O17 0.000000 0.775596 0.500000
#
# Coordination Sequence:
#
# PCOD8115484 Si02
#       8
#     8   8   4   8   4   8   8   8
#     4  12  26  41  66 101 135 173 227 287 339 406
#     4  11  24  43  71  95 136 182 229 278 343 418
#     4  12  23  43  73 105 136 172 225 280 334 407
#     4  11  23  44  73 103 133 177 230 285 334 403
#     4  12  29  45  73 107 146 183 217 280 347 418
#     4  11  26  42  66  96 136 184 224 288 342 405
#     4  11  23  46  70 104 137 181 229 275 345 407
#     4  12  23  45  66  96 130 182 233 281 345 404
#
# _framework density 20.469308999999999
#
# number of rings (size 3 to 8) (size 9 to 14) (size 15 to 20)
#    0.000    0.571    4.286    4.286    6.000    1.714 
#    0.000    2.857    0.000    0.000    0.000    0.000 
#    0.000    0.000    0.000    0.000    0.000    0.000 
#
# Total GULP energy -347243.791544 kJ/mol
# GULP energy per Si atom -12401.563984 kJ/mol
# Density = 2.042272 g / cm^3
# Si number density = 20.469309 Si / 1000 Ang^3
#
#
#
# Elastic Constant Matrix: (Units=GPa)
#
#
# Indices 1 2 3 4 5 6 
#
# 1 82.0772 46.5320 43.4516 0.0000 1.2152 0.0000
# 2 46.5320 187.6511 65.9332 0.0000 -6.7216 0.0000
# 3 43.4516 65.9332 120.5852 0.0000 -3.0960 0.0000
# 4 0.0000 0.0000 0.0000 37.5557 0.0000 23.9875
# 5 1.2152 -6.7216 -3.0960 0.0000 25.2654 0.0000
# 6 0.0000 0.0000 0.0000 23.9875 0.0000 33.9642
#
#
#
# Elastic Compliance Matrix: (Units=1/GPa)
#
#
# Indices 1 2 3 4 5 6 
#
# 1 0.015970 -0.002464 -0.004458 0.000000 -0.001970 0.000000
# 2 -0.002464 0.007021 -0.002909 0.000000 0.001630 0.000000
# 3 -0.004458 -0.002909 0.011512 0.000000 0.000851 0.000000
# 4 0.000000 0.000000 0.000000 0.048510 0.000000 -0.034261
# 5 -0.001970 0.001630 0.000851 0.000000 0.040212 0.000000
# 6 0.000000 0.000000 0.000000 -0.034261 0.000000 0.053640
#
#
# Mechanical properties :
#
#
# Convention : Reuss Voigt Hill
#
# Bulk Modulus (GPa) = 67.38475 78.01633 72.70054
# Shear Modulus (GPa) = 24.81725 34.98350 29.90037
#
# Velocity S-wave (km/s) = 3.48575 4.13858 3.82611
# Velocity P-wave (km/s) = 7.01370 7.81240 7.42380
#
# Compressibility (1/GPa) = 0.01484015
#
# Stress axis : x y z
#
# Youngs Moduli (GPa) = 62.61804 142.43892 86.86963
#
# Poissons Ratio (x) = 0.35102 0.38724
# Poissons Ratio (y) = 0.15431 0.25269
# Poissons Ratio (z) = 0.27913 0.41433
#
# Static dielectric constant tensor:
#      x y z
#    x 3.599830 0.000000 0.095670 
#    y 0.000000 3.933780 0.000000 
#    z 0.095670 0.000000 3.900830 
# 
# 
# High freq. dielectric constant tensor:
#      x y z
#    x 1.793080 0.000000 0.011020 
#    y 0.000000 1.820350 0.000000 
#    z 0.011020 0.000000 1.813060 
# 
# From -- ./inp_files/54631.got.cif
#   From: 2010.06.25/outbox.cif.g09.slc.cpg/sg12_28_cif.got.tgz:54631.got - 2010.06.28 00:19:55.
