data_PCOD8115046
_publ_section_title
;
Structure prediction by ZEFSAII (Michael W. Deem and Ramdas Pophale) SiO2 
 PCOD8115046
Probable space group: C 2/M
;
_chemical_formula_sum "Si O2"
_cell_formula_units_Z 40
_cell_length_a 16.072688
_cell_length_b 9.708174
_cell_length_c 31.320603
_cell_angle_alpha 90.000000
_cell_angle_beta 157.175893
_cell_angle_gamma 90.000000
_cell_volume 1895.744447
_symmetry_space_group_name_H-M "C 2/M"
_symmetry_group_IT_number 12
_symmetry_cell_setting 'monoclinic'
loop_
_space_group_symop_operation_xyz
x,y,z
-x,y,-z
-x,-y,-z
x,-y,z
1/2+x,1/2+y,z
1/2-x,1/2+y,-z
1/2-x,1/2-y,-z
1/2+x,1/2-y,z
loop_
_atom_site_type_symbol
_atom_site_label
_atom_site_fract_x
_atom_site_fract_y
_atom_site_fract_z
Si Si1 0.471251 0.500000 0.399739
Si Si2 0.979776 0.294273 0.940271
Si Si3 0.632336 0.500000 0.746324
Si Si4 0.675069 0.500000 0.917883
Si Si5 0.861310 0.000000 0.695684
Si Si6 0.292647 0.703473 0.375602
Si Si7 0.594759 0.000000 0.341756
Si Si8 0.889516 0.000000 0.864694
O O1 0.469497 0.500000 0.348387
O O2 0.330826 0.632088 0.348015
O O3 0.716450 0.500000 0.533328
O O4 0.766242 0.362256 0.819721
O O5 0.979232 0.131696 0.932287
O O6 0.180484 0.362557 0.010204
O O7 0.000000 0.326304 0.000000
O O8 0.417958 0.500000 0.672898
O O9 0.577607 0.500000 0.824731
O O10 0.484150 0.500000 0.861785
O O11 0.725694 0.864535 0.642087
O O12 0.500000 0.664038 0.500000
O O13 0.101438 0.634408 0.313291
O O14 0.368853 0.000000 0.259640
#
# Coordination Sequence:
#
# PCOD8115046 Si02
#       8
#     4   8   4   4   4   8   4   4
#     4   9  21  43  68  93 126 172 209 258 308 383
#     4  11  23  47  65  91 124 173 212 264 319 375
#     4  11  22  41  68  91 128 173 207 252 332 374
#     4  11  25  43  61  90 137 161 206 269 317 371
#     4  12  21  38  62  94 130 166 205 259 326 368
#     4   9  20  41  65  92 129 169 212 256 314 377
#     4   9  20  43  66  96 130 164 213 259 312 379
#     4  12  25  41  69  97 123 162 223 263 307 375
#
# _framework density 21.099889999999998
#
# number of rings (size 3 to 8) (size 9 to 14) (size 15 to 20)
#    0.000    1.600    2.000    4.200    2.800    0.000 
#    3.600    3.000    0.000    0.000    0.000    0.000 
#    0.000    0.000    0.000    0.000    0.000    0.000 
#
# Total GULP energy -247956.894968 kJ/mol
# GULP energy per Si atom -12397.844748 kJ/mol
# Density = 2.105187 g / cm^3
# Si number density = 21.099890 Si / 1000 Ang^3
#
#
#
# Elastic Constant Matrix: (Units=GPa)
#
#
# Indices 1 2 3 4 5 6 
#
# 1 125.5777 49.5388 55.9216 -0.0412 11.9331 -0.0218
# 2 49.5388 177.2556 33.2149 -0.0097 6.1037 -0.0056
# 3 55.9216 33.2149 77.6610 -0.0629 0.2830 -0.0313
# 4 -0.0412 -0.0097 -0.0629 47.2164 0.0045 14.2499
# 5 11.9331 6.1037 0.2830 0.0045 41.1969 0.0034
# 6 -0.0218 -0.0056 -0.0313 14.2499 0.0034 31.5466
#
#
#
# Elastic Compliance Matrix: (Units=1/GPa)
#
#
# Indices 1 2 3 4 5 6 
#
# 1 0.012748 -0.001880 -0.008363 0.000000 -0.003357 0.000001
# 2 -0.001880 0.006443 -0.001400 -0.000002 -0.000400 -0.000001
# 3 -0.008363 -0.001400 0.019488 0.000016 0.002496 0.000006
# 4 0.000000 -0.000002 0.000016 0.024522 -0.000001 -0.011077
# 5 -0.003357 -0.000400 0.002496 -0.000001 0.025288 -0.000002
# 6 0.000001 -0.000001 0.000006 -0.011077 -0.000002 0.036703
#
#
# Mechanical properties :
#
#
# Convention : Reuss Voigt Hill
#
# Bulk Modulus (GPa) = 64.96765 73.09388 69.03076
# Shear Modulus (GPa) = 32.54976 40.11325 36.33150
#
# Velocity S-wave (km/s) = 3.93192 4.36490 4.15406
# Velocity P-wave (km/s) = 7.17431 7.75372 7.46964
#
# Compressibility (1/GPa) = 0.01539228
#
# Stress axis : x y z
#
# Youngs Moduli (GPa) = 78.44315 155.20185 51.31236
#
# Poissons Ratio (x) = 0.29179 0.42914
# Poissons Ratio (y) = 0.14748 0.07186
# Poissons Ratio (z) = 0.65604 0.21735
#
# Static dielectric constant tensor:
#      x y z
#    x 3.717900 0.000010 0.080780 
#    y 0.000010 3.644230 0.000000 
#    z 0.080780 0.000000 3.580400 
# 
# 
# High freq. dielectric constant tensor:
#      x y z
#    x 1.824630 0.000000 0.005140 
#    y 0.000000 1.839170 0.000000 
#    z 0.005140 0.000000 1.815180 
# 
# From -- ./inp_files/375798.got.cif
#   From: 2010.06.25/outbox.cif.g09.slc.cpg/sg12_188_cif.got.tgz:375798.got - 2010.06.28 00:19:55.
