data_PCOD8115981
_publ_section_title
;
Structure prediction by ZEFSAII (Michael W. Deem and Ramdas Pophale) SiO2 
 PCOD8115981
Probable space group: C 2/M
;
_chemical_formula_sum "Si O2"
_cell_formula_units_Z 56
_cell_length_a 26.371956
_cell_length_b 17.962241
_cell_length_c 9.606700
_cell_angle_alpha 90.000000
_cell_angle_beta 43.234678
_cell_angle_gamma 90.000000
_cell_volume 3117.167726
_symmetry_space_group_name_H-M "C 2/M"
_symmetry_group_IT_number 12
_symmetry_cell_setting 'monoclinic'
loop_
_space_group_symop_operation_xyz
x,y,z
-x,y,-z
-x,-y,-z
x,-y,z
1/2+x,1/2+y,z
1/2-x,1/2+y,-z
1/2-x,1/2-y,-z
1/2+x,1/2-y,z
loop_
_atom_site_type_symbol
_atom_site_label
_atom_site_fract_x
_atom_site_fract_y
_atom_site_fract_z
Si Si1 0.171654 0.723167 0.492633
Si Si2 0.583586 0.083057 0.667201
Si Si3 0.088446 0.000000 0.166606
Si Si4 0.912613 0.132530 0.330143
Si Si5 0.088446 0.000000 0.479609
Si Si6 0.671654 0.223167 0.820749
Si Si7 0.916414 0.416943 0.001544
Si Si8 0.912613 0.132530 0.019406
O O1 0.140933 0.644854 0.491442
O O2 0.111994 0.785888 0.573271
O O3 0.250000 0.750000 0.270592
O O4 0.181126 0.713244 0.637749
O O5 0.500000 0.099161 0.780285
O O6 0.608671 0.000000 0.569342
O O7 0.583004 0.087931 0.833992
O O8 0.119993 0.000000 0.260014
O O9 0.119430 0.927857 0.023988
O O10 1.000000 0.000000 0.344574
O O11 0.000000 0.130060 0.154839
O O12 0.880570 0.072143 0.501708
O O13 0.882231 0.114287 0.235537
O O14 0.640933 0.144854 0.944827
O O15 0.611994 0.285888 0.978754
O O16 0.891329 0.500000 0.004026
#
# Coordination Sequence:
#
# PCOD8115981 Si02
#       8
#     8   8   4   8   4   8   8   8
#     4   9  16  25  36  57  88 116 142 174 216 262
#     4   8  13  22  36  52  73 106 145 179 211 250
#     4   9  17  29  45  65  87 111 146 187 218 252
#     4   9  16  27  44  64  88 118 148 178 216 262
#     4   9  17  29  45  65  87 111 146 187 218 252
#     4   9  16  25  36  57  88 116 142 174 216 262
#     4   8  13  22  36  52  73 106 145 179 211 250
#     4   9  16  27  44  64  88 118 148 178 216 262
#
# _framework density 17.965026999999999
#
# number of rings (size 3 to 8) (size 9 to 14) (size 15 to 20)
#    0.000    3.286    0.000    2.143    0.000    5.143 
#    2.571    0.000    0.000    0.857    0.000    0.000 
#    0.000    0.000    0.000   10.571    0.000   10.286 
#
# Total GULP energy -346934.228011 kJ/mol
# GULP energy per Si atom -12390.508143 kJ/mol
# Density = 1.792414 g / cm^3
# Si number density = 17.965027 Si / 1000 Ang^3
#
#
#
# Elastic Constant Matrix: (Units=GPa)
#
#
# Indices 1 2 3 4 5 6 
#
# 1 37.8370 53.0475 28.8964 0.0000 -3.7350 0.0000
# 2 53.0475 180.6171 51.2499 0.0000 -9.0573 0.0000
# 3 28.8964 51.2499 36.9996 0.0000 -0.4841 0.0000
# 4 0.0000 0.0000 0.0000 10.5535 0.0000 -10.3803
# 5 -3.7350 -9.0573 -0.4841 0.0000 20.4800 0.0000
# 6 0.0000 0.0000 0.0000 -10.3803 0.0000 12.6136
#
#
#
# Elastic Compliance Matrix: (Units=1/GPa)
#
#
# Indices 1 2 3 4 5 6 
#
# 1 0.074397 -0.008159 -0.046686 0.000000 0.008856 0.000000
# 2 -0.008159 0.010312 -0.007873 0.000000 0.002886 0.000000
# 3 -0.046686 -0.007873 0.074260 0.000000 -0.010241 0.000000
# 4 0.000000 0.000000 0.000000 0.497232 0.000000 0.409193
# 5 0.008856 0.002886 -0.010241 0.000000 0.051477 0.000000
# 6 0.000000 0.000000 0.000000 0.409193 0.000000 0.416022
#
#
# Mechanical properties :
#
#
# Convention : Reuss Voigt Hill
#
# Bulk Modulus (GPa) = 29.82199 57.98237 43.90218
# Shear Modulus (GPa) = 3.96726 16.88009 10.42368
#
# Velocity S-wave (km/s) = 1.48766 3.06863 2.41139
# Velocity P-wave (km/s) = 4.42571 6.70078 5.67835
#
# Compressibility (1/GPa) = 0.03353230
#
# Stress axis : x y z
#
# Youngs Moduli (GPa) = 13.44133 96.97726 13.46619
#
# Poissons Ratio (x) = 0.79128 0.62868
# Poissons Ratio (y) = 0.10967 0.10602
# Poissons Ratio (z) = 0.62752 0.76350
#
# Static dielectric constant tensor:
#      x y z
#    x 3.052540 0.000000 -0.210890 
#    y 0.000000 3.728010 0.000000 
#    z -0.210890 0.000000 3.010680 
# 
# 
# High freq. dielectric constant tensor:
#      x y z
#    x 1.648100 0.000000 -0.028830 
#    y 0.000000 1.714250 0.000000 
#    z -0.028830 0.000000 1.642380 
# 
# From -- ./inp_files/112631.got.cif
#   From: 2010.06.25/outbox.cif.g09.slc.cpg/sg12_57_cif.got.tgz:112631.got - 2010.06.28 00:19:55.
