data_PCOD8115990
_publ_section_title
;
Structure prediction by ZEFSAII (Michael W. Deem and Ramdas Pophale) SiO2 
 PCOD8115990
Probable space group: C 2/M
;
_chemical_formula_sum "Si O2"
_cell_formula_units_Z 64
_cell_length_a 20.163110
_cell_length_b 22.372082
_cell_length_c 9.920725
_cell_angle_alpha 90.000000
_cell_angle_beta 90.000048
_cell_angle_gamma 90.000000
_cell_volume 4475.147284
_symmetry_space_group_name_H-M "C 2/M"
_symmetry_group_IT_number 12
_symmetry_cell_setting 'monoclinic'
loop_
_space_group_symop_operation_xyz
x,y,z
-x,y,-z
-x,-y,-z
x,-y,z
1/2+x,1/2+y,z
1/2-x,1/2+y,-z
1/2-x,1/2-y,-z
1/2+x,1/2-y,z
loop_
_atom_site_type_symbol
_atom_site_label
_atom_site_fract_x
_atom_site_fract_y
_atom_site_fract_z
Si Si1 0.563401 0.647033 0.408457
Si Si2 0.221239 0.332613 0.599679
Si Si3 0.184900 0.933244 0.089717
Si Si4 0.815099 0.066756 0.589718
Si Si5 0.936599 0.852967 0.908456
Si Si6 0.721239 0.167388 0.900322
Si Si7 0.345847 0.245431 0.898506
Si Si8 0.845849 0.745431 0.601492
O O1 0.500000 0.636101 0.500000
O O2 0.616512 0.597449 0.456332
O O3 0.546176 0.640157 0.250000
O O4 0.591971 0.713142 0.438785
O O5 0.251213 0.394805 0.541257
O O6 0.191761 0.341191 0.750000
O O7 0.162268 0.308980 0.503793
O O8 0.280480 0.285486 0.604765
O O9 0.186084 0.933959 0.249999
O O10 0.116510 0.902553 0.043668
O O11 0.248784 0.894802 0.041255
O O12 0.189309 0.000000 0.028806
O O13 0.810692 0.000000 0.528806
O O14 0.908025 0.786860 0.938784
O O15 0.000000 0.863894 0.000000
O O16 0.780476 0.214520 0.895233
O O17 0.662267 0.191019 0.996209
O O18 0.357323 0.217798 0.749999
#
# Coordination Sequence:
#
# PCOD8115990 Si02
#       8
#     8   8   8   8   8   8   8   8
#     4   9  17  27  38  53  74 102 132 157 183 215
#     4   8  13  22  38  56  69  88 121 153 182 220
#     4   8  14  25  39  54  75 102 128 154 184 217
#     4   8  14  25  39  54  75 102 128 154 184 217
#     4   9  17  27  38  53  74 102 132 157 183 215
#     4   8  13  22  38  56  69  88 121 153 182 220
#     4   8  14  24  36  51  72  94 116 149 192 225
#     4   8  14  24  36  51  72  94 116 149 192 225
#
# _framework density 14.301205
#
# number of rings (size 3 to 8) (size 9 to 14) (size 15 to 20)
#    0.000    3.750    0.000    3.000    0.000    1.500 
#    0.000    3.750    0.000    2.250    0.000    0.000 
#    0.000    1.000    0.000    2.250    0.000    3.500 
#
# Total GULP energy -396499.695374 kJ/mol
# GULP energy per Si atom -12390.615480 kJ/mol
# Density = 1.426866 g / cm^3
# Si number density = 14.301205 Si / 1000 Ang^3
#
#
#
# Elastic Constant Matrix: (Units=GPa)
#
#
# Indices 1 2 3 4 5 6 
#
# 1 23.0063 46.2921 22.2905 0.0000 0.0002 0.0000
# 2 46.2921 102.5406 47.5181 0.0000 -0.0004 0.0000
# 3 22.2905 47.5181 53.3465 0.0000 0.0000 0.0000
# 4 0.0000 0.0000 0.0000 14.0225 0.0000 -0.0001
# 5 0.0002 -0.0004 0.0000 0.0000 23.6984 0.0000
# 6 0.0000 0.0000 0.0000 -0.0001 0.0000 15.4916
#
#
#
# Elastic Compliance Matrix: (Units=1/GPa)
#
#
# Indices 1 2 3 4 5 6 
#
# 1 0.479553 -0.210547 -0.012835 0.000000 -0.000007 0.000000
# 2 -0.210547 0.109047 -0.009158 0.000000 0.000003 0.000000
# 3 -0.012835 -0.009158 0.032266 0.000000 0.000000 0.000000
# 4 0.000000 0.000000 0.000000 0.071314 0.000000 0.000000
# 5 -0.000007 0.000003 0.000000 0.000000 0.042197 0.000000
# 6 0.000000 0.000000 0.000000 0.000000 0.000000 0.064551
#
#
# Mechanical properties :
#
#
# Convention : Reuss Voigt Hill
#
# Bulk Modulus (GPa) = 6.41903 45.67721 26.04812
# Shear Modulus (GPa) = 3.79958 14.82867 9.31412
#
# Velocity S-wave (km/s) = 1.63174 3.22356 2.55479
# Velocity P-wave (km/s) = 2.83696 6.77229 5.19193
#
# Compressibility (1/GPa) = 0.15578668
#
# Stress axis : x y z
#
# Youngs Moduli (GPa) = 2.08528 9.17032 30.99278
#
# Poissons Ratio (x) = 1.93078 0.39781
# Poissons Ratio (y) = 0.43905 0.28382
# Poissons Ratio (z) = 0.02677 0.08398
#
# Static dielectric constant tensor:
#      x y z
#    x 2.536300 0.000000 -0.000020 
#    y 0.000000 3.047840 0.000000 
#    z -0.000020 0.000000 2.853310 
# 
# 
# High freq. dielectric constant tensor:
#      x y z
#    x 1.510040 0.000000 0.000000 
#    y 0.000000 1.530560 0.000000 
#    z 0.000000 0.000000 1.530750 
# 
# From -- ./inp_files/169050.got.cif
#   From: 2010.06.25/outbox.cif.g09.slc.cpg/sg12_85_cif.got.tgz:169050.got - 2010.06.28 00:19:55.
