data_PCOD8115710
_publ_section_title
;
Structure prediction by ZEFSAII (Michael W. Deem and Ramdas Pophale) SiO2 
 PCOD8115710
Probable space group: C 2/M
;
_chemical_formula_sum "Si O2"
_cell_formula_units_Z 48
_cell_length_a 8.763101
_cell_length_b 29.711255
_cell_length_c 8.371387
_cell_angle_alpha 90.000000
_cell_angle_beta 90.081864
_cell_angle_gamma 90.000000
_cell_volume 2179.594935
_symmetry_space_group_name_H-M "C 2/M"
_symmetry_group_IT_number 12
_symmetry_cell_setting 'monoclinic'
loop_
_space_group_symop_operation_xyz
x,y,z
-x,y,-z
-x,-y,-z
x,-y,z
1/2+x,1/2+y,z
1/2-x,1/2+y,-z
1/2-x,1/2-y,-z
1/2+x,1/2-y,z
loop_
_atom_site_type_symbol
_atom_site_label
_atom_site_fract_x
_atom_site_fract_y
_atom_site_fract_z
Si Si1 0.265352 0.220037 0.842800
Si Si2 0.374739 0.051060 0.226819
Si Si3 0.428418 0.212437 0.327679
Si Si4 0.212754 0.448702 0.135339
Si Si5 0.380812 0.633575 0.265615
Si Si6 0.781360 0.868530 0.622814
O O1 0.443233 0.212937 0.808646
O O2 0.186119 0.245926 0.695503
O O3 0.182420 0.171453 0.856817
O O4 0.250000 0.250000 0.000000
O O5 0.554427 0.062335 0.224756
O O6 0.287280 0.081799 0.354205
O O7 0.349153 0.000000 0.283001
O O8 0.305268 0.058934 0.052493
O O9 0.500000 0.217753 0.500000
O O10 0.338655 0.166142 0.304058
O O11 0.263118 0.500000 0.170308
O O12 0.343785 0.415837 0.199022
O O13 0.561922 0.637415 0.280890
O O14 0.300631 0.640940 0.435980
#
# Coordination Sequence:
#
# PCOD8115710 Si02
#       6
#     8   8   8   8   8   8
#     4  12  27  45  69 100 134 174 224 285 341 403
#     4   9  20  40  67  99 133 174 225 275 339 405
#     4  12  25  46  71  96 132 177 226 276 344 410
#     4   9  20  41  68  97 134 176 219 279 340 402
#     4  11  25  44  64  97 138 177 227 274 341 400
#     4  11  25  42  67  96 133 182 223 279 334 405
#
# _framework density 22.022442000000002
#
# number of rings (size 3 to 8) (size 9 to 14) (size 15 to 20)
#    0.000    1.333    1.667    4.000    4.667    2.000 
#    0.000    5.000    0.000    0.000    0.000    0.000 
#    0.000    0.000    0.000    0.000    0.000    0.000 
#
# Total GULP energy -297741.484777 kJ/mol
# GULP energy per Si atom -12405.895199 kJ/mol
# Density = 2.197232 g / cm^3
# Si number density = 22.022442 Si / 1000 Ang^3
#
#
#
# Elastic Constant Matrix: (Units=GPa)
#
#
# Indices 1 2 3 4 5 6 
#
# 1 120.0229 68.9499 58.3543 0.0000 0.1811 0.0000
# 2 68.9499 153.4560 52.6439 0.0000 3.8138 0.0000
# 3 58.3543 52.6439 75.1140 0.0000 -1.0531 0.0000
# 4 0.0000 0.0000 0.0000 38.6097 0.0000 2.4556
# 5 0.1811 3.8138 -1.0531 0.0000 32.8562 0.0000
# 6 0.0000 0.0000 0.0000 2.4556 0.0000 48.2981
#
#
#
# Elastic Compliance Matrix: (Units=1/GPa)
#
#
# Indices 1 2 3 4 5 6 
#
# 1 0.014719 -0.003544 -0.008951 0.000000 0.000043 0.000000
# 2 -0.003544 0.009479 -0.003907 0.000000 -0.001206 0.000000
# 3 -0.008951 -0.003907 0.023022 0.000000 0.001241 0.000000
# 4 0.000000 0.000000 0.000000 0.025984 0.000000 -0.001321
# 5 0.000043 -0.001206 0.001241 0.000000 0.030615 0.000000
# 6 0.000000 0.000000 0.000000 -0.001321 0.000000 0.020772
#
#
# Mechanical properties :
#
#
# Convention : Reuss Voigt Hill
#
# Bulk Modulus (GPa) = 69.36144 78.72102 74.04123
# Shear Modulus (GPa) = 30.82576 35.19580 33.01078
#
# Velocity S-wave (km/s) = 3.74537 4.00206 3.87584
# Velocity P-wave (km/s) = 7.08999 7.56166 7.32962
#
# Compressibility (1/GPa) = 0.01441723
#
# Stress axis : x y z
#
# Youngs Moduli (GPa) = 67.93734 105.49300 43.43602
#
# Poissons Ratio (x) = 0.37388 0.38878
# Poissons Ratio (y) = 0.24078 0.16971
# Poissons Ratio (z) = 0.60808 0.41218
#
# Static dielectric constant tensor:
#      x y z
#    x 4.112630 0.000000 0.044680 
#    y 0.000000 4.040150 0.000000 
#    z 0.044680 0.000000 3.741990 
# 
# 
# High freq. dielectric constant tensor:
#      x y z
#    x 1.873990 0.000000 0.004050 
#    y 0.000000 1.877840 0.000000 
#    z 0.004050 0.000000 1.857310 
# 
# From -- ./inp_files/42248.got.cif
#   From: 2010.06.25/outbox.cif.g09.slc.cpg/sg12_22_cif.got.tgz:42248.got - 2010.06.28 00:19:55.
