data_PCOD8115652
_publ_section_title
;
Structure prediction by ZEFSAII (Michael W. Deem and Ramdas Pophale) SiO2 
 PCOD8115652
Probable space group: C 2/M
;
_chemical_formula_sum "Si O2"
_cell_formula_units_Z 48
_cell_length_a 8.321798
_cell_length_b 18.160534
_cell_length_c 14.569648
_cell_angle_alpha 90.000000
_cell_angle_beta 94.427299
_cell_angle_gamma 90.000000
_cell_volume 2195.315829
_symmetry_space_group_name_H-M "C 2/M"
_symmetry_group_IT_number 12
_symmetry_cell_setting 'monoclinic'
loop_
_space_group_symop_operation_xyz
x,y,z
-x,y,-z
-x,-y,-z
x,-y,z
1/2+x,1/2+y,z
1/2-x,1/2+y,-z
1/2-x,1/2-y,-z
1/2+x,1/2-y,z
loop_
_atom_site_type_symbol
_atom_site_label
_atom_site_fract_x
_atom_site_fract_y
_atom_site_fract_z
Si Si1 0.868108 0.082309 0.851363
Si Si2 0.647864 0.187447 0.944657
Si Si3 0.692230 0.332489 0.502758
Si Si4 0.926766 0.206411 0.214500
Si Si5 0.878094 0.321047 0.689805
Si Si6 0.333373 0.081361 0.336381
O O1 0.750448 0.114721 0.924305
O O2 0.802159 0.076578 0.745950
O O3 0.012973 0.139893 0.846291
O O4 0.922431 0.000000 0.885280
O O5 0.581354 0.220307 0.846949
O O6 0.500000 0.160449 0.000000
O O7 0.750000 0.250000 0.000000
O O8 0.500000 0.343474 0.500000
O O9 0.750000 0.250000 0.500000
O O10 0.780319 0.354831 0.599894
O O11 0.767140 0.376519 0.421829
O O12 0.749723 0.180506 0.234106
O O13 0.040125 0.236983 0.305766
O O14 0.019757 0.379090 0.708237
O O15 0.385076 0.000000 0.370854
#
# Coordination Sequence:
#
# PCOD8115652 Si02
#       6
#     8   8   8   8   8   8
#     4  11  24  44  68 100 141 178 221 283 346 401
#     4  12  23  42  72 101 129 174 223 280 341 412
#     4  12  24  39  63  98 130 173 232 278 324 388
#     4  12  22  42  69 100 133 176 230 277 340 411
#     4  12  22  38  68  93 130 180 232 274 326 401
#     4  11  25  44  64  96 140 180 222 283 342 392
#
# _framework density 21.864733999999999
#
# number of rings (size 3 to 8) (size 9 to 14) (size 15 to 20)
#    0.000    0.333    5.000    5.500    0.000    2.667 
#    0.000    1.667    0.000    0.000    0.000    0.000 
#    0.000    0.000    0.000    0.000    0.000    0.000 
#
# Total GULP energy -297360.633604 kJ/mol
# GULP energy per Si atom -12390.026400 kJ/mol
# Density = 2.181497 g / cm^3
# Si number density = 21.864734 Si / 1000 Ang^3
#
#
#
# Elastic Constant Matrix: (Units=GPa)
#
#
# Indices 1 2 3 4 5 6 
#
# 1 126.2603 45.6346 29.9358 0.0000 -39.9614 0.0000
# 2 45.6346 148.3368 34.0065 0.0000 -30.8311 0.0000
# 3 29.9358 34.0065 80.0444 0.0000 -22.9414 0.0000
# 4 0.0000 0.0000 0.0000 69.4174 0.0000 6.2143
# 5 -39.9614 -30.8311 -22.9414 0.0000 48.3750 0.0000
# 6 0.0000 0.0000 0.0000 6.2143 0.0000 34.7981
#
#
#
# Elastic Compliance Matrix: (Units=1/GPa)
#
#
# Indices 1 2 3 4 5 6 
#
# 1 0.011219 -0.001555 -0.001346 0.000000 0.007638 0.000000
# 2 -0.001555 0.008329 -0.002087 0.000000 0.003034 0.000000
# 3 -0.001346 -0.002087 0.015257 0.000000 0.004793 0.000000
# 4 0.000000 0.000000 0.000000 0.014640 0.000000 -0.002614
# 5 0.007638 0.003034 0.004793 0.000000 0.031188 0.000000
# 6 0.000000 0.000000 0.000000 -0.002614 0.000000 0.029204
#
#
# Mechanical properties :
#
#
# Convention : Reuss Voigt Hill
#
# Bulk Modulus (GPa) = 40.27747 63.75504 52.01626
# Shear Modulus (GPa) = 39.03516 46.85573 42.94544
#
# Velocity S-wave (km/s) = 4.22987 4.63426 4.43667
# Velocity P-wave (km/s) = 6.50514 7.60640 7.07722
#
# Compressibility (1/GPa) = 0.02482777
#
# Stress axis : x y z
#
# Youngs Moduli (GPa) = 89.13587 120.06311 65.54355
#
# Poissons Ratio (x) = 0.18674 0.08821
# Poissons Ratio (y) = 0.13863 0.13681
# Poissons Ratio (z) = 0.11996 0.25062
#
# Static dielectric constant tensor:
#      x y z
#    x 4.022910 0.000000 -0.004210 
#    y 0.000000 3.990990 0.000000 
#    z -0.004210 0.000000 4.007510 
# 
# 
# High freq. dielectric constant tensor:
#      x y z
#    x 1.868940 0.000000 -0.002230 
#    y 0.000000 1.844700 0.000000 
#    z -0.002230 0.000000 1.869970 
# 
# From -- ./inp_files/195919.got.cif
#   From: 2010.06.25/outbox.cif.g09.slc.cpg/sg12_98_cif.got.tgz:195919.got - 2010.06.28 00:19:55.
