data_PCOD8115607
_publ_section_title
;
Structure prediction by ZEFSAII (Michael W. Deem and Ramdas Pophale) SiO2 
 PCOD8115607
Probable space group: C 2/M
;
_chemical_formula_sum "Si O2"
_cell_formula_units_Z 48
_cell_length_a 11.491007
_cell_length_b 16.351228
_cell_length_c 13.766634
_cell_angle_alpha 90.000000
_cell_angle_beta 122.822040
_cell_angle_gamma 90.000000
_cell_volume 2173.705241
_symmetry_space_group_name_H-M "C 2/M"
_symmetry_group_IT_number 12
_symmetry_cell_setting 'monoclinic'
loop_
_space_group_symop_operation_xyz
x,y,z
-x,y,-z
-x,-y,-z
x,-y,z
1/2+x,1/2+y,z
1/2-x,1/2+y,-z
1/2-x,1/2-y,-z
1/2+x,1/2-y,z
loop_
_atom_site_type_symbol
_atom_site_label
_atom_site_fract_x
_atom_site_fract_y
_atom_site_fract_z
Si Si1 0.869909 0.194740 0.504556
Si Si2 0.376886 0.906553 0.116989
Si Si3 0.360373 0.663704 0.875721
Si Si4 0.024912 0.098332 0.263767
Si Si5 0.223524 0.343162 0.120896
Si Si6 0.332856 0.090628 0.708490
O O1 0.750000 0.250000 0.500000
O O2 0.932065 0.133831 0.612568
O O3 0.787530 0.144870 0.387476
O O4 0.000000 0.235132 0.500000
O O5 0.240946 0.900283 0.119427
O O6 0.510092 0.878180 0.242134
O O7 0.396637 0.000000 0.092700
O O8 0.369114 0.849432 0.018004
O O9 0.370603 0.630630 0.770843
O O10 0.289659 0.752475 0.841557
O O11 0.500000 0.664659 0.000000
O O12 0.880273 0.136256 0.163463
O O13 0.021451 0.000000 0.267345
O O14 0.176681 0.409257 0.178923
O O15 0.311206 0.000000 0.657535
#
# Coordination Sequence:
#
# PCOD8115607 Si02
#       6
#     8   8   8   8   8   8
#     4  12  28  48  75 105 141 187 242 300 362 432
#     4  11  24  42  68 102 143 185 235 292 358 428
#     4  12  26  42  68 102 148 190 234 289 364 432
#     4  12  27  46  73 105 140 184 240 295 352 426
#     4  12  24  40  70 102 140 180 234 291 349 419
#     4  11  24  43  69  98 136 180 233 294 352 419
#
# _framework density 22.082111000000001
#
# number of rings (size 3 to 8) (size 9 to 14) (size 15 to 20)
#    0.000    0.333    3.333    5.500    4.667    2.667 
#    0.000    0.000    0.000    4.000    0.000    0.000 
#    0.000    0.000    0.000    0.000    0.000    0.000 
#
# Total GULP energy -297497.024907 kJ/mol
# GULP energy per Si atom -12395.709371 kJ/mol
# Density = 2.203185 g / cm^3
# Si number density = 22.082111 Si / 1000 Ang^3
#
#
#
# Elastic Constant Matrix: (Units=GPa)
#
#
# Indices 1 2 3 4 5 6 
#
# 1 141.7756 50.5319 41.5147 0.0000 -3.8491 0.0000
# 2 50.5319 87.1233 30.6670 0.0000 11.8953 0.0000
# 3 41.5147 30.6670 89.2662 0.0000 2.7261 0.0000
# 4 0.0000 0.0000 0.0000 27.5425 0.0000 1.8995
# 5 -3.8491 11.8953 2.7261 0.0000 35.8956 0.0000
# 6 0.0000 0.0000 0.0000 1.8995 0.0000 38.5634
#
#
#
# Elastic Compliance Matrix: (Units=1/GPa)
#
#
# Indices 1 2 3 4 5 6 
#
# 1 0.009786 -0.005056 -0.002904 0.000000 0.002945 0.000000
# 2 -0.005056 0.016267 -0.003063 0.000000 -0.005700 0.000000
# 3 -0.002904 -0.003063 0.013615 0.000000 -0.000330 0.000000
# 4 0.000000 0.000000 0.000000 0.036431 0.000000 -0.001795
# 5 0.002945 -0.005700 -0.000330 0.000000 0.030088 0.000000
# 6 0.000000 0.000000 0.000000 -0.001795 0.000000 0.026020
#
#
# Mechanical properties :
#
#
# Convention : Reuss Voigt Hill
#
# Bulk Modulus (GPa) = 56.74652 62.62136 59.68394
# Shear Modulus (GPa) = 31.22526 33.43042 32.32784
#
# Velocity S-wave (km/s) = 3.76447 3.89513 3.83035
# Velocity P-wave (km/s) = 6.68197 6.97491 6.83001
#
# Compressibility (1/GPa) = 0.01762222
#
# Stress axis : x y z
#
# Youngs Moduli (GPa) = 102.19028 61.47521 73.44603
#
# Poissons Ratio (x) = 0.31080 0.21329
# Poissons Ratio (y) = 0.51664 0.22497
# Poissons Ratio (z) = 0.29677 0.18830
#
# Static dielectric constant tensor:
#      x y z
#    x 4.512550 0.000000 0.166290 
#    y 0.000000 3.962440 0.000000 
#    z 0.166290 0.000000 3.995510 
# 
# 
# High freq. dielectric constant tensor:
#      x y z
#    x 1.891290 0.000000 0.008370 
#    y 0.000000 1.861740 0.000000 
#    z 0.008370 0.000000 1.871270 
# 
# From -- ./inp_files/205146.got.cif
#   From: 2010.06.25/outbox.cif.g09.slc.cpg/sg12_103_cif.got.tgz:205146.got - 2010.06.28 00:19:55.
