data_PCOD8115805
_publ_section_title
;
Structure prediction by ZEFSAII (Michael W. Deem and Ramdas Pophale) SiO2 
 PCOD8115805
Probable space group: C 2/M
;
_chemical_formula_sum "Si O2"
_cell_formula_units_Z 40
_cell_length_a 12.666502
_cell_length_b 14.289178
_cell_length_c 26.891776
_cell_angle_alpha 90.000000
_cell_angle_beta 151.995099
_cell_angle_gamma 90.000000
_cell_volume 2285.401868
_symmetry_space_group_name_H-M "C 2/M"
_symmetry_group_IT_number 12
_symmetry_cell_setting 'monoclinic'
loop_
_space_group_symop_operation_xyz
x,y,z
-x,y,-z
-x,-y,-z
x,-y,z
1/2+x,1/2+y,z
1/2-x,1/2+y,-z
1/2-x,1/2-y,-z
1/2+x,1/2-y,z
loop_
_atom_site_type_symbol
_atom_site_label
_atom_site_fract_x
_atom_site_fract_y
_atom_site_fract_z
Si Si1 0.661806 0.392885 0.390883
Si Si2 0.149229 0.393038 0.636551
Si Si3 0.049353 0.198943 0.071813
Si Si4 0.363131 0.892235 0.133310
Si Si5 0.755397 0.725633 0.749867
O O1 0.582142 0.500000 0.364005
O O2 0.697456 0.370214 0.347575
O O3 0.480210 0.323813 0.338414
O O4 0.890550 0.375588 0.515737
O O5 0.186737 0.500000 0.669064
O O6 0.218741 0.327248 0.710909
O O7 0.258322 0.129575 0.144552
O O8 0.107399 0.264091 0.141842
O O9 0.000000 0.259670 0.000000
O O10 0.821160 0.137802 0.985773
O O11 0.596505 0.837045 0.225126
O O12 0.422033 0.000000 0.152150
#
# Coordination Sequence:
#
# PCOD8115805 Si02
#       5
#     8   8   8   8   8
#     4   9  19  36  52  73 106 131 158 204 258 295
#     4   9  20  35  51  74 103 134 163 200 248 304
#     4   8  20  34  49  68 105 134 163 197 253 290
#     4   9  19  34  50  71 101 135 164 200 252 292
#     4  12  18  31  57  80  93 128 177 209 235 290
#
# _framework density 17.502393000000001
#
# number of rings (size 3 to 8) (size 9 to 14) (size 15 to 20)
#    1.200    1.200    0.000    5.400    0.000    1.600 
#    0.000    0.000    0.000    1.200    0.000   12.600 
#    0.000    0.000    0.000    0.000    0.000    0.000 
#
# Total GULP energy -247790.850857 kJ/mol
# GULP energy per Si atom -12389.542543 kJ/mol
# Density = 1.746256 g / cm^3
# Si number density = 17.502393 Si / 1000 Ang^3
#
#
#
# Elastic Constant Matrix: (Units=GPa)
#
#
# Indices 1 2 3 4 5 6 
#
# 1 69.2450 42.5480 40.3650 -0.0011 15.0837 -0.0002
# 2 42.5480 90.4487 38.9767 -0.0019 14.5701 -0.0003
# 3 40.3650 38.9767 53.2004 0.0068 11.5521 0.0022
# 4 -0.0011 -0.0019 0.0068 24.9857 0.0006 2.8894
# 5 15.0837 14.5701 11.5521 0.0006 36.3789 -0.0001
# 6 -0.0002 -0.0003 0.0022 2.8894 -0.0001 25.8243
#
#
#
# Elastic Compliance Matrix: (Units=1/GPa)
#
#
# Indices 1 2 3 4 5 6 
#
# 1 0.028461 -0.005541 -0.016599 0.000005 -0.004311 0.000001
# 2 -0.005541 0.017528 -0.008176 0.000003 -0.002126 0.000000
# 3 -0.016599 -0.008176 0.037781 -0.000011 -0.001840 -0.000002
# 4 0.000005 0.000003 -0.000011 0.040548 -0.000001 -0.004537
# 5 -0.004311 -0.002126 -0.001840 -0.000001 0.030712 0.000000
# 6 0.000001 0.000000 -0.000002 -0.004537 0.000000 0.039231
#
#
# Mechanical properties :
#
#
# Convention : Reuss Voigt Hill
#
# Bulk Modulus (GPa) = 43.21841 50.74150 46.97996
# Shear Modulus (GPa) = 19.04002 23.50476 21.27239
#
# Velocity S-wave (km/s) = 3.30184 3.66860 3.49004
# Velocity P-wave (km/s) = 6.26759 6.85558 6.56816
#
# Compressibility (1/GPa) = 0.02313829
#
# Stress axis : x y z
#
# Youngs Moduli (GPa) = 35.13556 57.05033 26.46867
#
# Poissons Ratio (x) = 0.31613 0.43935
# Poissons Ratio (y) = 0.19469 0.21641
# Poissons Ratio (z) = 0.58321 0.46644
#
# Static dielectric constant tensor:
#      x y z
#    x 3.142560 0.000000 0.145920 
#    y 0.000000 3.011990 0.000000 
#    z 0.145920 0.000000 3.095960 
# 
# 
# High freq. dielectric constant tensor:
#      x y z
#    x 1.670120 0.000000 0.017850 
#    y 0.000000 1.662090 0.000000 
#    z 0.017850 0.000000 1.669320 
# 
# From -- ./inp_files/202958.got.cif
#   From: 2010.06.25/outbox.cif.g09.slc.cpg/sg12_102_cif.got.tgz:202958.got - 2010.06.28 00:19:55.
