data_PCOD8115933
_publ_section_title
;
Structure prediction by ZEFSAII (Michael W. Deem and Ramdas Pophale) SiO2 
 PCOD8115933
Probable space group: C 2/M
;
_chemical_formula_sum "Si O2"
_cell_formula_units_Z 64
_cell_length_a 18.719845
_cell_length_b 9.057226
_cell_length_c 20.127817
_cell_angle_alpha 90.000000
_cell_angle_beta 88.851291
_cell_angle_gamma 90.000000
_cell_volume 3411.982850
_symmetry_space_group_name_H-M "C 2/M"
_symmetry_group_IT_number 12
_symmetry_cell_setting 'monoclinic'
loop_
_space_group_symop_operation_xyz
x,y,z
-x,y,-z
-x,-y,-z
x,-y,z
1/2+x,1/2+y,z
1/2-x,1/2+y,-z
1/2-x,1/2-y,-z
1/2+x,1/2-y,z
loop_
_atom_site_type_symbol
_atom_site_label
_atom_site_fract_x
_atom_site_fract_y
_atom_site_fract_z
Si Si1 0.582987 0.327727 0.621420
Si Si2 0.891425 0.828818 0.743974
Si Si3 0.919323 0.169597 0.593831
Si Si4 0.326328 0.824589 0.487471
Si Si5 0.325106 0.171851 0.990512
Si Si6 0.860987 0.174029 0.112890
Si Si7 0.953457 0.175598 0.232957
Si Si8 0.798908 0.331130 0.847517
O O1 0.602239 0.500000 0.612827
O O2 0.503817 0.297904 0.593959
O O3 0.641478 0.229485 0.583018
O O4 0.586526 0.277471 0.698432
O O5 0.883542 0.799940 0.665877
O O6 0.826160 0.757596 0.783977
O O7 0.966244 0.760108 0.768522
O O8 0.890180 0.000000 0.760042
O O9 0.881726 0.278815 0.543556
O O10 0.906243 0.000000 0.572283
O O11 0.250000 0.750000 0.500000
O O12 0.317037 0.000000 0.486853
O O13 0.347953 0.194475 0.912812
O O14 0.316718 0.000000 0.007143
O O15 0.250000 0.250000 0.000000
O O16 0.379839 0.246368 0.042159
O O17 0.913387 0.236222 0.168740
O O18 0.781616 0.219318 0.136213
O O19 0.869271 0.000000 0.102268
O O20 0.956642 0.000000 0.232484
O O21 0.799605 0.500000 0.825974
#
# Coordination Sequence:
#
# PCOD8115933 Si02
#       8
#     8   8   8   8   8   8   8   8
#     4   9  18  36  60  80 104 140 174 207 253 307
#     4   9  18  33  54  77 101 132 169 206 243 294
#     4   9  19  37  58  79 105 138 174 210 253 306
#     4  12  25  38  54  79 109 137 171 215 259 303
#     4   9  17  30  47  69  97 130 169 207 249 300
#     4   9  17  31  51  73  98 129 168 210 249 295
#     4   8  16  33  55  77 101 132 169 205 246 297
#     4   9  18  30  46  71 101 132 166 209 257 298
#
# _framework density 18.757421999999998
#
# number of rings (size 3 to 8) (size 9 to 14) (size 15 to 20)
#    0.000    2.750    0.000    4.125    0.000    6.000 
#    0.000    5.000    0.000    3.750    0.000    0.000 
#    0.000    0.000    0.000    0.000    0.000    0.000 
#
# Total GULP energy -396651.418812 kJ/mol
# GULP energy per Si atom -12395.356838 kJ/mol
# Density = 1.871473 g / cm^3
# Si number density = 18.757422 Si / 1000 Ang^3
#
#
#
# Elastic Constant Matrix: (Units=GPa)
#
#
# Indices 1 2 3 4 5 6 
#
# 1 27.4611 11.4628 -0.7090 0.0000 1.4180 0.0000
# 2 11.4628 60.5238 11.4600 0.0000 -2.1383 0.0000
# 3 -0.7090 11.4600 30.4320 0.0000 4.6634 0.0000
# 4 0.0000 0.0000 0.0000 34.0762 0.0000 -3.3997
# 5 1.4180 -2.1383 4.6634 0.0000 33.6699 0.0000
# 6 0.0000 0.0000 0.0000 -3.3997 0.0000 22.4030
#
#
#
# Elastic Compliance Matrix: (Units=1/GPa)
#
#
# Indices 1 2 3 4 5 6 
#
# 1 0.040275 -0.008604 0.004620 0.000000 -0.002883 0.000000
# 2 -0.008604 0.019776 -0.008067 0.000000 0.002736 0.000000
# 3 0.004620 -0.008067 0.036897 0.000000 -0.005817 0.000000
# 4 0.000000 0.000000 0.000000 0.029797 0.000000 0.004522
# 5 -0.002883 0.002736 -0.005817 0.000000 0.030801 0.000000
# 6 0.000000 0.000000 0.000000 0.004522 0.000000 0.045323
#
#
# Mechanical properties :
#
#
# Convention : Reuss Voigt Hill
#
# Bulk Modulus (GPa) = 13.72761 18.09383 15.91072
# Shear Modulus (GPa) = 19.90022 24.44335 22.17179
#
# Velocity S-wave (km/s) = 3.26072 3.61381 3.44179
# Velocity P-wave (km/s) = 4.63797 5.20384 4.92903
#
# Compressibility (1/GPa) = 0.07284587
#
# Stress axis : x y z
#
# Youngs Moduli (GPa) = 24.82933 50.56600 27.10244
#
# Poissons Ratio (x) = 0.43509 -0.12522
# Poissons Ratio (y) = 0.21364 0.21863
# Poissons Ratio (z) = -0.11472 0.40791
#
# Static dielectric constant tensor:
#      x y z
#    x 3.527250 0.000000 0.341000 
#    y 0.000000 3.258310 0.000000 
#    z 0.341000 0.000000 4.137570 
# 
# 
# High freq. dielectric constant tensor:
#      x y z
#    x 1.706370 0.000000 0.004240 
#    y 0.000000 1.708290 0.000000 
#    z 0.004240 0.000000 1.743720 
# 
# From -- ./inp_files/314045.got.cif
#   From: 2010.06.25/outbox.cif.g09.slc.cpg/sg12_158_cif.got.tgz:314045.got - 2010.06.28 00:19:55.
