data_PCOD8115105
_publ_section_title
;
Structure prediction by ZEFSAII (Michael W. Deem and Ramdas Pophale) SiO2 
 PCOD8115105
Probable space group: C 2/M
;
_chemical_formula_sum "Si O2"
_cell_formula_units_Z 48
_cell_length_a 13.878579
_cell_length_b 23.953418
_cell_length_c 9.853654
_cell_angle_alpha 90.000000
_cell_angle_beta 44.395731
_cell_angle_gamma 90.000000
_cell_volume 2291.742807
_symmetry_space_group_name_H-M "C 2/M"
_symmetry_group_IT_number 12
_symmetry_cell_setting 'monoclinic'
loop_
_space_group_symop_operation_xyz
x,y,z
-x,y,-z
-x,-y,-z
x,-y,z
1/2+x,1/2+y,z
1/2-x,1/2+y,-z
1/2-x,1/2-y,-z
1/2+x,1/2-y,z
loop_
_atom_site_type_symbol
_atom_site_label
_atom_site_fract_x
_atom_site_fract_y
_atom_site_fract_z
Si Si1 0.336869 0.802508 0.133876
Si Si2 0.659935 0.197493 0.342500
Si Si3 0.741033 0.138778 0.520514
Si Si4 0.487302 0.937838 0.163605
Si Si5 0.492507 0.565529 0.168673
Si Si6 0.722276 0.884260 0.051233
O O1 0.262293 0.743804 0.179141
O O2 0.251965 0.832430 0.339758
O O3 0.500000 0.793516 0.000000
O O4 0.313576 0.836605 0.020733
O O5 0.500000 0.216588 0.500000
O O6 0.710430 0.187491 0.444715
O O7 0.681497 0.139901 0.238806
O O8 0.616129 0.095854 0.639375
O O9 0.874377 0.102675 0.353305
O O10 0.629929 0.937533 0.102334
O O11 0.431198 0.000000 0.200413
O O12 0.500000 0.909665 0.000000
O O13 0.474946 0.500000 0.223222
O O14 0.500000 0.573463 0.000000
O O15 0.625505 0.591835 0.105097
#
# Coordination Sequence:
#
# PCOD8115105 Si02
#       6
#     8   8   8   8   8   8
#     4  12  26  46  71  98 136 180 225 276 339 402
#     4  12  26  42  69 102 132 180 229 276 337 400
#     4  12  23  46  67  99 136 173 226 279 331 398
#     4  11  22  43  72  99 133 177 219 277 342 403
#     4  11  26  45  68 101 139 181 221 271 340 401
#     4  12  23  46  67  99 136 173 226 279 331 398
#
# _framework density 20.944759000000001
#
# number of rings (size 3 to 8) (size 9 to 14) (size 15 to 20)
#    0.000    0.333    6.667    2.000    4.667    0.000 
#    0.000    1.667    0.000    0.000    0.000    0.000 
#    0.000    0.000    0.000    0.000    0.000    0.000 
#
# Total GULP energy -297610.054802 kJ/mol
# GULP energy per Si atom -12400.418950 kJ/mol
# Density = 2.089709 g / cm^3
# Si number density = 20.944759 Si / 1000 Ang^3
#
#
#
# Elastic Constant Matrix: (Units=GPa)
#
#
# Indices 1 2 3 4 5 6 
#
# 1 106.9697 23.6877 30.5920 0.0000 -27.5877 0.0000
# 2 23.6877 63.1598 18.3263 0.0000 -14.9294 0.0000
# 3 30.5920 18.3263 87.3581 0.0000 -14.3493 0.0000
# 4 0.0000 0.0000 0.0000 52.4723 0.0000 -18.0165
# 5 -27.5877 -14.9294 -14.3493 0.0000 43.2305 0.0000
# 6 0.0000 0.0000 0.0000 -18.0165 0.0000 34.7476
#
#
#
# Elastic Compliance Matrix: (Units=1/GPa)
#
#
# Indices 1 2 3 4 5 6 
#
# 1 0.012232 -0.002342 -0.002795 0.000000 0.006069 0.000000
# 2 -0.002342 0.018357 -0.002364 0.000000 0.004060 0.000000
# 3 -0.002795 -0.002364 0.013215 0.000000 0.001786 0.000000
# 4 0.000000 0.000000 0.000000 0.023185 0.000000 0.012021
# 5 0.006069 0.004060 0.001786 0.000000 0.029000 0.000000
# 6 0.000000 0.000000 0.000000 0.012021 0.000000 0.035012
#
#
# Mechanical properties :
#
#
# Convention : Reuss Voigt Hill
#
# Bulk Modulus (GPa) = 34.71991 44.74440 39.73216
# Shear Modulus (GPa) = 32.13293 38.41552 35.27423
#
# Velocity S-wave (km/s) = 3.92110 4.28733 4.10830
# Velocity P-wave (km/s) = 6.09204 6.77626 6.44324
#
# Compressibility (1/GPa) = 0.02880192
#
# Stress axis : x y z
#
# Youngs Moduli (GPa) = 81.75506 54.47578 75.66962
#
# Poissons Ratio (x) = 0.12757 0.21151
# Poissons Ratio (y) = 0.19145 0.17888
# Poissons Ratio (z) = 0.22852 0.12878
#
# Static dielectric constant tensor:
#      x y z
#    x 3.935600 0.000000 -0.054230 
#    y 0.000000 3.919630 0.000000 
#    z -0.054230 0.000000 3.862840 
# 
# 
# High freq. dielectric constant tensor:
#      x y z
#    x 1.829730 0.000000 -0.000270 
#    y 0.000000 1.828540 0.000000 
#    z -0.000270 0.000000 1.825430 
# 
# From -- ./inp_files/67350.got.cif
#   From: 2010.06.25/outbox.cif.g09.slc.cpg/sg12_34_cif.got.tgz:67350.got - 2010.06.28 00:19:55.
