data_PCOD8115961
_publ_section_title
;
Structure prediction by ZEFSAII (Michael W. Deem and Ramdas Pophale) SiO2 
 PCOD8115961
Probable space group: C 2/M
;
_chemical_formula_sum "Si O2"
_cell_formula_units_Z 40
_cell_length_a 24.362584
_cell_length_b 9.663641
_cell_length_c 21.549775
_cell_angle_alpha 90.000000
_cell_angle_beta 149.303326
_cell_angle_gamma 90.000000
_cell_volume 2589.981555
_symmetry_space_group_name_H-M "C 2/M"
_symmetry_group_IT_number 12
_symmetry_cell_setting 'monoclinic'
loop_
_space_group_symop_operation_xyz
x,y,z
-x,y,-z
-x,-y,-z
x,-y,z
1/2+x,1/2+y,z
1/2-x,1/2+y,-z
1/2-x,1/2-y,-z
1/2+x,1/2-y,z
loop_
_atom_site_type_symbol
_atom_site_label
_atom_site_fract_x
_atom_site_fract_y
_atom_site_fract_z
Si Si1 0.831262 0.664530 0.339214
Si Si2 0.396364 0.159226 0.179716
Si Si3 0.001015 0.335909 0.597827
Si Si4 0.391656 0.335182 0.924929
Si Si5 0.848318 0.158958 0.021541
O O1 0.828924 0.500000 0.332448
O O2 0.884244 0.709779 0.456937
O O3 0.710236 0.722442 0.213654
O O4 0.905426 0.723802 0.355819
O O5 0.481121 0.214275 0.314047
O O6 0.412604 0.250941 0.134424
O O7 0.417009 0.000000 0.181698
O O8 0.278759 0.178522 0.094724
O O9 0.011861 0.500000 0.607854
O O10 0.392669 0.500000 0.923698
O O11 0.500000 0.273499 0.000000
O O12 0.382523 0.286156 0.987171
O O13 0.881845 0.000000 0.063699
#
# Coordination Sequence:
#
# PCOD8115961 Si02
#       5
#     8   8   8   8   8
#     4   8  12  19  32  53  76  96 121 156 196 225
#     4   9  15  24  39  58  79 101 125 158 194 228
#     4   8  12  19  34  54  76  95 117 158 199 224
#     4   9  15  23  36  54  78 103 126 155 190 229
#     4   9  16  25  37  57  81 102 126 155 192 232
#
# _framework density 15.444126000000001
#
# number of rings (size 3 to 8) (size 9 to 14) (size 15 to 20)
#    0.000    3.400    2.000    1.200    0.000    0.000 
#    0.000    0.000    0.000    1.800    0.000    4.200 
#    0.000    0.000    0.000    0.000    0.000    0.000 
#
# Total GULP energy -247791.198377 kJ/mol
# GULP energy per Si atom -12389.559919 kJ/mol
# Density = 1.540897 g / cm^3
# Si number density = 15.444126 Si / 1000 Ang^3
#
#
#
# Elastic Constant Matrix: (Units=GPa)
#
#
# Indices 1 2 3 4 5 6 
#
# 1 78.5681 19.0390 66.9445 0.0000 -9.2766 0.0000
# 2 19.0390 23.0007 29.0489 0.0000 -10.1277 0.0000
# 3 66.9445 29.0489 165.9784 0.0000 -20.0166 0.0000
# 4 0.0000 0.0000 0.0000 14.1382 0.0000 -7.3743
# 5 -9.2766 -10.1277 -20.0166 0.0000 28.0614 0.0000
# 6 0.0000 0.0000 0.0000 -7.3743 0.0000 12.1772
#
#
#
# Elastic Compliance Matrix: (Units=1/GPa)
#
#
# Indices 1 2 3 4 5 6 
#
# 1 0.020628 -0.008925 -0.006919 0.000000 -0.001338 0.000000
# 2 -0.008925 0.065569 -0.005884 0.000000 0.016517 0.000000
# 3 -0.006919 -0.005884 0.010190 0.000000 0.002858 0.000000
# 4 0.000000 0.000000 0.000000 0.103386 0.000000 0.062609
# 5 -0.001338 0.016517 0.002858 0.000000 0.043194 0.000000
# 6 0.000000 0.000000 0.000000 0.062609 0.000000 0.120036
#
#
# Mechanical properties :
#
#
# Convention : Reuss Voigt Hill
#
# Bulk Modulus (GPa) = 18.89280 55.29022 37.09151
# Shear Modulus (GPa) = 11.78959 21.04302 16.41630
#
# Velocity S-wave (km/s) = 2.76591 3.69525 3.26383
# Velocity P-wave (km/s) = 4.73919 7.35420 6.18645
#
# Compressibility (1/GPa) = 0.05293021
#
# Stress axis : x y z
#
# Youngs Moduli (GPa) = 48.47694 15.25117 98.13486
#
# Poissons Ratio (x) = 0.13612 0.67903
# Poissons Ratio (y) = 0.43268 0.57740
# Poissons Ratio (z) = 0.33543 0.08973
#
# Static dielectric constant tensor:
#      x y z
#    x 2.849990 0.000000 -0.117310 
#    y 0.000000 2.436380 0.000000 
#    z -0.117310 0.000000 3.400080 
# 
# 
# High freq. dielectric constant tensor:
#      x y z
#    x 1.561790 0.000000 -0.018970 
#    y 0.000000 1.527180 0.000000 
#    z -0.018970 0.000000 1.605760 
# 
# From -- ./inp_files/153292.got.cif
#   From: 2010.06.25/outbox.cif.g09.slc.cpg/sg12_77_cif.got.tgz:153292.got - 2010.06.28 00:19:55.
