data_PCOD8115972
_publ_section_title
;
Structure prediction by ZEFSAII (Michael W. Deem and Ramdas Pophale) SiO2 
 PCOD8115972
Probable space group: C 2/M
;
_chemical_formula_sum "Si O2"
_cell_formula_units_Z 48
_cell_length_a 15.706882
_cell_length_b 14.827549
_cell_length_c 13.899162
_cell_angle_alpha 90.000000
_cell_angle_beta 36.733283
_cell_angle_gamma 90.000000
_cell_volume 1936.043383
_symmetry_space_group_name_H-M "C 2/M"
_symmetry_group_IT_number 12
_symmetry_cell_setting 'monoclinic'
loop_
_space_group_symop_operation_xyz
x,y,z
-x,y,-z
-x,-y,-z
x,-y,z
1/2+x,1/2+y,z
1/2-x,1/2+y,-z
1/2-x,1/2-y,-z
1/2+x,1/2-y,z
loop_
_atom_site_type_symbol
_atom_site_label
_atom_site_fract_x
_atom_site_fract_y
_atom_site_fract_z
Si Si1 0.159630 0.782624 0.898610
Si Si2 0.355602 0.106339 0.358796
Si Si3 0.446633 0.400080 0.845821
Si Si4 0.099988 0.597473 0.998345
Si Si5 0.063881 0.107481 0.540636
Si Si6 0.260553 0.101234 0.645088
O O1 0.271486 0.830998 0.725755
O O2 0.160392 0.836110 0.998777
O O3 0.208954 0.678696 0.875148
O O4 0.000000 0.779604 0.000000
O O5 0.504492 0.132067 0.174893
O O6 0.223551 0.146893 0.416089
O O7 0.354363 0.140511 0.471062
O O8 0.332257 0.000000 0.383897
O O9 0.379806 0.500000 0.909220
O O10 0.461958 0.365543 0.722293
O O11 0.599133 0.402820 0.757308
O O12 0.176768 0.500000 0.951095
O O13 0.000000 0.577464 0.000000
O O14 0.000000 0.148844 0.500000
O O15 0.073744 0.000000 0.523454
O O16 0.309676 0.000000 0.631379
#
# Coordination Sequence:
#
# PCOD8115972 Si02
#       6
#     8   8   8   8   8   8
#     4   9  15  23  35  55  77 106 134 156 192 237
#     4   8  14  25  40  58  80 104 133 168 198 230
#     4   8  13  21  34  55  82 105 125 154 193 241
#     4   9  17  28  39  53  79 113 143 166 187 221
#     4   8  13  22  37  57  80 105 130 158 200 247
#     4   8  13  22  37  56  77 101 128 159 198 240
#
# _framework density 24.792833000000002
#
# number of rings (size 3 to 8) (size 9 to 14) (size 15 to 20)
#    0.000    3.667    0.000    2.500    0.000    2.000 
#    0.000   13.333    0.000    0.000    0.000   19.833 
#    0.000    0.667    0.000    2.000    0.000   17.500 
#
# Total GULP energy -297326.271484 kJ/mol
# GULP energy per Si atom -12388.594645 kJ/mol
# Density = 2.473640 g / cm^3
# Si number density = 24.792833 Si / 1000 Ang^3
#
#
#
# Elastic Constant Matrix: (Units=GPa)
#
#
# Indices 1 2 3 4 5 6 
#
# 1 52.9801 28.9489 39.8299 -0.0001 26.1909 0.0000
# 2 28.9489 127.5048 63.3298 -0.0001 27.8518 0.0000
# 3 39.8299 63.3298 103.6259 -0.0001 55.5100 0.0001
# 4 -0.0001 -0.0001 -0.0001 21.3876 0.0000 14.4084
# 5 26.1909 27.8518 55.5100 0.0000 36.6294 -0.0001
# 6 0.0000 0.0000 0.0001 14.4084 -0.0001 5.4080
#
#
#
# Elastic Compliance Matrix: (Units=1/GPa)
#
#
# Indices 1 2 3 4 5 6 
#
# 1 0.030024 -0.003196 0.003248 -0.000001 -0.023959 0.000002
# 2 -0.003196 0.012323 -0.013323 0.000000 0.013105 -0.000001
# 3 0.003248 -0.013323 0.065678 -0.000003 -0.091724 0.000006
# 4 -0.000001 0.000000 -0.000003 -0.058822 0.000006 0.156718
# 5 -0.023959 0.013105 -0.091724 0.000006 0.173471 -0.000010
# 6 0.000002 -0.000001 0.000006 0.156718 -0.000010 -0.232629
#
#
# Mechanical properties :
#
#
# Convention : Reuss Voigt Hill
#
# Bulk Modulus (GPa) = 12.27250 60.92533 36.59891
# Shear Modulus (GPa) = 114.28741 22.81848 68.55295
#
# Velocity S-wave (km/s) = 6.79684 3.03704 5.26406
# Velocity P-wave (km/s) = 8.15824 6.07662 7.19313
#
# Compressibility (1/GPa) = 0.08148302
#
# Stress axis : x y z
#
# Youngs Moduli (GPa) = 33.30627 81.14861 15.22569
#
# Poissons Ratio (x) = 0.25936 -0.04945
# Poissons Ratio (y) = 0.10645 0.20285
# Poissons Ratio (z) = -0.10816 1.08113
#
# Static dielectric constant tensor:
#      x y z
#    x 4.078380 0.000000 0.761500 
#    y 0.000000 4.601990 0.000000 
#    z 0.761500 0.000000 4.784230 
# 
# 
# High freq. dielectric constant tensor:
#      x y z
#    x 1.939490 0.000000 0.040620 
#    y 0.000000 1.972950 0.000000 
#    z 0.040620 0.000000 1.977590 
# 
# From -- ./inp_files/225118.got.cif
#   From: 2010.06.25/outbox.cif.g09.slc.cpg/sg12_113_cif.got.tgz:225118.got - 2010.06.28 00:19:55.
