data_PCOD8115942
_publ_section_title
;
Structure prediction by ZEFSAII (Michael W. Deem and Ramdas Pophale) SiO2 
 PCOD8115942
Probable space group: C 2/M
;
_chemical_formula_sum "Si O2"
_cell_formula_units_Z 40
_cell_length_a 11.104604
_cell_length_b 16.422763
_cell_length_c 17.196041
_cell_angle_alpha 90.000000
_cell_angle_beta 149.579078
_cell_angle_gamma 90.000000
_cell_volume 1587.915759
_symmetry_space_group_name_H-M "C 2/M"
_symmetry_group_IT_number 12
_symmetry_cell_setting 'monoclinic'
loop_
_space_group_symop_operation_xyz
x,y,z
-x,y,-z
-x,-y,-z
x,-y,z
1/2+x,1/2+y,z
1/2-x,1/2+y,-z
1/2-x,1/2-y,-z
1/2+x,1/2-y,z
loop_
_atom_site_type_symbol
_atom_site_label
_atom_site_fract_x
_atom_site_fract_y
_atom_site_fract_z
Si Si1 0.441120 0.313707 0.330051
Si Si2 0.069891 0.673594 0.903532
Si Si3 0.299992 0.910609 0.618203
Si Si4 0.565225 0.864960 0.624694
Si Si5 0.511848 0.407078 0.798281
O O1 0.538179 0.372777 0.452982
O O2 0.528974 0.223190 0.399200
O O3 0.542599 0.346554 0.304569
O O4 0.155231 0.311560 0.165964
O O5 0.962098 0.650133 0.759752
O O6 0.250000 0.750000 0.000000
O O7 0.216579 0.598830 0.021672
O O8 0.442285 0.925484 0.616633
O O9 0.267276 0.000000 0.638558
O O10 0.500000 0.887288 0.500000
O O11 0.851217 0.876484 0.782058
O O12 0.460092 0.500000 0.745163
#
# Coordination Sequence:
#
# PCOD8115942 Si02
#       5
#     8   8   8   8   8
#     4  12  26  47  79 108 147 201 259 309 371 459
#     4  12  26  49  74 109 155 202 251 313 383 458
#     4  12  27  46  77 115 153 196 254 323 384 442
#     4  12  25  46  77 108 151 198 256 307 378 460
#     4  12  27  47  76 112 153 199 251 314 386 449
#
# _framework density 25.190252999999998
#
# number of rings (size 3 to 8) (size 9 to 14) (size 15 to 20)
#    0.000    0.000    4.000    6.000    0.000    6.400 
#    0.000    2.000    0.000    0.000    0.000    0.000 
#    0.000    0.000    0.000    0.000    0.000    0.000 
#
# Total GULP energy -247986.598274 kJ/mol
# GULP energy per Si atom -12399.329914 kJ/mol
# Density = 2.513292 g / cm^3
# Si number density = 25.190253 Si / 1000 Ang^3
#
#
#
# Elastic Constant Matrix: (Units=GPa)
#
#
# Indices 1 2 3 4 5 6 
#
# 1 57.7274 18.2925 -4.2089 -0.0005 7.6957 0.0008
# 2 18.2925 153.8480 39.9509 -0.0019 3.6677 -0.0002
# 3 -4.2089 39.9509 130.8545 -0.0015 1.5350 0.0016
# 4 -0.0005 -0.0019 -0.0015 40.5831 -0.0003 -1.6952
# 5 7.6957 3.6677 1.5350 -0.0003 32.5087 0.0007
# 6 0.0008 -0.0002 0.0016 -1.6952 0.0007 30.8179
#
#
#
# Elastic Compliance Matrix: (Units=1/GPa)
#
#
# Indices 1 2 3 4 5 6 
#
# 1 0.018782 -0.002500 0.001417 0.000000 -0.004231 0.000000
# 2 -0.002500 0.007408 -0.002341 0.000000 -0.000133 0.000000
# 3 0.001417 -0.002341 0.008408 0.000000 -0.000468 0.000000
# 4 0.000000 0.000000 0.000000 0.024698 0.000000 0.001359
# 5 -0.004231 -0.000133 -0.000468 0.000000 0.031800 -0.000001
# 6 0.000000 0.000000 0.000000 0.001359 -0.000001 0.032523
#
#
# Mechanical properties :
#
#
# Convention : Reuss Voigt Hill
#
# Bulk Modulus (GPa) = 36.03508 50.05543 43.04525
# Shear Modulus (GPa) = 35.78660 40.00831 37.89746
#
# Velocity S-wave (km/s) = 3.77324 3.98960 3.88293
# Velocity P-wave (km/s) = 5.77229 6.41379 6.10148
#
# Compressibility (1/GPa) = 0.02775074
#
# Stress axis : x y z
#
# Youngs Moduli (GPa) = 53.24109 134.98538 118.93764
#
# Poissons Ratio (x) = 0.33751 -0.16855
# Poissons Ratio (y) = 0.13312 0.27839
# Poissons Ratio (z) = -0.07545 0.31595
#
# Static dielectric constant tensor:
#      x y z
#    x 4.712650 -0.000020 0.331540 
#    y -0.000020 4.326180 -0.000020 
#    z 0.331540 -0.000020 4.850000 
# 
# 
# High freq. dielectric constant tensor:
#      x y z
#    x 2.016050 0.000000 0.019900 
#    y 0.000000 2.003600 0.000000 
#    z 0.019900 0.000000 2.014660 
# 
# From -- ./inp_files/264443.got.cif
#   From: 2010.06.25/outbox.cif.g09.slc.cpg/sg12_133_cif.got.tgz:264443.got - 2010.06.28 00:19:55.
