data_PCOD8115348
_publ_section_title
;
Structure prediction by ZEFSAII (Michael W. Deem and Ramdas Pophale) SiO2 
 PCOD8115348
Probable space group: C 2/M
;
_chemical_formula_sum "Si O2"
_cell_formula_units_Z 28
_cell_length_a 11.814694
_cell_length_b 20.972992
_cell_length_c 8.031126
_cell_angle_alpha 90.000000
_cell_angle_beta 40.781327
_cell_angle_gamma 90.000000
_cell_volume 1299.834635
_symmetry_space_group_name_H-M "C 2/M"
_symmetry_group_IT_number 12
_symmetry_cell_setting 'monoclinic'
loop_
_space_group_symop_operation_xyz
x,y,z
-x,y,-z
-x,-y,-z
x,-y,z
1/2+x,1/2+y,z
1/2-x,1/2+y,-z
1/2-x,1/2-y,-z
1/2+x,1/2-y,z
loop_
_atom_site_type_symbol
_atom_site_label
_atom_site_fract_x
_atom_site_fract_y
_atom_site_fract_z
Si Si1 0.131947 0.430186 0.499690
Si Si2 0.000000 0.894539 0.000000
Si Si3 0.969323 0.313394 0.844406
Si Si4 0.069283 0.180228 0.249673
O O1 0.094242 0.500000 0.623664
O O2 0.324311 0.435033 0.207254
O O3 0.000000 0.415908 0.500000
O O4 0.101277 0.372101 0.662708
O O5 0.992698 0.854282 0.176034
O O6 0.000200 0.253037 0.688996
O O7 0.772888 0.332400 0.027720
O O8 0.000000 0.291954 0.000000
O O9 0.000000 0.151537 0.500000
#
# Coordination Sequence:
#
# PCOD8115348 Si02
#       4
#     8   4   8   8
#     4  11  24  43  67  93 131 178 221 266 322 390
#     4  12  23  44  70 100 131 172 216 278 324 390
#     4  11  23  41  65  96 135 173 217 269 329 391
#     4  11  24  39  66 102 134 168 215 273 332 390
#
# _framework density 21.541201000000001
#
# number of rings (size 3 to 8) (size 9 to 14) (size 15 to 20)
#    0.000    0.857    4.286    3.000    4.000    2.857 
#    0.000    0.000    0.000    4.286    0.000    0.000 
#    0.000    0.000    0.000    0.000    0.000    0.000 
#
# Total GULP energy -173517.535398 kJ/mol
# GULP energy per Si atom -12394.109671 kJ/mol
# Density = 2.149217 g / cm^3
# Si number density = 21.541201 Si / 1000 Ang^3
#
#
#
# Elastic Constant Matrix: (Units=GPa)
#
#
# Indices 1 2 3 4 5 6 
#
# 1 115.8747 17.5004 39.3226 0.0000 8.5830 0.0000
# 2 17.5004 92.0713 41.0037 0.0000 4.8588 0.0000
# 3 39.3226 41.0037 94.3185 0.0000 4.9518 0.0000
# 4 0.0000 0.0000 0.0000 14.9437 0.0000 14.9243
# 5 8.5830 4.8588 4.9518 0.0000 48.3795 0.0000
# 6 0.0000 0.0000 0.0000 14.9243 0.0000 -16.9796
#
#
#
# Elastic Compliance Matrix: (Units=1/GPa)
#
#
# Indices 1 2 3 4 5 6 
#
# 1 0.010142 -0.000005 -0.004154 0.000000 -0.001374 0.000000
# 2 -0.000005 0.013497 -0.005825 0.000000 -0.000758 0.000000
# 3 -0.004154 -0.005825 0.014877 0.000000 -0.000201 0.000000
# 4 0.000000 0.000000 0.000000 0.035636 0.000000 0.031323
# 5 -0.001374 -0.000758 -0.000201 0.000000 0.021010 0.000000
# 6 0.000000 0.000000 0.000000 0.031323 0.000000 -0.031363
#
#
# Mechanical properties :
#
#
# Convention : Reuss Voigt Hill
#
# Bulk Modulus (GPa) = 53.91827 55.32421 54.62124
# Shear Modulus (GPa) = 55.58595 22.89790 39.24193
#
# Velocity S-wave (km/s) = 5.08532 3.26388 4.27279
# Velocity P-wave (km/s) = 7.71786 6.32001 7.05365
#
# Compressibility (1/GPa) = 0.01854659
#
# Stress axis : x y z
#
# Youngs Moduli (GPa) = 98.59759 74.09327 67.21658
#
# Poissons Ratio (x) = 0.00039 0.27922
# Poissons Ratio (y) = 0.00053 0.39156
# Poissons Ratio (z) = 0.40957 0.43162
#
# Static dielectric constant tensor:
#      x y z
#    x 4.026860 0.000000 -0.128230 
#    y 0.000000 3.741650 0.000000 
#    z -0.128230 0.000000 4.133120 
# 
# 
# High freq. dielectric constant tensor:
#      x y z
#    x 1.860160 0.000000 -0.013960 
#    y 0.000000 1.831510 0.000000 
#    z -0.013960 0.000000 1.843550 
# 
# From -- ./inp_files/37940.got.cif
#   From: 2010.06.25/outbox.cif.g09.slc.cpg/sg12_19_cif.got.tgz:37940.got - 2010.06.28 00:19:55.
