data_PCOD8115142
_publ_section_title
;
Structure prediction by ZEFSAII (Michael W. Deem and Ramdas Pophale) SiO2 
 PCOD8115142
Probable space group: C 2/M
;
_chemical_formula_sum "Si O2"
_cell_formula_units_Z 64
_cell_length_a 23.129569
_cell_length_b 9.020012
_cell_length_c 19.617724
_cell_angle_alpha 90.000000
_cell_angle_beta 122.266075
_cell_angle_gamma 90.000000
_cell_volume 3460.803889
_symmetry_space_group_name_H-M "C 2/M"
_symmetry_group_IT_number 12
_symmetry_cell_setting 'monoclinic'
loop_
_space_group_symop_operation_xyz
x,y,z
-x,y,-z
-x,-y,-z
x,-y,z
1/2+x,1/2+y,z
1/2-x,1/2+y,-z
1/2-x,1/2-y,-z
1/2+x,1/2-y,z
loop_
_atom_site_type_symbol
_atom_site_label
_atom_site_fract_x
_atom_site_fract_y
_atom_site_fract_z
Si Si1 0.935993 0.672137 0.162999
Si Si2 0.275674 0.324040 0.229470
Si Si3 0.984712 0.673748 0.917912
Si Si4 0.558958 0.674950 0.446063
Si Si5 0.590605 0.675893 0.614523
Si Si6 0.293136 0.324826 0.087537
Si Si7 0.850835 0.676439 0.765209
Si Si8 0.577616 0.174125 0.322551
O O1 0.917822 0.500000 0.164151
O O2 0.952696 0.700915 0.094103
O O3 0.871494 0.773229 0.139729
O O4 0.002001 0.721000 0.248681
O O5 0.278098 0.500000 0.237785
O O6 0.347588 0.257009 0.301750
O O7 0.261597 0.280952 0.141699
O O8 0.217455 0.257941 0.243040
O O9 0.972249 0.500000 0.919226
O O10 0.914728 0.744390 0.846456
O O11 0.000000 0.749779 0.000000
O O12 0.560445 0.500000 0.437663
O O13 0.598300 0.722792 0.539936
O O14 0.480963 0.735194 0.400623
O O15 0.596055 0.747700 0.404950
O O16 0.589636 0.500000 0.617778
O O17 0.290688 0.500000 0.074305
O O18 0.250000 0.250000 0.000000
O O19 0.850386 0.500000 0.770146
O O20 0.862977 0.722006 0.693822
O O21 0.578964 0.000000 0.334305
#
# Coordination Sequence:
#
# PCOD8115142 Si02
#       8
#     8   8   8   8   8   8   8   8
#     4   9  18  32  49  71  97 124 158 201 245 286
#     4   9  17  30  49  70  94 124 164 204 239 284
#     4   8  14  24  44  69  90 115 155 203 241 277
#     4   9  16  28  49  72  98 127 160 200 241 286
#     4   8  15  28  46  71  96 124 163 204 238 276
#     4  11  23  35  51  75  99 128 163 200 245 296
#     4   8  15  27  43  67  93 122 159 201 241 277
#     4   9  17  30  48  73 101 125 155 199 247 287
#
# _framework density 18.492813000000002
#
# number of rings (size 3 to 8) (size 9 to 14) (size 15 to 20)
#    0.000    3.125    0.000    3.375    1.750    1.500 
#    0.000    1.875    0.000    3.375    0.000    0.000 
#    0.000    0.000    0.000    0.000    0.000    0.000 
#
# Total GULP energy -396529.829047 kJ/mol
# GULP energy per Si atom -12391.557158 kJ/mol
# Density = 1.845072 g / cm^3
# Si number density = 18.492813 Si / 1000 Ang^3
#
#
#
# Elastic Constant Matrix: (Units=GPa)
#
#
# Indices 1 2 3 4 5 6 
#
# 1 114.2862 23.3904 55.0944 0.0000 -15.7308 0.0000
# 2 23.3904 28.0611 24.1079 0.0000 -5.0684 0.0000
# 3 55.0944 24.1079 105.3492 0.0000 -22.0545 0.0000
# 4 0.0000 0.0000 0.0000 22.7657 0.0000 -4.6599
# 5 -15.7308 -5.0684 -22.0545 0.0000 34.8595 0.0000
# 6 0.0000 0.0000 0.0000 -4.6599 0.0000 19.9737
#
#
#
# Elastic Compliance Matrix: (Units=1/GPa)
#
#
# Indices 1 2 3 4 5 6 
#
# 1 0.012541 -0.005997 -0.004823 0.000000 0.001736 0.000000
# 2 -0.005997 0.047225 -0.007838 0.000000 -0.000799 0.000000
# 3 -0.004823 -0.007838 0.015116 0.000000 0.006247 0.000000
# 4 0.000000 0.000000 0.000000 0.046129 0.000000 0.010762
# 5 0.001736 -0.000799 0.006247 0.000000 0.033306 0.000000
# 6 0.000000 0.000000 0.000000 0.010762 0.000000 0.052577
#
#
# Mechanical properties :
#
#
# Convention : Reuss Voigt Hill
#
# Bulk Modulus (GPa) = 26.61927 50.32020 38.46974
# Shear Modulus (GPa) = 19.47565 25.19337 22.33451
#
# Velocity S-wave (km/s) = 3.24874 3.69498 3.47903
# Velocity P-wave (km/s) = 5.33836 6.74341 6.08160
#
# Compressibility (1/GPa) = 0.03756677
#
# Stress axis : x y z
#
# Youngs Moduli (GPa) = 79.73665 21.17541 66.15525
#
# Poissons Ratio (x) = 0.12698 0.31906
# Poissons Ratio (y) = 0.47816 0.51851
# Poissons Ratio (z) = 0.38457 0.16597
#
# Static dielectric constant tensor:
#      x y z
#    x 3.616240 0.000000 -0.095300 
#    y 0.000000 2.828270 0.000000 
#    z -0.095300 0.000000 3.701720 
# 
# 
# High freq. dielectric constant tensor:
#      x y z
#    x 1.721380 0.000000 -0.015230 
#    y 0.000000 1.658030 0.000000 
#    z -0.015230 0.000000 1.719400 
# 
# From -- ./inp_files/324255.got.cif
#   From: 2010.06.25/outbox.cif.g09.slc.cpg/sg12_163_cif.got.tgz:324255.got - 2010.06.28 00:19:55.
