data_PCOD8115169
_publ_section_title
;
Structure prediction by ZEFSAII (Michael W. Deem and Ramdas Pophale) SiO2 
 PCOD8115169
Probable space group: C 2/M
;
_chemical_formula_sum "Si O2"
_cell_formula_units_Z 56
_cell_length_a 28.451182
_cell_length_b 8.573784
_cell_length_c 14.246746
_cell_angle_alpha 90.000000
_cell_angle_beta 60.045154
_cell_angle_gamma 90.000000
_cell_volume 3011.040451
_symmetry_space_group_name_H-M "C 2/M"
_symmetry_group_IT_number 12
_symmetry_cell_setting 'monoclinic'
loop_
_space_group_symop_operation_xyz
x,y,z
-x,y,-z
-x,-y,-z
x,-y,z
1/2+x,1/2+y,z
1/2-x,1/2+y,-z
1/2-x,1/2-y,-z
1/2+x,1/2-y,z
loop_
_atom_site_type_symbol
_atom_site_label
_atom_site_fract_x
_atom_site_fract_y
_atom_site_fract_z
Si Si1 0.773655 0.178281 0.736059
Si Si2 0.395796 0.818453 0.943694
Si Si3 0.498195 0.318495 0.110632
Si Si4 0.663514 0.678563 0.830027
Si Si5 0.798048 0.682068 0.516044
Si Si6 0.389187 0.177577 0.284814
Si Si7 0.806276 0.820392 0.906699
O O1 0.722090 0.284118 0.813877
O O2 0.802080 0.237972 0.613500
O O3 0.812376 0.194098 0.787944
O O4 0.755265 0.000000 0.740668
O O5 0.459196 0.777541 0.867003
O O6 0.358488 0.770620 0.893583
O O7 0.387255 0.000000 0.972450
O O8 0.381404 0.715618 0.048411
O O9 0.511925 0.500000 0.102691
O O10 0.439864 0.290219 0.216378
O O11 0.500000 0.261094 0.000000
O O12 0.658317 0.500000 0.804051
O O13 0.656263 0.789468 0.748025
O O14 0.785634 0.500000 0.540696
O O15 0.750000 0.750000 0.500000
O O16 0.857910 0.710770 0.413232
O O17 0.409358 0.000000 0.258445
O O18 0.808623 0.000000 0.937006
O O19 0.750000 0.750000 0.000000
#
# Coordination Sequence:
#
# PCOD8115169 Si02
#       7
#     8   8   8   8   8   8   8
#     4  11  23  38  57  84 118 155 196 238 289 345
#     4  12  24  38  58  84 119 156 193 239 290 346
#     4  11  23  38  59  86 116 153 195 237 288 347
#     4  12  22  33  55  84 118 156 194 236 284 343
#     4  11  23  37  58  85 118 155 195 239 289 346
#     4  11  23  38  57  84 118 155 195 237 288 345
#     4  11  23  38  59  85 117 155 195 239 288 347
#
# _framework density 18.598222
#
# number of rings (size 3 to 8) (size 9 to 14) (size 15 to 20)
#    0.000    0.714    4.286    4.714    0.000    4.000 
#    0.000    0.000    0.000    0.857    0.000    6.000 
#    0.000    0.000    0.000    0.000    0.000    0.000 
#
# Total GULP energy -347244.414819 kJ/mol
# GULP energy per Si atom -12401.586244 kJ/mol
# Density = 1.855589 g / cm^3
# Si number density = 18.598222 Si / 1000 Ang^3
#
#
#
# Elastic Constant Matrix: (Units=GPa)
#
#
# Indices 1 2 3 4 5 6 
#
# 1 105.0018 39.8347 35.3955 0.0000 -0.9114 0.0000
# 2 39.8347 81.7610 46.3783 0.0000 -1.4412 0.0000
# 3 35.3955 46.3783 90.1806 0.0000 4.3570 0.0000
# 4 0.0000 0.0000 0.0000 30.0512 0.0000 -1.6419
# 5 -0.9114 -1.4412 4.3570 0.0000 27.0212 0.0000
# 6 0.0000 0.0000 0.0000 -1.6419 0.0000 31.4689
#
#
#
# Elastic Compliance Matrix: (Units=1/GPa)
#
#
# Indices 1 2 3 4 5 6 
#
# 1 0.012052 -0.004466 -0.002461 0.000000 0.000565 0.000000
# 2 -0.004466 0.019075 -0.008163 0.000000 0.002183 0.000000
# 3 -0.002461 -0.008163 0.016406 0.000000 -0.003164 0.000000
# 4 0.000000 0.000000 0.000000 0.033372 0.000000 0.001741
# 5 0.000565 0.002183 -0.003164 0.000000 0.037654 0.000000
# 6 0.000000 0.000000 0.000000 0.001741 0.000000 0.031868
#
#
# Mechanical properties :
#
#
# Convention : Reuss Voigt Hill
#
# Bulk Modulus (GPa) = 57.62415 57.79559 57.70987
# Shear Modulus (GPa) = 26.82532 28.06392 27.44462
#
# Velocity S-wave (km/s) = 3.80196 3.88874 3.84560
# Velocity P-wave (km/s) = 7.09395 7.16285 7.12849
#
# Compressibility (1/GPa) = 0.01735383
#
# Stress axis : x y z
#
# Youngs Moduli (GPa) = 82.97067 52.42363 60.95495
#
# Poissons Ratio (x) = 0.23413 0.15001
# Poissons Ratio (y) = 0.37056 0.49755
# Poissons Ratio (z) = 0.20419 0.42792
#
# Static dielectric constant tensor:
#      x y z
#    x 3.369740 0.000000 0.061710 
#    y 0.000000 3.505590 0.000000 
#    z 0.061710 0.000000 3.367130 
# 
# 
# High freq. dielectric constant tensor:
#      x y z
#    x 1.710220 0.000000 -0.001510 
#    y 0.000000 1.740400 0.000000 
#    z -0.001510 0.000000 1.707580 
# 
# From -- ./inp_files/243655.got.cif
#   From: 2010.06.25/outbox.cif.g09.slc.cpg/sg12_122_cif.got.tgz:243655.got - 2010.06.28 00:19:55.
