data_PCOD8115213
_publ_section_title
;
Structure prediction by ZEFSAII (Michael W. Deem and Ramdas Pophale) SiO2 
 PCOD8115213
Probable space group: C 2/M
;
_chemical_formula_sum "Si O2"
_cell_formula_units_Z 52
_cell_length_a 14.326712
_cell_length_b 9.323611
_cell_length_c 30.510097
_cell_angle_alpha 90.000000
_cell_angle_beta 40.649632
_cell_angle_gamma 90.000000
_cell_volume 2654.869287
_symmetry_space_group_name_H-M "C 2/M"
_symmetry_group_IT_number 12
_symmetry_cell_setting 'monoclinic'
loop_
_space_group_symop_operation_xyz
x,y,z
-x,y,-z
-x,-y,-z
x,-y,z
1/2+x,1/2+y,z
1/2-x,1/2+y,-z
1/2-x,1/2-y,-z
1/2+x,1/2-y,z
loop_
_atom_site_type_symbol
_atom_site_label
_atom_site_fract_x
_atom_site_fract_y
_atom_site_fract_z
Si Si1 0.009195 0.667343 0.333449
Si Si2 0.000000 0.239910 0.500000
Si Si3 0.286438 0.336434 0.354937
Si Si4 0.108208 0.159209 0.549994
Si Si5 0.686302 0.665957 0.753207
Si Si6 0.122904 0.832648 0.989752
Si Si7 0.594597 0.668653 0.100580
O O1 0.968434 0.500000 0.353769
O O2 0.904773 0.737195 0.335623
O O3 0.001384 0.749369 0.382426
O O4 0.177928 0.687169 0.262198
O O5 0.866683 0.333292 0.565679
O O6 0.947199 0.139363 0.479579
O O7 0.340139 0.500000 0.337079
O O8 0.279445 0.275070 0.307843
O O9 0.250000 0.250000 0.500000
O O10 0.133063 0.000000 0.560969
O O11 0.653950 0.500000 0.759487
O O12 0.544847 0.734959 0.825281
O O13 0.268094 0.746963 0.927714
O O14 0.155242 0.000000 0.971628
O O15 0.073536 0.797632 0.056718
O O16 0.000000 0.780674 0.000000
O O17 0.613988 0.500000 0.101443
#
# Coordination Sequence:
#
# PCOD8115213 Si02
#       7
#     8   4   8   8   8   8   8
#     4  11  23  40  59  83 113 147 189 237 288 347
#     4  12  24  38  62  84 112 142 190 244 292 340
#     4  11  23  39  59  83 110 147 193 240 293 348
#     4  12  25  40  60  85 113 144 186 239 294 349
#     4   9  20  39  58  80 114 154 189 227 285 347
#     4   9  18  33  56  87 119 149 185 231 279 327
#     4   9  18  35  58  82 114 154 191 227 272 334
#
# _framework density 19.586652000000001
#
# number of rings (size 3 to 8) (size 9 to 14) (size 15 to 20)
#    0.000    1.692    3.077    1.385    0.000    3.385 
#    0.000    3.846    0.000    0.000    0.000    0.000 
#    0.000    0.000    0.000    0.000    0.000    0.000 
#
# Total GULP energy -322235.299927 kJ/mol
# GULP energy per Si atom -12393.665382 kJ/mol
# Density = 1.954207 g / cm^3
# Si number density = 19.586652 Si / 1000 Ang^3
#
#
#
# Elastic Constant Matrix: (Units=GPa)
#
#
# Indices 1 2 3 4 5 6 
#
# 1 149.4755 48.6627 61.2122 0.0000 -18.1946 0.0001
# 2 48.6627 95.8979 38.6578 -0.0001 -13.1449 0.0002
# 3 61.2122 38.6578 132.6854 0.0000 -23.4648 0.0000
# 4 0.0000 -0.0001 0.0000 21.1206 0.0000 -0.3994
# 5 -18.1946 -13.1449 -23.4648 0.0000 27.4133 0.0000
# 6 0.0001 0.0002 0.0000 -0.3994 0.0000 22.5552
#
#
#
# Elastic Compliance Matrix: (Units=1/GPa)
#
#
# Indices 1 2 3 4 5 6 
#
# 1 0.009185 -0.003193 -0.002945 0.000000 0.002044 0.000000
# 2 -0.003193 0.013169 -0.001911 0.000000 0.002560 0.000000
# 3 -0.002945 -0.001911 0.010540 0.000000 0.006151 0.000000
# 4 0.000000 0.000000 0.000000 0.047363 0.000000 0.000839
# 5 0.002044 0.002560 0.006151 0.000000 0.044327 0.000000
# 6 0.000000 0.000000 0.000000 0.000839 0.000000 0.044350
#
#
# Mechanical properties :
#
#
# Convention : Reuss Voigt Hill
#
# Bulk Modulus (GPa) = 59.54348 75.01379 67.27863
# Shear Modulus (GPa) = 26.22856 29.51957 27.87406
#
# Velocity S-wave (km/s) = 3.66335 3.88638 3.77651
# Velocity P-wave (km/s) = 6.95410 7.64985 7.31026
#
# Compressibility (1/GPa) = 0.01679445
#
# Stress axis : x y z
#
# Youngs Moduli (GPa) = 108.87843 75.93388 94.87732
#
# Poissons Ratio (x) = 0.24247 0.27945
# Poissons Ratio (y) = 0.34767 0.18132
# Poissons Ratio (z) = 0.32069 0.14512
#
# Static dielectric constant tensor:
#      x y z
#    x 3.525240 0.000000 0.052290 
#    y 0.000000 3.292030 0.000000 
#    z 0.052290 0.000000 3.360200 
# 
# 
# High freq. dielectric constant tensor:
#      x y z
#    x 1.774120 0.000000 -0.006990 
#    y 0.000000 1.746250 0.000000 
#    z -0.006990 0.000000 1.757750 
# 
# From -- ./inp_files/375295.got.cif
#   From: 2010.06.25/outbox.cif.g09.slc.cpg/sg12_188_cif.got.tgz:375295.got - 2010.06.28 00:19:55.
