data_PCOD8115627
_publ_section_title
;
Structure prediction by ZEFSAII (Michael W. Deem and Ramdas Pophale) SiO2 
 PCOD8115627
Probable space group: C 2/M
;
_chemical_formula_sum "Si O2"
_cell_formula_units_Z 48
_cell_length_a 12.133247
_cell_length_b 26.429633
_cell_length_c 14.673867
_cell_angle_alpha 90.000000
_cell_angle_beta 152.097592
_cell_angle_gamma 90.000000
_cell_volume 2202.053864
_symmetry_space_group_name_H-M "C 2/M"
_symmetry_group_IT_number 12
_symmetry_cell_setting 'monoclinic'
loop_
_space_group_symop_operation_xyz
x,y,z
-x,y,-z
-x,-y,-z
x,-y,z
1/2+x,1/2+y,z
1/2-x,1/2+y,-z
1/2-x,1/2-y,-z
1/2+x,1/2-y,z
loop_
_atom_site_type_symbol
_atom_site_label
_atom_site_fract_x
_atom_site_fract_y
_atom_site_fract_z
Si Si1 0.440192 0.500000 0.708454
Si Si2 0.261236 0.000000 0.772001
Si Si3 0.604882 0.268076 0.807597
Si Si4 0.781298 0.000000 0.905869
Si Si5 0.589709 0.915955 0.408670
Si Si6 0.744301 0.894203 0.325102
Si Si7 0.106366 0.308904 0.483956
Si Si8 0.000000 0.670189 0.000000
O O1 0.547837 0.500000 0.686702
O O2 0.281475 0.449908 0.601859
O O3 0.641154 0.500000 0.931999
O O4 0.245968 0.952610 0.694977
O O5 0.500000 0.000000 0.000000
O O6 0.389788 0.302888 0.686186
O O7 0.506800 0.218979 0.684952
O O8 0.772276 0.297300 0.859271
O O9 0.750000 0.250000 0.000000
O O10 0.637371 0.050703 0.780488
O O11 0.000000 0.000000 0.000000
O O12 0.685476 0.890237 0.387402
O O13 0.531300 0.868032 0.428930
O O14 0.000000 0.868692 0.500000
O O15 0.553464 0.864704 0.126034
O O16 0.000000 0.286008 0.500000
#
# Coordination Sequence:
#
# PCOD8115627 Si02
#       8
#     4   4   8   4   8   8   8   4
#     4  11  24  43  67  94 141 176 226 279 330 397
#     4  12  21  37  64  98 137 177 211 269 329 399
#     4  11  25  48  71 102 139 175 228 286 348 413
#     4  11  28  46  66  96 136 185 234 284 328 397
#     4  11  25  44  68  99 133 181 228 276 335 405
#     4  12  23  40  65 101 138 179 217 271 343 405
#     4  11  26  46  73 100 136 182 229 284 344 409
#     4  12  26  41  70 102 136 175 222 284 344 406
#
# _framework density 21.797832
#
# number of rings (size 3 to 8) (size 9 to 14) (size 15 to 20)
#    0.000    0.667    2.500    5.250    2.333    5.333 
#    1.500    0.000    0.000    0.000    0.000    0.000 
#    0.000    0.000    0.000    0.000    0.000    0.000 
#
# Total GULP energy -297732.963950 kJ/mol
# GULP energy per Si atom -12405.540165 kJ/mol
# Density = 2.174822 g / cm^3
# Si number density = 21.797832 Si / 1000 Ang^3
#
#
#
# Elastic Constant Matrix: (Units=GPa)
#
#
# Indices 1 2 3 4 5 6 
#
# 1 102.6716 19.1267 28.6649 -0.0004 11.1649 -0.0003
# 2 19.1267 116.5818 45.4889 0.0000 0.4797 0.0000
# 3 28.6649 45.4889 139.9424 -0.0008 -0.2826 -0.0005
# 4 -0.0004 0.0000 -0.0008 19.3723 -0.0004 -0.3558
# 5 11.1649 0.4797 -0.2826 -0.0004 44.7030 -0.0003
# 6 -0.0003 0.0000 -0.0005 -0.3558 -0.0003 23.8476
#
#
#
# Elastic Compliance Matrix: (Units=1/GPa)
#
#
# Indices 1 2 3 4 5 6 
#
# 1 0.010745 -0.001020 -0.001875 0.000000 -0.002685 0.000000
# 2 -0.001020 0.009921 -0.003016 0.000000 0.000129 0.000000
# 3 -0.001875 -0.003016 0.008511 0.000000 0.000554 0.000000
# 4 0.000000 0.000000 0.000000 0.051634 0.000000 0.000770
# 5 -0.002685 0.000129 0.000554 0.000000 0.023042 0.000000
# 6 0.000000 0.000000 0.000000 0.000770 0.000000 0.041944
#
#
# Mechanical properties :
#
#
# Convention : Reuss Voigt Hill
#
# Bulk Modulus (GPa) = 57.61658 60.63964 59.12811
# Shear Modulus (GPa) = 30.59873 35.31229 32.95551
#
# Velocity S-wave (km/s) = 3.75073 4.02928 3.89250
# Velocity P-wave (km/s) = 6.72659 7.03749 6.88379
#
# Compressibility (1/GPa) = 0.01735612
#
# Stress axis : x y z
#
# Youngs Moduli (GPa) = 93.06470 100.79411 117.49251
#
# Poissons Ratio (x) = 0.10284 0.22027
# Poissons Ratio (y) = 0.09496 0.35432
# Poissons Ratio (z) = 0.17447 0.30396
#
# Static dielectric constant tensor:
#      x y z
#    x 3.917120 0.000000 0.183690 
#    y 0.000000 3.880600 0.000010 
#    z 0.183690 0.000010 4.123420 
# 
# 
# High freq. dielectric constant tensor:
#      x y z
#    x 1.864230 0.000000 -0.002550 
#    y 0.000000 1.859660 0.000000 
#    z -0.002550 0.000000 1.872000 
# 
# From -- ./inp_files/209514.got.cif
#   From: 2010.06.25/outbox.cif.g09.slc.cpg/sg12_105_cif.got.tgz:209514.got - 2010.06.28 00:19:55.
