data_PCOD8115679
_publ_section_title
;
Structure prediction by ZEFSAII (Michael W. Deem and Ramdas Pophale) SiO2 
 PCOD8115679
Probable space group: C 2/M
;
_chemical_formula_sum "Si O2"
_cell_formula_units_Z 52
_cell_length_a 10.999786
_cell_length_b 22.482538
_cell_length_c 11.737670
_cell_angle_alpha 90.000000
_cell_angle_beta 126.825057
_cell_angle_gamma 90.000000
_cell_volume 2323.572145
_symmetry_space_group_name_H-M "C 2/M"
_symmetry_group_IT_number 12
_symmetry_cell_setting 'monoclinic'
loop_
_space_group_symop_operation_xyz
x,y,z
-x,y,-z
-x,-y,-z
x,-y,z
1/2+x,1/2+y,z
1/2-x,1/2+y,-z
1/2-x,1/2-y,-z
1/2+x,1/2-y,z
loop_
_atom_site_type_symbol
_atom_site_label
_atom_site_fract_x
_atom_site_fract_y
_atom_site_fract_z
Si Si1 0.000000 0.748256 0.500000
Si Si2 0.329045 0.733451 0.923854
Si Si3 0.194827 0.930238 0.888164
Si Si4 0.153152 0.352634 0.450228
Si Si5 0.331520 0.885168 0.188676
Si Si6 0.281172 0.667505 0.278159
Si Si7 0.851329 0.066355 0.722036
O O1 0.877533 0.706439 0.493922
O O2 0.932760 0.791639 0.363393
O O3 0.221650 0.681901 0.813588
O O4 0.340935 0.793868 0.858522
O O5 0.500000 0.708144 0.000000
O O6 0.250000 0.750000 0.000000
O O7 0.206644 0.897178 0.772866
O O8 0.026729 0.915771 0.839252
O O9 0.227666 0.000000 0.887522
O O10 0.315111 0.902712 0.046079
O O11 0.238167 0.336269 0.384208
O O12 0.266883 0.392713 0.585170
O O13 0.002718 0.389717 0.331358
O O14 0.228966 0.931533 0.200454
O O15 0.843914 0.000000 0.668653
#
# Coordination Sequence:
#
# PCOD8115679 Si02
#       7
#     4   8   8   8   8   8   8
#     4  12  24  46  68 102 136 182 226 284 346 416
#     4  12  24  41  69 103 142 180 225 282 357 426
#     4  11  26  46  68 100 138 182 232 283 346 415
#     4  12  25  45  69 106 137 178 229 285 348 420
#     4  12  23  43  71 105 137 176 227 291 348 408
#     4  12  26  42  71  97 140 180 227 280 349 415
#     4  11  24  45  71  97 133 183 237 286 336 410
#
# _framework density 22.379335000000001
#
# number of rings (size 3 to 8) (size 9 to 14) (size 15 to 20)
#    0.000    0.308    4.615    4.154    0.000    3.692 
#    0.000    2.692    0.000    0.000    0.000    0.000 
#    0.000    0.000    0.000    0.000    0.000    0.000 
#
# Total GULP energy -322292.277057 kJ/mol
# GULP energy per Si atom -12395.856810 kJ/mol
# Density = 2.232840 g / cm^3
# Si number density = 22.379335 Si / 1000 Ang^3
#
#
#
# Elastic Constant Matrix: (Units=GPa)
#
#
# Indices 1 2 3 4 5 6 
#
# 1 65.7117 18.0117 9.7677 0.0000 -19.3501 0.0000
# 2 18.0117 114.4272 34.6098 0.0000 -13.0871 0.0000
# 3 9.7677 34.6098 94.7524 0.0000 -14.2967 0.0000
# 4 0.0000 0.0000 0.0000 39.9193 0.0000 2.4851
# 5 -19.3501 -13.0871 -14.2967 0.0000 39.0364 0.0000
# 6 0.0000 0.0000 0.0000 2.4851 0.0000 15.8537
#
#
#
# Elastic Compliance Matrix: (Units=1/GPa)
#
#
# Indices 1 2 3 4 5 6 
#
# 1 0.018211 -0.001934 0.000099 0.000000 0.008415 0.000000
# 2 -0.001934 0.010195 -0.003338 0.000000 0.001237 0.000000
# 3 0.000099 -0.003338 0.012280 0.000000 0.003427 0.000000
# 4 0.000000 0.000000 0.000000 0.025297 0.000000 -0.003965
# 5 0.008415 0.001237 0.003427 0.000000 0.031458 0.000000
# 6 0.000000 0.000000 0.000000 -0.003965 0.000000 0.063698
#
#
# Mechanical properties :
#
#
# Convention : Reuss Voigt Hill
#
# Bulk Modulus (GPa) = 32.95988 44.40773 38.68381
# Shear Modulus (GPa) = 27.53317 33.12869 30.33093
#
# Velocity S-wave (km/s) = 3.51136 3.85167 3.68545
# Velocity P-wave (km/s) = 5.58564 6.29816 5.95257
#
# Compressibility (1/GPa) = 0.03033991
#
# Stress axis : x y z
#
# Youngs Moduli (GPa) = 54.91065 98.09113 81.43351
#
# Poissons Ratio (x) = 0.18971 -0.00805
# Poissons Ratio (y) = 0.10620 0.27181
# Poissons Ratio (z) = -0.00543 0.32741
#
# Static dielectric constant tensor:
#      x y z
#    x 3.993180 0.000000 -0.003100 
#    y 0.000000 4.074980 0.000000 
#    z -0.003100 0.000000 3.384420 
# 
# 
# High freq. dielectric constant tensor:
#      x y z
#    x 1.874820 0.000000 0.001260 
#    y 0.000000 1.887550 0.000000 
#    z 0.001260 0.000000 1.894430 
# 
# From -- ./inp_files/136009.got.cif
#   From: 2010.06.25/outbox.cif.g09.slc.cpg/sg12_69_cif.got.tgz:136009.got - 2010.06.28 00:19:55.
