data_PCOD8115635
_publ_section_title
;
Structure prediction by ZEFSAII (Michael W. Deem and Ramdas Pophale) SiO2 
 PCOD8115635
Probable space group: C 2/M
;
_chemical_formula_sum "Si O2"
_cell_formula_units_Z 64
_cell_length_a 10.082627
_cell_length_b 14.995064
_cell_length_c 28.731893
_cell_angle_alpha 90.000000
_cell_angle_beta 46.055751
_cell_angle_gamma 90.000000
_cell_volume 3127.721273
_symmetry_space_group_name_H-M "C 2/M"
_symmetry_group_IT_number 12
_symmetry_cell_setting 'monoclinic'
loop_
_space_group_symop_operation_xyz
x,y,z
-x,y,-z
-x,-y,-z
x,-y,z
1/2+x,1/2+y,z
1/2-x,1/2+y,-z
1/2-x,1/2-y,-z
1/2+x,1/2-y,z
loop_
_atom_site_type_symbol
_atom_site_label
_atom_site_fract_x
_atom_site_fract_y
_atom_site_fract_z
Si Si1 0.791480 0.757197 0.543676
Si Si2 0.113333 0.101289 0.638201
Si Si3 0.300518 0.148306 0.280092
Si Si4 0.004291 0.399851 0.859584
Si Si5 0.840467 0.145962 0.268334
Si Si6 0.936982 0.599322 0.345381
Si Si7 0.209036 0.241569 0.956151
Si Si8 0.211967 0.898629 0.130138
O O1 0.750000 0.750000 0.500000
O O2 0.763475 0.661692 0.575338
O O3 0.659330 0.831882 0.596802
O O4 0.000000 0.788442 0.500000
O O5 0.154500 0.099527 0.682845
O O6 0.916292 0.144247 0.675872
O O7 0.124501 0.000000 0.616681
O O8 0.405306 0.099272 0.213113
O O9 0.367798 0.249204 0.267737
O O10 0.346928 0.099686 0.316583
O O11 0.936988 0.500000 0.887304
O O12 0.832144 0.333956 0.902174
O O13 0.156517 0.367621 0.859672
O O14 0.651371 0.123593 0.288364
O O15 0.001124 0.107976 0.196984
O O16 0.913434 0.500000 0.371831
O O17 0.248767 0.337278 0.923698
O O18 0.250000 0.250000 0.000000
O O19 0.000000 0.211882 0.000000
O O20 0.254619 0.000000 0.104883
#
# Coordination Sequence:
#
# PCOD8115635 Si02
#       8
#     8   8   8   8   8   8   8   8
#     4  12  26  44  66  92 130 177 227 268 320 387
#     4  12  24  43  70  98 127 171 222 272 329 401
#     4  12  22  42  70 100 135 169 209 272 351 399
#     4  11  24  43  69 101 135 173 220 276 331 394
#     4  12  22  42  70 101 134 167 212 275 343 398
#     4  12  26  43  66 100 136 170 211 276 339 393
#     4  12  26  44  69  97 134 184 229 268 320 383
#     4  11  24  43  70 101 134 175 220 273 332 396
#
# _framework density 20.46218
#
# number of rings (size 3 to 8) (size 9 to 14) (size 15 to 20)
#    0.000    0.250    6.250    3.750    0.000    3.000 
#    0.000    1.250    0.000    0.000    0.000    0.000 
#    0.000    0.000    0.000    0.000    0.000    0.000 
#
# Total GULP energy -397058.491286 kJ/mol
# GULP energy per Si atom -12408.077853 kJ/mol
# Density = 2.041561 g / cm^3
# Si number density = 20.462180 Si / 1000 Ang^3
#
#
#
# Elastic Constant Matrix: (Units=GPa)
#
#
# Indices 1 2 3 4 5 6 
#
# 1 102.4968 18.5959 42.6348 0.0002 5.6583 0.0001
# 2 18.5959 138.8376 38.5652 -0.0002 -0.4713 -0.0004
# 3 42.6348 38.5652 102.4225 0.0001 3.1425 -0.0002
# 4 0.0002 -0.0002 0.0001 4.7890 0.0000 4.5706
# 5 5.6583 -0.4713 3.1425 0.0000 44.3221 0.0001
# 6 0.0001 -0.0004 -0.0002 4.5706 0.0001 28.7997
#
#
#
# Elastic Compliance Matrix: (Units=1/GPa)
#
#
# Indices 1 2 3 4 5 6 
#
# 1 0.011868 -0.000258 -0.004807 0.000000 -0.001177 0.000000
# 2 -0.000258 0.008054 -0.002935 0.000000 0.000327 0.000000
# 3 -0.004807 -0.002935 0.012880 0.000000 -0.000331 0.000000
# 4 0.000000 0.000000 0.000000 0.246083 0.000000 -0.039054
# 5 -0.001177 0.000327 -0.000331 0.000000 0.022739 0.000000
# 6 0.000000 0.000000 0.000000 -0.039054 0.000000 0.040921
#
#
# Mechanical properties :
#
#
# Convention : Reuss Voigt Hill
#
# Bulk Modulus (GPa) = 59.52061 60.37206 59.94633
# Shear Modulus (GPa) = 13.73082 31.84625 22.78854
#
# Velocity S-wave (km/s) = 2.59324 3.94934 3.34082
# Velocity P-wave (km/s) = 6.17396 7.09680 6.65141
#
# Compressibility (1/GPa) = 0.01680090
#
# Stress axis : x y z
#
# Youngs Moduli (GPa) = 84.26272 124.16795 77.64255
#
# Poissons Ratio (x) = 0.03208 0.37320
# Poissons Ratio (y) = 0.02177 0.22787
# Poissons Ratio (z) = 0.40502 0.36442
#
# Static dielectric constant tensor:
#      x y z
#    x 3.796210 0.000000 -0.077010 
#    y 0.000000 3.930110 0.000000 
#    z -0.077010 0.000000 3.730780 
# 
# 
# High freq. dielectric constant tensor:
#      x y z
#    x 1.810860 0.000000 -0.003250 
#    y 0.000000 1.815020 0.000000 
#    z -0.003250 0.000000 1.798700 
# 
# From -- ./inp_files/372575.got.cif
#   From: 2010.06.25/outbox.cif.g09.slc.cpg/sg12_187_cif.got.tgz:372575.got - 2010.06.28 00:19:55.
