data_PCOD8115585
_publ_section_title
;
Structure prediction by ZEFSAII (Michael W. Deem and Ramdas Pophale) SiO2 
 PCOD8115585
Probable space group: C 2/M
;
_chemical_formula_sum "Si O2"
_cell_formula_units_Z 48
_cell_length_a 9.447657
_cell_length_b 15.434979
_cell_length_c 31.335847
_cell_angle_alpha 90.000000
_cell_angle_beta 31.958613
_cell_angle_gamma 90.000000
_cell_volume 2418.682514
_symmetry_space_group_name_H-M "C 2/M"
_symmetry_group_IT_number 12
_symmetry_cell_setting 'monoclinic'
loop_
_space_group_symop_operation_xyz
x,y,z
-x,y,-z
-x,-y,-z
x,-y,z
1/2+x,1/2+y,z
1/2-x,1/2+y,-z
1/2-x,1/2-y,-z
1/2+x,1/2-y,z
loop_
_atom_site_type_symbol
_atom_site_label
_atom_site_fract_x
_atom_site_fract_y
_atom_site_fract_z
Si Si1 0.083779 0.772031 0.800722
Si Si2 0.377631 0.097554 0.074703
Si Si3 0.725294 0.184917 0.046184
Si Si4 0.396965 0.597498 0.427627
Si Si5 0.328044 0.901921 0.608497
Si Si6 0.858383 0.727680 0.306341
O O1 0.079513 0.712934 0.759464
O O2 0.385991 0.802418 0.731907
O O3 0.891184 0.853652 0.843366
O O4 0.989678 0.715842 0.864694
O O5 0.595575 0.100107 0.057196
O O6 0.296699 0.000000 0.085043
O O7 0.500000 0.141261 0.000000
O O8 0.750000 0.250000 0.000000
O O9 0.000000 0.162360 0.000000
O O10 0.510934 0.500000 0.403369
O O11 0.307491 0.613778 0.402294
O O12 0.620472 0.666639 0.383665
O O13 0.146721 0.610276 0.523165
O O14 0.212273 0.829653 0.669968
O O15 0.264093 0.000000 0.641251
#
# Coordination Sequence:
#
# PCOD8115585 Si02
#       6
#     8   8   8   8   8   8
#     4  12  23  37  60  90 120 162 192 244 308 364
#     4  11  24  42  63  90 121 156 202 255 307 362
#     4  12  20  40  68  86 115 160 207 246 290 365
#     4   9  19  38  62  87 117 162 210 250 293 360
#     4   9  19  38  62  86 120 163 205 248 300 361
#     4  12  22  37  60  93 124 157 205 246 312 363
#
# _framework density 19.845514999999999
#
# number of rings (size 3 to 8) (size 9 to 14) (size 15 to 20)
#    0.000    1.167    6.667    1.500    0.000    1.667 
#    0.000    0.833    0.000    2.000    0.000    0.000 
#    0.000    0.000    0.000    0.000    0.000    0.000 
#
# Total GULP energy -297567.031188 kJ/mol
# GULP energy per Si atom -12398.626299 kJ/mol
# Density = 1.980035 g / cm^3
# Si number density = 19.845515 Si / 1000 Ang^3
#
#
#
# Elastic Constant Matrix: (Units=GPa)
#
#
# Indices 1 2 3 4 5 6 
#
# 1 113.4423 31.0055 38.2222 -0.0386 -23.0222 0.0229
# 2 31.0055 82.3923 38.9376 -0.0277 -13.9743 0.0048
# 3 38.2222 38.9376 85.1118 -0.0504 -18.4292 0.0345
# 4 -0.0386 -0.0277 -0.0504 24.9443 0.0265 0.3985
# 5 -23.0222 -13.9743 -18.4292 0.0265 45.6816 -0.0284
# 6 0.0229 0.0048 0.0345 0.3985 -0.0284 24.0982
#
#
#
# Elastic Compliance Matrix: (Units=1/GPa)
#
#
# Indices 1 2 3 4 5 6 
#
# 1 0.011240 -0.002035 -0.003314 0.000005 0.003705 -0.000001
# 2 -0.002035 0.016032 -0.006115 0.000001 0.001412 0.000009
# 3 -0.003314 -0.006115 0.016730 0.000019 0.003208 -0.000016
# 4 0.000005 0.000001 0.000019 0.040100 -0.000014 -0.000663
# 5 0.003705 0.001412 0.003208 -0.000014 0.025484 0.000022
# 6 -0.000001 0.000009 -0.000016 -0.000663 0.000022 0.041508
#
#
# Mechanical properties :
#
#
# Convention : Reuss Voigt Hill
#
# Bulk Modulus (GPa) = 47.45352 55.25300 51.35326
# Shear Modulus (GPa) = 27.61715 30.46356 29.04036
#
# Velocity S-wave (km/s) = 3.73447 3.92220 3.82949
# Velocity P-wave (km/s) = 6.52368 6.95799 6.74433
#
# Compressibility (1/GPa) = 0.02107325
#
# Stress axis : x y z
#
# Youngs Moduli (GPa) = 88.96897 62.37461 59.77322
#
# Poissons Ratio (x) = 0.12693 0.19811
# Poissons Ratio (y) = 0.18105 0.36551
# Poissons Ratio (z) = 0.29488 0.38142
#
# Static dielectric constant tensor:
#      x y z
#    x 3.711570 -0.000340 -0.049230 
#    y -0.000340 3.457250 -0.000170 
#    z -0.049230 -0.000170 3.689470 
# 
# 
# High freq. dielectric constant tensor:
#      x y z
#    x 1.775120 0.000000 -0.003950 
#    y 0.000000 1.756300 0.000000 
#    z -0.003950 0.000000 1.779490 
# 
# From -- ./inp_files/372846.got.cif
#   From: 2010.06.25/outbox.cif.g09.slc.cpg/sg12_187_cif.got.tgz:372846.got - 2010.06.28 00:19:55.
