data_PCOD8115485
_publ_section_title
;
Structure prediction by ZEFSAII (Michael W. Deem and Ramdas Pophale) SiO2 
 PCOD8115485
Probable space group: C 2/M
;
_chemical_formula_sum "Si O2"
_cell_formula_units_Z 40
_cell_length_a 28.968389
_cell_length_b 14.390279
_cell_length_c 8.039005
_cell_angle_alpha 90.000000
_cell_angle_beta 147.403585
_cell_angle_gamma 90.000000
_cell_volume 1805.333334
_symmetry_space_group_name_H-M "C 2/M"
_symmetry_group_IT_number 12
_symmetry_cell_setting 'monoclinic'
loop_
_space_group_symop_operation_xyz
x,y,z
-x,y,-z
-x,-y,-z
x,-y,z
1/2+x,1/2+y,z
1/2-x,1/2+y,-z
1/2-x,1/2-y,-z
1/2+x,1/2-y,z
loop_
_atom_site_type_symbol
_atom_site_label
_atom_site_fract_x
_atom_site_fract_y
_atom_site_fract_z
Si Si1 0.564720 0.500000 0.351728
Si Si2 0.976568 0.500000 0.741350
Si Si3 0.248993 0.500000 0.117381
Si Si4 0.655821 0.160174 0.678895
Si Si5 0.087436 0.167783 0.673917
Si Si6 0.246676 0.670446 0.626666
Si Si7 0.161206 0.500000 0.190109
O O1 0.654288 0.500000 0.525790
O O2 0.558943 0.589658 0.454260
O O3 0.500000 0.500000 0.000000
O O4 0.925813 0.594437 0.559303
O O5 0.058963 0.500000 0.875364
O O6 0.000000 0.500000 0.000000
O O7 0.181648 0.500000 0.059587
O O8 0.236567 0.595285 0.975733
O O9 0.635522 0.245244 0.736792
O O10 0.683406 0.202047 0.584478
O O11 0.000000 0.198937 0.500000
O O12 0.158574 0.136172 0.026044
O O13 0.250000 0.750000 0.500000
O O14 0.198845 0.587023 0.396094
#
# Coordination Sequence:
#
# PCOD8115485 Si02
#       7
#     4   4   4   8   8   8   4
#     4  12  29  50  75 102 146 208 251 295 357 429
#     4  11  23  44  73 109 138 177 231 305 375 428
#     4  11  25  47  78 103 146 188 239 308 368 441
#     4  11  25  48  74 103 146 186 232 308 380 424
#     4  12  29  48  73 105 150 189 248 304 356 436
#     4  12  26  45  75 108 144 192 241 297 372 441
#     4  12  26  44  74 107 143 180 247 300 359 440
#
# _framework density 22.156573000000002
#
# number of rings (size 3 to 8) (size 9 to 14) (size 15 to 20)
#    0.000    0.400    4.000    3.300   11.200    1.600 
#    0.000    0.000    0.000    0.000    0.000    0.000 
#    0.000    0.000    0.000    0.000    0.000    0.000 
#
# Total GULP energy -247927.117483 kJ/mol
# GULP energy per Si atom -12396.355874 kJ/mol
# Density = 2.210614 g / cm^3
# Si number density = 22.156573 Si / 1000 Ang^3
#
#
#
# Elastic Constant Matrix: (Units=GPa)
#
#
# Indices 1 2 3 4 5 6 
#
# 1 152.9191 46.7319 44.8011 0.0000 11.9191 0.0000
# 2 46.7319 122.8943 54.2036 0.0000 5.7450 0.0000
# 3 44.8011 54.2036 150.1527 0.0000 0.0228 0.0000
# 4 0.0000 0.0000 0.0000 11.2390 0.0000 -22.0151
# 5 11.9191 5.7450 0.0228 0.0000 36.8168 0.0000
# 6 0.0000 0.0000 0.0000 -22.0151 0.0000 21.1556
#
#
#
# Elastic Compliance Matrix: (Units=1/GPa)
#
#
# Indices 1 2 3 4 5 6 
#
# 1 0.007834 -0.002195 -0.001545 0.000000 -0.002193 0.000000
# 2 -0.002195 0.010378 -0.003091 0.000000 -0.000907 0.000000
# 3 -0.001545 -0.003091 0.008236 0.000000 0.000977 0.000000
# 4 0.000000 0.000000 0.000000 -0.085686 0.000000 -0.089167
# 5 -0.002193 -0.000907 0.000977 0.000000 0.028012 0.000000
# 6 0.000000 0.000000 0.000000 -0.089167 0.000000 -0.045521
#
#
# Mechanical properties :
#
#
# Convention : Reuss Voigt Hill
#
# Bulk Modulus (GPa) = 78.21002 79.71549 78.96275
# Shear Modulus (GPa) = -84.99938 32.52424 -26.23757
#
# Velocity S-wave (km/s) = -6.20051 3.83551 -3.44494
# Velocity P-wave (km/s) = 3.98577 7.46131 4.46009
#
# Compressibility (1/GPa) = 0.01278609
#
# Stress axis : x y z
#
# Youngs Moduli (GPa) = 127.65455 96.36217 121.41141
#
# Poissons Ratio (x) = 0.21152 0.18753
# Poissons Ratio (y) = 0.28021 0.37529
# Poissons Ratio (z) = 0.19717 0.29786
#
# Static dielectric constant tensor:
#      x y z
#    x 4.496320 0.000000 -0.096290 
#    y 0.000000 4.356760 0.000000 
#    z -0.096290 0.000000 4.064190 
# 
# 
# High freq. dielectric constant tensor:
#      x y z
#    x 1.889270 0.000000 0.006140 
#    y 0.000000 1.880150 0.000000 
#    z 0.006140 0.000000 1.884200 
# 
# From -- ./inp_files/111888.got.cif
#   From: 2010.06.25/outbox.cif.g09.slc.cpg/sg12_56_cif.got.tgz:111888.got - 2010.06.28 00:19:55.
