data_PCOD8115550
_publ_section_title
;
Structure prediction by ZEFSAII (Michael W. Deem and Ramdas Pophale) SiO2 
 PCOD8115550
Probable space group: C 2/M
;
_chemical_formula_sum "Si O2"
_cell_formula_units_Z 56
_cell_length_a 9.744446
_cell_length_b 28.314594
_cell_length_c 11.305581
_cell_angle_alpha 90.000000
_cell_angle_beta 122.879753
_cell_angle_gamma 90.000000
_cell_volume 2619.644314
_symmetry_space_group_name_H-M "C 2/M"
_symmetry_group_IT_number 12
_symmetry_cell_setting 'monoclinic'
loop_
_space_group_symop_operation_xyz
x,y,z
-x,y,-z
-x,-y,-z
x,-y,z
1/2+x,1/2+y,z
1/2-x,1/2+y,-z
1/2-x,1/2-y,-z
1/2+x,1/2-y,z
loop_
_atom_site_type_symbol
_atom_site_label
_atom_site_fract_x
_atom_site_fract_y
_atom_site_fract_z
Si Si1 0.366074 0.848908 0.674856
Si Si2 0.085725 0.271881 0.698796
Si Si3 0.547644 0.638312 0.886547
Si Si4 0.487222 0.552501 0.297631
Si Si5 0.763253 0.552632 0.607571
Si Si6 0.690586 0.805838 0.107497
Si Si7 0.683550 0.301619 0.385150
O O1 0.537841 0.821620 0.738527
O O2 0.398424 0.905564 0.681259
O O3 0.281538 0.834542 0.758275
O O4 0.232173 0.836612 0.512512
O O5 0.220458 0.245135 0.842406
O O6 0.153426 0.281414 0.599919
O O7 0.917792 0.242360 0.610924
O O8 0.543393 0.586961 0.826016
O O9 0.727677 0.662169 0.956833
O O10 0.419540 0.671850 0.761936
O O11 0.500000 0.633557 0.000000
O O12 0.468823 0.500000 0.236602
O O13 0.666588 0.558398 0.439004
O O14 0.356754 0.560727 0.339331
O O15 0.843660 0.500000 0.651085
O O16 0.500000 0.796371 0.000000
#
# Coordination Sequence:
#
# PCOD8115550 Si02
#       7
#     8   8   8   8   8   8   8
#     4  12  22  40  71  93 133 168 216 278 325 384
#     4  11  25  42  64  96 131 174 216 269 324 387
#     4  11  24  40  64  95 133 175 219 267 328 391
#     4   9  17  35  63  98 131 164 213 271 333 391
#     4   9  18  35  66 102 129 163 218 278 328 388
#     4  11  27  45  63  91 134 180 221 264 324 394
#     4  11  25  41  66  98 130 171 222 268 326 395
#
# _framework density 21.376947000000001
#
# number of rings (size 3 to 8) (size 9 to 14) (size 15 to 20)
#    0.000    1.429    4.286    1.714    4.000    3.143 
#    0.000    0.000    0.000    4.286    0.000    0.000 
#    0.000    0.571    0.000    0.000    0.000    0.000 
#
# Total GULP energy -347178.931643 kJ/mol
# GULP energy per Si atom -12399.247559 kJ/mol
# Density = 2.132829 g / cm^3
# Si number density = 21.376947 Si / 1000 Ang^3
#
#
#
# Elastic Constant Matrix: (Units=GPa)
#
#
# Indices 1 2 3 4 5 6 
#
# 1 120.4879 63.9051 47.3311 0.0000 3.6783 0.0000
# 2 63.9051 191.9653 46.5406 0.0000 4.4638 0.0000
# 3 47.3311 46.5406 78.9221 0.0000 -10.6821 0.0000
# 4 0.0000 0.0000 0.0000 22.7885 0.0000 -4.3254
# 5 3.6783 4.4638 -10.6821 0.0000 32.5230 0.0000
# 6 0.0000 0.0000 0.0000 -4.3254 0.0000 32.3156
#
#
#
# Elastic Compliance Matrix: (Units=1/GPa)
#
#
# Indices 1 2 3 4 5 6 
#
# 1 0.012156 -0.002457 -0.006260 0.000000 -0.003094 0.000000
# 2 -0.002457 0.006716 -0.002694 0.000000 -0.001529 0.000000
# 3 -0.006260 -0.002694 0.019004 0.000000 0.007320 0.000000
# 4 0.000000 0.000000 0.000000 0.045026 0.000000 0.006027
# 5 -0.003094 -0.001529 0.007320 0.000000 0.033711 0.000000
# 6 0.000000 0.000000 0.000000 0.006027 0.000000 0.031751
#
#
# Mechanical properties :
#
#
# Convention : Reuss Voigt Hill
#
# Bulk Modulus (GPa) = 66.42523 78.54767 72.48645
# Shear Modulus (GPa) = 28.37599 33.09865 30.73732
#
# Velocity S-wave (km/s) = 3.64732 3.93916 3.79604
# Velocity P-wave (km/s) = 6.99128 7.58374 7.29353
#
# Compressibility (1/GPa) = 0.01505452
#
# Stress axis : x y z
#
# Youngs Moduli (GPa) = 82.26060 148.90108 52.61988
#
# Poissons Ratio (x) = 0.36588 0.32941
# Poissons Ratio (y) = 0.20213 0.14174
# Poissons Ratio (z) = 0.51497 0.40108
#
# Static dielectric constant tensor:
#      x y z
#    x 3.820010 0.000000 -0.092470 
#    y 0.000000 4.100690 0.000000 
#    z -0.092470 0.000000 3.637550 
# 
# 
# High freq. dielectric constant tensor:
#      x y z
#    x 1.826670 0.000000 -0.011030 
#    y 0.000000 1.843140 0.000000 
#    z -0.011030 0.000000 1.830180 
# 
# From -- ./inp_files/125852.got.cif
#   From: 2010.06.25/outbox.cif.g09.slc.cpg/sg12_63_cif.got.tgz:125852.got - 2010.06.28 00:19:55.
