data_PCOD8115716
_publ_section_title
;
Structure prediction by ZEFSAII (Michael W. Deem and Ramdas Pophale) SiO2 
 PCOD8115716
Probable space group: C 2/M
;
_chemical_formula_sum "Si O2"
_cell_formula_units_Z 64
_cell_length_a 16.241884
_cell_length_b 23.886621
_cell_length_c 14.106608
_cell_angle_alpha 90.000000
_cell_angle_beta 36.807920
_cell_angle_gamma 90.000000
_cell_volume 3278.973364
_symmetry_space_group_name_H-M "C 2/M"
_symmetry_group_IT_number 12
_symmetry_cell_setting 'monoclinic'
loop_
_space_group_symop_operation_xyz
x,y,z
-x,y,-z
-x,-y,-z
x,-y,z
1/2+x,1/2+y,z
1/2-x,1/2+y,-z
1/2-x,1/2-y,-z
1/2+x,1/2-y,z
loop_
_atom_site_type_symbol
_atom_site_label
_atom_site_fract_x
_atom_site_fract_y
_atom_site_fract_z
Si Si1 0.723586 0.434647 0.152031
Si Si2 0.484904 0.853212 0.625160
Si Si3 0.265168 0.300269 0.412582
Si Si4 0.145993 0.726100 0.832875
Si Si5 0.168543 0.753511 0.173270
Si Si6 0.776510 0.611590 0.308945
Si Si7 0.985320 0.435381 0.787640
Si Si8 0.524111 0.645995 0.661622
O O1 0.687182 0.500000 0.172165
O O2 0.749555 0.423312 0.238791
O O3 0.598957 0.399038 0.219644
O O4 0.864297 0.417441 0.970801
O O5 0.500000 0.867086 0.500000
O O6 0.624257 0.832598 0.542853
O O7 0.366200 0.807760 0.754564
O O8 0.452876 0.908238 0.715505
O O9 0.250000 0.250000 0.500000
O O10 0.291203 0.276222 0.285145
O O11 0.382277 0.346640 0.330520
O O12 0.235781 0.713688 0.842065
O O13 0.135599 0.668065 0.786111
O O14 0.000000 0.747969 0.000000
O O15 0.031774 0.790729 0.297637
O O16 0.250000 0.750000 0.000000
O O17 0.624448 0.628358 0.484029
O O18 0.865774 0.577199 0.302661
O O19 0.980221 0.500000 0.770325
#
# Coordination Sequence:
#
# PCOD8115716 Si02
#       8
#     8   8   8   8   8   8   8   8
#     4  11  25  43  65  94 132 170 212 262 319 390
#     4  12  24  43  67  93 122 165 219 270 317 374
#     4  12  22  40  60  91 132 167 207 256 316 373
#     4  12  24  37  60  95 131 174 209 257 316 382
#     4  12  25  39  63  94 132 175 215 256 318 391
#     4  12  23  38  66  98 132 168 212 260 321 385
#     4  11  25  46  68  92 125 170 218 271 325 380
#     4  12  24  39  64  92 135 173 212 258 312 376
#
# _framework density 19.518304000000001
#
# number of rings (size 3 to 8) (size 9 to 14) (size 15 to 20)
#    0.000    0.250    6.250    3.375    1.750    2.750 
#    0.000    0.000    0.000    0.000    0.000    1.750 
#    0.000    0.000    0.000    0.000    0.000    0.000 
#
# Total GULP energy -396764.691832 kJ/mol
# GULP energy per Si atom -12398.896620 kJ/mol
# Density = 1.947388 g / cm^3
# Si number density = 19.518304 Si / 1000 Ang^3
#
#
#
# Elastic Constant Matrix: (Units=GPa)
#
#
# Indices 1 2 3 4 5 6 
#
# 1 96.9651 31.6311 34.9894 -0.0039 3.5191 0.0001
# 2 31.6311 89.0525 44.0945 -0.0020 6.3747 0.0008
# 3 34.9894 44.0945 125.5959 -0.0104 4.6505 0.0069
# 4 -0.0039 -0.0020 -0.0104 33.4833 0.0049 0.2996
# 5 3.5191 6.3747 4.6505 0.0049 34.1739 -0.0014
# 6 0.0001 0.0008 0.0069 0.2996 -0.0014 35.5963
#
#
#
# Elastic Compliance Matrix: (Units=1/GPa)
#
#
# Indices 1 2 3 4 5 6 
#
# 1 0.012180 -0.003180 -0.002264 0.000001 -0.000353 0.000000
# 2 -0.003180 0.014546 -0.004153 -0.000001 -0.001821 0.000000
# 3 -0.002264 -0.004153 0.010064 0.000003 -0.000362 -0.000002
# 4 0.000001 -0.000001 0.000003 0.029868 -0.000005 -0.000251
# 5 -0.000353 -0.001821 -0.000362 -0.000005 0.029687 0.000001
# 6 0.000000 0.000000 -0.000002 -0.000251 0.000001 0.028095
#
#
# Mechanical properties :
#
#
# Convention : Reuss Voigt Hill
#
# Bulk Modulus (GPa) = 56.83222 59.22705 58.02963
# Shear Modulus (GPa) = 33.44487 34.04395 33.74441
#
# Velocity S-wave (km/s) = 4.14395 4.18090 4.16247
# Velocity P-wave (km/s) = 7.21644 7.32918 7.27303
#
# Compressibility (1/GPa) = 0.01759565
#
# Stress axis : x y z
#
# Youngs Moduli (GPa) = 82.10164 68.74832 99.36170
#
# Poissons Ratio (x) = 0.21863 0.22492
# Poissons Ratio (y) = 0.26110 0.41269
# Poissons Ratio (z) = 0.18585 0.28554
#
# Static dielectric constant tensor:
#      x y z
#    x 3.588670 -0.000030 0.043330 
#    y -0.000030 3.570040 0.000040 
#    z 0.043330 0.000040 3.679750 
# 
# 
# High freq. dielectric constant tensor:
#      x y z
#    x 1.765750 0.000000 -0.008590 
#    y 0.000000 1.751570 0.000000 
#    z -0.008590 0.000000 1.769260 
# 
# From -- ./inp_files/149762.got.cif
#   From: 2010.06.25/outbox.cif.g09.slc.cpg/sg12_75_cif.got.tgz:149762.got - 2010.06.28 00:19:55.
