data_PCOD8115690
_publ_section_title
;
Structure prediction by ZEFSAII (Michael W. Deem and Ramdas Pophale) SiO2 
 PCOD8115690
Probable space group: C 2/M
;
_chemical_formula_sum "Si O2"
_cell_formula_units_Z 32
_cell_length_a 11.611793
_cell_length_b 22.739106
_cell_length_c 5.052990
_cell_angle_alpha 90.000000
_cell_angle_beta 94.839487
_cell_angle_gamma 90.000000
_cell_volume 1329.444047
_symmetry_space_group_name_H-M "C 2/M"
_symmetry_group_IT_number 12
_symmetry_cell_setting 'monoclinic'
loop_
_space_group_symop_operation_xyz
x,y,z
-x,y,-z
-x,-y,-z
x,-y,z
1/2+x,1/2+y,z
1/2-x,1/2+y,-z
1/2-x,1/2-y,-z
1/2+x,1/2-y,z
loop_
_atom_site_type_symbol
_atom_site_label
_atom_site_fract_x
_atom_site_fract_y
_atom_site_fract_z
Si Si1 0.571324 0.876578 0.256392
Si Si2 0.384642 0.625371 0.841006
Si Si3 0.203081 0.932486 0.688134
Si Si4 0.620353 0.750793 0.350922
O O1 0.500000 0.862871 0.500000
O O2 0.664816 0.924156 0.373490
O O3 0.619388 0.811687 0.184740
O O4 0.500000 0.903715 0.000000
O O5 0.376984 0.601836 0.538467
O O6 0.379775 0.695777 0.849650
O O7 0.500000 0.600835 0.000000
O O8 0.290242 0.597090 0.018359
O O9 0.164947 0.000000 0.690142
O O10 0.500000 0.743994 0.500000
O O11 0.750000 0.750000 0.500000
#
# Coordination Sequence:
#
# PCOD8115690 Si02
#       4
#     8   8   8   8
#     4  11  25  45  71 105 145 189 239 309 373 445
#     4  12  26  46  73 105 148 191 242 308 375 443
#     4  12  27  46  72 104 143 197 255 304 364 439
#     4  11  24  46  77 115 150 194 241 311 382 456
#
# _framework density 24.070208999999998
#
# number of rings (size 3 to 8) (size 9 to 14) (size 15 to 20)
#    0.000    0.500    2.500    5.250    3.500    7.000 
#    0.000    0.000    0.000    0.000    0.000    0.000 
#    0.000    0.000    0.000    0.000    0.000    0.000 
#
# Total GULP energy -198215.339965 kJ/mol
# GULP energy per Si atom -12388.458748 kJ/mol
# Density = 2.401542 g / cm^3
# Si number density = 24.070209 Si / 1000 Ang^3
#
#
#
# Elastic Constant Matrix: (Units=GPa)
#
#
# Indices 1 2 3 4 5 6 
#
# 1 110.3846 21.7319 25.7067 0.0000 27.4923 0.0000
# 2 21.7319 92.6874 24.7326 0.0000 -7.9692 0.0000
# 3 25.7067 24.7326 117.8687 0.0000 13.9338 0.0000
# 4 0.0000 0.0000 0.0000 32.0727 0.0000 -7.3897
# 5 27.4923 -7.9692 13.9338 0.0000 41.8296 0.0000
# 6 0.0000 0.0000 0.0000 -7.3897 0.0000 38.3204
#
#
#
# Elastic Compliance Matrix: (Units=1/GPa)
#
#
# Indices 1 2 3 4 5 6 
#
# 1 0.011953 -0.003247 -0.000962 0.000000 -0.008155 0.000000
# 2 -0.003247 0.012710 -0.002600 0.000000 0.005422 0.000000
# 3 -0.000962 -0.002600 0.009601 0.000000 -0.003061 0.000000
# 4 0.000000 0.000000 0.000000 0.032629 0.000000 0.006292
# 5 -0.008155 0.005422 -0.003061 0.000000 0.031319 0.000000
# 6 0.000000 0.000000 0.000000 0.006292 0.000000 0.027309
#
#
# Mechanical properties :
#
#
# Convention : Reuss Voigt Hill
#
# Bulk Modulus (GPa) = 48.43157 51.69813 50.06485
# Shear Modulus (GPa) = 34.24156 39.02917 36.63537
#
# Velocity S-wave (km/s) = 3.77579 4.03112 3.90554
# Velocity P-wave (km/s) = 6.25887 6.57200 6.41735
#
# Compressibility (1/GPa) = 0.02064769
#
# Stress axis : x y z
#
# Youngs Moduli (GPa) = 83.65775 78.67721 104.15399
#
# Poissons Ratio (x) = 0.25548 0.10016
# Poissons Ratio (y) = 0.27165 0.27077
# Poissons Ratio (z) = 0.08045 0.20454
#
# Static dielectric constant tensor:
#      x y z
#    x 4.835110 0.000000 -0.072010 
#    y 0.000000 4.249290 0.000000 
#    z -0.072010 0.000000 4.281950 
# 
# 
# High freq. dielectric constant tensor:
#      x y z
#    x 1.971620 0.000000 0.011920 
#    y 0.000000 1.949860 0.000000 
#    z 0.011920 0.000000 1.948610 
# 
# From -- ./inp_files/6598.got.cif
#   From: 2010.06.25/outbox.cif.g09.slc.cpg/sg12_4_cif.got.tgz:6598.got - 2010.06.28 00:19:55.
