data_PCOD8115389
_publ_section_title
;
Structure prediction by ZEFSAII (Michael W. Deem and Ramdas Pophale) SiO2 
 PCOD8115389
Probable space group: C 2/M
;
_chemical_formula_sum "Si O2"
_cell_formula_units_Z 56
_cell_length_a 21.411535
_cell_length_b 15.185013
_cell_length_c 7.938719
_cell_angle_alpha 90.000000
_cell_angle_beta 108.961513
_cell_angle_gamma 90.000000
_cell_volume 2441.090083
_symmetry_space_group_name_H-M "C 2/M"
_symmetry_group_IT_number 12
_symmetry_cell_setting 'monoclinic'
loop_
_space_group_symop_operation_xyz
x,y,z
-x,y,-z
-x,-y,-z
x,-y,z
1/2+x,1/2+y,z
1/2-x,1/2+y,-z
1/2-x,1/2-y,-z
1/2+x,1/2-y,z
loop_
_atom_site_type_symbol
_atom_site_label
_atom_site_fract_x
_atom_site_fract_y
_atom_site_fract_z
Si Si1 0.692935 0.355439 0.187724
Si Si2 0.664424 0.899137 0.792909
Si Si3 0.808279 0.899153 0.439140
Si Si4 0.542963 0.905063 0.200411
Si Si5 0.043530 0.732353 0.687676
Si Si6 0.822334 0.342357 0.826323
Si Si7 0.108421 0.097056 0.815047
O O1 0.771665 0.371053 0.258896
O O2 0.664769 0.376906 0.350028
O O3 0.669976 0.258591 0.114652
O O4 0.661029 0.414779 0.012626
O O5 0.606419 0.829664 0.696645
O O6 0.643623 0.000000 0.729947
O O7 0.682943 0.897393 0.006483
O O8 0.742157 0.845265 0.345680
O O9 0.860906 0.876336 0.339892
O O10 0.788383 0.000000 0.409754
O O11 0.509431 0.828174 0.270459
O O12 0.617298 0.877204 0.228792
O O13 0.544808 0.000000 0.298218
O O14 0.500000 0.919786 0.000000
O O15 0.060785 0.819878 0.812576
O O16 0.000000 0.771372 0.500000
O O17 0.073718 0.000000 0.769853
#
# Coordination Sequence:
#
# PCOD8115389 Si02
#       7
#     8   8   8   8   8   8   8
#     4  12  24  43  72 106 142 182 228 287 356 420
#     4  12  23  42  69 102 144 187 228 284 355 421
#     4  11  24  40  67 106 139 176 228 284 351 424
#     4  11  23  42  66  95 134 185 235 280 336 408
#     4  12  28  45  67  97 137 185 241 289 341 408
#     4  12  23  41  68  99 144 183 229 284 350 415
#     4  11  24  48  75 101 140 182 229 294 358 415
#
# _framework density 22.940570000000001
#
# number of rings (size 3 to 8) (size 9 to 14) (size 15 to 20)
#    0.000    0.429    4.286    4.714    4.000    1.429 
#    0.000    0.000    0.000    1.286    0.000    0.000 
#    0.000    0.000    0.000    0.000    0.000    0.000 
#
# Total GULP energy -347056.477481 kJ/mol
# GULP energy per Si atom -12394.874196 kJ/mol
# Density = 2.288836 g / cm^3
# Si number density = 22.940570 Si / 1000 Ang^3
#
#
#
# Elastic Constant Matrix: (Units=GPa)
#
#
# Indices 1 2 3 4 5 6 
#
# 1 35.5598 21.3758 17.9800 0.0000 -5.1982 0.0000
# 2 21.3758 151.3200 12.9383 0.0000 8.4569 0.0000
# 3 17.9800 12.9383 106.8169 0.0000 -2.4166 0.0000
# 4 0.0000 0.0000 0.0000 6.5280 0.0000 -23.5695
# 5 -5.1982 8.4569 -2.4166 0.0000 31.0665 0.0000
# 6 0.0000 0.0000 0.0000 -23.5695 0.0000 14.3100
#
#
#
# Elastic Compliance Matrix: (Units=1/GPa)
#
#
# Indices 1 2 3 4 5 6 
#
# 1 0.034571 -0.004824 -0.005083 0.000000 0.006702 0.000000
# 2 -0.004824 0.007463 -0.000156 0.000000 -0.002851 0.000000
# 3 -0.005083 -0.000156 0.010236 0.000000 -0.000012 0.000000
# 4 0.000000 0.000000 0.000000 -0.030967 0.000000 -0.051004
# 5 0.006702 -0.002851 -0.000012 0.000000 0.034086 0.000000
# 6 0.000000 0.000000 0.000000 -0.051004 0.000000 -0.014127
#
#
# Mechanical properties :
#
#
# Convention : Reuss Voigt Hill
#
# Bulk Modulus (GPa) = 31.11076 44.25387 37.68231
# Shear Modulus (GPa) = 69.34501 26.47440 47.90970
#
# Velocity S-wave (km/s) = 5.50397 3.40081 4.57489
# Velocity P-wave (km/s) = 7.34728 5.89518 6.66092
#
# Compressibility (1/GPa) = 0.03214322
#
# Stress axis : x y z
#
# Youngs Moduli (GPa) = 28.92587 134.00166 97.69290
#
# Poissons Ratio (x) = 0.64636 0.49660
# Poissons Ratio (y) = 0.13952 0.01529
# Poissons Ratio (z) = 0.14704 0.02097
#
# Static dielectric constant tensor:
#      x y z
#    x 4.026740 0.000000 -0.122490 
#    y 0.000000 4.757040 0.000000 
#    z -0.122490 0.000000 4.100950 
# 
# 
# High freq. dielectric constant tensor:
#      x y z
#    x 1.883520 0.000000 0.002420 
#    y 0.000000 1.929890 0.000000 
#    z 0.002420 0.000000 1.903670 
# 
# From -- ./inp_files/96464.got.cif
#   From: 2010.06.25/outbox.cif.g09.slc.cpg/sg12_49_cif.got.tgz:96464.got - 2010.06.28 00:19:55.
