data_PCOD8115823
_publ_section_title
;
Structure prediction by ZEFSAII (Michael W. Deem and Ramdas Pophale) SiO2 
 PCOD8115823
Probable space group: C 2/M
;
_chemical_formula_sum "Si O2"
_cell_formula_units_Z 40
_cell_length_a 10.267666
_cell_length_b 25.370401
_cell_length_c 11.324406
_cell_angle_alpha 90.000000
_cell_angle_beta 131.604668
_cell_angle_gamma 90.000000
_cell_volume 2205.806594
_symmetry_space_group_name_H-M "C 2/M"
_symmetry_group_IT_number 12
_symmetry_cell_setting 'monoclinic'
loop_
_space_group_symop_operation_xyz
x,y,z
-x,y,-z
-x,-y,-z
x,-y,z
1/2+x,1/2+y,z
1/2-x,1/2+y,-z
1/2-x,1/2-y,-z
1/2+x,1/2-y,z
loop_
_atom_site_type_symbol
_atom_site_label
_atom_site_fract_x
_atom_site_fract_y
_atom_site_fract_z
Si Si1 0.497430 0.709498 0.190066
Si Si2 0.215886 0.409086 0.824856
Si Si3 0.490548 0.590722 0.188193
Si Si4 0.062963 0.000000 0.405388
Si Si5 0.030422 0.500000 0.380339
Si Si6 0.716718 0.790460 0.813971
O O1 0.505165 0.650342 0.246077
O O2 0.443200 0.750340 0.260286
O O3 0.686293 0.724935 0.250002
O O4 0.356787 0.711866 0.001968
O O5 0.346644 0.423439 0.797372
O O6 0.143124 0.349860 0.763664
O O7 0.053023 0.447909 0.726757
O O8 0.312936 0.415790 0.007898
O O9 0.487378 0.551747 0.296433
O O10 0.269503 0.000000 0.531029
O O11 0.000000 0.000000 0.500000
O O12 0.000000 0.500000 0.500000
#
# Coordination Sequence:
#
# PCOD8115823 Si02
#       6
#     8   8   8   4   4   8
#     4   8  14  26  48  75 103 131 164 205 252 300
#     4   9  17  32  59  84  99 129 184 223 241 296
#     4   9  17  34  57  79 105 138 172 212 260 304
#     4  12  25  39  51  73 110 143 165 212 277 320
#     4  12  21  35  57  79  98 134 181 222 256 299
#     4   8  14  26  46  77 106 128 160 208 255 296
#
# _framework density 18.133956999999999
#
# number of rings (size 3 to 8) (size 9 to 14) (size 15 to 20)
#    0.000    2.800    2.000    3.000    0.000    1.600 
#    3.600    2.000    0.000    2.400    0.000    0.000 
#    0.000    0.000    0.000    0.000    0.000    0.000 
#
# Total GULP energy -247943.882248 kJ/mol
# GULP energy per Si atom -12397.194112 kJ/mol
# Density = 1.809268 g / cm^3
# Si number density = 18.133957 Si / 1000 Ang^3
#
#
#
# Elastic Constant Matrix: (Units=GPa)
#
#
# Indices 1 2 3 4 5 6 
#
# 1 120.7477 86.0223 44.1983 0.0000 -3.8907 0.0000
# 2 86.0223 153.0954 45.2251 0.0000 -0.9194 0.0000
# 3 44.1983 45.2251 52.7743 0.0000 0.0285 0.0000
# 4 0.0000 0.0000 0.0000 -0.5969 0.0000 0.2502
# 5 -3.8907 -0.9194 0.0285 0.0000 23.0410 0.0000
# 6 0.0000 0.0000 0.0000 0.2502 0.0000 31.6806
#
#
#
# Elastic Compliance Matrix: (Units=1/GPa)
#
#
# Indices 1 2 3 4 5 6 
#
# 1 0.015893 -0.006672 -0.007594 0.000000 0.002427 0.000000
# 2 -0.006672 0.011550 -0.004309 0.000000 -0.000660 0.000000
# 3 -0.007594 -0.004309 0.029002 0.000000 -0.001490 0.000000
# 4 0.000000 0.000000 0.000000 -1.669927 0.000000 0.013186
# 5 0.002427 -0.000660 -0.001490 0.000000 0.043786 0.000000
# 6 0.000000 0.000000 0.000000 0.013186 0.000000 0.031461
#
#
# Mechanical properties :
#
#
# Convention : Reuss Voigt Hill
#
# Bulk Modulus (GPa) = 51.82920 75.27875 63.55397
# Shear Modulus (GPa) = -3.34526 20.90305 8.77889
#
# Velocity S-wave (km/s) = -1.35969 3.39883 2.20265
# Velocity P-wave (km/s) = 5.11648 7.55019 6.44918
#
# Compressibility (1/GPa) = 0.01929414
#
# Stress axis : x y z
#
# Youngs Moduli (GPa) = 62.92108 86.58027 34.48009
#
# Poissons Ratio (x) = 0.57768 0.26184
# Poissons Ratio (y) = 0.41982 0.14859
# Poissons Ratio (z) = 0.47781 0.37312
#
# Static dielectric constant tensor:
#      x y z
#    x 3.263520 0.000000 0.028240 
#    y 0.000000 3.579990 0.000000 
#    z 0.028240 0.000000 3.022700 
# 
# 
# High freq. dielectric constant tensor:
#      x y z
#    x 1.678010 0.000000 0.005980 
#    y 0.000000 1.715820 0.000000 
#    z 0.005980 0.000000 1.670710 
# 
# From -- ./inp_files/52122.got.cif
#   From: 2010.06.25/outbox.cif.g09.slc.cpg/sg12_27_cif.got.tgz:52122.got - 2010.06.28 00:19:55.
