data_PCOD8115634
_publ_section_title
;
Structure prediction by ZEFSAII (Michael W. Deem and Ramdas Pophale) SiO2 
 PCOD8115634
Probable space group: C 2/M
;
_chemical_formula_sum "Si O2"
_cell_formula_units_Z 64
_cell_length_a 8.989145
_cell_length_b 18.519897
_cell_length_c 29.092390
_cell_angle_alpha 90.000000
_cell_angle_beta 141.128495
_cell_angle_gamma 90.000000
_cell_volume 3039.503415
_symmetry_space_group_name_H-M "C 2/M"
_symmetry_group_IT_number 12
_symmetry_cell_setting 'monoclinic'
loop_
_space_group_symop_operation_xyz
x,y,z
-x,y,-z
-x,-y,-z
x,-y,z
1/2+x,1/2+y,z
1/2-x,1/2+y,-z
1/2-x,1/2-y,-z
1/2+x,1/2-y,z
loop_
_atom_site_type_symbol
_atom_site_label
_atom_site_fract_x
_atom_site_fract_y
_atom_site_fract_z
Si Si1 0.799508 0.326844 0.489789
Si Si2 0.479266 0.312005 0.121773
Si Si3 0.031916 0.583052 0.624324
Si Si4 0.946029 0.688686 0.290453
Si Si5 0.866084 0.169494 0.325926
Si Si6 0.107631 0.336030 0.106810
Si Si7 0.914750 0.082220 0.252827
Si Si8 0.627785 0.584212 0.983173
O O1 0.750000 0.250000 0.500000
O O2 0.557494 0.356789 0.409266
O O3 0.000000 0.318600 0.500000
O O4 0.873662 0.384049 0.545975
O O5 0.682846 0.322234 0.208310
O O6 0.226597 0.317765 0.086537
O O7 0.490235 0.234878 0.099995
O O8 0.504390 0.373931 0.089571
O O9 0.962038 0.500000 0.613387
O O10 0.978664 0.621867 0.659640
O O11 0.305095 0.593583 0.677192
O O12 0.974695 0.762269 0.325395
O O13 0.121165 0.693430 0.289619
O O14 0.809842 0.105038 0.276974
O O15 0.309252 0.366885 0.188467
O O16 0.903614 0.394965 0.051220
O O17 0.843325 0.000000 0.225321
O O18 0.606409 0.500000 0.967049
O O19 0.500000 0.604147 0.000000
#
# Coordination Sequence:
#
# PCOD8115634 Si02
#       8
#     8   8   8   8   8   8   8   8
#     4  12  24  40  68  97 129 178 225 280 339 403
#     4  12  25  42  73 102 135 176 230 275 337 400
#     4  11  25  45  66  98 139 178 226 282 341 403
#     4  12  24  43  69 101 135 178 223 287 332 400
#     4  12  24  41  69  99 133 173 231 275 338 398
#     4  12  24  44  71 103 134 181 221 280 333 399
#     4  11  24  43  68  99 135 176 223 277 339 401
#     4  11  27  48  69 101 142 180 223 276 336 399
#
# _framework density 21.056070999999999
#
# number of rings (size 3 to 8) (size 9 to 14) (size 15 to 20)
#    0.000    0.375    5.000    4.125    1.750    3.250 
#    0.000    0.625    0.000    0.000    0.000    0.000 
#    0.000    0.000    0.000    0.000    0.000    0.000 
#
# Total GULP energy -397057.694767 kJ/mol
# GULP energy per Si atom -12408.052961 kJ/mol
# Density = 2.100815 g / cm^3
# Si number density = 21.056071 Si / 1000 Ang^3
#
#
#
# Elastic Constant Matrix: (Units=GPa)
#
#
# Indices 1 2 3 4 5 6 
#
# 1 115.9782 38.1455 5.1243 -0.0007 -2.0885 0.0000
# 2 38.1455 122.9758 30.9940 -0.0001 -13.6050 0.0001
# 3 5.1243 30.9940 92.4600 -0.0024 -8.3394 -0.0008
# 4 -0.0007 -0.0001 -0.0024 38.5611 -0.0016 -2.8230
# 5 -2.0885 -13.6050 -8.3394 -0.0016 35.4809 -0.0006
# 6 0.0000 0.0001 -0.0008 -2.8230 -0.0006 30.6853
#
#
#
# Elastic Compliance Matrix: (Units=1/GPa)
#
#
# Indices 1 2 3 4 5 6 
#
# 1 0.009634 -0.003168 0.000480 0.000000 -0.000535 0.000000
# 2 -0.003168 0.010198 -0.002970 0.000000 0.003026 0.000000
# 3 0.000480 -0.002970 0.011937 0.000001 0.001695 0.000000
# 4 0.000000 0.000000 0.000001 0.026109 0.000001 0.002402
# 5 -0.000535 0.003026 0.001695 0.000001 0.029711 0.000001
# 6 0.000000 0.000000 0.000000 0.002402 0.000001 0.032810
#
#
# Mechanical properties :
#
#
# Convention : Reuss Voigt Hill
#
# Bulk Modulus (GPa) = 48.89525 53.32687 51.11106
# Shear Modulus (GPa) = 36.09260 38.08881 37.09071
#
# Velocity S-wave (km/s) = 4.14468 4.25776 4.20160
# Velocity P-wave (km/s) = 6.79532 7.03935 6.91841
#
# Compressibility (1/GPa) = 0.02045188
#
# Stress axis : x y z
#
# Youngs Moduli (GPa) = 103.80389 98.06106 83.77066
#
# Poissons Ratio (x) = 0.31069 -0.04020
# Poissons Ratio (y) = 0.32889 0.24879
# Poissons Ratio (z) = -0.04982 0.29123
#
# Static dielectric constant tensor:
#      x y z
#    x 3.837560 0.000000 -0.024000 
#    y 0.000000 3.784870 0.000000 
#    z -0.024000 0.000000 3.856440 
# 
# 
# High freq. dielectric constant tensor:
#      x y z
#    x 1.835550 0.000000 -0.006210 
#    y 0.000000 1.825080 0.000000 
#    z -0.006210 0.000000 1.838700 
# 
# From -- ./inp_files/372991.got.cif
#   From: 2010.06.25/outbox.cif.g09.slc.cpg/sg12_187_cif.got.tgz:372991.got - 2010.06.28 00:19:55.
