data_PCOD8115670
_publ_section_title
;
Structure prediction by ZEFSAII (Michael W. Deem and Ramdas Pophale) SiO2 
 PCOD8115670
Probable space group: C 2/M
;
_chemical_formula_sum "Si O2"
_cell_formula_units_Z 40
_cell_length_a 9.179855
_cell_length_b 23.696899
_cell_length_c 8.058099
_cell_angle_alpha 90.000000
_cell_angle_beta 100.958879
_cell_angle_gamma 90.000000
_cell_volume 1720.944976
_symmetry_space_group_name_H-M "C 2/M"
_symmetry_group_IT_number 12
_symmetry_cell_setting 'monoclinic'
loop_
_space_group_symop_operation_xyz
x,y,z
-x,y,-z
-x,-y,-z
x,-y,z
1/2+x,1/2+y,z
1/2-x,1/2+y,-z
1/2-x,1/2-y,-z
1/2+x,1/2-y,z
loop_
_atom_site_type_symbol
_atom_site_label
_atom_site_fract_x
_atom_site_fract_y
_atom_site_fract_z
Si Si1 0.852745 0.782897 0.891442
Si Si2 0.824901 0.385180 0.300922
Si Si3 0.346293 0.387277 0.404740
Si Si4 0.084196 0.333060 0.193175
Si Si5 0.229918 0.000000 0.133439
Si Si6 0.586924 0.500000 0.764622
O O1 0.774211 0.835384 0.793904
O O2 0.906945 0.734391 0.773716
O O3 0.750000 0.750000 0.000000
O O4 0.000000 0.810130 0.000000
O O5 0.771943 0.396275 0.474810
O O6 0.818935 0.443680 0.199397
O O7 0.993639 0.362817 0.322920
O O8 0.500000 0.356223 0.500000
O O9 0.256179 0.354653 0.238896
O O10 0.399283 0.446620 0.348799
O O11 0.000000 0.346488 0.000000
O O12 0.073007 0.000000 0.188461
O O13 0.213856 0.000000 0.931503
#
# Coordination Sequence:
#
# PCOD8115670 Si02
#       6
#     8   8   8   8   4   4
#     4  11  24  44  75 106 151 197 250 305 359 443
#     4  12  25  45  73 111 149 195 244 311 381 435
#     4  12  26  44  73 106 155 190 244 311 374 439
#     4  11  25  48  72 108 147 197 249 299 366 449
#     4  11  25  43  80 108 145 194 256 302 375 444
#     4  11  24  46  67 112 145 198 252 306 365 456
#
# _framework density 23.243044000000001
#
# number of rings (size 3 to 8) (size 9 to 14) (size 15 to 20)
#    0.000    0.600    6.000    2.700    5.600    1.600 
#    0.000    4.000    0.000    0.000    0.000    0.000 
#    0.000    0.000    0.000    0.000    0.000    0.000 
#
# Total GULP energy -247877.853827 kJ/mol
# GULP energy per Si atom -12393.892691 kJ/mol
# Density = 2.319014 g / cm^3
# Si number density = 23.243044 Si / 1000 Ang^3
#
#
#
# Elastic Constant Matrix: (Units=GPa)
#
#
# Indices 1 2 3 4 5 6 
#
# 1 124.6063 38.8266 39.0809 0.0000 22.3727 0.0000
# 2 38.8266 140.3447 31.9614 0.0000 15.3362 0.0000
# 3 39.0809 31.9614 88.5467 0.0000 13.3767 0.0000
# 4 0.0000 0.0000 0.0000 -26.9216 0.0000 -13.7970
# 5 22.3727 15.3362 13.3767 0.0000 57.7752 0.0000
# 6 0.0000 0.0000 0.0000 -13.7970 0.0000 18.9523
#
#
#
# Elastic Compliance Matrix: (Units=1/GPa)
#
#
# Indices 1 2 3 4 5 6 
#
# 1 0.010121 -0.001725 -0.003442 0.000000 -0.002664 0.000000
# 2 -0.001725 0.008179 -0.002035 0.000000 -0.001032 0.000000
# 3 -0.003442 -0.002035 0.013745 0.000000 -0.001309 0.000000
# 4 0.000000 0.000000 0.000000 -0.027052 0.000000 -0.019694
# 5 -0.002664 -0.001032 -0.001309 0.000000 0.018917 0.000000
# 6 0.000000 0.000000 0.000000 -0.019694 0.000000 0.038427
#
#
# Mechanical properties :
#
#
# Convention : Reuss Voigt Hill
#
# Bulk Modulus (GPa) = 56.68617 63.69283 60.18950
# Shear Modulus (GPa) = 60.51804 26.20310 43.36057
#
# Velocity S-wave (km/s) = 5.10819 3.36125 4.32386
# Velocity P-wave (km/s) = 7.69629 6.52123 7.13300
#
# Compressibility (1/GPa) = 0.01764099
#
# Stress axis : x y z
#
# Youngs Moduli (GPa) = 98.80874 122.26866 72.75466
#
# Poissons Ratio (x) = 0.21091 0.25040
# Poissons Ratio (y) = 0.17044 0.14805
# Poissons Ratio (z) = 0.34007 0.24881
#
# Static dielectric constant tensor:
#      x y z
#    x 5.051140 0.000000 0.015320 
#    y 0.000000 4.314970 0.000000 
#    z 0.015320 0.000000 4.474210 
# 
# 
# High freq. dielectric constant tensor:
#      x y z
#    x 1.936890 0.000000 0.009080 
#    y 0.000000 1.917660 0.000000 
#    z 0.009080 0.000000 1.915580 
# 
# From -- ./inp_files/39469.got.cif
#   From: 2010.06.25/outbox.cif.g09.slc.cpg/sg12_20_cif.got.tgz:39469.got - 2010.06.28 00:19:55.
