data_PCOD8115729
_publ_section_title
;
Structure prediction by ZEFSAII (Michael W. Deem and Ramdas Pophale) SiO2 
 PCOD8115729
Probable space group: C 2/M
;
_chemical_formula_sum "Si O2"
_cell_formula_units_Z 56
_cell_length_a 14.606638
_cell_length_b 17.675727
_cell_length_c 11.284462
_cell_angle_alpha 90.000000
_cell_angle_beta 60.289781
_cell_angle_gamma 90.000000
_cell_volume 2530.461889
_symmetry_space_group_name_H-M "C 2/M"
_symmetry_group_IT_number 12
_symmetry_cell_setting 'monoclinic'
loop_
_space_group_symop_operation_xyz
x,y,z
-x,y,-z
-x,-y,-z
x,-y,z
1/2+x,1/2+y,z
1/2-x,1/2+y,-z
1/2-x,1/2-y,-z
1/2+x,1/2-y,z
loop_
_atom_site_type_symbol
_atom_site_label
_atom_site_fract_x
_atom_site_fract_y
_atom_site_fract_z
Si Si1 0.236624 0.674694 0.335034
Si Si2 0.450030 0.588151 0.658116
Si Si3 0.975235 0.848068 0.145530
Si Si4 0.361286 0.214205 0.964288
Si Si5 0.909038 0.588080 0.750767
Si Si6 0.346707 0.085260 0.410824
Si Si7 0.240185 0.664271 0.747500
O O1 0.353331 0.670008 0.209894
O O2 0.157983 0.620852 0.313638
O O3 0.227122 0.644676 0.473925
O O4 0.206606 0.763162 0.351653
O O5 0.500000 0.618852 0.500000
O O6 0.436308 0.500000 0.651704
O O7 0.513004 0.602971 0.741100
O O8 0.336227 0.624537 0.753331
O O9 0.043239 0.771917 0.117987
O O10 0.000000 0.887177 0.000000
O O11 0.382005 0.136334 0.883125
O O12 0.250000 0.250000 0.000000
O O13 0.352318 0.191799 0.106408
O O14 0.880822 0.500000 0.791296
O O15 0.031087 0.597266 0.638601
O O16 0.319723 0.102974 0.293157
O O17 0.312045 0.000000 0.463346
#
# Coordination Sequence:
#
# PCOD8115729 Si02
#       7
#     8   8   8   8   8   8   8
#     4  12  24  43  71 103 137 183 234 292 347 416
#     4  11  26  46  68 102 146 186 231 291 358 426
#     4  12  24  44  74 103 141 186 236 292 350 416
#     4  12  23  48  69 100 141 179 231 294 346 421
#     4  11  25  44  71 102 138 184 231 286 357 421
#     4  11  26  46  69 103 142 183 232 291 354 424
#     4  12  24  43  71  99 134 185 234 287 351 420
#
# _framework density 22.130347
#
# number of rings (size 3 to 8) (size 9 to 14) (size 15 to 20)
#    0.000    0.429    4.286    3.429    0.000    7.143 
#    0.000    1.429    0.000    0.000    0.000    0.000 
#    0.000    0.000    0.000    0.000    0.000    0.000 
#
# Total GULP energy -347084.255888 kJ/mol
# GULP energy per Si atom -12395.866282 kJ/mol
# Density = 2.207998 g / cm^3
# Si number density = 22.130347 Si / 1000 Ang^3
#
#
#
# Elastic Constant Matrix: (Units=GPa)
#
#
# Indices 1 2 3 4 5 6 
#
# 1 99.9421 26.8610 27.4425 0.0000 -0.7501 0.0000
# 2 26.8610 111.8376 36.5745 0.0000 -5.3948 0.0000
# 3 27.4425 36.5745 107.7381 0.0000 10.5338 0.0000
# 4 0.0000 0.0000 0.0000 27.3471 0.0000 3.6260
# 5 -0.7501 -5.3948 10.5338 0.0000 39.2575 0.0000
# 6 0.0000 0.0000 0.0000 3.6260 0.0000 37.0431
#
#
#
# Elastic Compliance Matrix: (Units=1/GPa)
#
#
# Indices 1 2 3 4 5 6 
#
# 1 0.011140 -0.001916 -0.002241 0.000000 0.000551 0.000000
# 2 -0.001916 0.010605 -0.003339 0.000000 0.002317 0.000000
# 3 -0.002241 -0.003339 0.011332 0.000000 -0.003542 0.000000
# 4 0.000000 0.000000 0.000000 0.037048 0.000000 -0.003626
# 5 0.000551 0.002317 -0.003542 0.000000 0.026752 0.000000
# 6 0.000000 0.000000 0.000000 -0.003626 0.000000 0.027351
#
#
# Mechanical properties :
#
#
# Convention : Reuss Voigt Hill
#
# Bulk Modulus (GPa) = 55.29054 55.69708 55.49381
# Shear Modulus (GPa) = 34.42366 35.97220 35.19793
#
# Velocity S-wave (km/s) = 3.94826 4.03608 3.99241
# Velocity P-wave (km/s) = 6.76929 6.85145 6.81049
#
# Compressibility (1/GPa) = 0.01808628
#
# Stress axis : x y z
#
# Youngs Moduli (GPa) = 89.76443 94.29174 88.24317
#
# Poissons Ratio (x) = 0.18068 0.19775
# Poissons Ratio (y) = 0.17201 0.29462
# Poissons Ratio (z) = 0.20116 0.31481
#
# Static dielectric constant tensor:
#      x y z
#    x 4.136630 0.000000 0.060270 
#    y 0.000000 4.417440 0.000000 
#    z 0.060270 0.000000 4.247530 
# 
# 
# High freq. dielectric constant tensor:
#      x y z
#    x 1.885650 0.000000 0.005650 
#    y 0.000000 1.871590 0.000000 
#    z 0.005650 0.000000 1.878170 
# 
# From -- ./inp_files/146045.got.cif
#   From: 2010.06.25/outbox.cif.g09.slc.cpg/sg12_74_cif.got.tgz:146045.got - 2010.06.28 00:19:55.
