data_PCOD8115343
_publ_section_title
;
Structure prediction by ZEFSAII (Michael W. Deem and Ramdas Pophale) SiO2 
 PCOD8115343
Probable space group: C 2/M
;
_chemical_formula_sum "Si O2"
_cell_formula_units_Z 64
_cell_length_a 18.439349
_cell_length_b 14.417665
_cell_length_c 22.872828
_cell_angle_alpha 90.000000
_cell_angle_beta 29.580455
_cell_angle_gamma 90.000000
_cell_volume 3001.755570
_symmetry_space_group_name_H-M "C 2/M"
_symmetry_group_IT_number 12
_symmetry_cell_setting 'monoclinic'
loop_
_space_group_symop_operation_xyz
x,y,z
-x,y,-z
-x,-y,-z
x,-y,z
1/2+x,1/2+y,z
1/2-x,1/2+y,-z
1/2-x,1/2-y,-z
1/2+x,1/2-y,z
loop_
_atom_site_type_symbol
_atom_site_label
_atom_site_fract_x
_atom_site_fract_y
_atom_site_fract_z
Si Si1 0.578904 0.827854 0.329808
Si Si2 0.979830 0.841903 0.336068
Si Si3 0.257101 0.738484 0.308810
Si Si4 0.845468 0.102217 0.078217
Si Si5 0.314828 0.607835 0.907276
Si Si6 0.884135 0.899581 0.529534
Si Si7 0.733528 0.895140 0.424830
Si Si8 0.417579 0.260516 0.932738
O O1 0.532508 0.763305 0.308326
O O2 0.627030 0.765287 0.352051
O O3 0.715851 0.891894 0.216534
O O4 0.440456 0.891322 0.442066
O O5 0.959967 0.887679 0.413449
O O6 0.825492 0.840465 0.409588
O O7 0.108163 0.894781 0.210327
O O8 0.231203 0.818113 0.375771
O O9 0.264230 0.641967 0.338421
O O10 0.413300 0.756211 0.167696
O O11 0.840076 0.000000 0.053051
O O12 0.824387 0.181595 0.045176
O O13 0.000000 0.118674 0.000000
O O14 0.298538 0.500000 0.939940
O O15 0.417409 0.675034 0.874879
O O16 0.155607 0.658501 0.020528
O O17 0.000000 0.899062 0.500000
O O18 0.803547 0.000000 0.585482
O O19 0.789761 0.000000 0.386979
#
# Coordination Sequence:
#
# PCOD8115343 Si02
#       8
#     8   8   8   8   8   8   8   8
#     4  12  24  43  67  97 136 176 219 277 337 394
#     4  12  23  44  70  94 132 176 223 278 329 396
#     4  12  24  43  67  96 137 173 219 277 335 397
#     4  11  23  41  67  95 128 171 216 267 328 397
#     4  11  24  44  68  97 131 174 224 275 332 391
#     4  11  23  41  65  94 129 174 219 268 333 397
#     4  12  26  42  66 100 134 175 225 274 335 400
#     4  11  24  42  68  96 132 176 219 275 329 396
#
# _framework density 21.320855000000002
#
# number of rings (size 3 to 8) (size 9 to 14) (size 15 to 20)
#    0.000    0.500    6.250    2.625    0.000    2.500 
#    0.000    0.000    0.000    1.125    0.000    0.000 
#    0.000    0.000    0.000    0.000    0.000    0.000 
#
# Total GULP energy -396746.683069 kJ/mol
# GULP energy per Si atom -12398.333846 kJ/mol
# Density = 2.127233 g / cm^3
# Si number density = 21.320855 Si / 1000 Ang^3
#
#
#
# Elastic Constant Matrix: (Units=GPa)
#
#
# Indices 1 2 3 4 5 6 
#
# 1 96.8589 28.3780 37.7793 0.0048 -3.4526 -0.0031
# 2 28.3780 121.1664 36.0342 0.0123 -0.8206 -0.0051
# 3 37.7793 36.0342 118.4506 0.0352 -3.4789 -0.0139
# 4 0.0048 0.0123 0.0352 18.8657 -0.0038 2.8284
# 5 -3.4526 -0.8206 -3.4789 -0.0038 38.0431 0.0000
# 6 -0.0031 -0.0051 -0.0139 2.8284 0.0000 14.3073
#
#
#
# Elastic Compliance Matrix: (Units=1/GPa)
#
#
# Indices 1 2 3 4 5 6 
#
# 1 0.012184 -0.001868 -0.003295 0.000005 0.000764 -0.000002
# 2 -0.001868 0.009361 -0.002257 -0.000002 -0.000174 0.000001
# 3 -0.003295 -0.002257 0.010197 -0.000018 0.000585 0.000012
# 4 0.000005 -0.000002 -0.000018 0.054625 0.000004 -0.010799
# 5 0.000764 -0.000174 0.000585 0.000004 0.026405 0.000000
# 6 -0.000002 0.000001 0.000012 -0.010799 0.000000 0.072029
#
#
# Mechanical properties :
#
#
# Convention : Reuss Voigt Hill
#
# Bulk Modulus (GPa) = 59.16827 60.09542 59.63184
# Shear Modulus (GPa) = 24.35742 29.86219 27.10981
#
# Velocity S-wave (km/s) = 3.38364 3.74653 3.56970
# Velocity P-wave (km/s) = 6.56330 6.85294 6.70968
#
# Compressibility (1/GPa) = 0.01690095
#
# Stress axis : x y z
#
# Youngs Moduli (GPa) = 82.07312 106.82949 98.06730
#
# Poissons Ratio (x) = 0.19961 0.32316
# Poissons Ratio (y) = 0.15335 0.22132
# Poissons Ratio (z) = 0.27045 0.24110
#
# Static dielectric constant tensor:
#      x y z
#    x 3.831170 -0.000010 0.078550 
#    y -0.000010 3.954310 0.000010 
#    z 0.078550 0.000010 3.784040 
# 
# 
# High freq. dielectric constant tensor:
#      x y z
#    x 1.832700 0.000000 0.003750 
#    y 0.000000 1.837260 0.000000 
#    z 0.003750 0.000000 1.839320 
# 
# From -- ./inp_files/344037.got.cif
#   From: 2010.06.25/outbox.cif.g09.slc.cpg/sg12_173_cif.got.tgz:344037.got - 2010.06.28 00:19:55.
