data_PCOD8115359
_publ_section_title
;
Structure prediction by ZEFSAII (Michael W. Deem and Ramdas Pophale) SiO2 
 PCOD8115359
Probable space group: C 2/M
;
_chemical_formula_sum "Si O2"
_cell_formula_units_Z 64
_cell_length_a 23.161705
_cell_length_b 17.059967
_cell_length_c 21.147711
_cell_angle_alpha 90.000000
_cell_angle_beta 160.897401
_cell_angle_gamma 90.000000
_cell_volume 2734.676871
_symmetry_space_group_name_H-M "C 2/M"
_symmetry_group_IT_number 12
_symmetry_cell_setting 'monoclinic'
loop_
_space_group_symop_operation_xyz
x,y,z
-x,y,-z
-x,-y,-z
x,-y,z
1/2+x,1/2+y,z
1/2-x,1/2+y,-z
1/2-x,1/2-y,-z
1/2+x,1/2-y,z
loop_
_atom_site_type_symbol
_atom_site_label
_atom_site_fract_x
_atom_site_fract_y
_atom_site_fract_z
Si Si1 0.297423 0.850787 0.185178
Si Si2 0.282496 0.671348 0.140897
Si Si3 0.745423 0.092665 0.488704
Si Si4 0.190081 0.801249 0.205865
Si Si5 0.553191 0.908578 0.166035
Si Si6 0.861688 0.089937 0.102494
Si Si7 0.673312 0.091694 0.553735
Si Si8 0.614506 0.353009 0.561837
O O1 0.282033 0.764263 0.140501
O O2 0.219327 0.854608 0.174384
O O3 0.490727 0.884742 0.396184
O O4 0.200716 0.906041 0.034538
O O5 0.241943 0.638328 0.028550
O O6 0.480095 0.643473 0.363894
O O7 0.131543 0.638820 0.033700
O O8 0.633466 0.126129 0.314397
O O9 0.660983 0.118141 0.467844
O O10 0.942878 0.125803 0.691229
O O11 0.750933 0.000000 0.488025
O O12 0.180271 0.858355 0.256857
O O13 0.340645 0.735630 0.370084
O O14 0.000000 0.760056 0.000000
O O15 0.700249 0.895697 0.263235
O O16 0.506905 0.000000 0.120830
O O17 0.852304 0.000000 0.114363
O O18 0.717871 0.000000 0.605923
O O19 0.500000 0.392722 0.500000
#
# Coordination Sequence:
#
# PCOD8115359 Si02
#       8
#     8   8   8   8   8   8   8   8
#     4  12  24  43  66  99 138 188 235 283 353 430
#     4  12  24  45  72 104 142 184 238 287 357 425
#     4   9  20  40  63  96 137 174 222 284 351 412
#     4  12  25  45  70  97 140 190 240 294 350 423
#     4  11  25  45  73 106 140 185 237 295 360 419
#     4  11  23  42  70 103 141 182 232 297 354 413
#     4  11  23  41  67 101 141 186 239 296 351 415
#     4  12  25  47  72 101 144 188 236 294 348 424
#
# _framework density 23.403130999999998
#
# number of rings (size 3 to 8) (size 9 to 14) (size 15 to 20)
#    0.000    0.750    3.750    3.750    0.000    3.500 
#    0.000    2.500    0.000    0.000    0.000    0.000 
#    0.000    0.000    0.000    0.000    0.000    0.000 
#
# Total GULP energy -396742.033492 kJ/mol
# GULP energy per Si atom -12398.188547 kJ/mol
# Density = 2.334986 g / cm^3
# Si number density = 23.403131 Si / 1000 Ang^3
#
#
#
# Elastic Constant Matrix: (Units=GPa)
#
#
# Indices 1 2 3 4 5 6 
#
# 1 103.4347 6.8804 9.3595 0.0651 -2.5365 0.0639
# 2 6.8804 61.6407 15.7655 -0.0453 -2.6816 0.0076
# 3 9.3595 15.7655 97.9637 -0.0859 11.7574 -0.0247
# 4 0.0651 -0.0453 -0.0859 27.8234 -0.0547 3.3932
# 5 -2.5365 -2.6816 11.7574 -0.0547 42.0051 -0.0206
# 6 0.0639 0.0076 -0.0247 3.3932 -0.0206 31.2483
#
#
#
# Elastic Compliance Matrix: (Units=1/GPa)
#
#
# Indices 1 2 3 4 5 6 
#
# 1 0.009824 -0.000832 -0.000900 -0.000023 0.000792 -0.000018
# 2 -0.000832 0.017139 -0.002901 0.000025 0.001856 -0.000006
# 3 -0.000900 -0.002901 0.011165 0.000024 -0.003365 0.000006
# 4 -0.000023 0.000025 0.000024 0.036424 0.000039 -0.003955
# 5 0.000792 0.001856 -0.003365 0.000039 0.024915 0.000007
# 6 -0.000018 -0.000006 0.000006 -0.003955 0.000007 0.032431
#
#
# Mechanical properties :
#
#
# Convention : Reuss Voigt Hill
#
# Bulk Modulus (GPa) = 34.64875 36.33887 35.49381
# Shear Modulus (GPa) = 33.16007 35.61762 34.38884
#
# Velocity S-wave (km/s) = 3.76827 3.90541 3.83745
# Velocity P-wave (km/s) = 5.81123 5.99144 5.90202
#
# Compressibility (1/GPa) = 0.02886107
#
# Stress axis : x y z
#
# Youngs Moduli (GPa) = 101.79004 58.34725 89.56891
#
# Poissons Ratio (x) = 0.04855 0.08059
# Poissons Ratio (y) = 0.08469 0.25988
# Poissons Ratio (z) = 0.09159 0.16929
#
# Static dielectric constant tensor:
#      x y z
#    x 4.292410 -0.000050 -0.055660 
#    y -0.000050 3.849240 -0.000080 
#    z -0.055660 -0.000080 4.409660 
# 
# 
# High freq. dielectric constant tensor:
#      x y z
#    x 1.937740 0.000000 0.001070 
#    y 0.000000 1.899190 -0.000010 
#    z 0.001070 -0.000010 1.937800 
# 
# From -- ./inp_files/326135.got.cif
#   From: 2010.06.25/outbox.cif.g09.slc.cpg/sg12_164_cif.got.tgz:326135.got - 2010.06.28 00:19:55.
