data_PCOD8115623
_publ_section_title
;
Structure prediction by ZEFSAII (Michael W. Deem and Ramdas Pophale) SiO2 
 PCOD8115623
Probable space group: C 2/M
;
_chemical_formula_sum "Si O2"
_cell_formula_units_Z 32
_cell_length_a 34.902887
_cell_length_b 8.336368
_cell_length_c 4.960130
_cell_angle_alpha 90.000000
_cell_angle_beta 89.967484
_cell_angle_gamma 90.000000
_cell_volume 1443.215612
_symmetry_space_group_name_H-M "C 2/M"
_symmetry_group_IT_number 12
_symmetry_cell_setting 'monoclinic'
loop_
_space_group_symop_operation_xyz
x,y,z
-x,y,-z
-x,-y,-z
x,-y,z
1/2+x,1/2+y,z
1/2-x,1/2+y,-z
1/2-x,1/2-y,-z
1/2+x,1/2-y,z
loop_
_atom_site_type_symbol
_atom_site_label
_atom_site_fract_x
_atom_site_fract_y
_atom_site_fract_z
Si Si1 0.915433 0.313316 0.452218
Si Si2 0.667495 0.685908 0.594485
Si Si3 0.956730 0.187188 0.951905
Si Si4 0.709262 0.813721 0.092257
O O1 0.914168 0.500000 0.519092
O O2 0.873985 0.238966 0.507853
O O3 0.945802 0.225530 0.645197
O O4 0.928285 0.284560 0.145799
O O5 0.667806 0.500000 0.672815
O O6 0.697915 0.717120 0.359054
O O7 0.678139 0.786835 0.858908
O O8 0.952202 0.000000 0.013643
O O9 0.000000 0.245169 0.000000
O O10 0.711585 0.000000 0.165584
O O11 0.750000 0.750000 0.000000
#
# Coordination Sequence:
#
# PCOD8115623 Si02
#       4
#     8   8   8   8
#     4  12  25  42  65  95 129 166 210 262 317 374
#     4  12  25  44  67  94 128 169 213 260 315 374
#     4  11  24  43  66  93 127 168 212 259 314 377
#     4  12  25  44  67  96 130 167 211 260 315 374
#
# _framework density 22.172709999999999
#
# number of rings (size 3 to 8) (size 9 to 14) (size 15 to 20)
#    0.000    0.250    0.000   10.500    0.000    5.000 
#    0.000    0.000    0.000    0.000    0.000    0.000 
#    0.000    0.000    0.000    0.000    0.000    0.000 
#
# Total GULP energy -198600.924347 kJ/mol
# GULP energy per Si atom -12412.557772 kJ/mol
# Density = 2.212224 g / cm^3
# Si number density = 22.172710 Si / 1000 Ang^3
#
#
#
# Elastic Constant Matrix: (Units=GPa)
#
#
# Indices 1 2 3 4 5 6 
#
# 1 91.7199 42.1507 2.3080 0.0000 -1.9655 0.0000
# 2 42.1507 98.3416 8.1571 0.0000 -1.3791 0.0000
# 3 2.3080 8.1571 81.0701 0.0000 1.2057 0.0000
# 4 0.0000 0.0000 0.0000 36.5998 0.0000 3.1204
# 5 -1.9655 -1.3791 1.2057 0.0000 45.1547 0.0000
# 6 0.0000 0.0000 0.0000 3.1204 0.0000 32.8925
#
#
#
# Elastic Compliance Matrix: (Units=1/GPa)
#
#
# Indices 1 2 3 4 5 6 
#
# 1 0.013588 -0.005834 0.000194 0.000000 0.000408 0.000000
# 2 -0.005834 0.012765 -0.001121 0.000000 0.000166 0.000000
# 3 0.000194 -0.001121 0.012448 0.000000 -0.000358 0.000000
# 4 0.000000 0.000000 0.000000 0.027545 0.000000 -0.002613
# 5 0.000408 0.000166 -0.000358 0.000000 0.022178 0.000000
# 6 0.000000 0.000000 0.000000 -0.002613 0.000000 0.030650
#
#
# Mechanical properties :
#
#
# Convention : Reuss Voigt Hill
#
# Bulk Modulus (GPa) = 39.55982 41.81815 40.68898
# Shear Modulus (GPa) = 35.43042 37.49713 36.46377
#
# Velocity S-wave (km/s) = 4.00175 4.11681 4.05968
# Velocity P-wave (km/s) = 6.26358 6.44194 6.35338
#
# Compressibility (1/GPa) = 0.02527817
#
# Stress axis : x y z
#
# Youngs Moduli (GPa) = 73.59519 78.34161 80.33702
#
# Poissons Ratio (x) = 0.45707 -0.01560
# Poissons Ratio (y) = 0.42938 0.09003
# Poissons Ratio (z) = -0.01429 0.08780
#
# Static dielectric constant tensor:
#      x y z
#    x 4.262070 0.000000 0.151490 
#    y 0.000000 3.974160 0.000000 
#    z 0.151490 0.000000 4.048750 
# 
# 
# High freq. dielectric constant tensor:
#      x y z
#    x 1.886630 0.000000 0.001240 
#    y 0.000000 1.884760 0.000000 
#    z 0.001240 0.000000 1.884070 
# 
# From -- ./inp_files/3527.got.cif
#   From: 2010.06.25/outbox.cif.g09.slc.cpg/sg12_2_cif.got.tgz:3527.got - 2010.06.28 00:19:55.
