data_PCOD8115504
_publ_section_title
;
Structure prediction by ZEFSAII (Michael W. Deem and Ramdas Pophale) SiO2 
 PCOD8115504
Probable space group: C 2/M
;
_chemical_formula_sum "Si O2"
_cell_formula_units_Z 36
_cell_length_a 10.772155
_cell_length_b 20.505091
_cell_length_c 15.132777
_cell_angle_alpha 90.000000
_cell_angle_beta 150.362693
_cell_angle_gamma 90.000000
_cell_volume 1652.936521
_symmetry_space_group_name_H-M "C 2/M"
_symmetry_group_IT_number 12
_symmetry_cell_setting 'monoclinic'
loop_
_space_group_symop_operation_xyz
x,y,z
-x,y,-z
-x,-y,-z
x,-y,z
1/2+x,1/2+y,z
1/2-x,1/2+y,-z
1/2-x,1/2-y,-z
1/2+x,1/2-y,z
loop_
_atom_site_type_symbol
_atom_site_label
_atom_site_fract_x
_atom_site_fract_y
_atom_site_fract_z
Si Si1 0.773365 0.880658 0.926630
Si Si2 0.076092 0.000000 0.687294
Si Si3 0.014774 0.870256 0.264272
Si Si4 0.000000 0.318947 0.500000
Si Si5 0.587585 0.000000 0.266508
Si Si6 0.713396 0.754510 0.797668
O O1 0.573662 0.937479 0.809290
O O2 0.625870 0.816500 0.801897
O O3 0.000000 0.899279 0.000000
O O4 0.884426 0.863753 0.089764
O O5 0.329487 0.000000 0.785013
O O6 0.077135 0.936815 0.749257
O O7 0.833405 0.000000 0.477024
O O8 0.315930 0.867359 0.439879
O O9 0.948040 0.809140 0.284140
O O10 0.169163 0.272937 0.667801
O O11 0.000000 0.739232 0.000000
#
# Coordination Sequence:
#
# PCOD8115504 Si02
#       6
#     8   4   8   4   4   8
#     4  11  23  46  73 104 139 186 236 285 351 419
#     4  11  29  45  67 107 138 189 234 291 360 414
#     4  12  26  45  72 103 143 187 236 292 348 423
#     4  12  24  45  72 107 144 184 234 290 354 411
#     4  11  26  48  71 101 146 180 234 297 352 422
#     4  11  25  45  72 107 142 185 235 287 352 415
#
# _framework density 21.779419000000001
#
# number of rings (size 3 to 8) (size 9 to 14) (size 15 to 20)
#    0.000    0.667    4.444    3.667    3.111    3.111 
#    0.000    0.000    0.000    0.000    0.000    0.000 
#    0.000    0.000    0.000    0.000    0.000    0.000 
#
# Total GULP energy -223232.481445 kJ/mol
# GULP energy per Si atom -12401.804525 kJ/mol
# Density = 2.172985 g / cm^3
# Si number density = 21.779419 Si / 1000 Ang^3
#
#
#
# Elastic Constant Matrix: (Units=GPa)
#
#
# Indices 1 2 3 4 5 6 
#
# 1 125.8830 84.1822 29.8176 0.0030 -1.6700 0.0005
# 2 84.1822 179.1294 31.6249 0.0056 14.6101 0.0005
# 3 29.8176 31.6249 81.6711 0.0240 -12.0433 -0.0004
# 4 0.0030 0.0056 0.0240 60.0966 0.0061 -12.1377
# 5 -1.6700 14.6101 -12.0433 0.0061 40.7466 -0.0011
# 6 0.0005 0.0005 -0.0004 -12.1377 -0.0011 32.2601
#
#
#
# Elastic Compliance Matrix: (Units=1/GPa)
#
#
# Indices 1 2 3 4 5 6 
#
# 1 0.012120 -0.005491 -0.002023 0.000001 0.001867 0.000000
# 2 -0.005491 0.008843 -0.002008 0.000001 -0.003989 0.000000
# 3 -0.002023 -0.002008 0.014486 -0.000006 0.004918 -0.000002
# 4 0.000001 0.000001 -0.000006 0.018008 -0.000005 0.006776
# 5 0.001867 -0.003989 0.004918 -0.000005 0.027503 -0.000001
# 6 0.000000 0.000000 -0.000002 0.006776 -0.000001 0.033547
#
#
# Mechanical properties :
#
#
# Convention : Reuss Voigt Hill
#
# Bulk Modulus (GPa) = 60.95864 75.32588 68.14226
# Shear Modulus (GPa) = 35.96647 42.69124 39.32885
#
# Velocity S-wave (km/s) = 4.06815 4.43218 4.25406
# Velocity P-wave (km/s) = 7.07929 7.80084 7.44881
#
# Compressibility (1/GPa) = 0.01640457
#
# Stress axis : x y z
#
# Youngs Moduli (GPa) = 82.50951 113.08638 69.03383
#
# Poissons Ratio (x) = 0.62094 0.13968
# Poissons Ratio (y) = 0.45305 0.13860
# Poissons Ratio (z) = 0.16694 0.22704
#
# Static dielectric constant tensor:
#      x y z
#    x 4.318410 0.000010 0.040040 
#    y 0.000010 4.046380 0.000000 
#    z 0.040040 0.000000 4.092190 
# 
# 
# High freq. dielectric constant tensor:
#      x y z
#    x 1.863510 0.000000 -0.005030 
#    y 0.000000 1.857820 0.000000 
#    z -0.005030 0.000000 1.872580 
# 
# From -- ./inp_files/207891.got.cif
#   From: 2010.06.25/outbox.cif.g09.slc.cpg/sg12_104_cif.got.tgz:207891.got - 2010.06.28 00:19:55.
