data_PCOD8115334
_publ_section_title
;
Structure prediction by ZEFSAII (Michael W. Deem and Ramdas Pophale) SiO2 
 PCOD8115334
Probable space group: C 2/M
;
_chemical_formula_sum "Si O2"
_cell_formula_units_Z 64
_cell_length_a 14.586739
_cell_length_b 13.658361
_cell_length_c 23.846013
_cell_angle_alpha 90.000000
_cell_angle_beta 40.279544
_cell_angle_gamma 90.000000
_cell_volume 3071.516305
_symmetry_space_group_name_H-M "C 2/M"
_symmetry_group_IT_number 12
_symmetry_cell_setting 'monoclinic'
loop_
_space_group_symop_operation_xyz
x,y,z
-x,y,-z
-x,-y,-z
x,-y,z
1/2+x,1/2+y,z
1/2-x,1/2+y,-z
1/2-x,1/2-y,-z
1/2+x,1/2-y,z
loop_
_atom_site_type_symbol
_atom_site_label
_atom_site_fract_x
_atom_site_fract_y
_atom_site_fract_z
Si Si1 0.640380 0.220081 0.904251
Si Si2 0.045497 0.226197 0.580304
Si Si3 0.781379 0.252484 0.392739
Si Si4 0.953158 0.393708 0.240598
Si Si5 0.590371 0.611569 0.847767
Si Si6 0.278260 0.395009 0.740860
Si Si7 0.643336 0.261434 0.100410
Si Si8 0.838946 0.387234 0.646540
O O1 0.604354 0.330449 0.900233
O O2 0.680795 0.160633 0.830497
O O3 0.772955 0.207694 0.883201
O O4 0.500000 0.177250 0.000000
O O5 0.909827 0.160955 0.653949
O O6 0.987979 0.336846 0.594671
O O7 0.146189 0.206364 0.586333
O O8 0.136002 0.195658 0.482514
O O9 0.902828 0.326792 0.315475
O O10 0.742069 0.169844 0.365658
O O11 0.010989 0.500000 0.234751
O O12 0.815411 0.412720 0.269096
O O13 0.073022 0.342683 0.146903
O O14 0.546967 0.500000 0.881593
O O15 0.472273 0.657347 0.861569
O O16 0.740555 0.617005 0.747054
O O17 0.325953 0.500000 0.743958
O O18 0.750000 0.250000 0.000000
O O19 0.867143 0.500000 0.615226
#
# Coordination Sequence:
#
# PCOD8115334 Si02
#       8
#     8   8   8   8   8   8   8   8
#     4  12  23  43  70  92 130 169 209 263 323 377
#     4  11  23  41  65  93 129 169 213 264 320 381
#     4  11  23  41  65  93 129 170 213 263 321 383
#     4  11  23  41  64  92 127 166 212 262 318 380
#     4  11  24  43  66  99 132 166 215 266 321 383
#     4  11  23  41  64  92 126 165 212 259 316 383
#     4  12  23  43  68  93 130 170 209 262 322 380
#     4  11  23  42  69  95 129 170 214 267 323 382
#
# _framework density 20.836613
#
# number of rings (size 3 to 8) (size 9 to 14) (size 15 to 20)
#    0.000    0.750    6.250    1.125    0.000    4.500 
#    0.000    3.750    0.000    0.000    0.000    0.000 
#    0.000    0.000    0.000    0.000    0.000    0.000 
#
# Total GULP energy -396620.847411 kJ/mol
# GULP energy per Si atom -12394.401482 kJ/mol
# Density = 2.078919 g / cm^3
# Si number density = 20.836613 Si / 1000 Ang^3
#
#
#
# Elastic Constant Matrix: (Units=GPa)
#
#
# Indices 1 2 3 4 5 6 
#
# 1 66.3459 -3.4109 -10.6192 0.0000 -1.1360 0.0000
# 2 -3.4109 108.6274 44.6914 0.0000 1.2076 0.0000
# 3 -10.6192 44.6914 140.6680 0.0000 -4.4289 0.0000
# 4 0.0000 0.0000 0.0000 4.1486 0.0000 1.1800
# 5 -1.1360 1.2076 -4.4289 0.0000 30.8482 0.0000
# 6 0.0000 0.0000 0.0000 1.1800 0.0000 28.2970
#
#
#
# Elastic Compliance Matrix: (Units=1/GPa)
#
#
# Indices 1 2 3 4 5 6 
#
# 1 0.015273 -0.000014 0.001181 0.000000 0.000732 0.000000
# 2 -0.000014 0.010615 -0.003402 0.000000 -0.000904 0.000000
# 3 0.001181 -0.003402 0.008322 0.000000 0.001371 0.000000
# 4 0.000000 0.000000 0.000000 0.243941 0.000000 -0.010173
# 5 0.000732 -0.000904 0.001371 0.000000 0.032676 0.000000
# 6 0.000000 0.000000 0.000000 -0.010173 0.000000 0.035764
#
#
# Mechanical properties :
#
#
# Convention : Reuss Voigt Hill
#
# Bulk Modulus (GPa) = 33.62589 41.88488 37.75538
# Shear Modulus (GPa) = 13.85134 31.65742 22.75438
#
# Velocity S-wave (km/s) = 2.58109 3.90207 3.30819
# Velocity P-wave (km/s) = 5.00556 6.35978 5.72287
#
# Compressibility (1/GPa) = 0.02973899
#
# Stress axis : x y z
#
# Youngs Moduli (GPa) = 65.47373 94.20582 120.16199
#
# Poissons Ratio (x) = 0.00135 -0.14186
# Poissons Ratio (y) = 0.00093 0.40880
# Poissons Ratio (z) = -0.07730 0.32049
#
# Static dielectric constant tensor:
#      x y z
#    x 6.468590 0.000000 0.237770 
#    y 0.000000 3.544780 0.000000 
#    z 0.237770 0.000000 4.206160 
# 
# 
# High freq. dielectric constant tensor:
#      x y z
#    x 1.820130 0.000000 -0.001220 
#    y 0.000000 1.801330 0.000000 
#    z -0.001220 0.000000 1.835780 
# 
# From -- ./inp_files/340123.got.cif
#   From: 2010.06.25/outbox.cif.g09.slc.cpg/sg12_171_cif.got.tgz:340123.got - 2010.06.28 00:19:55.
