data_PCOD8115061
_publ_section_title
;
Structure prediction by ZEFSAII (Michael W. Deem and Ramdas Pophale) SiO2 
 PCOD8115061
Probable space group: C 2/M
;
_chemical_formula_sum "Si O2"
_cell_formula_units_Z 48
_cell_length_a 15.038581
_cell_length_b 22.345033
_cell_length_c 8.690835
_cell_angle_alpha 90.000000
_cell_angle_beta 61.189218
_cell_angle_gamma 90.000000
_cell_volume 2558.942618
_symmetry_space_group_name_H-M "C 2/M"
_symmetry_group_IT_number 12
_symmetry_cell_setting 'monoclinic'
loop_
_space_group_symop_operation_xyz
x,y,z
-x,y,-z
-x,-y,-z
x,-y,z
1/2+x,1/2+y,z
1/2-x,1/2+y,-z
1/2-x,1/2-y,-z
1/2+x,1/2-y,z
loop_
_atom_site_type_symbol
_atom_site_label
_atom_site_fract_x
_atom_site_fract_y
_atom_site_fract_z
Si Si1 0.850225 0.000000 0.217296
Si Si2 0.212880 0.881467 0.591368
Si Si3 0.932346 0.000000 0.813377
Si Si4 0.609816 0.613827 0.359496
Si Si5 0.905813 0.690726 0.489286
Si Si6 0.723359 0.273657 0.187172
Si Si7 0.589349 0.266932 0.803703
O O1 0.786812 0.059798 0.303301
O O2 0.949803 0.000000 0.241075
O O3 0.868387 0.000000 0.021121
O O4 0.177187 0.900970 0.452168
O O5 0.328736 0.858630 0.487595
O O6 0.137633 0.831275 0.723206
O O7 0.905192 0.056693 0.733954
O O8 0.500000 0.639254 0.500000
O O9 0.669596 0.662659 0.209683
O O10 0.850756 0.730351 0.661414
O O11 0.949034 0.734014 0.318434
O O12 0.000000 0.659653 0.500000
O O13 0.827147 0.278217 0.196839
O O14 0.750000 0.250000 0.000000
O O15 0.500000 0.277835 0.000000
#
# Coordination Sequence:
#
# PCOD8115061 Si02
#       7
#     4   8   4   8   8   8   8
#     4  11  25  42  58  91 123 155 209 256 299 365
#     4  11  23  41  63  88 125 164 204 252 301 367
#     4  11  26  37  62  92 120 162 201 248 316 367
#     4  12  22  39  61  90 125 162 200 244 310 370
#     4  11  22  42  61  91 125 164 204 254 304 362
#     4  11  23  36  60  92 127 161 205 249 307 365
#     4  11  23  38  60  95 126 161 201 251 307 367
#
# _framework density 18.757747999999999
#
# number of rings (size 3 to 8) (size 9 to 14) (size 15 to 20)
#    0.000    0.833    5.000    3.250    9.333    0.000 
#    0.000    0.417    0.000    0.000    0.000    2.333 
#    0.000    0.000    0.000    0.000    0.000    0.000 
#
# Total GULP energy -297602.478763 kJ/mol
# GULP energy per Si atom -12400.103282 kJ/mol
# Density = 1.871505 g / cm^3
# Si number density = 18.757748 Si / 1000 Ang^3
#
#
#
# Elastic Constant Matrix: (Units=GPa)
#
#
# Indices 1 2 3 4 5 6 
#
# 1 115.6615 33.8827 43.4418 0.0000 7.1247 0.0000
# 2 33.8827 111.1226 52.4779 0.0000 -1.7870 0.0000
# 3 43.4418 52.4779 132.9959 0.0000 9.3720 0.0000
# 4 0.0000 0.0000 0.0000 32.1159 0.0000 4.6721
# 5 7.1247 -1.7870 9.3720 0.0000 26.4462 0.0000
# 6 0.0000 0.0000 0.0000 4.6721 0.0000 24.5523
#
#
#
# Elastic Compliance Matrix: (Units=1/GPa)
#
#
# Indices 1 2 3 4 5 6 
#
# 1 0.010271 -0.002026 -0.002411 0.000000 -0.002050 0.000000
# 2 -0.002026 0.011604 -0.004113 0.000000 0.002788 0.000000
# 3 -0.002411 -0.004113 0.010157 0.000000 -0.003228 0.000000
# 4 0.000000 0.000000 0.000000 0.032024 0.000000 -0.006094
# 5 -0.002050 0.002788 -0.003228 0.000000 0.039697 0.000000
# 6 0.000000 0.000000 0.000000 -0.006094 0.000000 0.041889
#
#
# Mechanical properties :
#
#
# Convention : Reuss Voigt Hill
#
# Bulk Modulus (GPa) = 66.97340 68.82052 67.89696
# Shear Modulus (GPa) = 29.81138 31.95472 30.88305
#
# Velocity S-wave (km/s) = 3.99091 4.13188 4.06201
# Velocity P-wave (km/s) = 7.55105 7.71570 7.63382
#
# Compressibility (1/GPa) = 0.01493130
#
# Stress axis : x y z
#
# Youngs Moduli (GPa) = 97.35834 86.17494 98.45270
#
# Poissons Ratio (x) = 0.17461 0.23738
# Poissons Ratio (y) = 0.19726 0.40498
# Poissons Ratio (z) = 0.23474 0.35448
#
# Static dielectric constant tensor:
#      x y z
#    x 3.748610 0.000000 0.094150 
#    y 0.000000 3.421610 0.000000 
#    z 0.094150 0.000000 3.687810 
# 
# 
# High freq. dielectric constant tensor:
#      x y z
#    x 1.733260 0.000000 0.015140 
#    y 0.000000 1.712460 0.000000 
#    z 0.015140 0.000000 1.739850 
# 
# From -- ./inp_files/63405.got.cif
#   From: 2010.06.25/outbox.cif.g09.slc.cpg/sg12_32_cif.got.tgz:63405.got - 2010.06.28 00:19:55.
