data_PCOD8115937
_publ_section_title
;
Structure prediction by ZEFSAII (Michael W. Deem and Ramdas Pophale) SiO2 
 PCOD8115937
Probable space group: C 2/M
;
_chemical_formula_sum "Si O2"
_cell_formula_units_Z 28
_cell_length_a 9.268806
_cell_length_b 31.345693
_cell_length_c 5.041121
_cell_angle_alpha 90.000000
_cell_angle_beta 59.668747
_cell_angle_gamma 90.000000
_cell_volume 1264.154282
_symmetry_space_group_name_H-M "C 2/M"
_symmetry_group_IT_number 12
_symmetry_cell_setting 'monoclinic'
loop_
_space_group_symop_operation_xyz
x,y,z
-x,y,-z
-x,-y,-z
x,-y,z
1/2+x,1/2+y,z
1/2-x,1/2+y,-z
1/2-x,1/2-y,-z
1/2+x,1/2-y,z
loop_
_atom_site_type_symbol
_atom_site_label
_atom_site_fract_x
_atom_site_fract_y
_atom_site_fract_z
Si Si1 0.196368 0.776997 0.306133
Si Si2 0.313766 0.870571 0.252939
Si Si3 0.116761 0.500000 0.147488
Si Si4 0.313500 0.416303 0.101603
O O1 0.250000 0.750000 0.500000
O O2 0.301107 0.819821 0.259551
O O3 0.000000 0.787112 0.500000
O O4 0.250000 0.750000 0.000000
O O5 0.277957 0.893104 0.567733
O O6 0.500000 0.884953 0.000000
O O7 0.182113 0.884330 0.150006
O O8 0.228643 0.458256 0.062959
O O9 0.000000 0.500000 0.500000
O O10 0.000000 0.500000 0.000000
O O11 0.500000 0.429161 0.000000
#
# Coordination Sequence:
#
# PCOD8115937 Si02
#       4
#     8   8   4   8
#     4  12  25  44  67  97 133 174 220 272 328 390
#     4  12  25  44  68  97 132 175 220 270 328 392
#     4  12  25  44  69  98 133 174 219 270 329 394
#     4  12  25  44  68  99 133 172 219 273 328 389
#
# _framework density 22.149197999999998
#
# number of rings (size 3 to 8) (size 9 to 14) (size 15 to 20)
#    0.000    0.000    0.000   12.429    0.000    0.000 
#    0.000    4.286    0.000    0.000    0.000    0.000 
#    0.000    0.000    0.000    0.000    0.000    0.000 
#
# Total GULP energy -173583.397147 kJ/mol
# GULP energy per Si atom -12398.814082 kJ/mol
# Density = 2.209879 g / cm^3
# Si number density = 22.149198 Si / 1000 Ang^3
#
#
#
# Elastic Constant Matrix: (Units=GPa)
#
#
# Indices 1 2 3 4 5 6 
#
# 1 151.4649 65.6873 41.1339 0.0000 19.5406 0.0000
# 2 65.6873 164.6722 61.3448 0.0000 21.1504 0.0000
# 3 41.1339 61.3448 120.0000 0.0000 29.2810 0.0000
# 4 0.0000 0.0000 0.0000 31.7342 0.0000 11.9243
# 5 19.5406 21.1504 29.2810 0.0000 55.2418 0.0000
# 6 0.0000 0.0000 0.0000 11.9243 0.0000 36.9175
#
#
#
# Elastic Compliance Matrix: (Units=1/GPa)
#
#
# Indices 1 2 3 4 5 6 
#
# 1 0.008248 -0.002703 -0.001132 0.000000 -0.001282 0.000000
# 2 -0.002703 0.008432 -0.003250 0.000000 -0.000550 0.000000
# 3 -0.001132 -0.003250 0.011464 0.000000 -0.004432 0.000000
# 4 0.000000 0.000000 0.000000 0.035865 0.000000 -0.011584
# 5 -0.001282 -0.000550 -0.004432 0.000000 0.021115 0.000000
# 6 0.000000 0.000000 0.000000 -0.011584 0.000000 0.030829
#
#
# Mechanical properties :
#
#
# Convention : Reuss Voigt Hill
#
# Bulk Modulus (GPa) = 71.56671 85.82990 78.69830
# Shear Modulus (GPa) = 37.09703 42.64344 39.87023
#
# Velocity S-wave (km/s) = 4.09696 4.39256 4.24733
# Velocity P-wave (km/s) = 7.40010 8.03499 7.72407
#
# Compressibility (1/GPa) = 0.01397298
#
# Stress axis : x y z
#
# Youngs Moduli (GPa) = 121.24859 118.59137 87.22817
#
# Poissons Ratio (x) = 0.32061 0.09876
# Poissons Ratio (y) = 0.32779 0.28348
# Poissons Ratio (z) = 0.13728 0.38540
#
# Static dielectric constant tensor:
#      x y z
#    x 4.203250 0.000000 0.091720 
#    y 0.000000 4.130400 0.000000 
#    z 0.091720 0.000000 4.144200 
# 
# 
# High freq. dielectric constant tensor:
#      x y z
#    x 1.897060 0.000000 0.007060 
#    y 0.000000 1.894100 0.000000 
#    z 0.007060 0.000000 1.884110 
# 
# From -- ./inp_files/3689.got.cif
#   From: 2010.06.25/outbox.cif.g09.slc.cpg/sg12_2_cif.got.tgz:3689.got - 2010.06.28 00:19:55.
