data_PCOD8115369
_publ_section_title
;
Structure prediction by ZEFSAII (Michael W. Deem and Ramdas Pophale) SiO2 
 PCOD8115369
Probable space group: C 2/M
;
_chemical_formula_sum "Si O2"
_cell_formula_units_Z 64
_cell_length_a 14.766219
_cell_length_b 8.529966
_cell_length_c 24.437509
_cell_angle_alpha 90.000000
_cell_angle_beta 82.753913
_cell_angle_gamma 90.000000
_cell_volume 3053.452380
_symmetry_space_group_name_H-M "C 2/M"
_symmetry_group_IT_number 12
_symmetry_cell_setting 'monoclinic'
loop_
_space_group_symop_operation_xyz
x,y,z
-x,y,-z
-x,-y,-z
x,-y,z
1/2+x,1/2+y,z
1/2-x,1/2+y,-z
1/2-x,1/2-y,-z
1/2+x,1/2-y,z
loop_
_atom_site_type_symbol
_atom_site_label
_atom_site_fract_x
_atom_site_fract_y
_atom_site_fract_z
Si Si1 0.463969 0.817390 0.062597
Si Si2 0.606617 0.318835 0.131145
Si Si3 0.272801 0.316752 0.057391
Si Si4 0.230907 0.818799 0.317523
Si Si5 0.193529 0.180962 0.438406
Si Si6 0.117092 0.822902 0.551540
Si Si7 0.430564 0.816966 0.337630
Si Si8 0.907452 0.683669 0.749953
O O1 0.516625 0.715027 0.102968
O O2 0.358169 0.775113 0.075866
O O3 0.479466 0.000000 0.073780
O O4 0.500000 0.771853 0.000000
O O5 0.633948 0.500000 0.122738
O O6 0.688475 0.209603 0.104153
O O7 0.585317 0.279816 0.195125
O O8 0.294616 0.500000 0.050934
O O9 0.250000 0.250000 0.000000
O O10 0.167519 0.795637 0.376670
O O11 0.333077 0.755589 0.322456
O O12 0.189379 0.716177 0.271834
O O13 0.233285 0.000000 0.299188
O O14 0.107495 0.215481 0.486460
O O15 0.275525 0.298549 0.445680
O O16 0.226561 0.000000 0.444184
O O17 0.057172 0.722189 0.598622
O O18 0.088525 0.000000 0.565662
O O19 0.512455 0.747235 0.295063
O O20 0.434461 0.000000 0.331204
O O21 0.917470 0.500000 0.761448
#
# Coordination Sequence:
#
# PCOD8115369 Si02
#       8
#     8   8   8   8   8   8   8   8
#     4  11  23  41  68  99 133 169 203 245 299 357
#     4  12  26  44  66  93 127 167 209 256 306 360
#     4  12  24  41  67  99 133 168 206 248 298 356
#     4   9  18  36  59  81 110 152 198 243 299 364
#     4   8  15  28  47  75 112 149 184 232 298 361
#     4   9  15  25  48  80 109 142 189 241 290 351
#     4   9  20  38  58  79 112 156 193 239 303 363
#     4  11  24  42  61  84 117 155 202 254 303 357
#
# _framework density 20.959882
#
# number of rings (size 3 to 8) (size 9 to 14) (size 15 to 20)
#    0.000    1.875    1.250    4.125    0.000    5.000 
#    0.000    4.375    0.000    3.750    0.000    0.000 
#    0.000    0.000    0.000    0.000    0.000    0.000 
#
# Total GULP energy -396719.120756 kJ/mol
# GULP energy per Si atom -12397.472524 kJ/mol
# Density = 2.091218 g / cm^3
# Si number density = 20.959882 Si / 1000 Ang^3
#
#
#
# Elastic Constant Matrix: (Units=GPa)
#
#
# Indices 1 2 3 4 5 6 
#
# 1 67.2518 4.2477 22.1613 0.0000 -6.3816 0.0000
# 2 4.2477 55.2142 22.1562 0.0000 3.5598 0.0000
# 3 22.1613 22.1562 106.4644 0.0000 -5.0469 0.0000
# 4 0.0000 0.0000 0.0000 34.5507 0.0000 0.5662
# 5 -6.3816 3.5598 -5.0469 0.0000 33.7508 0.0000
# 6 0.0000 0.0000 0.0000 0.5662 0.0000 26.1060
#
#
#
# Elastic Compliance Matrix: (Units=1/GPa)
#
#
# Indices 1 2 3 4 5 6 
#
# 1 0.016184 -0.000120 -0.003221 0.000000 0.002591 0.000000
# 2 -0.000120 0.020013 -0.004271 0.000000 -0.002772 0.000000
# 3 -0.003221 -0.004271 0.011023 0.000000 0.001490 0.000000
# 4 0.000000 0.000000 0.000000 0.028953 0.000000 -0.000628
# 5 0.002591 -0.002772 0.001490 0.000000 0.030634 0.000000
# 6 0.000000 0.000000 0.000000 -0.000628 0.000000 0.038319
#
#
# Mechanical properties :
#
#
# Convention : Reuss Voigt Hill
#
# Bulk Modulus (GPa) = 31.25379 36.22897 33.74138
# Shear Modulus (GPa) = 29.23692 30.90584 30.07138
#
# Velocity S-wave (km/s) = 3.73889 3.84412 3.79187
# Velocity P-wave (km/s) = 5.79505 6.08485 5.94172
#
# Compressibility (1/GPa) = 0.03199612
#
# Stress axis : x y z
#
# Youngs Moduli (GPa) = 61.78793 49.96686 90.72041
#
# Poissons Ratio (x) = 0.00597 0.29223
# Poissons Ratio (y) = 0.00739 0.38751
# Poissons Ratio (z) = 0.19903 0.21343
#
# Static dielectric constant tensor:
#      x y z
#    x 3.711020 0.000000 -0.204870 
#    y 0.000000 3.759710 0.000000 
#    z -0.204870 0.000000 4.041520 
# 
# 
# High freq. dielectric constant tensor:
#      x y z
#    x 1.805650 0.000000 -0.006970 
#    y 0.000000 1.815350 0.000000 
#    z -0.006970 0.000000 1.827650 
# 
# From -- ./inp_files/338901.got.cif
#   From: 2010.06.25/outbox.cif.g09.slc.cpg/sg12_170_cif.got.tgz:338901.got - 2010.06.28 00:19:55.
