data_PCOD8115040
_publ_section_title
;
Structure prediction by ZEFSAII (Michael W. Deem and Ramdas Pophale) SiO2 
 PCOD8115040
Probable space group: C 2/M
;
_chemical_formula_sum "Si O2"
_cell_formula_units_Z 52
_cell_length_a 8.329011
_cell_length_b 29.481628
_cell_length_c 15.361785
_cell_angle_alpha 90.000000
_cell_angle_beta 138.780557
_cell_angle_gamma 90.000000
_cell_volume 2485.624851
_symmetry_space_group_name_H-M "C 2/M"
_symmetry_group_IT_number 12
_symmetry_cell_setting 'monoclinic'
loop_
_space_group_symop_operation_xyz
x,y,z
-x,y,-z
-x,-y,-z
x,-y,z
1/2+x,1/2+y,z
1/2-x,1/2+y,-z
1/2-x,1/2-y,-z
1/2+x,1/2-y,z
loop_
_atom_site_type_symbol
_atom_site_label
_atom_site_fract_x
_atom_site_fract_y
_atom_site_fract_z
Si Si1 0.253703 0.314317 0.647174
Si Si2 0.775338 0.419469 0.147442
Si Si3 0.085764 0.000000 0.800508
Si Si4 0.500000 0.806727 0.000000
Si Si5 0.757281 0.416786 0.342445
Si Si6 0.776808 0.327254 0.078810
Si Si7 0.137766 0.254318 0.764021
Si Si8 0.089896 0.500000 0.908677
O O1 0.359908 0.365816 0.698580
O O2 0.207065 0.290792 0.720039
O O3 0.416122 0.280559 0.653668
O O4 0.000000 0.321513 0.500000
O O5 0.814732 0.427051 0.265505
O O6 0.894596 0.371521 0.170139
O O7 0.928045 0.456980 0.160514
O O8 0.500000 0.420226 0.000000
O O9 0.349469 0.000000 0.866715
O O10 0.940026 0.954919 0.710878
O O11 0.154161 0.000000 0.931841
O O12 0.694085 0.833053 0.015725
O O13 0.365884 0.777436 0.873705
O O14 0.000000 0.422496 0.500000
O O15 0.923895 0.283354 0.174166
O O16 0.500000 0.321337 0.000000
#
# Coordination Sequence:
#
# PCOD8115040 Si02
#       8
#     8   8   4   4   8   8   8   4
#     4  11  25  42  64  91 130 184 229 271 330 401
#     4  11  22  41  67  96 132 174 226 269 338 407
#     4  11  24  45  68 107 130 169 218 284 344 407
#     4  12  24  36  64  97 134 167 214 288 356 374
#     4  11  24  45  70  96 132 180 228 269 333 414
#     4  11  23  38  61  97 134 174 220 277 338 405
#     4  12  21  40  60  91 132 170 222 281 328 400
#     4  11  24  40  70 100 140 156 215 288 351 402
#
# _framework density 20.920292
#
# number of rings (size 3 to 8) (size 9 to 14) (size 15 to 20)
#    0.000    0.769    5.385    2.769    2.154    2.462 
#    0.000    1.538    0.000    0.000    0.000    0.000 
#    0.000    0.000    0.000    0.000    0.000    0.000 
#
# Total GULP energy -322109.540088 kJ/mol
# GULP energy per Si atom -12388.828465 kJ/mol
# Density = 2.087268 g / cm^3
# Si number density = 20.920292 Si / 1000 Ang^3
#
#
#
# Elastic Constant Matrix: (Units=GPa)
#
#
# Indices 1 2 3 4 5 6 
#
# 1 90.0297 38.6405 31.3371 0.0000 -5.7682 0.0000
# 2 38.6405 146.0977 36.2560 0.0000 15.9702 0.0000
# 3 31.3371 36.2560 98.6965 0.0000 -7.7979 0.0000
# 4 0.0000 0.0000 0.0000 37.4869 0.0000 -6.3064
# 5 -5.7682 15.9702 -7.7979 0.0000 26.9776 0.0000
# 6 0.0000 0.0000 0.0000 -6.3064 0.0000 25.4361
#
#
#
# Elastic Compliance Matrix: (Units=1/GPa)
#
#
# Indices 1 2 3 4 5 6 
#
# 1 0.013815 -0.003413 -0.002804 0.000000 0.004164 0.000000
# 2 -0.003413 0.009224 -0.002859 0.000000 -0.007017 0.000000
# 3 -0.002804 -0.002859 0.012443 0.000000 0.004690 0.000000
# 4 0.000000 0.000000 0.000000 0.027837 0.000000 0.006902
# 5 0.004164 -0.007017 0.004690 0.000000 0.043467 0.000000
# 6 0.000000 0.000000 0.000000 0.006902 0.000000 0.041025
#
#
# Mechanical properties :
#
#
# Convention : Reuss Voigt Hill
#
# Bulk Modulus (GPa) = 57.70238 60.81010 59.25624
# Shear Modulus (GPa) = 29.11365 33.21945 31.16655
#
# Velocity S-wave (km/s) = 3.73453 3.98918 3.86395
# Velocity P-wave (km/s) = 6.79981 7.09568 6.94932
#
# Compressibility (1/GPa) = 0.01733031
#
# Stress axis : x y z
#
# Youngs Moduli (GPa) = 72.38469 108.41261 80.36635
#
# Poissons Ratio (x) = 0.37005 0.22531
# Poissons Ratio (y) = 0.24707 0.22977
# Poissons Ratio (z) = 0.20293 0.30996
#
# Static dielectric constant tensor:
#      x y z
#    x 3.571030 0.000000 -0.091520 
#    y 0.000000 4.371080 0.000000 
#    z -0.091520 0.000000 3.753510 
# 
# 
# High freq. dielectric constant tensor:
#      x y z
#    x 1.811870 0.000000 -0.012760 
#    y 0.000000 1.838520 0.000000 
#    z -0.012760 0.000000 1.804860 
# 
# From -- ./inp_files/201387.got.cif
#   From: 2010.06.25/outbox.cif.g09.slc.cpg/sg12_101_cif.got.tgz:201387.got - 2010.06.28 00:19:55.
