data_PCOD8115921
_publ_section_title
;
Structure prediction by ZEFSAII (Michael W. Deem and Ramdas Pophale) SiO2 
 PCOD8115921
Probable space group: C 2/M
;
_chemical_formula_sum "Si O2"
_cell_formula_units_Z 24
_cell_length_a 9.773267
_cell_length_b 9.681465
_cell_length_c 11.758823
_cell_angle_alpha 90.000000
_cell_angle_beta 104.107067
_cell_angle_gamma 90.000000
_cell_volume 1079.060180
_symmetry_space_group_name_H-M "C 2/M"
_symmetry_group_IT_number 12
_symmetry_cell_setting 'monoclinic'
loop_
_space_group_symop_operation_xyz
x,y,z
-x,y,-z
-x,-y,-z
x,-y,z
1/2+x,1/2+y,z
1/2-x,1/2+y,-z
1/2-x,1/2-y,-z
1/2+x,1/2-y,z
loop_
_atom_site_type_symbol
_atom_site_label
_atom_site_fract_x
_atom_site_fract_y
_atom_site_fract_z
Si Si1 0.214692 0.158705 0.884502
Si Si2 0.920843 0.234077 0.736155
Si Si3 0.567717 0.000000 0.391772
Si Si4 0.135661 0.000000 0.448754
O O1 0.296348 0.222355 0.794736
O O2 0.047214 0.160308 0.829025
O O3 0.261876 0.000000 0.914584
O O4 0.250000 0.250000 0.000000
O O5 0.985324 0.367588 0.687760
O O6 0.855332 0.134300 0.628217
O O7 0.500000 0.000000 0.500000
O O8 0.736739 0.000000 0.436349
O O9 0.000000 0.000000 0.500000
#
# Coordination Sequence:
#
# PCOD8115921 Si02
#       4
#     8   8   4   4
#     4  12  28  48  73 105 139 183 236 292 354 416
#     4  12  25  47  72 104 146 181 233 292 343 416
#     4  12  24  42  69 106 139 186 234 278 344 416
#     4  12  24  44  71 104 145 186 232 282 344 412
#
# _framework density 22.241576999999999
#
# number of rings (size 3 to 8) (size 9 to 14) (size 15 to 20)
#    0.000    0.000    3.333    7.000    4.667    2.667 
#    0.000    0.000    0.000    0.000    0.000    0.000 
#    0.000    0.000    0.000    0.000    0.000    0.000 
#
# Total GULP energy -148909.357196 kJ/mol
# GULP energy per Si atom -12409.113100 kJ/mol
# Density = 2.219095 g / cm^3
# Si number density = 22.241577 Si / 1000 Ang^3
#
#
#
# Elastic Constant Matrix: (Units=GPa)
#
#
# Indices 1 2 3 4 5 6 
#
# 1 97.7865 17.9511 17.7085 0.0000 -2.6372 0.0000
# 2 17.9511 164.9015 48.6636 0.0000 -24.4892 0.0000
# 3 17.7085 48.6636 99.5514 0.0000 -10.4039 0.0000
# 4 0.0000 0.0000 0.0000 44.4728 0.0000 0.8845
# 5 -2.6372 -24.4892 -10.4039 0.0000 41.1759 0.0000
# 6 0.0000 0.0000 0.0000 0.8845 0.0000 29.7697
#
#
#
# Elastic Compliance Matrix: (Units=1/GPa)
#
#
# Indices 1 2 3 4 5 6 
#
# 1 0.010636 -0.000720 -0.001555 0.000000 -0.000140 0.000000
# 2 -0.000720 0.007640 -0.003222 0.000000 0.003684 0.000000
# 3 -0.001555 -0.003222 0.012003 0.000000 0.001017 0.000000
# 4 0.000000 0.000000 0.000000 0.022499 0.000000 -0.000668
# 5 -0.000140 0.003684 0.001017 0.000000 0.026725 0.000000
# 6 0.000000 0.000000 0.000000 -0.000668 0.000000 0.033611
#
#
# Mechanical properties :
#
#
# Convention : Reuss Voigt Hill
#
# Bulk Modulus (GPa) = 51.84888 58.98730 55.41809
# Shear Modulus (GPa) = 38.30348 41.61143 39.95745
#
# Velocity S-wave (km/s) = 4.15439 4.33006 4.24314
# Velocity P-wave (km/s) = 6.80986 7.18179 6.99830
#
# Compressibility (1/GPa) = 0.01928682
#
# Stress axis : x y z
#
# Youngs Moduli (GPa) = 94.01782 130.88202 83.31366
#
# Poissons Ratio (x) = 0.09421 0.12953
# Poissons Ratio (y) = 0.06767 0.26842
# Poissons Ratio (z) = 0.14617 0.42168
#
# Static dielectric constant tensor:
#      x y z
#    x 4.517340 0.000000 0.416300 
#    y 0.000000 4.385330 0.000000 
#    z 0.416300 0.000000 4.931030 
# 
# 
# High freq. dielectric constant tensor:
#      x y z
#    x 1.883630 0.000000 -0.006620 
#    y 0.000000 1.896850 0.000000 
#    z -0.006620 0.000000 1.885980 
# 
# From -- ./inp_files/94790.got.cif
#   From: 2010.06.25/outbox.cif.g09.slc.cpg/sg12_48_cif.got.tgz:94790.got - 2010.06.28 00:19:55.
