data_PCOD8115345
_publ_section_title
;
Structure prediction by ZEFSAII (Michael W. Deem and Ramdas Pophale) SiO2 
 PCOD8115345
Probable space group: C 2/M
;
_chemical_formula_sum "Si O2"
_cell_formula_units_Z 48
_cell_length_a 15.102306
_cell_length_b 9.039811
_cell_length_c 16.652116
_cell_angle_alpha 90.000000
_cell_angle_beta 94.305406
_cell_angle_gamma 90.000000
_cell_volume 2266.964692
_symmetry_space_group_name_H-M "C 2/M"
_symmetry_group_IT_number 12
_symmetry_cell_setting 'monoclinic'
loop_
_space_group_symop_operation_xyz
x,y,z
-x,y,-z
-x,-y,-z
x,-y,z
1/2+x,1/2+y,z
1/2-x,1/2+y,-z
1/2-x,1/2-y,-z
1/2+x,1/2-y,z
loop_
_atom_site_type_symbol
_atom_site_label
_atom_site_fract_x
_atom_site_fract_y
_atom_site_fract_z
Si Si1 0.100099 0.672017 0.664593
Si Si2 0.602998 0.169811 0.353780
Si Si3 0.821351 0.324832 0.159639
Si Si4 0.145928 0.326593 0.179842
Si Si5 0.394256 0.667414 0.491177
Si Si6 0.980663 0.829171 0.091947
O O1 0.109417 0.500000 0.647762
O O2 0.150731 0.718404 0.748436
O O3 0.143501 0.755646 0.591576
O O4 0.998116 0.719663 0.669298
O O5 0.657569 0.199390 0.276161
O O6 0.645702 0.260513 0.430532
O O7 0.605816 0.000000 0.379712
O O8 0.823845 0.500000 0.144343
O O9 0.722583 0.262385 0.138578
O O10 0.884787 0.242920 0.101014
O O11 0.150141 0.500000 0.158938
O O12 0.051626 0.263736 0.146795
O O13 0.500000 0.685731 0.500000
O O14 0.362285 0.500000 0.486851
O O15 0.981770 0.000000 0.119911
O O16 0.000000 0.814558 0.000000
#
# Coordination Sequence:
#
# PCOD8115345 Si02
#       6
#     8   8   8   8   8   8
#     4   9  17  33  55  80 115 159 204 249 302 360
#     4   9  17  33  55  80 115 159 204 249 302 360
#     4  11  23  41  65  95 127 164 207 253 308 367
#     4  11  23  41  65  95 127 164 207 253 308 367
#     4   9  17  27  46  81 116 152 202 254 302 350
#     4  11  25  45  69  96 125 160 201 249 308 371
#
# _framework density 21.173686
#
# number of rings (size 3 to 8) (size 9 to 14) (size 15 to 20)
#    0.000    2.000    1.667    2.000    0.000    6.667 
#    0.000    0.833    0.000    0.000    0.000    0.000 
#    0.000    0.000    0.000    0.000    0.000    0.000 
#
# Total GULP energy -297673.256243 kJ/mol
# GULP energy per Si atom -12403.052343 kJ/mol
# Density = 2.112549 g / cm^3
# Si number density = 21.173686 Si / 1000 Ang^3
#
#
#
# Elastic Constant Matrix: (Units=GPa)
#
#
# Indices 1 2 3 4 5 6 
#
# 1 66.7506 27.1204 11.6314 0.0000 -24.4665 0.0000
# 2 27.1204 107.6969 46.8722 0.0000 -15.2228 0.0000
# 3 11.6314 46.8722 71.0976 0.0000 -13.9716 0.0000
# 4 0.0000 0.0000 0.0000 34.2019 0.0000 -2.2451
# 5 -24.4665 -15.2228 -13.9716 0.0000 18.7507 0.0000
# 6 0.0000 0.0000 0.0000 -2.2451 0.0000 30.8997
#
#
#
# Elastic Compliance Matrix: (Units=1/GPa)
#
#
# Indices 1 2 3 4 5 6 
#
# 1 0.030817 -0.004598 0.006043 0.000000 0.040981 0.000000
# 2 -0.004598 0.014102 -0.008756 0.000000 -0.001075 0.000000
# 3 0.006043 -0.008756 0.022261 0.000000 0.017364 0.000000
# 4 0.000000 0.000000 0.000000 0.029378 0.000000 0.002135
# 5 0.040981 -0.001075 0.017364 0.000000 0.118870 0.000000
# 6 0.000000 0.000000 0.000000 0.002135 0.000000 0.032518
#
#
# Mechanical properties :
#
#
# Convention : Reuss Voigt Hill
#
# Bulk Modulus (GPa) = 19.02635 46.31035 32.66835
# Shear Modulus (GPa) = 17.85151 27.43187 22.64169
#
# Velocity S-wave (km/s) = 2.90677 3.60330 3.27361
# Velocity P-wave (km/s) = 4.50234 6.26345 5.45444
#
# Compressibility (1/GPa) = 0.05255870
#
# Stress axis : x y z
#
# Youngs Moduli (GPa) = 32.44933 70.91170 44.92100
#
# Poissons Ratio (x) = 0.32604 -0.27145
# Poissons Ratio (y) = 0.14920 0.39333
# Poissons Ratio (z) = -0.19609 0.62090
#
# Static dielectric constant tensor:
#      x y z
#    x 3.595480 0.000000 -0.091150 
#    y 0.000000 3.784780 0.000000 
#    z -0.091150 0.000000 3.834800 
# 
# 
# High freq. dielectric constant tensor:
#      x y z
#    x 1.815970 0.000000 -0.007270 
#    y 0.000000 1.832740 0.000000 
#    z -0.007270 0.000000 1.831290 
# 
# From -- ./inp_files/267707.got.cif
#   From: 2010.06.25/outbox.cif.g09.slc.cpg/sg12_134_cif.got.tgz:267707.got - 2010.06.28 00:19:55.
