data_PCOD8115727
_publ_section_title
;
Structure prediction by ZEFSAII (Michael W. Deem and Ramdas Pophale) SiO2 
 PCOD8115727
Probable space group: C 2/M
;
_chemical_formula_sum "Si O2"
_cell_formula_units_Z 36
_cell_length_a 21.877315
_cell_length_b 10.449040
_cell_length_c 19.890489
_cell_angle_alpha 90.000000
_cell_angle_beta 19.133364
_cell_angle_gamma 90.000000
_cell_volume 1490.330376
_symmetry_space_group_name_H-M "C 2/M"
_symmetry_group_IT_number 12
_symmetry_cell_setting 'monoclinic'
loop_
_space_group_symop_operation_xyz
x,y,z
-x,y,-z
-x,-y,-z
x,-y,z
1/2+x,1/2+y,z
1/2-x,1/2+y,-z
1/2-x,1/2-y,-z
1/2+x,1/2-y,z
loop_
_atom_site_type_symbol
_atom_site_label
_atom_site_fract_x
_atom_site_fract_y
_atom_site_fract_z
Si Si1 0.525754 0.500000 0.271714
Si Si2 0.716818 0.000000 0.703800
Si Si3 0.455752 0.143596 0.642199
Si Si4 0.597178 0.000000 0.066263
Si Si5 0.036390 0.734287 0.706795
Si Si6 0.217253 0.239242 0.778989
O O1 0.330159 0.500000 0.515541
O O2 0.550647 0.377392 0.196287
O O3 0.680206 0.500000 0.170296
O O4 0.757389 0.121479 0.707126
O O5 0.497883 0.000000 0.908668
O O6 0.498857 0.194711 0.670258
O O7 0.293907 0.231873 0.776063
O O8 0.652368 0.141799 0.397784
O O9 0.378763 0.000000 0.725646
O O10 0.545276 0.869206 0.158196
O O11 0.250000 0.750000 0.500000
O O12 0.000000 0.200257 0.000000
#
# Coordination Sequence:
#
# PCOD8115727 Si02
#       6
#     4   4   8   4   8   8
#     4  12  26  44  76 107 138 191 234 287 361 415
#     4  12  25  46  70 106 141 181 228 297 348 420
#     4  11  25  45  71  98 141 184 229 294 348 414
#     4  12  26  45  77 106 143 184 241 286 356 426
#     4  12  23  49  71 105 144 187 235 293 353 420
#     4  11  25  44  70 102 137 182 236 283 352 414
#
# _framework density 24.155718
#
# number of rings (size 3 to 8) (size 9 to 14) (size 15 to 20)
#    0.000    0.444    5.556    2.333    3.111    4.444 
#    4.000    0.000    0.000    0.000    0.000    0.000 
#    0.000    0.000    0.000    0.000    0.000    0.000 
#
# Total GULP energy -223164.182902 kJ/mol
# GULP energy per Si atom -12398.010161 kJ/mol
# Density = 2.410074 g / cm^3
# Si number density = 24.155718 Si / 1000 Ang^3
#
#
#
# Elastic Constant Matrix: (Units=GPa)
#
#
# Indices 1 2 3 4 5 6 
#
# 1 136.8076 57.6128 8.9573 -0.0023 -37.6418 -0.0056
# 2 57.6128 177.6138 13.4611 -0.0057 -19.3770 -0.0096
# 3 8.9573 13.4611 100.4723 -0.0176 -37.4589 -0.0157
# 4 -0.0023 -0.0057 -0.0176 30.5880 0.0019 -20.3882
# 5 -37.6418 -19.3770 -37.4589 0.0019 40.2573 0.0065
# 6 -0.0056 -0.0096 -0.0157 -20.3882 0.0065 20.1857
#
#
#
# Elastic Compliance Matrix: (Units=1/GPa)
#
#
# Indices 1 2 3 4 5 6 
#
# 1 0.012077 -0.002709 0.004609 0.000009 0.014277 0.000010
# 2 -0.002709 0.006561 -0.000619 0.000006 0.000049 0.000008
# 3 0.004609 -0.000619 0.017028 0.000043 0.019856 0.000051
# 4 0.000009 0.000006 0.000043 0.100048 0.000030 0.101051
# 5 0.014277 0.000049 0.019856 0.000030 0.056688 0.000031
# 6 0.000010 0.000008 0.000051 0.101051 0.000031 0.151605
#
#
# Mechanical properties :
#
#
# Convention : Reuss Voigt Hill
#
# Bulk Modulus (GPa) = 26.15944 63.88400 45.02172
# Shear Modulus (GPa) = 14.11678 40.53039 27.32358
#
# Velocity S-wave (km/s) = 2.42007 4.10064 3.36690
# Velocity P-wave (km/s) = 4.31996 6.99460 5.81320
#
# Compressibility (1/GPa) = 0.03822711
#
# Stress axis : x y z
#
# Youngs Moduli (GPa) = 82.80301 152.41098 58.72735
#
# Poissons Ratio (x) = 0.41290 -0.27068
# Poissons Ratio (y) = 0.22432 0.03638
# Poissons Ratio (z) = -0.38165 0.09440
#
# Static dielectric constant tensor:
#      x y z
#    x 4.463130 -0.000020 -0.302140 
#    y -0.000020 4.700020 0.000060 
#    z -0.302140 0.000060 4.484400 
# 
# 
# High freq. dielectric constant tensor:
#      x y z
#    x 1.962900 0.000000 -0.023290 
#    y 0.000000 1.976550 0.000000 
#    z -0.023290 0.000000 1.959070 
# 
# From -- ./inp_files/321478.got.cif
#   From: 2010.06.25/outbox.cif.g09.slc.cpg/sg12_161_cif.got.tgz:321478.got - 2010.06.28 00:19:55.
