data_PCOD8115630
_publ_section_title
;
Structure prediction by ZEFSAII (Michael W. Deem and Ramdas Pophale) SiO2 
 PCOD8115630
Probable space group: C 2/M
;
_chemical_formula_sum "Si O2"
_cell_formula_units_Z 48
_cell_length_a 17.762047
_cell_length_b 23.842311
_cell_length_c 4.859184
_cell_angle_alpha 90.000000
_cell_angle_beta 100.406562
_cell_angle_gamma 90.000000
_cell_volume 2023.958016
_symmetry_space_group_name_H-M "C 2/M"
_symmetry_group_IT_number 12
_symmetry_cell_setting 'monoclinic'
loop_
_space_group_symop_operation_xyz
x,y,z
-x,y,-z
-x,-y,-z
x,-y,z
1/2+x,1/2+y,z
1/2-x,1/2+y,-z
1/2-x,1/2-y,-z
1/2+x,1/2-y,z
loop_
_atom_site_type_symbol
_atom_site_label
_atom_site_fract_x
_atom_site_fract_y
_atom_site_fract_z
Si Si1 0.337723 0.390362 0.232829
Si Si2 0.177120 0.563404 0.046941
Si Si3 0.163917 0.233307 0.994439
Si Si4 0.418805 0.775679 0.534751
Si Si5 0.082845 0.597345 0.469925
Si Si6 0.421527 0.436223 0.811087
O O1 0.247797 0.401263 0.226406
O O2 0.391471 0.399455 0.534885
O O3 0.353342 0.328455 0.129790
O O4 0.358554 0.434535 0.008341
O O5 0.202151 0.500000 0.992818
O O6 0.111246 0.561107 0.232474
O O7 0.144979 0.593256 0.754037
O O8 0.130893 0.238390 0.282951
O O9 0.250000 0.250000 0.000000
O O10 0.122791 0.279482 0.783595
O O11 0.500000 0.748134 0.500000
O O12 0.427231 0.838993 0.647118
O O13 0.000000 0.573137 0.500000
O O14 0.433435 0.500000 0.716589
O O15 0.500000 0.412165 0.000000
#
# Coordination Sequence:
#
# PCOD8115630 Si02
#       6
#     8   8   8   8   8   8
#     4  12  25  43  67  98 134 175 225 280 337 401
#     4  12  25  42  66  97 135 176 224 279 335 400
#     4  12  25  43  68  98 134 175 223 277 335 402
#     4  11  24  44  68  96 133 175 221 274 336 402
#     4  11  24  43  67  96 133 177 222 274 336 403
#     4  11  24  44  69  97 133 176 222 276 342 410
#
# _framework density 23.715907000000001
#
# number of rings (size 3 to 8) (size 9 to 14) (size 15 to 20)
#    0.000    0.500    0.000    9.000    0.000    8.667 
#    0.000    0.000    0.000    0.000    0.000    0.000 
#    0.000    0.000    0.000    0.000    0.000    0.000 
#
# Total GULP energy -297559.377139 kJ/mol
# GULP energy per Si atom -12398.307381 kJ/mol
# Density = 2.366193 g / cm^3
# Si number density = 23.715907 Si / 1000 Ang^3
#
#
#
# Elastic Constant Matrix: (Units=GPa)
#
#
# Indices 1 2 3 4 5 6 
#
# 1 138.9967 32.0773 42.4535 0.0000 -7.3234 0.0000
# 2 32.0773 81.7370 23.2727 0.0000 2.1457 0.0000
# 3 42.4535 23.2727 128.5445 0.0000 3.0710 0.0000
# 4 0.0000 0.0000 0.0000 38.3478 0.0000 -1.5466
# 5 -7.3234 2.1457 3.0710 0.0000 48.7343 0.0000
# 6 0.0000 0.0000 0.0000 -1.5466 0.0000 29.5661
#
#
#
# Elastic Compliance Matrix: (Units=1/GPa)
#
#
# Indices 1 2 3 4 5 6 
#
# 1 0.008643 -0.002752 -0.002394 0.000000 0.001571 0.000000
# 2 -0.002752 0.013784 -0.001565 0.000000 -0.000922 0.000000
# 3 -0.002394 -0.001565 0.008874 0.000000 -0.000850 0.000000
# 4 0.000000 0.000000 0.000000 0.026132 0.000000 0.001367
# 5 0.001571 -0.000922 -0.000850 0.000000 0.020850 0.000000
# 6 0.000000 0.000000 0.000000 0.001367 0.000000 0.033894
#
#
# Mechanical properties :
#
#
# Convention : Reuss Voigt Hill
#
# Bulk Modulus (GPa) = 55.92765 60.54282 58.23523
# Shear Modulus (GPa) = 38.00614 40.09462 39.05038
#
# Velocity S-wave (km/s) = 4.00754 4.11618 4.06222
# Velocity P-wave (km/s) = 6.71173 6.94077 6.82721
#
# Compressibility (1/GPa) = 0.01788025
#
# Stress axis : x y z
#
# Youngs Moduli (GPa) = 115.69552 72.54807 112.69329
#
# Poissons Ratio (x) = 0.19963 0.26978
# Poissons Ratio (y) = 0.31836 0.17634
# Poissons Ratio (z) = 0.27697 0.11352
#
# Static dielectric constant tensor:
#      x y z
#    x 4.363300 0.000000 0.003280 
#    y 0.000000 4.223790 0.000000 
#    z 0.003280 0.000000 4.289920 
# 
# 
# High freq. dielectric constant tensor:
#      x y z
#    x 1.954990 0.000000 0.000360 
#    y 0.000000 1.935340 0.000000 
#    z 0.000360 0.000000 1.947630 
# 
# From -- ./inp_files/16939.got.cif
#   From: 2010.06.25/outbox.cif.g09.slc.cpg/sg12_9_cif.got.tgz:16939.got - 2010.06.28 00:19:55.
