data_PCOD8115605
_publ_section_title
;
Structure prediction by ZEFSAII (Michael W. Deem and Ramdas Pophale) SiO2 
 PCOD8115605
Probable space group: C 2/M
;
_chemical_formula_sum "Si O2"
_cell_formula_units_Z 36
_cell_length_a 16.900400
_cell_length_b 19.508443
_cell_length_c 16.306606
_cell_angle_alpha 90.000000
_cell_angle_beta 162.942171
_cell_angle_gamma 90.000000
_cell_volume 1577.065247
_symmetry_space_group_name_H-M "C 2/M"
_symmetry_group_IT_number 12
_symmetry_cell_setting 'monoclinic'
loop_
_space_group_symop_operation_xyz
x,y,z
-x,y,-z
-x,-y,-z
x,-y,z
1/2+x,1/2+y,z
1/2-x,1/2+y,-z
1/2-x,1/2-y,-z
1/2+x,1/2-y,z
loop_
_atom_site_type_symbol
_atom_site_label
_atom_site_fract_x
_atom_site_fract_y
_atom_site_fract_z
Si Si1 0.421177 0.421614 0.331832
Si Si2 0.403742 0.282330 0.812492
Si Si3 0.091561 0.639111 0.736382
Si Si4 0.261711 0.000000 0.202304
Si Si5 0.914820 0.359514 0.746853
O O1 0.500000 0.395262 0.500000
O O2 0.324259 0.500000 0.237279
O O3 0.679489 0.414431 0.529262
O O4 0.178318 0.375261 0.060589
O O5 0.305333 0.214246 0.668044
O O6 0.151682 0.335441 0.563983
O O7 0.500000 0.268446 0.000000
O O8 0.658407 0.309347 0.013852
O O9 0.215752 0.566468 0.832615
O O10 0.971915 0.635847 0.708061
O O11 0.500000 0.000000 0.500000
O O12 0.000000 0.000000 0.000000
#
# Coordination Sequence:
#
# PCOD8115605 Si02
#       5
#     8   8   8   4   8
#     4  11  24  42  67  99 140 184 232 278 340 418
#     4  12  24  44  71  99 139 183 231 284 350 417
#     4  12  26  44  69 103 138 180 234 292 344 405
#     4  12  26  46  70  98 137 184 235 280 340 408
#     4  12  25  44  70 102 140 177 232 285 356 404
#
# _framework density 22.827210999999998
#
# number of rings (size 3 to 8) (size 9 to 14) (size 15 to 20)
#    0.000    0.222    0.000   10.667    3.111    1.778 
#    0.000    0.000    0.000    0.000    0.000    0.000 
#    0.000    0.000    0.000    0.000    0.000    0.000 
#
# Total GULP energy -223330.557753 kJ/mol
# GULP energy per Si atom -12407.253208 kJ/mol
# Density = 2.277525 g / cm^3
# Si number density = 22.827211 Si / 1000 Ang^3
#
#
#
# Elastic Constant Matrix: (Units=GPa)
#
#
# Indices 1 2 3 4 5 6 
#
# 1 -209.9488 210.0946 -94.8497 -0.2175 170.8196 -0.0837
# 2 210.0946 27.1397 79.1442 0.0926 -75.2991 0.0348
# 3 -94.8497 79.1442 80.7179 -0.0880 67.2764 -0.0391
# 4 -0.2175 0.0926 -0.0880 30.9536 0.0960 7.3823
# 5 170.8196 -75.2991 67.2764 0.0960 -33.2683 0.0352
# 6 -0.0837 0.0348 -0.0391 7.3823 0.0352 36.7902
#
#
#
# Elastic Compliance Matrix: (Units=1/GPa)
#
#
# Indices 1 2 3 4 5 6 
#
# 1 0.003044 0.001620 -0.002973 -0.000010 0.005953 -0.000001
# 2 0.001620 0.006646 0.000369 0.000011 -0.005978 0.000001
# 3 -0.002973 0.000369 0.008174 0.000000 0.000431 0.000001
# 4 -0.000010 0.000011 0.000000 0.033930 0.000014 -0.006808
# 5 0.005953 -0.005978 0.000431 0.000014 0.014908 0.000003
# 6 -0.000001 0.000001 0.000001 -0.006808 0.000003 0.028547
#
#
# Mechanical properties :
#
#
# Convention : Reuss Voigt Hill
#
# Bulk Modulus (GPa) = 62.90444 31.85411 47.37927
# Shear Modulus (GPa) = 48.77347 -12.87025 17.95161
#
# Velocity S-wave (km/s) = 4.62739 -2.37705 2.80735
# Velocity P-wave (km/s) = 7.49446 2.53987 5.59544
#
# Compressibility (1/GPa) = 0.01589713
#
# Stress axis : x y z
#
# Youngs Moduli (GPa) = 328.50483 150.47734 122.33413
#
# Poissons Ratio (x) = -0.24373 0.36365
# Poissons Ratio (y) = -0.53209 -0.04520
# Poissons Ratio (z) = 0.97652 -0.05560
#
# Static dielectric constant tensor:
#      x y z
#    x 3.962810 0.000040 0.081510 
#    y 0.000040 3.663300 -0.000010 
#    z 0.081510 -0.000010 4.206400 
# 
# 
# High freq. dielectric constant tensor:
#      x y z
#    x 1.914390 0.000000 0.007990 
#    y 0.000000 1.907690 0.000000 
#    z 0.007990 0.000000 1.915780 
# 
# From -- ./inp_files/218604.got.cif
#   From: 2010.06.25/outbox.cif.g09.slc.cpg/sg12_110_cif.got.tgz:218604.got - 2010.06.28 00:19:55.
