data_PCOD8115767
_publ_section_title
;
Structure prediction by ZEFSAII (Michael W. Deem and Ramdas Pophale) SiO2 
 PCOD8115767
Probable space group: C 2/M
;
_chemical_formula_sum "Si O2"
_cell_formula_units_Z 48
_cell_length_a 8.829401
_cell_length_b 18.824941
_cell_length_c 21.103098
_cell_angle_alpha 90.000000
_cell_angle_beta 137.315010
_cell_angle_gamma 90.000000
_cell_volume 2378.043046
_symmetry_space_group_name_H-M "C 2/M"
_symmetry_group_IT_number 12
_symmetry_cell_setting 'monoclinic'
loop_
_space_group_symop_operation_xyz
x,y,z
-x,y,-z
-x,-y,-z
x,-y,z
1/2+x,1/2+y,z
1/2-x,1/2+y,-z
1/2-x,1/2-y,-z
1/2+x,1/2-y,z
loop_
_atom_site_type_symbol
_atom_site_label
_atom_site_fract_x
_atom_site_fract_y
_atom_site_fract_z
Si Si1 0.646040 0.417109 0.403884
Si Si2 0.400881 0.681890 0.035246
Si Si3 0.357372 0.184841 0.240243
Si Si4 0.769583 0.667224 0.750499
Si Si5 0.954719 0.583326 0.383838
Si Si6 0.480419 0.082368 0.068356
O O1 0.603533 0.500000 0.394865
O O2 0.408749 0.379897 0.342418
O O3 0.748560 0.397415 0.366677
O O4 0.815738 0.393936 0.511310
O O5 0.597774 0.670378 0.146009
O O6 0.500000 0.702291 0.000000
O O7 0.250000 0.750000 0.000000
O O8 0.266042 0.608347 0.989113
O O9 0.367674 0.262175 0.274580
O O10 0.513019 0.181520 0.225723
O O11 0.439662 0.125634 0.314164
O O12 0.838551 0.627762 0.836890
O O13 0.953768 0.500000 0.367690
O O14 0.509512 0.000000 0.094821
O O15 0.500000 0.097134 0.000000
#
# Coordination Sequence:
#
# PCOD8115767 Si02
#       6
#     8   8   8   8   8   8
#     4   9  20  42  68  93 130 169 206 260 316 378
#     4  12  23  43  65  90 128 170 209 261 311 373
#     4  12  25  40  65  94 124 171 210 263 317 372
#     4  12  25  42  63  95 129 164 216 259 318 377
#     4   9  21  42  68  97 126 166 213 257 317 378
#     4  11  26  43  64  93 126 167 211 258 314 379
#
# _framework density 20.184664999999999
#
# number of rings (size 3 to 8) (size 9 to 14) (size 15 to 20)
#    0.000    1.167    3.333    3.000    4.667    3.667 
#    0.000    1.667    0.000    0.000    0.000    0.000 
#    0.000    0.000    0.000    0.000    0.000    0.000 
#
# Total GULP energy -297606.476927 kJ/mol
# GULP energy per Si atom -12400.269872 kJ/mol
# Density = 2.013872 g / cm^3
# Si number density = 20.184665 Si / 1000 Ang^3
#
#
#
# Elastic Constant Matrix: (Units=GPa)
#
#
# Indices 1 2 3 4 5 6 
#
# 1 100.8049 51.9218 45.3128 0.0001 0.1338 0.0000
# 2 51.9218 94.1578 55.7531 -0.0002 -6.4113 0.0000
# 3 45.3128 55.7531 129.0591 -0.0001 5.3582 -0.0002
# 4 0.0001 -0.0002 -0.0001 38.6132 0.0001 4.5848
# 5 0.1338 -6.4113 5.3582 0.0001 39.2987 -0.0001
# 6 0.0000 0.0000 -0.0002 4.5848 -0.0001 33.5552
#
#
#
# Elastic Compliance Matrix: (Units=1/GPa)
#
#
# Indices 1 2 3 4 5 6 
#
# 1 0.014321 -0.006718 -0.002090 0.000000 -0.000860 0.000000
# 2 -0.006718 0.017830 -0.005497 0.000000 0.003681 0.000000
# 3 -0.002090 -0.005497 0.010956 0.000000 -0.002383 0.000000
# 4 0.000000 0.000000 0.000000 0.026325 0.000000 -0.003597
# 5 -0.000860 0.003681 -0.002383 0.000000 0.026375 0.000000
# 6 0.000000 0.000000 0.000000 -0.003597 0.000000 0.030293
#
#
# Mechanical properties :
#
#
# Convention : Reuss Voigt Hill
#
# Bulk Modulus (GPa) = 68.97890 69.99967 69.48928
# Shear Modulus (GPa) = 31.33956 33.69571 32.51764
#
# Velocity S-wave (km/s) = 3.94463 4.09023 4.01809
# Velocity P-wave (km/s) = 7.41586 7.55391 7.48520
#
# Compressibility (1/GPa) = 0.01449719
#
# Stress axis : x y z
#
# Youngs Moduli (GPa) = 69.82681 56.08385 91.27518
#
# Poissons Ratio (x) = 0.37677 0.19080
# Poissons Ratio (y) = 0.46909 0.50173
# Poissons Ratio (z) = 0.14596 0.30828
#
# Static dielectric constant tensor:
#      x y z
#    x 3.690530 0.000000 0.101670 
#    y 0.000000 3.661940 0.000000 
#    z 0.101670 0.000000 3.831760 
# 
# 
# High freq. dielectric constant tensor:
#      x y z
#    x 1.787470 0.000000 0.003460 
#    y 0.000000 1.791070 0.000000 
#    z 0.003460 0.000000 1.800980 
# 
# From -- ./inp_files/301834.got.cif
#   From: 2010.06.25/outbox.cif.g09.slc.cpg/sg12_151_cif.got.tgz:301834.got - 2010.06.28 00:19:55.
