data_PCOD8115715
_publ_section_title
;
Structure prediction by ZEFSAII (Michael W. Deem and Ramdas Pophale) SiO2 
 PCOD8115715
Probable space group: C 2/M
;
_chemical_formula_sum "Si O2"
_cell_formula_units_Z 40
_cell_length_a 12.187389
_cell_length_b 29.092963
_cell_length_c 5.056836
_cell_angle_alpha 90.000000
_cell_angle_beta 75.510173
_cell_angle_gamma 90.000000
_cell_volume 1735.957238
_symmetry_space_group_name_H-M "C 2/M"
_symmetry_group_IT_number 12
_symmetry_cell_setting 'monoclinic'
loop_
_space_group_symop_operation_xyz
x,y,z
-x,y,-z
-x,-y,-z
x,-y,z
1/2+x,1/2+y,z
1/2-x,1/2+y,-z
1/2-x,1/2-y,-z
1/2+x,1/2-y,z
loop_
_atom_site_type_symbol
_atom_site_label
_atom_site_fract_x
_atom_site_fract_y
_atom_site_fract_z
Si Si1 0.872655 0.448778 0.169792
Si Si2 0.112980 0.693991 0.099083
Si Si3 0.928972 0.136269 0.308186
Si Si4 0.310210 0.895156 0.708435
Si Si5 0.178149 0.780353 0.351740
O O1 0.819802 0.500000 0.220352
O O2 0.875942 0.425865 0.456355
O O3 0.803495 0.418603 0.000373
O O4 0.000000 0.451702 0.000000
O O5 0.126538 0.654408 0.314067
O O6 0.101670 0.745363 0.223619
O O7 0.232347 0.689583 0.870643
O O8 0.000000 0.683427 0.000000
O O9 0.817778 0.107506 0.317183
O O10 0.902484 0.187017 0.433430
O O11 0.000000 0.110951 0.500000
O O12 0.000000 0.142983 0.000000
O O13 0.250000 0.750000 0.500000
#
# Coordination Sequence:
#
# PCOD8115715 Si02
#       5
#     8   8   8   8   8
#     4  11  25  46  77 110 144 181 218 277 370 449
#     4  11  26  43  66 101 142 186 234 293 351 401
#     4  12  27  46  72  96 137 195 243 288 345 406
#     4  12  24  47  71 105 143 178 235 295 344 424
#     4  11  25  43  64  96 141 189 245 288 336 408
#
# _framework density 23.042043
#
# number of rings (size 3 to 8) (size 9 to 14) (size 15 to 20)
#    0.000    0.600    2.000    5.400    5.600    3.200 
#    0.000    1.000    0.000   12.000    0.000    0.000 
#    0.000    0.000    0.000    0.000    0.000    0.000 
#
# Total GULP energy -248041.459368 kJ/mol
# GULP energy per Si atom -12402.072968 kJ/mol
# Density = 2.298960 g / cm^3
# Si number density = 23.042043 Si / 1000 Ang^3
#
#
#
# Elastic Constant Matrix: (Units=GPa)
#
#
# Indices 1 2 3 4 5 6 
#
# 1 131.3125 38.2449 19.7784 0.0000 24.8676 0.0000
# 2 38.2449 113.0106 40.3430 0.0000 0.5568 0.0000
# 3 19.7784 40.3430 130.7101 0.0000 3.9543 0.0000
# 4 0.0000 0.0000 0.0000 28.9119 0.0000 9.4799
# 5 24.8676 0.5568 3.9543 0.0000 37.9923 0.0000
# 6 0.0000 0.0000 0.0000 9.4799 0.0000 19.4488
#
#
#
# Elastic Compliance Matrix: (Units=1/GPa)
#
#
# Indices 1 2 3 4 5 6 
#
# 1 0.009783 -0.003168 -0.000311 0.000000 -0.006324 0.000000
# 2 -0.003168 0.010972 -0.002974 0.000000 0.002223 0.000000
# 3 -0.000311 -0.002974 0.008635 0.000000 -0.000652 0.000000
# 4 0.000000 0.000000 0.000000 0.041167 0.000000 -0.020066
# 5 -0.006324 0.002223 -0.000652 0.000000 0.030496 0.000000
# 6 0.000000 0.000000 0.000000 -0.020066 0.000000 0.061198
#
#
# Mechanical properties :
#
#
# Convention : Reuss Voigt Hill
#
# Bulk Modulus (GPa) = 60.67057 63.52953 62.10005
# Shear Modulus (GPa) = 27.67750 35.71508 31.69629
#
# Velocity S-wave (km/s) = 3.46956 3.94127 3.71291
# Velocity P-wave (km/s) = 6.51444 6.95288 6.73723
#
# Compressibility (1/GPa) = 0.01648246
#
# Stress axis : x y z
#
# Youngs Moduli (GPa) = 102.22024 91.14286 115.80427
#
# Poissons Ratio (x) = 0.28879 0.03602
# Poissons Ratio (y) = 0.32388 0.34442
# Poissons Ratio (z) = 0.03179 0.27108
#
# Static dielectric constant tensor:
#      x y z
#    x 4.174340 0.000000 0.275910 
#    y 0.000000 4.741900 0.000000 
#    z 0.275910 0.000000 4.358490 
# 
# 
# High freq. dielectric constant tensor:
#      x y z
#    x 1.922300 0.000000 0.011750 
#    y 0.000000 1.891360 0.000000 
#    z 0.011750 0.000000 1.925460 
# 
# From -- ./inp_files/8332.got.cif
#   From: 2010.06.25/outbox.cif.g09.slc.cpg/sg12_5_cif.got.tgz:8332.got - 2010.06.28 00:19:55.
