data_PCOD8115979
_publ_section_title
;
Structure prediction by ZEFSAII (Michael W. Deem and Ramdas Pophale) SiO2 
 PCOD8115979
Probable space group: C 2/M
;
_chemical_formula_sum "Si O2"
_cell_formula_units_Z 56
_cell_length_a 19.752788
_cell_length_b 9.294116
_cell_length_c 23.304636
_cell_angle_alpha 90.000000
_cell_angle_beta 51.203182
_cell_angle_gamma 90.000000
_cell_volume 3334.448694
_symmetry_space_group_name_H-M "C 2/M"
_symmetry_group_IT_number 12
_symmetry_cell_setting 'monoclinic'
loop_
_space_group_symop_operation_xyz
x,y,z
-x,y,-z
-x,-y,-z
x,-y,z
1/2+x,1/2+y,z
1/2-x,1/2+y,-z
1/2-x,1/2-y,-z
1/2+x,1/2-y,z
loop_
_atom_site_type_symbol
_atom_site_label
_atom_site_fract_x
_atom_site_fract_y
_atom_site_fract_z
Si Si1 0.711053 0.839481 0.276812
Si Si2 0.744986 0.169829 0.443145
Si Si3 0.973765 0.338055 0.141898
Si Si4 0.185768 0.662212 0.860802
Si Si5 0.579609 0.337129 0.001429
Si Si6 0.629298 0.659371 0.721405
Si Si7 0.595892 0.828543 0.438607
O O1 0.729728 0.733734 0.213680
O O2 0.793764 0.847336 0.273830
O O3 0.630347 0.779142 0.357463
O O4 0.691522 0.000000 0.263388
O O5 0.750000 0.250000 0.500000
O O6 0.831184 0.208773 0.360614
O O7 0.659730 0.226757 0.454811
O O8 0.739240 0.000000 0.456586
O O9 0.006627 0.500000 0.135557
O O10 0.893957 0.338481 0.140600
O O11 0.944583 0.269684 0.218172
O O12 0.052320 0.244689 0.074049
O O13 0.209315 0.500000 0.866841
O O14 0.160781 0.753734 0.930274
O O15 0.607668 0.500000 0.001484
O O16 0.500000 0.338547 0.000000
O O17 0.587916 0.500000 0.738269
O O18 0.500000 0.764191 0.500000
O O19 0.595602 0.000000 0.439643
#
# Coordination Sequence:
#
# PCOD8115979 Si02
#       7
#     8   8   8   8   8   8   8
#     4   8  13  22  36  51  67  91 125 161 195 234
#     4   9  17  28  43  62  83 108 138 173 211 250
#     4   9  15  21  30  45  64  88 120 157 194 230
#     4   9  15  21  29  43  65  91 120 155 192 231
#     4   9  15  21  29  41  60  89 123 156 189 227
#     4   8  14  24  35  48  68  95 126 157 192 236
#     4   8  14  26  44  63  81 105 140 177 209 245
#
# _framework density 16.79438
#
# number of rings (size 3 to 8) (size 9 to 14) (size 15 to 20)
#    0.000    3.429    0.000    3.000    0.000    5.714 
#    0.000    2.143    0.000    1.714    0.000    0.000 
#    0.000    0.000    0.000    1.286    0.000   16.286 
#
# Total GULP energy -347011.075268 kJ/mol
# GULP energy per Si atom -12393.252688 kJ/mol
# Density = 1.675616 g / cm^3
# Si number density = 16.794380 Si / 1000 Ang^3
#
#
#
# Elastic Constant Matrix: (Units=GPa)
#
#
# Indices 1 2 3 4 5 6 
#
# 1 19.9091 17.2113 30.7176 0.0000 -1.1208 0.0001
# 2 17.2113 119.8724 88.5539 -0.0001 1.3644 0.0002
# 3 30.7176 88.5539 180.4423 0.0000 -3.1145 0.0000
# 4 0.0000 -0.0001 0.0000 30.4009 0.0000 5.5701
# 5 -1.1208 1.3644 -3.1145 0.0000 14.2869 0.0000
# 6 0.0001 0.0002 0.0000 5.5701 0.0000 7.1757
#
#
#
# Elastic Compliance Matrix: (Units=1/GPa)
#
#
# Indices 1 2 3 4 5 6 
#
# 1 0.068548 -0.002040 -0.010612 0.000000 0.003259 -0.000001
# 2 -0.002040 0.013249 -0.006203 0.000000 -0.002777 -0.000001
# 3 -0.010612 -0.006203 0.010428 0.000000 0.002033 0.000000
# 4 0.000000 0.000000 0.000000 0.038348 0.000000 -0.029767
# 5 0.003259 -0.002777 0.002033 0.000000 0.070958 0.000000
# 6 -0.000001 -0.000001 0.000000 -0.029767 0.000000 0.162466
#
#
# Mechanical properties :
#
#
# Convention : Reuss Voigt Hill
#
# Bulk Modulus (GPa) = 18.34331 65.90992 42.12661
# Shear Modulus (GPa) = 11.90822 22.62211 17.26516
#
# Velocity S-wave (km/s) = 2.66571 3.67414 3.20977
# Velocity P-wave (km/s) = 4.51892 7.57162 6.23499
#
# Compressibility (1/GPa) = 0.05451580
#
# Stress axis : x y z
#
# Youngs Moduli (GPa) = 14.58823 75.47825 95.89936
#
# Poissons Ratio (x) = 0.15396 1.01768
# Poissons Ratio (y) = 0.02976 0.59483
# Poissons Ratio (z) = 0.15481 0.46817
#
# Static dielectric constant tensor:
#      x y z
#    x 2.456010 0.000000 -0.121620 
#    y 0.000000 3.217970 0.000000 
#    z -0.121620 0.000000 3.555500 
# 
# 
# High freq. dielectric constant tensor:
#      x y z
#    x 1.552420 0.000000 -0.002320 
#    y 0.000000 1.641720 0.000000 
#    z -0.002320 0.000000 1.668580 
# 
# From -- ./inp_files/319018.got.cif
#   From: 2010.06.25/outbox.cif.g09.slc.cpg/sg12_160_cif.got.tgz:319018.got - 2010.06.28 00:19:55.
