data_PCOD8115489
_publ_section_title
;
Structure prediction by ZEFSAII (Michael W. Deem and Ramdas Pophale) SiO2 
 PCOD8115489
Probable space group: C 2/M
;
_chemical_formula_sum "Si O2"
_cell_formula_units_Z 48
_cell_length_a 10.045322
_cell_length_b 14.304123
_cell_length_c 17.578041
_cell_angle_alpha 90.000000
_cell_angle_beta 98.088465
_cell_angle_gamma 90.000000
_cell_volume 2500.653848
_symmetry_space_group_name_H-M "C 2/M"
_symmetry_group_IT_number 12
_symmetry_cell_setting 'monoclinic'
loop_
_space_group_symop_operation_xyz
x,y,z
-x,y,-z
-x,-y,-z
x,-y,z
1/2+x,1/2+y,z
1/2-x,1/2+y,-z
1/2-x,1/2-y,-z
1/2+x,1/2-y,z
loop_
_atom_site_type_symbol
_atom_site_label
_atom_site_fract_x
_atom_site_fract_y
_atom_site_fract_z
Si Si1 0.453365 0.699761 0.698073
Si Si2 0.161486 0.392010 0.093108
Si Si3 0.128794 0.308291 0.456796
Si Si4 0.524668 0.500000 0.376817
Si Si5 0.723656 0.760086 0.797118
Si Si6 0.776025 0.000000 0.470135
Si Si7 0.353102 0.108465 0.077366
O O1 0.409190 0.765184 0.626199
O O2 0.475873 0.592557 0.674951
O O3 0.586467 0.748616 0.740569
O O4 0.338257 0.702300 0.751359
O O5 0.179186 0.500000 0.113231
O O6 0.248177 0.339707 0.162925
O O7 0.007765 0.360805 0.088856
O O8 0.210942 0.370458 0.010903
O O9 0.250000 0.250000 0.500000
O O10 0.177479 0.413453 0.450338
O O11 0.000000 0.302279 0.500000
O O12 0.390812 0.500000 0.416091
O O13 0.656967 0.500000 0.440839
O O14 0.723076 0.835241 0.864321
O O15 0.339113 0.000000 0.095948
#
# Coordination Sequence:
#
# PCOD8115489 Si02
#       7
#     8   8   8   4   8   4   8
#     4  12  27  41  64  93 131 167 203 262 322 380
#     4   9  19  39  65  91 119 170 214 254 303 373
#     4  12  24  46  69  96 126 167 222 262 313 379
#     4  11  24  44  66  96 125 169 203 264 334 371
#     4  12  23  42  59  96 130 167 204 260 320 375
#     4  11  23  44  74  92 122 165 220 268 308 382
#     4   9  19  39  65  88 124 166 216 256 302 370
#
# _framework density 19.194977999999999
#
# number of rings (size 3 to 8) (size 9 to 14) (size 15 to 20)
#    0.000    1.167    3.333    4.750    2.333    0.000 
#    3.000    0.000    0.000    2.000    0.000    0.000 
#    0.000    0.000    0.000    0.000    0.000    0.000 
#
# Total GULP energy -297645.765642 kJ/mol
# GULP energy per Si atom -12401.906902 kJ/mol
# Density = 1.915129 g / cm^3
# Si number density = 19.194978 Si / 1000 Ang^3
#
#
#
# Elastic Constant Matrix: (Units=GPa)
#
#
# Indices 1 2 3 4 5 6 
#
# 1 104.8049 36.3699 45.8271 0.0000 -16.5577 0.0000
# 2 36.3699 103.9380 43.6791 0.0000 -10.3923 0.0000
# 3 45.8271 43.6791 110.7585 0.0000 -17.1134 0.0000
# 4 0.0000 0.0000 0.0000 51.7556 0.0000 -4.3174
# 5 -16.5577 -10.3923 -17.1134 0.0000 43.9953 0.0000
# 6 0.0000 0.0000 0.0000 -4.3174 0.0000 32.0964
#
#
#
# Elastic Compliance Matrix: (Units=1/GPa)
#
#
# Indices 1 2 3 4 5 6 
#
# 1 0.012478 -0.002522 -0.003761 0.000000 0.002637 0.000000
# 2 -0.002522 0.012085 -0.003647 0.000000 0.000487 0.000000
# 3 -0.003761 -0.003647 0.012417 0.000000 0.002553 0.000000
# 4 0.000000 0.000000 0.000000 0.019541 0.000000 0.002628
# 5 0.002637 0.000487 0.002553 0.000000 0.024830 0.000000
# 6 0.000000 0.000000 0.000000 0.002628 0.000000 0.031510
#
#
# Mechanical properties :
#
#
# Convention : Reuss Voigt Hill
#
# Bulk Modulus (GPa) = 58.40952 63.47262 60.94107
# Shear Modulus (GPa) = 36.11985 38.47781 37.29883
#
# Velocity S-wave (km/s) = 4.34260 4.48211 4.41291
# Velocity P-wave (km/s) = 7.45922 7.74111 7.60147
#
# Compressibility (1/GPa) = 0.01712050
#
# Stress axis : x y z
#
# Youngs Moduli (GPa) = 80.14201 82.74710 80.53179
#
# Poissons Ratio (x) = 0.20870 0.30285
# Poissons Ratio (y) = 0.20213 0.29371
# Poissons Ratio (z) = 0.30139 0.30179
#
# Static dielectric constant tensor:
#      x y z
#    x 3.321670 0.000000 -0.234600 
#    y 0.000000 3.521060 0.000000 
#    z -0.234600 0.000000 3.476030 
# 
# 
# High freq. dielectric constant tensor:
#      x y z
#    x 1.746870 0.000000 -0.001990 
#    y 0.000000 1.758330 0.000000 
#    z -0.001990 0.000000 1.761580 
# 
# From -- ./inp_files/255815.got.cif
#   From: 2010.06.25/outbox.cif.g09.slc.cpg/sg12_128_cif.got.tgz:255815.got - 2010.06.28 00:19:55.
