data_PCOD8115472
_publ_section_title
;
Structure prediction by ZEFSAII (Michael W. Deem and Ramdas Pophale) SiO2 
 PCOD8115472
Probable space group: C 2/M
;
_chemical_formula_sum "Si O2"
_cell_formula_units_Z 40
_cell_length_a 8.418526
_cell_length_b 25.533452
_cell_length_c 15.853256
_cell_angle_alpha 90.000000
_cell_angle_beta 148.753580
_cell_angle_gamma 90.000000
_cell_volume 1767.652625
_symmetry_space_group_name_H-M "C 2/M"
_symmetry_group_IT_number 12
_symmetry_cell_setting 'monoclinic'
loop_
_space_group_symop_operation_xyz
x,y,z
-x,y,-z
-x,-y,-z
x,-y,z
1/2+x,1/2+y,z
1/2-x,1/2+y,-z
1/2-x,1/2-y,-z
1/2+x,1/2-y,z
loop_
_atom_site_type_symbol
_atom_site_label
_atom_site_fract_x
_atom_site_fract_y
_atom_site_fract_z
Si Si1 0.362751 0.200174 0.674627
Si Si2 0.230142 0.706313 0.180879
Si Si3 0.485616 0.000000 0.720336
Si Si4 0.488921 0.500000 0.638762
Si Si5 0.783285 0.891691 0.830231
Si Si6 0.854080 0.904134 0.177135
O O1 0.506741 0.250053 0.692938
O O2 0.453682 0.204713 0.814615
O O3 0.494031 0.147279 0.691292
O O4 0.000000 0.199412 0.500000
O O5 0.388169 0.649978 0.242562
O O6 0.000000 0.718371 0.000000
O O7 0.688307 0.051419 0.819676
O O8 0.269763 0.000000 0.702939
O O9 0.320879 0.000000 0.555189
O O10 0.488179 0.449006 0.696680
O O11 0.964664 0.897207 0.826518
O O12 0.000000 0.866546 0.000000
O O13 0.500000 0.918727 0.000000
#
# Coordination Sequence:
#
# PCOD8115472 Si02
#       6
#     8   8   4   4   8   8
#     4  12  26  44  70 105 140 180 228 286 346 401
#     4  11  23  44  69  99 139 185 231 276 339 409
#     4  11  26  43  70  99 136 181 222 280 342 404
#     4  11  24  45  68  99 142 175 224 283 341 401
#     4  12  25  45  71 100 137 181 229 276 339 410
#     4  11  24  43  71 101 136 181 229 279 335 406
#
# _framework density 22.628881
#
# number of rings (size 3 to 8) (size 9 to 14) (size 15 to 20)
#    0.000    0.600    0.000    9.000    5.600    1.600 
#    0.000    0.000    0.000    0.000    0.000    0.000 
#    0.000    0.000    0.000    0.000    0.000    0.000 
#
# Total GULP energy -248127.863631 kJ/mol
# GULP energy per Si atom -12406.393182 kJ/mol
# Density = 2.257738 g / cm^3
# Si number density = 22.628881 Si / 1000 Ang^3
#
#
#
# Elastic Constant Matrix: (Units=GPa)
#
#
# Indices 1 2 3 4 5 6 
#
# 1 150.3666 36.3228 43.6018 -0.0001 -4.1613 0.0001
# 2 36.3228 162.5444 32.9202 0.0000 11.2872 0.0000
# 3 43.6018 32.9202 82.8184 -0.0002 11.1565 0.0000
# 4 -0.0001 0.0000 -0.0002 18.7304 -0.0001 -7.0084
# 5 -4.1613 11.2872 11.1565 -0.0001 35.2395 0.0000
# 6 0.0001 0.0000 0.0000 -7.0084 0.0000 28.5377
#
#
#
# Elastic Compliance Matrix: (Units=1/GPa)
#
#
# Indices 1 2 3 4 5 6 
#
# 1 0.008235 -0.001170 -0.004232 0.000000 0.002687 0.000000
# 2 -0.001170 0.006920 -0.001899 0.000000 -0.001753 0.000000
# 3 -0.004232 -0.001899 0.015713 0.000000 -0.004866 0.000000
# 4 0.000000 0.000000 0.000000 0.058791 0.000000 0.014438
# 5 0.002687 -0.001753 -0.004866 0.000000 0.030797 0.000000
# 6 0.000000 0.000000 0.000000 0.014438 0.000000 0.038587
#
#
# Mechanical properties :
#
#
# Convention : Reuss Voigt Hill
#
# Bulk Modulus (GPa) = 61.47667 69.04655 65.26161
# Shear Modulus (GPa) = 27.92266 35.36051 31.64158
#
# Velocity S-wave (km/s) = 3.51656 3.95730 3.74342
# Velocity P-wave (km/s) = 6.61170 7.17350 6.89832
#
# Compressibility (1/GPa) = 0.01626633
#
# Stress axis : x y z
#
# Youngs Moduli (GPa) = 121.43978 144.51263 63.64118
#
# Poissons Ratio (x) = 0.16901 0.26935
# Poissons Ratio (y) = 0.14203 0.12083
# Poissons Ratio (z) = 0.51398 0.27438
#
# Static dielectric constant tensor:
#      x y z
#    x 4.298330 0.000000 -0.042380 
#    y 0.000000 4.084810 0.000000 
#    z -0.042380 0.000000 3.984690 
# 
# 
# High freq. dielectric constant tensor:
#      x y z
#    x 1.912800 0.000000 -0.000790 
#    y 0.000000 1.909080 0.000000 
#    z -0.000790 0.000000 1.887460 
# 
# From -- ./inp_files/259366.got.cif
#   From: 2010.06.25/outbox.cif.g09.slc.cpg/sg12_130_cif.got.tgz:259366.got - 2010.06.28 00:19:55.
