data_PCOD8115042
_publ_section_title
;
Structure prediction by ZEFSAII (Michael W. Deem and Ramdas Pophale) SiO2 
 PCOD8115042
Probable space group: C 2/M
;
_chemical_formula_sum "Si O2"
_cell_formula_units_Z 28
_cell_length_a 11.030193
_cell_length_b 19.493565
_cell_length_c 6.634869
_cell_angle_alpha 90.000000
_cell_angle_beta 119.535079
_cell_angle_gamma 90.000000
_cell_volume 1241.232011
_symmetry_space_group_name_H-M "C 2/M"
_symmetry_group_IT_number 12
_symmetry_cell_setting 'monoclinic'
loop_
_space_group_symop_operation_xyz
x,y,z
-x,y,-z
-x,-y,-z
x,-y,z
1/2+x,1/2+y,z
1/2-x,1/2+y,-z
1/2-x,1/2-y,-z
1/2+x,1/2-y,z
loop_
_atom_site_type_symbol
_atom_site_label
_atom_site_fract_x
_atom_site_fract_y
_atom_site_fract_z
Si Si1 0.607470 0.000000 0.904616
Si Si2 0.500000 0.104865 0.500000
Si Si3 0.263626 0.354241 0.524235
Si Si4 0.159692 0.743851 0.128020
Si Si5 0.339142 0.500000 0.413498
O O1 0.585840 0.064069 0.740966
O O2 0.500000 0.000000 0.000000
O O3 0.759402 0.000000 0.133316
O O4 0.393156 0.152848 0.525115
O O5 0.262763 0.310162 0.321104
O O6 0.357617 0.317095 0.770257
O O7 0.303839 0.433367 0.518953
O O8 0.250000 0.750000 0.000000
O O9 0.000000 0.715312 0.000000
O O10 0.500000 0.500000 0.500000
#
# Coordination Sequence:
#
# PCOD8115042 Si02
#       5
#     4   4   8   8   4
#     4  11  22  41  68 102 142 179 233 292 359 436
#     4  11  22  42  74 106 132 185 254 294 358 435
#     4  11  26  45  70 109 141 185 248 301 362 444
#     4  11  27  47  74 101 145 196 244 301 366 437
#     4  12  28  44  72 108 154 192 234 307 378 436
#
# _framework density 22.558229999999998
#
# number of rings (size 3 to 8) (size 9 to 14) (size 15 to 20)
#    0.000    0.857    2.857    2.571   12.000    2.286 
#    0.000    2.143    0.000    0.000    0.000    0.000 
#    0.000    0.000    0.000    0.000    0.000    0.000 
#
# Total GULP energy -173450.481839 kJ/mol
# GULP energy per Si atom -12389.320131 kJ/mol
# Density = 2.250689 g / cm^3
# Si number density = 22.558230 Si / 1000 Ang^3
#
#
#
# Elastic Constant Matrix: (Units=GPa)
#
#
# Indices 1 2 3 4 5 6 
#
# 1 146.9635 15.9022 44.6217 0.0000 -9.0596 0.0000
# 2 15.9022 131.7966 44.3070 0.0000 -13.6664 0.0000
# 3 44.6217 44.3070 141.7974 0.0000 -8.3981 0.0000
# 4 0.0000 0.0000 0.0000 8.5197 0.0000 -4.1158
# 5 -9.0596 -13.6664 -8.3981 0.0000 43.4962 0.0000
# 6 0.0000 0.0000 0.0000 -4.1158 0.0000 18.0580
#
#
#
# Elastic Compliance Matrix: (Units=1/GPa)
#
#
# Indices 1 2 3 4 5 6 
#
# 1 0.007578 -0.000021 -0.002312 0.000000 0.001126 0.000000
# 2 -0.000021 0.008687 -0.002576 0.000000 0.002228 0.000000
# 3 -0.002312 -0.002576 0.008607 0.000000 0.000371 0.000000
# 4 0.000000 0.000000 0.000000 0.131897 0.000000 0.030062
# 5 0.001126 0.002228 0.000371 0.000000 0.023997 0.000000
# 6 0.000000 0.000000 0.000000 0.030062 0.000000 0.062229
#
#
# Mechanical properties :
#
#
# Convention : Reuss Voigt Hill
#
# Bulk Modulus (GPa) = 66.42194 70.02436 68.22315
# Shear Modulus (GPa) = 19.39272 35.06322 27.22797
#
# Velocity S-wave (km/s) = 2.93520 3.94679 3.47797
# Velocity P-wave (km/s) = 6.40279 7.20268 6.81448
#
# Compressibility (1/GPa) = 0.01505527
#
# Stress axis : x y z
#
# Youngs Moduli (GPa) = 131.96320 115.11574 116.18977
#
# Poissons Ratio (x) = 0.00236 0.26858
# Poissons Ratio (y) = 0.00271 0.29930
# Poissons Ratio (z) = 0.30504 0.29654
#
# Static dielectric constant tensor:
#      x y z
#    x 4.034280 0.000000 -0.129460 
#    y 0.000000 4.044890 0.000000 
#    z -0.129460 0.000000 5.054640 
# 
# 
# High freq. dielectric constant tensor:
#      x y z
#    x 1.890310 0.000000 -0.013160 
#    y 0.000000 1.894380 0.000000 
#    z -0.013160 0.000000 1.902270 
# 
# From -- ./inp_files/5833.got.cif
#   From: 2010.06.25/outbox.cif.g09.slc.cpg/sg12_3_cif.got.tgz:5833.got - 2010.06.28 00:19:55.
