data_PCOD8115240
_publ_section_title
;
Structure prediction by ZEFSAII (Michael W. Deem and Ramdas Pophale) SiO2 
 PCOD8115240
Probable space group: C 2/M
;
_chemical_formula_sum "Si O2"
_cell_formula_units_Z 40
_cell_length_a 9.013203
_cell_length_b 15.723372
_cell_length_c 24.011340
_cell_angle_alpha 90.000000
_cell_angle_beta 33.243501
_cell_angle_gamma 90.000000
_cell_volume 1865.430086
_symmetry_space_group_name_H-M "C 2/M"
_symmetry_group_IT_number 12
_symmetry_cell_setting 'monoclinic'
loop_
_space_group_symop_operation_xyz
x,y,z
-x,y,-z
-x,-y,-z
x,-y,z
1/2+x,1/2+y,z
1/2-x,1/2+y,-z
1/2-x,1/2-y,-z
1/2+x,1/2-y,z
loop_
_atom_site_type_symbol
_atom_site_label
_atom_site_fract_x
_atom_site_fract_y
_atom_site_fract_z
Si Si1 0.252343 0.669449 0.038472
Si Si2 0.299534 0.593759 0.916356
Si Si3 0.206201 0.163618 0.706247
Si Si4 0.570938 0.000000 0.610915
Si Si5 0.870261 0.000000 0.628931
Si Si6 0.819935 0.163318 0.721965
O O1 0.332124 0.590849 0.972937
O O2 0.500000 0.682476 0.000000
O O3 0.250000 0.750000 0.000000
O O4 0.971895 0.654465 0.157991
O O5 0.349262 0.500000 0.875618
O O6 0.496619 0.657980 0.823174
O O7 0.000000 0.627705 0.000000
O O8 0.411187 0.084862 0.643536
O O9 0.353647 0.253366 0.672089
O O10 0.055040 0.165167 0.694539
O O11 0.626408 0.000000 0.660084
O O12 0.846871 0.000000 0.491015
O O13 0.854270 0.917318 0.671950
#
# Coordination Sequence:
#
# PCOD8115240 Si02
#       6
#     8   8   8   4   4   8
#     4  12  24  38  61  95 141 183 221 270 327 399
#     4  11  23  39  62  98 142 187 228 276 336 409
#     4  12  24  43  73 103 139 190 230 286 347 417
#     4  11  27  53  77  97 135 175 232 307 366 409
#     4  11  29  51  73 105 133 174 236 302 358 421
#     4  12  26  43  70 107 142 184 237 280 344 421
#
# _framework density 21.442775999999999
#
# number of rings (size 3 to 8) (size 9 to 14) (size 15 to 20)
#    0.000    0.400    5.000    3.600    4.200    2.800 
#    0.000    0.000    0.000    0.000    0.000    0.000 
#    0.000    0.000    0.000    0.000    0.000    0.000 
#
# Total GULP energy -247956.749742 kJ/mol
# GULP energy per Si atom -12397.837487 kJ/mol
# Density = 2.139397 g / cm^3
# Si number density = 21.442776 Si / 1000 Ang^3
#
#
#
# Elastic Constant Matrix: (Units=GPa)
#
#
# Indices 1 2 3 4 5 6 
#
# 1 212.5791 77.4745 51.5610 -0.0907 -7.6784 0.0434
# 2 77.4745 164.0798 50.0868 -0.2214 -0.3391 0.0216
# 3 51.5610 50.0868 84.2676 -0.1196 2.6795 0.1740
# 4 -0.0907 -0.2214 -0.1196 39.8556 -0.0473 -6.3535
# 5 -7.6784 -0.3391 2.6795 -0.0473 32.8485 -0.0433
# 6 0.0434 0.0216 0.1740 -6.3535 -0.0433 43.4487
#
#
#
# Elastic Compliance Matrix: (Units=1/GPa)
#
#
# Indices 1 2 3 4 5 6 
#
# 1 0.006157 -0.002123 -0.002557 -0.000003 0.001626 0.000006
# 2 -0.002123 0.008184 -0.003561 0.000033 -0.000121 0.000017
# 3 -0.002557 -0.003561 0.015609 0.000010 -0.001908 -0.000059
# 4 -0.000003 0.000033 0.000010 0.025690 0.000041 0.003757
# 5 0.001626 -0.000121 -0.001908 0.000041 0.030977 0.000043
# 6 0.000006 0.000017 -0.000059 0.003757 0.000043 0.023565
#
#
# Mechanical properties :
#
#
# Convention : Reuss Voigt Hill
#
# Bulk Modulus (GPa) = 74.25627 91.01902 82.63765
# Shear Modulus (GPa) = 38.12301 42.01750 40.07026
#
# Velocity S-wave (km/s) = 4.22108 4.43145 4.32754
# Velocity P-wave (km/s) = 7.64604 8.28994 7.97449
#
# Compressibility (1/GPa) = 0.01346688
#
# Stress axis : x y z
#
# Youngs Moduli (GPa) = 162.42076 122.18836 64.06518
#
# Poissons Ratio (x) = 0.25943 0.16381
# Poissons Ratio (y) = 0.34486 0.22816
# Poissons Ratio (z) = 0.41530 0.43516
#
# Static dielectric constant tensor:
#      x y z
#    x 4.702640 -0.001700 0.293960 
#    y -0.001700 4.224230 -0.001580 
#    z 0.293960 -0.001580 3.983050 
# 
# 
# High freq. dielectric constant tensor:
#      x y z
#    x 1.859680 0.000000 0.001170 
#    y 0.000000 1.862240 -0.000020 
#    z 0.001170 -0.000020 1.834350 
# 
# From -- ./inp_files/333467.got.cif
#   From: 2010.06.25/outbox.cif.g09.slc.cpg/sg12_167_cif.got.tgz:333467.got - 2010.06.28 00:19:55.
