data_PCOD8115104
_publ_section_title
;
Structure prediction by ZEFSAII (Michael W. Deem and Ramdas Pophale) SiO2 
 PCOD8115104
Probable space group: C 2/M
;
_chemical_formula_sum "Si O2"
_cell_formula_units_Z 40
_cell_length_a 15.966753
_cell_length_b 15.042996
_cell_length_c 11.447437
_cell_angle_alpha 90.000000
_cell_angle_beta 46.525860
_cell_angle_gamma 90.000000
_cell_volume 1995.296054
_symmetry_space_group_name_H-M "C 2/M"
_symmetry_group_IT_number 12
_symmetry_cell_setting 'monoclinic'
loop_
_space_group_symop_operation_xyz
x,y,z
-x,y,-z
-x,-y,-z
x,-y,z
1/2+x,1/2+y,z
1/2-x,1/2+y,-z
1/2-x,1/2-y,-z
1/2+x,1/2-y,z
loop_
_atom_site_type_symbol
_atom_site_label
_atom_site_fract_x
_atom_site_fract_y
_atom_site_fract_z
Si Si1 0.114922 0.500000 0.227933
Si Si2 0.793220 0.150688 0.458394
Si Si3 0.628149 0.601619 0.369773
Si Si4 0.846543 0.500000 0.536263
Si Si5 0.506886 0.601622 0.122450
Si Si6 0.764025 0.853813 0.971491
O O1 0.164773 0.500000 0.312219
O O2 0.977170 0.500000 0.365919
O O3 0.153337 0.411550 0.118933
O O4 0.750000 0.250000 0.500000
O O5 0.797745 0.112753 0.584423
O O6 0.713994 0.088954 0.453208
O O7 0.923092 0.156492 0.286064
O O8 0.500000 0.647420 0.500000
O O9 0.606134 0.500000 0.360417
O O10 0.708284 0.639317 0.191402
O O11 0.463407 0.500000 0.162970
O O12 0.635052 0.607188 0.046273
O O13 0.500000 0.642841 0.000000
O O14 0.750000 0.750000 0.000000
#
# Coordination Sequence:
#
# PCOD8115104 Si02
#       6
#     4   8   8   4   8   8
#     4  11  26  48  69  94 136 182 222 271 332 399
#     4  12  26  43  67 103 134 173 224 273 333 395
#     4  11  22  44  70  97 134 175 219 278 334 393
#     4  11  26  48  69  94 136 182 222 271 332 399
#     4  11  22  43  71  96 127 171 227 280 322 381
#     4  12  26  43  67 103 134 173 224 273 333 395
#
# _framework density 20.047149999999998
#
# number of rings (size 3 to 8) (size 9 to 14) (size 15 to 20)
#    0.000    0.600    6.000    1.200    8.400    0.000 
#    0.000    2.000    0.000    0.000    0.000    0.000 
#    0.000    0.000    0.000    0.000    0.000    0.000 
#
# Total GULP energy -248034.355234 kJ/mol
# GULP energy per Si atom -12401.717762 kJ/mol
# Density = 2.000152 g / cm^3
# Si number density = 20.047150 Si / 1000 Ang^3
#
#
#
# Elastic Constant Matrix: (Units=GPa)
#
#
# Indices 1 2 3 4 5 6 
#
# 1 77.7329 6.3863 32.0111 0.0000 13.9973 0.0000
# 2 6.3863 125.5150 42.3653 0.0000 -1.3438 0.0000
# 3 32.0111 42.3653 145.9090 0.0000 16.3693 0.0000
# 4 0.0000 0.0000 0.0000 24.2217 0.0000 1.6772
# 5 13.9973 -1.3438 16.3693 0.0000 41.1177 0.0000
# 6 0.0000 0.0000 0.0000 1.6772 0.0000 22.7119
#
#
#
# Elastic Compliance Matrix: (Units=1/GPa)
#
#
# Indices 1 2 3 4 5 6 
#
# 1 0.014719 0.000170 -0.002844 0.000000 -0.003873 0.000000
# 2 0.000170 0.008909 -0.002774 0.000000 0.001338 0.000000
# 3 -0.002844 -0.002774 0.008567 0.000000 -0.002533 0.000000
# 4 0.000000 0.000000 0.000000 0.041498 0.000000 -0.003065
# 5 -0.003873 0.001338 -0.002533 0.000000 0.026691 0.000000
# 6 0.000000 0.000000 0.000000 -0.003065 0.000000 0.044256
#
#
# Mechanical properties :
#
#
# Convention : Reuss Voigt Hill
#
# Bulk Modulus (GPa) = 46.95163 56.74249 51.84706
# Shear Modulus (GPa) = 30.74331 35.50319 33.12325
#
# Velocity S-wave (km/s) = 3.92031 4.21287 4.06922
# Velocity P-wave (km/s) = 6.63047 7.21321 6.92797
#
# Compressibility (1/GPa) = 0.02129852
#
# Stress axis : x y z
#
# Youngs Moduli (GPa) = 67.93843 112.24312 116.72411
#
# Poissons Ratio (x) = -0.01903 0.33196
# Poissons Ratio (y) = -0.01152 0.32381
# Poissons Ratio (z) = 0.19322 0.31138
#
# Static dielectric constant tensor:
#      x y z
#    x 3.620770 0.000000 0.047760 
#    y 0.000000 5.551440 0.000000 
#    z 0.047760 0.000000 3.843330 
# 
# 
# High freq. dielectric constant tensor:
#      x y z
#    x 1.785810 0.000000 0.008950 
#    y 0.000000 1.773800 0.000000 
#    z 0.008950 0.000000 1.802950 
# 
# From -- ./inp_files/143379.got.cif
#   From: 2010.06.25/outbox.cif.g09.slc.cpg/sg12_72_cif.got.tgz:143379.got - 2010.06.28 00:19:55.
