data_PCOD8115005
_publ_section_title
;
Structure prediction by ZEFSAII (Michael W. Deem and Ramdas Pophale) SiO2 
 PCOD8115005
Probable space group: C 2/M
;
_chemical_formula_sum "Si O2"
_cell_formula_units_Z 48
_cell_length_a 19.952515
_cell_length_b 17.624179
_cell_length_c 17.369648
_cell_angle_alpha 90.000000
_cell_angle_beta 19.766791
_cell_angle_gamma 90.000000
_cell_volume 2065.672938
_symmetry_space_group_name_H-M "C 2/M"
_symmetry_group_IT_number 12
_symmetry_cell_setting 'monoclinic'
loop_
_space_group_symop_operation_xyz
x,y,z
-x,y,-z
-x,-y,-z
x,-y,z
1/2+x,1/2+y,z
1/2-x,1/2+y,-z
1/2-x,1/2-y,-z
1/2+x,1/2-y,z
loop_
_atom_site_type_symbol
_atom_site_label
_atom_site_fract_x
_atom_site_fract_y
_atom_site_fract_z
Si Si1 0.227563 0.148933 0.246477
Si Si2 0.396202 0.347363 0.359472
Si Si3 0.786153 0.185512 0.195617
Si Si4 0.105501 0.300730 0.551888
Si Si5 0.900995 0.414257 0.208819
Si Si6 0.720492 0.087872 0.120582
O O1 0.259828 0.234341 0.179891
O O2 0.317666 0.143314 0.234843
O O3 0.000000 0.122326 0.500000
O O4 0.358856 0.096822 0.046277
O O5 0.318364 0.311794 0.363373
O O6 0.470267 0.282456 0.339236
O O7 0.209597 0.395140 0.592774
O O8 0.575988 0.403180 0.146678
O O9 0.626674 0.191014 0.437090
O O10 0.742325 0.117330 0.184548
O O11 0.000000 0.171968 0.000000
O O12 0.945084 0.364891 0.747388
O O13 0.854490 0.500000 0.234389
O O14 0.659312 0.000000 0.189103
#
# Coordination Sequence:
#
# PCOD8115005 Si02
#       6
#     8   8   8   8   8   8
#     4  11  22  40  68  96 133 177 230 281 335 409
#     4  11  24  46  71 100 138 185 228 281 351 423
#     4  12  22  46  73 100 133 183 239 290 342 406
#     4  11  24  45  73 100 133 181 237 287 339 418
#     4  11  24  41  64  99 138 174 225 288 349 411
#     4  12  28  45  71 107 143 182 234 295 355 412
#
# _framework density 23.236979000000002
#
# number of rings (size 3 to 8) (size 9 to 14) (size 15 to 20)
#    0.000    0.667    5.000    3.500    2.333    5.667 
#    0.000    0.000    0.000    0.000    0.000    0.000 
#    0.000    0.000    0.000    0.000    0.000    0.000 
#
# Total GULP energy -297586.919344 kJ/mol
# GULP energy per Si atom -12399.454973 kJ/mol
# Density = 2.318409 g / cm^3
# Si number density = 23.236979 Si / 1000 Ang^3
#
#
#
# Elastic Constant Matrix: (Units=GPa)
#
#
# Indices 1 2 3 4 5 6 
#
# 1 58.7700 24.8841 44.1995 -0.0654 10.2301 0.0486
# 2 24.8841 135.6687 48.5837 -0.1206 4.1752 0.1168
# 3 44.1995 48.5837 132.0099 -0.0671 -1.4979 0.0955
# 4 -0.0654 -0.1206 -0.0671 31.2600 0.0807 1.6293
# 5 10.2301 4.1752 -1.4979 0.0807 39.2740 -0.0676
# 6 0.0486 0.1168 0.0955 1.6293 -0.0676 23.1907
#
#
#
# Elastic Compliance Matrix: (Units=1/GPa)
#
#
# Indices 1 2 3 4 5 6 
#
# 1 0.024643 -0.001540 -0.007758 0.000048 -0.006551 -0.000034
# 2 -0.001540 0.008627 -0.002666 0.000028 -0.000618 -0.000033
# 3 -0.007758 -0.002666 0.011185 -0.000009 0.002731 -0.000008
# 4 0.000048 0.000028 -0.000009 0.032108 -0.000086 -0.002256
# 5 -0.006551 -0.000618 0.002731 -0.000086 0.027339 0.000091
# 6 -0.000034 -0.000033 -0.000008 -0.002256 0.000091 0.043280
#
#
# Mechanical properties :
#
#
# Convention : Reuss Voigt Hill
#
# Bulk Modulus (GPa) = 48.71950 62.42036 55.56993
# Shear Modulus (GPa) = 28.09724 32.66371 30.38047
#
# Velocity S-wave (km/s) = 3.48107 3.75330 3.61975
# Velocity P-wave (km/s) = 6.09664 6.76046 6.43712
#
# Compressibility (1/GPa) = 0.02052566
#
# Stress axis : x y z
#
# Youngs Moduli (GPa) = 40.57959 115.91121 89.40375
#
# Poissons Ratio (x) = 0.17850 0.69364
# Poissons Ratio (y) = 0.06249 0.23839
# Poissons Ratio (z) = 0.31484 0.30908
#
# Static dielectric constant tensor:
#      x y z
#    x 3.946450 -0.000120 0.052590 
#    y -0.000120 3.886100 0.000270 
#    z 0.052590 0.000270 4.486840 
# 
# 
# High freq. dielectric constant tensor:
#      x y z
#    x 1.904790 -0.000010 0.001120 
#    y -0.000010 1.902870 0.000020 
#    z 0.001120 0.000020 1.938240 
# 
# From -- ./inp_files/285330.got.cif
#   From: 2010.06.25/outbox.cif.g09.slc.cpg/sg12_143_cif.got.tgz:285330.got - 2010.06.28 00:19:55.
