data_PCOD8115834
_publ_section_title
;
Structure prediction by ZEFSAII (Michael W. Deem and Ramdas Pophale) SiO2 
 PCOD8115834
Probable space group: C 2/M
;
_chemical_formula_sum "Si O2"
_cell_formula_units_Z 32
_cell_length_a 9.818275
_cell_length_b 17.286496
_cell_length_c 7.351883
_cell_angle_alpha 90.000000
_cell_angle_beta 95.146730
_cell_angle_gamma 90.000000
_cell_volume 1242.757050
_symmetry_space_group_name_H-M "C 2/M"
_symmetry_group_IT_number 12
_symmetry_cell_setting 'monoclinic'
loop_
_space_group_symop_operation_xyz
x,y,z
-x,y,-z
-x,-y,-z
x,-y,z
1/2+x,1/2+y,z
1/2-x,1/2+y,-z
1/2-x,1/2-y,-z
1/2+x,1/2-y,z
loop_
_atom_site_type_symbol
_atom_site_label
_atom_site_fract_x
_atom_site_fract_y
_atom_site_fract_z
Si Si1 0.316693 0.090983 0.019082
Si Si2 0.018580 0.318457 0.704042
Si Si3 0.125576 0.833592 0.283798
Si Si4 0.322482 0.329172 0.310304
O O1 0.458259 0.115865 0.139573
O O2 0.190991 0.121783 0.124009
O O3 0.315168 0.000000 0.001285
O O4 0.299347 0.129259 0.817528
O O5 0.158764 0.264866 0.721421
O O6 0.000000 0.353793 0.500000
O O7 0.889146 0.261821 0.737619
O O8 0.204843 0.850239 0.482179
O O9 0.969829 0.865368 0.274089
#
# Coordination Sequence:
#
# PCOD8115834 Si02
#       4
#     8   8   8   8
#     4  12  22  33  60  91 113 144 184 234 294 331
#     4   8  19  39  56  81 112 150 192 231 267 334
#     4   8  19  38  56  83 111 152 188 232 270 333
#     4   8  18  38  55  82 113 149 189 231 267 336
#
# _framework density 25.749200999999999
#
# number of rings (size 3 to 8) (size 9 to 14) (size 15 to 20)
#    1.500    1.500    0.000    1.500    0.000    7.500 
#    0.000    2.500    0.000    0.000    0.000    8.750 
#    0.000    0.000    0.000    0.000    0.000    0.000 
#
# Total GULP energy -198355.101684 kJ/mol
# GULP energy per Si atom -12397.193855 kJ/mol
# Density = 2.569059 g / cm^3
# Si number density = 25.749201 Si / 1000 Ang^3
#
#
#
# Elastic Constant Matrix: (Units=GPa)
#
#
# Indices 1 2 3 4 5 6 
#
# 1 82.6248 31.3860 48.8849 0.0000 17.8417 0.0000
# 2 31.3860 139.6265 101.0745 0.0000 13.4692 0.0000
# 3 48.8849 101.0745 221.4765 0.0000 24.7052 0.0000
# 4 0.0000 0.0000 0.0000 11.5070 0.0000 7.4992
# 5 17.8417 13.4692 24.7052 0.0000 31.0052 0.0000
# 6 0.0000 0.0000 0.0000 7.4992 0.0000 24.6217
#
#
#
# Elastic Compliance Matrix: (Units=1/GPa)
#
#
# Indices 1 2 3 4 5 6 
#
# 1 0.015222 -0.001323 -0.002023 0.000000 -0.006573 0.000000
# 2 -0.001323 0.010830 -0.004621 0.000000 -0.000261 0.000000
# 3 -0.002023 -0.004621 0.007372 0.000000 -0.002703 0.000000
# 4 0.000000 0.000000 0.000000 0.108426 0.000000 -0.033024
# 5 -0.006573 -0.000261 -0.002703 0.000000 0.038302 0.000000
# 6 0.000000 0.000000 0.000000 -0.033024 0.000000 0.050673
#
#
# Mechanical properties :
#
#
# Convention : Reuss Voigt Hill
#
# Bulk Modulus (GPa) = 57.17875 89.60208 73.39042
# Shear Modulus (GPa) = 19.79508 30.91894 25.35701
#
# Velocity S-wave (km/s) = 2.77567 3.46898 3.14151
# Velocity P-wave (km/s) = 5.70322 7.13573 6.45931
#
# Compressibility (1/GPa) = 0.01748901
#
# Stress axis : x y z
#
# Youngs Moduli (GPa) = 65.69638 92.33743 135.64810
#
# Poissons Ratio (x) = 0.12220 0.27437
# Poissons Ratio (y) = 0.08694 0.62685
# Poissons Ratio (z) = 0.13288 0.42671
#
# Static dielectric constant tensor:
#      x y z
#    x 5.287590 0.000000 0.328850 
#    y 0.000000 3.854410 0.000000 
#    z 0.328850 0.000000 4.618690 
# 
# 
# High freq. dielectric constant tensor:
#      x y z
#    x 2.112530 0.000000 0.010750 
#    y 0.000000 1.955330 0.000000 
#    z 0.010750 0.000000 2.041360 
# 
# From -- ./inp_files/48104.got.cif
#   From: 2010.06.25/outbox.cif.g09.slc.cpg/sg12_25_cif.got.tgz:48104.got - 2010.06.28 00:19:55.
