data_PCOD8115863
_publ_section_title
;
Structure prediction by ZEFSAII (Michael W. Deem and Ramdas Pophale) SiO2 
 PCOD8115863
Probable space group: C 2/M
;
_chemical_formula_sum "Si O2"
_cell_formula_units_Z 48
_cell_length_a 26.914101
_cell_length_b 8.858833
_cell_length_c 20.306267
_cell_angle_alpha 90.000000
_cell_angle_beta 33.869496
_cell_angle_gamma 90.000000
_cell_volume 2698.223816
_symmetry_space_group_name_H-M "C 2/M"
_symmetry_group_IT_number 12
_symmetry_cell_setting 'monoclinic'
loop_
_space_group_symop_operation_xyz
x,y,z
-x,y,-z
-x,-y,-z
x,-y,z
1/2+x,1/2+y,z
1/2-x,1/2+y,-z
1/2-x,1/2-y,-z
1/2+x,1/2-y,z
loop_
_atom_site_type_symbol
_atom_site_label
_atom_site_fract_x
_atom_site_fract_y
_atom_site_fract_z
Si Si1 0.977262 0.329690 0.771117
Si Si2 0.666282 0.174725 0.399175
Si Si3 0.705765 0.324630 0.227969
Si Si4 0.174948 0.679128 0.537851
Si Si5 0.462363 0.167508 0.632472
Si Si6 0.195936 0.822490 0.999462
O O1 0.964682 0.500000 0.811831
O O2 0.958474 0.326064 0.714822
O O3 0.908370 0.219894 0.883327
O O4 0.078224 0.271986 0.672587
O O5 0.723787 0.269045 0.282947
O O6 0.687114 0.236987 0.449431
O O7 0.561858 0.197904 0.497179
O O8 0.692797 0.000000 0.365030
O O9 0.727695 0.500000 0.197528
O O10 0.602627 0.294276 0.324353
O O11 0.768203 0.232891 0.109884
O O12 0.181518 0.500000 0.531267
O O13 0.250000 0.750000 0.500000
O O14 0.430931 0.000000 0.643975
O O15 0.208205 0.000000 0.991544
O O16 0.250000 0.750000 0.000000
#
# Coordination Sequence:
#
# PCOD8115863 Si02
#       6
#     8   8   8   8   8   8
#     4   9  18  34  54  78 107 141 180 218 260 313
#     4   9  19  35  52  74 104 141 178 214 266 320
#     4  12  23  32  47  74 107 144 180 218 261 308
#     4   9  19  36  60  85 108 137 172 218 273 321
#     4   9  17  31  51  71 101 143 178 213 259 310
#     4  12  23  35  52  75 106 146 184 220 259 310
#
# _framework density 17.789480999999999
#
# number of rings (size 3 to 8) (size 9 to 14) (size 15 to 20)
#    0.000    2.000    1.667    5.500    0.000    4.000 
#    0.000    3.333    0.000    1.000    0.000    7.000 
#    0.000    0.000    0.000    0.000    0.000    0.000 
#
# Total GULP energy -297581.790399 kJ/mol
# GULP energy per Si atom -12399.241267 kJ/mol
# Density = 1.774899 g / cm^3
# Si number density = 17.789481 Si / 1000 Ang^3
#
#
#
# Elastic Constant Matrix: (Units=GPa)
#
#
# Indices 1 2 3 4 5 6 
#
# 1 77.2943 38.6798 55.7171 -0.0035 -11.3449 0.0017
# 2 38.6798 102.9947 57.1760 -0.0164 4.0679 0.0085
# 3 55.7171 57.1760 125.6593 -0.0056 11.8024 0.0036
# 4 -0.0035 -0.0164 -0.0056 29.6314 0.0030 -0.4169
# 5 -11.3449 4.0679 11.8024 0.0030 18.2069 -0.0014
# 6 0.0017 0.0085 0.0036 -0.4169 -0.0014 28.0526
#
#
#
# Elastic Compliance Matrix: (Units=1/GPa)
#
#
# Indices 1 2 3 4 5 6 
#
# 1 0.028883 -0.004533 -0.013342 -0.000004 0.027659 0.000003
# 2 -0.004533 0.013719 -0.003918 0.000007 -0.003350 -0.000003
# 3 -0.013342 -0.003918 0.017415 0.000001 -0.018727 -0.000001
# 4 -0.000004 0.000007 0.000001 0.033755 -0.000011 0.000502
# 5 0.027659 -0.003350 -0.018727 -0.000011 0.085047 0.000006
# 6 0.000003 -0.000003 -0.000001 0.000502 0.000006 0.035655
#
#
# Mechanical properties :
#
#
# Convention : Reuss Voigt Hill
#
# Bulk Modulus (GPa) = 60.85645 67.67713 64.26679
# Shear Modulus (GPa) = 18.97274 25.46986 22.22130
#
# Velocity S-wave (km/s) = 3.26930 3.78794 3.53813
# Velocity P-wave (km/s) = 6.96668 7.56685 7.27296
#
# Compressibility (1/GPa) = 0.01643211
#
# Stress axis : x y z
#
# Youngs Moduli (GPa) = 34.62244 72.89333 57.42062
#
# Poissons Ratio (x) = 0.33041 0.76611
# Poissons Ratio (y) = 0.15694 0.22495
# Poissons Ratio (z) = 0.46193 0.28557
#
# Static dielectric constant tensor:
#      x y z
#    x 3.989710 -0.000040 -0.243710 
#    y -0.000040 3.217340 0.000030 
#    z -0.243710 0.000030 3.677670 
# 
# 
# High freq. dielectric constant tensor:
#      x y z
#    x 1.658660 0.000000 0.016060 
#    y 0.000000 1.681260 0.000000 
#    z 0.016060 0.000000 1.692920 
# 
# From -- ./inp_files/287949.got.cif
#   From: 2010.06.25/outbox.cif.g09.slc.cpg/sg12_144_cif.got.tgz:287949.got - 2010.06.28 00:19:55.
