data_PCOD8115991
_publ_section_title
;
Structure prediction by ZEFSAII (Michael W. Deem and Ramdas Pophale) SiO2 
 PCOD8115991
Probable space group: C 2/M
;
_chemical_formula_sum "Si O2"
_cell_formula_units_Z 64
_cell_length_a 29.907675
_cell_length_b 15.027150
_cell_length_c 18.037464
_cell_angle_alpha 90.000000
_cell_angle_beta 146.000529
_cell_angle_gamma 90.000000
_cell_volume 4533.049463
_symmetry_space_group_name_H-M "C 2/M"
_symmetry_group_IT_number 12
_symmetry_cell_setting 'monoclinic'
loop_
_space_group_symop_operation_xyz
x,y,z
-x,y,-z
-x,-y,-z
x,-y,z
1/2+x,1/2+y,z
1/2-x,1/2+y,-z
1/2-x,1/2-y,-z
1/2+x,1/2-y,z
loop_
_atom_site_type_symbol
_atom_site_label
_atom_site_fract_x
_atom_site_fract_y
_atom_site_fract_z
Si Si1 0.875703 0.605656 0.852192
Si Si2 0.282775 0.598452 0.148812
Si Si3 0.796971 0.898711 0.341921
Si Si4 0.899195 0.750000 0.298389
Si Si5 0.577923 0.750000 0.500000
Si Si6 0.976487 0.394344 0.852190
Si Si7 0.366038 0.098452 0.148813
Si Si8 0.955050 0.601289 0.658078
O O1 0.873601 0.500000 0.854986
O O2 0.784421 0.640426 0.733179
O O3 0.909581 0.636735 0.819162
O O4 0.936049 0.641146 0.000001
O O5 0.306505 0.500000 0.154034
O O6 0.278388 0.601594 0.230292
O O7 0.349217 0.663619 0.208145
O O8 0.196349 0.626976 1.000000
O O9 0.872027 0.834117 0.463298
O O10 0.817089 0.000000 0.396280
O O11 0.895044 0.727013 0.379660
O O12 0.858929 0.663618 0.208147
O O13 0.984616 0.772988 0.379661
O O14 0.591271 0.834117 0.463299
O O15 0.981384 0.500000 0.854985
O O16 0.948755 0.359575 0.733176
O O17 0.451905 0.101595 0.230290
O O18 0.347531 0.000000 0.154037
O O19 0.920809 0.500000 0.603719
#
# Coordination Sequence:
#
# PCOD8115991 Si02
#       8
#     8   8   8   8   8   8   8   8
#     4   8  13  22  38  59  79  96 114 141 182 226
#     4   9  16  25  39  57  73  92 120 153 189 223
#     4   9  16  26  39  54  75 100 123 149 179 213
#     4   9  17  28  38  50  73  99 124 156 184 209
#     4   9  18  28  37  52  72 100 133 152 172 211
#     4   8  13  22  38  59  79  96 114 141 182 226
#     4   9  16  25  39  57  73  92 120 153 189 223
#     4   9  16  26  39  54  75 100 123 149 179 213
#
# _framework density 14.118531000000001
#
# number of rings (size 3 to 8) (size 9 to 14) (size 15 to 20)
#    0.000    3.250    0.000    1.875    0.000    4.000 
#    0.000    5.625    0.000    0.000    0.000    0.000 
#    0.000    0.000    0.000    2.750    0.000    0.250 
#
# Total GULP energy -396481.503791 kJ/mol
# GULP energy per Si atom -12390.046993 kJ/mol
# Density = 1.408640 g / cm^3
# Si number density = 14.118531 Si / 1000 Ang^3
#
#
#
# Elastic Constant Matrix: (Units=GPa)
#
#
# Indices 1 2 3 4 5 6 
#
# 1 61.4584 37.9606 25.0607 0.0000 0.3316 0.0000
# 2 37.9606 68.4916 46.9765 0.0000 -0.2764 0.0000
# 3 25.0607 46.9765 64.7543 0.0000 -0.4307 0.0000
# 4 0.0000 0.0000 0.0000 19.1906 0.0000 -0.1900
# 5 0.3316 -0.2764 -0.4307 0.0000 12.8602 0.0000
# 6 0.0000 0.0000 0.0000 -0.1900 0.0000 13.0186
#
#
#
# Elastic Compliance Matrix: (Units=1/GPa)
#
#
# Indices 1 2 3 4 5 6 
#
# 1 0.024769 -0.014237 0.000736 0.000000 -0.000920 0.000000
# 2 -0.014237 0.037242 -0.021505 0.000000 0.000447 0.000000
# 3 0.000736 -0.021505 0.030763 0.000000 0.000549 0.000000
# 4 0.000000 0.000000 0.000000 0.052116 0.000000 0.000761
# 5 -0.000920 0.000447 0.000549 0.000000 0.077811 0.000000
# 6 0.000000 0.000000 0.000000 0.000761 0.000000 0.076824
#
#
# Mechanical properties :
#
#
# Convention : Reuss Voigt Hill
#
# Bulk Modulus (GPa) = 43.93074 46.07776 45.00425
# Shear Modulus (GPa) = 13.25821 14.66100 13.95960
#
# Velocity S-wave (km/s) = 3.06774 3.22595 3.14784
# Velocity P-wave (km/s) = 6.61296 6.82517 6.71990
#
# Compressibility (1/GPa) = 0.02276311
#
# Stress axis : x y z
#
# Youngs Moduli (GPa) = 40.37228 26.85128 32.50683
#
# Poissons Ratio (x) = 0.38227 -0.02392
# Poissons Ratio (y) = 0.57476 0.69906
# Poissons Ratio (z) = -0.02971 0.57743
#
# Static dielectric constant tensor:
#      x y z
#    x 2.844780 0.000000 0.000310 
#    y 0.000000 3.271830 0.000000 
#    z 0.000310 0.000000 2.834740 
# 
# 
# High freq. dielectric constant tensor:
#      x y z
#    x 1.530900 0.000000 -0.000080 
#    y 0.000000 1.509810 0.000000 
#    z -0.000080 0.000000 1.533560 
# 
# From -- ./inp_files/246382.got.cif
#   From: 2010.06.25/outbox.cif.g09.slc.cpg/sg12_124_cif.got.tgz:246382.got - 2010.06.28 00:19:55.
