data_PCOD8115000
_publ_section_title
;
Structure prediction by ZEFSAII (Michael W. Deem and Ramdas Pophale) SiO2 
 PCOD8115000
Probable space group: C 2/M
;
_chemical_formula_sum "Si O2"
_cell_formula_units_Z 64
_cell_length_a 9.263542
_cell_length_b 29.432898
_cell_length_c 18.191899
_cell_angle_alpha 90.000000
_cell_angle_beta 141.889770
_cell_angle_gamma 90.000000
_cell_volume 3061.240331
_symmetry_space_group_name_H-M "C 2/M"
_symmetry_group_IT_number 12
_symmetry_cell_setting 'monoclinic'
loop_
_space_group_symop_operation_xyz
x,y,z
-x,y,-z
-x,-y,-z
x,-y,z
1/2+x,1/2+y,z
1/2-x,1/2+y,-z
1/2-x,1/2-y,-z
1/2+x,1/2-y,z
loop_
_atom_site_type_symbol
_atom_site_label
_atom_site_fract_x
_atom_site_fract_y
_atom_site_fract_z
Si Si1 0.739980 0.446829 0.368354
Si Si2 0.746089 0.322016 0.892024
Si Si3 0.159799 0.448807 0.907441
Si Si4 0.201982 0.892862 0.757293
Si Si5 0.855780 0.920808 0.837813
Si Si6 0.578498 0.322003 0.112619
Si Si7 0.641695 0.690425 0.624500
Si Si8 0.955961 0.251657 0.287625
O O1 0.696356 0.500000 0.365359
O O2 0.548979 0.418556 0.339404
O O3 0.715483 0.436802 0.271843
O O4 0.000000 0.432597 0.500000
O O5 0.752936 0.371555 0.857366
O O6 0.662334 0.328193 0.940877
O O7 0.569913 0.289851 0.778362
O O8 0.000000 0.299505 0.000000
O O9 0.145378 0.500000 0.930432
O O10 0.216415 0.449700 0.842868
O O11 0.907842 0.427159 0.820591
O O12 0.365109 0.424373 0.035922
O O13 0.212087 0.852174 0.702206
O O14 0.776208 0.868652 0.819505
O O15 0.718507 0.279814 0.201552
O O16 0.500000 0.311146 0.000000
O O17 0.500000 0.670069 0.500000
O O18 0.496032 0.728323 0.613291
O O19 0.857358 0.714510 0.671019
#
# Coordination Sequence:
#
# PCOD8115000 Si02
#       8
#     8   8   8   8   8   8   8   8
#     4  11  25  46  70  96 133 180 231 282 338 413
#     4  11  24  41  60  95 136 171 218 271 332 404
#     4  11  22  40  68 100 138 174 218 284 349 417
#     4  11  25  43  65 101 133 173 226 283 343 402
#     4  11  22  41  64 103 137 176 226 270 346 410
#     4  12  23  38  66  96 131 175 210 275 329 401
#     4  11  25  46  66  94 130 178 226 283 326 395
#     4  11  24  42  65  94 130 173 229 269 335 389
#
# _framework density 20.906559000000001
#
# number of rings (size 3 to 8) (size 9 to 14) (size 15 to 20)
#    0.000    0.875    3.750    4.125    3.500    3.000 
#    0.000    3.125    0.000    3.000    0.000    0.000 
#    0.000    0.000    0.000    0.000    0.000    0.000 
#
# Total GULP energy -396704.303549 kJ/mol
# GULP energy per Si atom -12397.009486 kJ/mol
# Density = 2.085898 g / cm^3
# Si number density = 20.906559 Si / 1000 Ang^3
#
#
#
# Elastic Constant Matrix: (Units=GPa)
#
#
# Indices 1 2 3 4 5 6 
#
# 1 127.4498 27.0895 56.5611 0.0000 0.6794 0.0000
# 2 27.0895 88.3483 16.7077 0.0000 -0.0187 0.0000
# 3 56.5611 16.7077 99.5930 -0.0001 -5.5017 0.0004
# 4 0.0000 0.0000 -0.0001 21.5063 0.0000 17.3101
# 5 0.6794 -0.0187 -5.5017 0.0000 37.2238 0.0001
# 6 0.0000 0.0000 0.0004 17.3101 0.0001 27.6555
#
#
#
# Elastic Compliance Matrix: (Units=1/GPa)
#
#
# Indices 1 2 3 4 5 6 
#
# 1 0.010947 -0.002241 -0.005900 0.000000 -0.001073 0.000000
# 2 -0.002241 0.012151 -0.000770 0.000000 -0.000067 0.000000
# 3 -0.005900 -0.000770 0.013638 0.000000 0.002123 0.000000
# 4 0.000000 0.000000 0.000000 0.093706 0.000000 -0.058652
# 5 -0.001073 -0.000067 0.002123 0.000000 0.027198 0.000000
# 6 0.000000 0.000000 0.000000 -0.058652 0.000000 0.072871
#
#
# Mechanical properties :
#
#
# Convention : Reuss Voigt Hill
#
# Bulk Modulus (GPa) = 52.86831 57.34529 55.10680
# Shear Modulus (GPa) = 19.63575 31.61264 25.62420
#
# Velocity S-wave (km/s) = 3.06799 3.89278 3.50473
# Velocity P-wave (km/s) = 6.15572 6.90608 6.54166
#
# Compressibility (1/GPa) = 0.01891492
#
# Stress axis : x y z
#
# Youngs Moduli (GPa) = 91.35148 82.29454 73.32391
#
# Poissons Ratio (x) = 0.18442 0.43263
# Poissons Ratio (y) = 0.20471 0.05643
# Poissons Ratio (z) = 0.53899 0.06333
#
# Static dielectric constant tensor:
#      x y z
#    x 3.915370 0.000000 0.001270 
#    y 0.000000 3.906270 0.000000 
#    z 0.001270 0.000000 3.773230 
# 
# 
# High freq. dielectric constant tensor:
#      x y z
#    x 1.832460 0.000000 -0.006480 
#    y 0.000000 1.831910 0.000000 
#    z -0.006480 0.000000 1.802270 
# 
# From -- ./inp_files/260359.got.cif
#   From: 2010.06.25/outbox.cif.g09.slc.cpg/sg12_131_cif.got.tgz:260359.got - 2010.06.28 00:19:55.
