data_PCOD8115884
_publ_section_title
;
Structure prediction by ZEFSAII (Michael W. Deem and Ramdas Pophale) SiO2 
 PCOD8115884
Probable space group: C 2/M
;
_chemical_formula_sum "Si O2"
_cell_formula_units_Z 48
_cell_length_a 14.242995
_cell_length_b 32.237698
_cell_length_c 11.087862
_cell_angle_alpha 90.000000
_cell_angle_beta 29.456279
_cell_angle_gamma 90.000000
_cell_volume 2503.604432
_symmetry_space_group_name_H-M "C 2/M"
_symmetry_group_IT_number 12
_symmetry_cell_setting 'monoclinic'
loop_
_space_group_symop_operation_xyz
x,y,z
-x,y,-z
-x,-y,-z
x,-y,z
1/2+x,1/2+y,z
1/2-x,1/2+y,-z
1/2-x,1/2-y,-z
1/2+x,1/2-y,z
loop_
_atom_site_type_symbol
_atom_site_label
_atom_site_fract_x
_atom_site_fract_y
_atom_site_fract_z
Si Si1 0.384433 0.201462 0.509200
Si Si2 0.952860 0.932453 0.192294
Si Si3 0.598308 0.658742 0.677499
Si Si4 0.746282 0.797724 0.973077
Si Si5 0.275681 0.208312 0.269386
Si Si6 0.745666 0.500000 0.900924
Si Si7 0.838518 0.500000 0.517589
O O1 0.500000 0.189225 0.500000
O O2 0.196906 0.173653 0.693032
O O3 0.325874 0.249634 0.572150
O O4 0.526993 0.189437 0.240292
O O5 0.923654 0.890515 0.298925
O O6 0.758523 0.958584 0.426017
O O7 0.000000 0.923305 0.000000
O O8 0.123857 0.958524 0.063050
O O9 0.387674 0.678355 0.905112
O O10 0.727293 0.672753 0.419557
O O11 0.810110 0.805429 0.764058
O O12 0.750000 0.750000 0.000000
O O13 0.500000 0.216008 0.000000
O O14 0.804193 0.500000 0.697362
O O15 0.937250 0.500000 0.767552
#
# Coordination Sequence:
#
# PCOD8115884 Si02
#       7
#     8   8   8   8   8   4   4
#     4  12  25  38  57  83 113 161 209 248 299 344
#     4   9  20  34  54  90 122 148 186 236 294 353
#     4  12  25  38  57  88 123 153 196 256 294 351
#     4  12  23  41  59  79 110 160 209 250 295 342
#     4  12  23  42  61  77 114 162 213 251 296 351
#     4   8  15  35  60  83 111 159 184 225 287 369
#     4   8  15  35  62  79 117 153 185 220 295 363
#
# _framework density 19.172357999999999
#
# number of rings (size 3 to 8) (size 9 to 14) (size 15 to 20)
#    0.000    1.167    5.000    3.000    2.333    1.333 
#    3.000    0.000    0.000    0.000    0.000   11.667 
#    0.000    0.000    0.000    0.000    0.000    0.000 
#
# Total GULP energy -297525.799962 kJ/mol
# GULP energy per Si atom -12396.908332 kJ/mol
# Density = 1.912872 g / cm^3
# Si number density = 19.172358 Si / 1000 Ang^3
#
#
#
# Elastic Constant Matrix: (Units=GPa)
#
#
# Indices 1 2 3 4 5 6 
#
# 1 96.6479 65.1886 43.7874 0.0000 -19.9690 0.0000
# 2 65.1886 148.6290 55.2903 0.0000 -17.8272 0.0000
# 3 43.7874 55.2903 111.7614 0.0000 -23.3354 0.0000
# 4 0.0000 0.0000 0.0000 21.0444 0.0000 3.5090
# 5 -19.9690 -17.8272 -23.3354 0.0000 40.0233 0.0000
# 6 0.0000 0.0000 0.0000 3.5090 0.0000 18.1729
#
#
#
# Elastic Compliance Matrix: (Units=1/GPa)
#
#
# Indices 1 2 3 4 5 6 
#
# 1 0.016191 -0.005605 -0.002739 0.000000 0.003985 0.000000
# 2 -0.005605 0.010263 -0.002859 0.000000 0.000108 0.000000
# 3 -0.002739 -0.002859 0.012392 0.000000 0.004585 0.000000
# 4 0.000000 0.000000 0.000000 0.049099 0.000000 -0.009481
# 5 0.003985 0.000108 0.004585 0.000000 0.029695 0.000000
# 6 0.000000 0.000000 0.000000 -0.009481 0.000000 0.056858
#
#
# Mechanical properties :
#
#
# Convention : Reuss Voigt Hill
#
# Bulk Modulus (GPa) = 60.81973 76.17457 68.49715
# Shear Modulus (GPa) = 24.70546 28.69959 26.70253
#
# Velocity S-wave (km/s) = 3.59360 3.87321 3.73602
# Velocity P-wave (km/s) = 7.00072 7.73434 7.37666
#
# Compressibility (1/GPa) = 0.01644203
#
# Stress axis : x y z
#
# Youngs Moduli (GPa) = 61.76100 97.43929 80.69458
#
# Poissons Ratio (x) = 0.54612 0.22101
# Poissons Ratio (y) = 0.34615 0.23068
# Poissons Ratio (z) = 0.16916 0.27855
#
# Static dielectric constant tensor:
#      x y z
#    x 4.745010 0.000000 0.718650 
#    y 0.000000 3.286070 0.000000 
#    z 0.718650 0.000000 5.728950 
# 
# 
# High freq. dielectric constant tensor:
#      x y z
#    x 1.741700 0.000000 -0.028870 
#    y 0.000000 1.712650 0.000000 
#    z -0.028870 0.000000 1.754380 
# 
# From -- ./inp_files/149660.got.cif
#   From: 2010.06.25/outbox.cif.g09.slc.cpg/sg12_75_cif.got.tgz:149660.got - 2010.06.28 00:19:55.
