data_PCOD8115465
_publ_section_title
;
Structure prediction by ZEFSAII (Michael W. Deem and Ramdas Pophale) SiO2 
 PCOD8115465
Probable space group: C 2/M
;
_chemical_formula_sum "Si O2"
_cell_formula_units_Z 56
_cell_length_a 9.400761
_cell_length_b 21.798294
_cell_length_c 15.717479
_cell_angle_alpha 90.000000
_cell_angle_beta 56.042401
_cell_angle_gamma 90.000000
_cell_volume 2671.524920
_symmetry_space_group_name_H-M "C 2/M"
_symmetry_group_IT_number 12
_symmetry_cell_setting 'monoclinic'
loop_
_space_group_symop_operation_xyz
x,y,z
-x,y,-z
-x,-y,-z
x,-y,z
1/2+x,1/2+y,z
1/2-x,1/2+y,-z
1/2-x,1/2-y,-z
1/2+x,1/2-y,z
loop_
_atom_site_type_symbol
_atom_site_label
_atom_site_fract_x
_atom_site_fract_y
_atom_site_fract_z
Si Si1 0.188045 0.237102 0.427077
Si Si2 0.733528 0.143600 0.300443
Si Si3 0.319055 0.569817 0.428901
Si Si4 0.997946 0.796060 0.901540
Si Si5 0.201408 0.931073 0.260432
Si Si6 0.378494 0.122043 0.348733
Si Si7 0.827855 0.323421 0.100302
O O1 0.250000 0.250000 0.500000
O O2 0.182912 0.297557 0.372208
O O3 0.309680 0.188059 0.339456
O O4 0.000000 0.208809 0.500000
O O5 0.764124 0.086411 0.351878
O O6 0.900239 0.153984 0.187404
O O7 0.581117 0.124847 0.289255
O O8 0.270195 0.500000 0.463128
O O9 0.521842 0.581758 0.367899
O O10 0.215550 0.610090 0.530554
O O11 0.100804 0.731021 0.861930
O O12 0.805172 0.794352 0.924910
O O13 0.000000 0.816307 0.000000
O O14 0.341292 0.928114 0.288862
O O15 0.234759 0.879026 0.179336
O O16 0.205483 0.000000 0.219028
O O17 0.000000 0.351008 0.000000
#
# Coordination Sequence:
#
# PCOD8115465 Si02
#       7
#     8   8   8   8   8   8   8
#     4  12  22  38  58  94 134 169 215 265 334 394
#     4  12  25  40  63  96 133 172 217 274 331 396
#     4  11  23  44  65  90 131 180 225 270 321 387
#     4  11  25  43  71 104 131 169 214 275 343 400
#     4  11  25  44  68  98 131 179 227 270 325 388
#     4  12  25  38  64  94 134 175 222 267 320 394
#     4  11  24  45  74 100 134 168 214 277 337 397
#
# _framework density 20.961811999999998
#
# number of rings (size 3 to 8) (size 9 to 14) (size 15 to 20)
#    0.000    0.571    4.286    4.714    6.000    3.143 
#    0.000    0.000    0.000    0.857    0.000    0.000 
#    0.000    0.000    0.000    0.000    0.000    0.000 
#
# Total GULP energy -347156.076217 kJ/mol
# GULP energy per Si atom -12398.431293 kJ/mol
# Density = 2.091410 g / cm^3
# Si number density = 20.961812 Si / 1000 Ang^3
#
#
#
# Elastic Constant Matrix: (Units=GPa)
#
#
# Indices 1 2 3 4 5 6 
#
# 1 142.4010 30.3059 17.5511 0.0000 -2.4318 0.0000
# 2 30.3059 73.8986 24.2934 0.0000 -1.7246 0.0000
# 3 17.5511 24.2934 74.7464 0.0000 1.1340 0.0000
# 4 0.0000 0.0000 0.0000 28.9682 0.0000 2.0947
# 5 -2.4318 -1.7246 1.1340 0.0000 29.2240 0.0000
# 6 0.0000 0.0000 0.0000 2.0947 0.0000 24.9388
#
#
#
# Elastic Compliance Matrix: (Units=1/GPa)
#
#
# Indices 1 2 3 4 5 6 
#
# 1 0.007753 -0.002874 -0.000894 0.000000 0.000510 0.000000
# 2 -0.002874 0.016250 -0.004620 0.000000 0.000899 0.000000
# 3 -0.000894 -0.004620 0.015104 0.000000 -0.000933 0.000000
# 4 0.000000 0.000000 0.000000 0.034732 0.000000 -0.002917
# 5 0.000510 0.000899 -0.000933 0.000000 0.034350 0.000000
# 6 0.000000 0.000000 0.000000 -0.002917 0.000000 0.040343
#
#
# Mechanical properties :
#
#
# Convention : Reuss Voigt Hill
#
# Bulk Modulus (GPa) = 44.78051 48.37187 46.57619
# Shear Modulus (GPa) = 28.94307 31.21925 30.08116
#
# Velocity S-wave (km/s) = 3.71988 3.86338 3.79231
# Velocity P-wave (km/s) = 6.31342 6.55952 6.43764
#
# Compressibility (1/GPa) = 0.02233114
#
# Stress axis : x y z
#
# Youngs Moduli (GPa) = 128.98381 61.53687 66.20583
#
# Poissons Ratio (x) = 0.17683 0.05920
# Poissons Ratio (y) = 0.37065 0.30590
# Poissons Ratio (z) = 0.11534 0.28433
#
# Static dielectric constant tensor:
#      x y z
#    x 4.107910 0.000000 -0.034230 
#    y 0.000000 3.812220 0.000000 
#    z -0.034230 0.000000 3.674180 
# 
# 
# High freq. dielectric constant tensor:
#      x y z
#    x 1.839940 0.000000 -0.002690 
#    y 0.000000 1.811030 0.000000 
#    z -0.002690 0.000000 1.811500 
# 
# From -- ./inp_files/198781.got.cif
#   From: 2010.06.25/outbox.cif.g09.slc.cpg/sg12_100_cif.got.tgz:198781.got - 2010.06.28 00:19:55.
