data_PCOD8115917
_publ_section_title
;
Structure prediction by ZEFSAII (Michael W. Deem and Ramdas Pophale) SiO2 
 PCOD8115917
Probable space group: C 2/M
;
_chemical_formula_sum "Si O2"
_cell_formula_units_Z 32
_cell_length_a 8.738876
_cell_length_b 5.170425
_cell_length_c 34.098337
_cell_angle_alpha 90.000000
_cell_angle_beta 74.719701
_cell_angle_gamma 90.000000
_cell_volume 1486.222832
_symmetry_space_group_name_H-M "C 2/M"
_symmetry_group_IT_number 12
_symmetry_cell_setting 'monoclinic'
loop_
_space_group_symop_operation_xyz
x,y,z
-x,y,-z
-x,-y,-z
x,-y,z
1/2+x,1/2+y,z
1/2-x,1/2+y,-z
1/2-x,1/2-y,-z
1/2+x,1/2-y,z
loop_
_atom_site_type_symbol
_atom_site_label
_atom_site_fract_x
_atom_site_fract_y
_atom_site_fract_z
Si Si1 0.144353 0.000000 0.234797
Si Si2 0.146300 0.000000 0.141743
Si Si3 0.220042 0.000000 0.734586
Si Si4 0.807201 0.500000 0.641493
Si Si5 0.829100 0.500000 0.388783
Si Si6 0.685201 0.500000 0.483358
Si Si7 0.848701 0.500000 0.983432
Si Si8 0.489466 0.000000 0.888770
O O1 0.237851 0.249389 0.243240
O O2 0.146333 0.000000 0.188199
O O3 0.965919 0.000000 0.263140
O O4 0.051628 0.751068 0.133554
O O5 0.324736 0.000000 0.113164
O O6 0.317827 0.000000 0.687690
O O7 0.712137 0.250727 0.633611
O O8 0.985387 0.500000 0.612708
O O9 0.729246 0.500000 0.435050
O O10 0.500000 0.500000 0.500000
O O11 0.750000 0.250000 0.500000
O O12 0.890338 0.500000 0.935115
O O13 0.750000 0.750000 0.000000
O O14 0.000000 0.500000 0.000000
#
# Coordination Sequence:
#
# PCOD8115917 Si02
#       8
#     4   4   4   4   4   4   4   4
#     4  12  24  43  65  94 126 165 207 256 308 367
#     4  12  25  43  66  94 127 165 208 256 309 367
#     4  12  24  42  66  94 127 165 208 256 309 372
#     4  12  24  42  64  94 126 165 207 256 313 372
#     4  12  24  42  64  92 127 165 208 260 313 372
#     4  12  24  42  64  92 124 165 211 260 313 372
#     4  12  25  43  66  94 127 165 208 256 309 367
#     4  12  24  43  65  94 126 165 207 256 308 367
#
# _framework density 21.531091
#
# number of rings (size 3 to 8) (size 9 to 14) (size 15 to 20)
#    0.000    0.000    0.000   12.000    0.000    0.000 
#    0.000    0.000    0.000    0.000    0.000    0.000 
#    0.000    0.000    0.000    0.000    0.000    0.000 
#
# Total GULP energy -198565.300638 kJ/mol
# GULP energy per Si atom -12410.331290 kJ/mol
# Density = 2.148209 g / cm^3
# Si number density = 21.531091 Si / 1000 Ang^3
#
#
#
# Elastic Constant Matrix: (Units=GPa)
#
#
# Indices 1 2 3 4 5 6 
#
# 1 128.2650 47.5406 -14.8418 0.0000 1.8671 0.0000
# 2 47.5406 207.7884 32.6438 0.0000 24.0223 0.0001
# 3 -14.8418 32.6438 120.4013 0.0000 1.8091 0.0000
# 4 0.0000 0.0000 0.0000 30.8491 0.0000 -6.1772
# 5 1.8671 24.0223 1.8091 0.0000 42.0195 0.0000
# 6 0.0000 0.0001 0.0000 -6.1772 0.0000 34.3003
#
#
#
# Elastic Compliance Matrix: (Units=1/GPa)
#
#
# Indices 1 2 3 4 5 6 
#
# 1 0.008876 -0.002408 0.001733 0.000000 0.000908 0.000000
# 2 -0.002408 0.006037 -0.001885 0.000000 -0.003263 0.000000
# 3 0.001733 -0.001885 0.009021 0.000000 0.000612 0.000000
# 4 0.000000 0.000000 0.000000 0.033629 0.000000 0.006056
# 5 0.000908 -0.003263 0.000612 0.000000 0.025597 0.000000
# 6 0.000000 0.000000 0.000000 0.006056 0.000000 0.030245
#
#
# Mechanical properties :
#
#
# Convention : Reuss Voigt Hill
#
# Bulk Modulus (GPa) = 53.14717 65.23777 59.19247
# Shear Modulus (GPa) = 40.06565 47.50793 43.78679
#
# Velocity S-wave (km/s) = 4.31841 4.70241 4.51450
# Velocity P-wave (km/s) = 7.04290 7.73620 7.39767
#
# Compressibility (1/GPa) = 0.01881568
#
# Stress axis : x y z
#
# Youngs Moduli (GPa) = 112.65992 165.64922 110.85261
#
# Poissons Ratio (x) = 0.39890 -0.19215
# Poissons Ratio (y) = 0.27130 0.20891
# Poissons Ratio (z) = -0.19529 0.31217
#
# Static dielectric constant tensor:
#      x y z
#    x 4.155410 0.000000 -0.032060 
#    y 0.000000 4.188110 0.000000 
#    z -0.032060 0.000000 4.069260 
# 
# 
# High freq. dielectric constant tensor:
#      x y z
#    x 1.865930 0.000000 -0.000590 
#    y 0.000000 1.870830 0.000000 
#    z -0.000590 0.000000 1.864700 
# 
# From -- ./inp_files/371761.got.cif
#   From: 2010.06.25/outbox.cif.g09.slc.cpg/sg12_186_cif.got.tgz:371761.got - 2010.06.28 00:19:55.
