data_PCOD8115166
_publ_section_title
;
Structure prediction by ZEFSAII (Michael W. Deem and Ramdas Pophale) SiO2 
 PCOD8115166
Probable space group: C 2/M
;
_chemical_formula_sum "Si O2"
_cell_formula_units_Z 64
_cell_length_a 30.202131
_cell_length_b 8.898852
_cell_length_c 15.948450
_cell_angle_alpha 90.000000
_cell_angle_beta 133.025411
_cell_angle_gamma 90.000000
_cell_volume 3133.558612
_symmetry_space_group_name_H-M "C 2/M"
_symmetry_group_IT_number 12
_symmetry_cell_setting 'monoclinic'
loop_
_space_group_symop_operation_xyz
x,y,z
-x,y,-z
-x,-y,-z
x,-y,z
1/2+x,1/2+y,z
1/2-x,1/2+y,-z
1/2-x,1/2-y,-z
1/2+x,1/2-y,z
loop_
_atom_site_type_symbol
_atom_site_label
_atom_site_fract_x
_atom_site_fract_y
_atom_site_fract_z
Si Si1 0.700550 0.678468 0.204891
Si Si2 0.691232 0.159902 0.918827
Si Si3 0.674473 0.671690 0.649757
Si Si4 0.195003 0.678659 0.378896
Si Si5 0.887924 0.335609 0.029024
Si Si6 0.886063 0.171819 0.599720
Si Si7 0.592560 0.177251 0.668275
Si Si8 0.009207 0.678621 0.708661
O O1 0.704386 0.500000 0.218335
O O2 0.764198 0.737205 0.246376
O O3 0.692128 0.756087 0.282866
O O4 0.639185 0.720407 0.074351
O O5 0.666827 0.137087 0.979448
O O6 0.643438 0.238944 0.797235
O O7 0.707061 0.000000 0.898308
O O8 0.750000 0.250000 0.000000
O O9 0.682885 0.500000 0.689575
O O10 0.665716 0.682082 0.538405
O O11 0.611229 0.737109 0.607360
O O12 0.201612 0.500000 0.384261
O O13 0.250000 0.750000 0.500000
O O14 0.133322 0.725657 0.346901
O O15 0.904111 0.500000 0.009593
O O16 0.944569 0.271954 0.156778
O O17 0.948501 0.231421 0.643530
O O18 0.894136 0.000000 0.639698
O O19 0.531093 0.217796 0.640594
O O20 0.593171 0.000000 0.651085
O O21 0.999945 0.500000 0.702244
#
# Coordination Sequence:
#
# PCOD8115166 Si02
#       8
#     8   8   8   8   8   8   8   8
#     4  12  24  38  61  92 124 156 194 245 301 358
#     4   9  17  29  47  73 107 148 192 240 292 345
#     4  11  23  37  56  85 122 160 200 249 304 356
#     4  12  24  42  67  93 121 153 192 240 299 360
#     4   9  19  37  58  82 116 156 197 243 297 354
#     4  11  24  41  62  88 120 158 200 248 299 355
#     4   9  19  35  54  80 115 155 202 249 295 350
#     4   9  20  40  63  86 118 162 206 249 298 351
#
# _framework density 20.424063
#
# number of rings (size 3 to 8) (size 9 to 14) (size 15 to 20)
#    0.000    1.750    1.250    5.250    0.000    6.000 
#    0.000    5.625    0.000    3.750    0.000    0.000 
#    0.000    0.000    0.000    0.000    0.000    0.000 
#
# Total GULP energy -396475.920220 kJ/mol
# GULP energy per Si atom -12389.872507 kJ/mol
# Density = 2.037758 g / cm^3
# Si number density = 20.424063 Si / 1000 Ang^3
#
#
#
# Elastic Constant Matrix: (Units=GPa)
#
#
# Indices 1 2 3 4 5 6 
#
# 1 88.2313 42.0578 8.6673 0.0000 -3.2449 0.0000
# 2 42.0578 123.9673 27.2697 0.0000 -4.2095 0.0000
# 3 8.6673 27.2697 46.6001 0.0000 -8.6845 0.0000
# 4 0.0000 0.0000 0.0000 30.3935 0.0000 -0.6652
# 5 -3.2449 -4.2095 -8.6845 0.0000 21.5833 0.0000
# 6 0.0000 0.0000 0.0000 -0.6652 0.0000 32.2268
#
#
#
# Elastic Compliance Matrix: (Units=1/GPa)
#
#
# Indices 1 2 3 4 5 6 
#
# 1 0.013556 -0.004653 0.000445 0.000000 0.001310 0.000000
# 2 -0.004653 0.010859 -0.005648 0.000000 -0.000854 0.000000
# 3 0.000445 -0.005648 0.026474 0.000000 0.009618 0.000000
# 4 0.000000 0.000000 0.000000 0.032917 0.000000 0.000679
# 5 0.001310 -0.000854 0.009618 0.000000 0.050232 0.000000
# 6 0.000000 0.000000 0.000000 0.000679 0.000000 0.031044
#
#
# Mechanical properties :
#
#
# Convention : Reuss Voigt Hill
#
# Bulk Modulus (GPa) = 32.07402 46.08760 39.08081
# Shear Modulus (GPa) = 25.61675 28.89431 27.25553
#
# Velocity S-wave (km/s) = 3.54537 3.76536 3.65702
# Velocity P-wave (km/s) = 5.70067 6.44346 6.08342
#
# Compressibility (1/GPa) = 0.03117788
#
# Stress axis : x y z
#
# Youngs Moduli (GPa) = 73.76776 92.09331 37.77303
#
# Poissons Ratio (x) = 0.42847 -0.01683
# Poissons Ratio (y) = 0.34321 0.21335
# Poissons Ratio (z) = -0.03286 0.52016
#
# Static dielectric constant tensor:
#      x y z
#    x 3.783770 0.000000 -0.113550 
#    y 0.000000 3.631730 0.000000 
#    z -0.113550 0.000000 3.664250 
# 
# 
# High freq. dielectric constant tensor:
#      x y z
#    x 1.794750 0.000000 -0.002150 
#    y 0.000000 1.794060 0.000000 
#    z -0.002150 0.000000 1.795580 
# 
# From -- ./inp_files/249915.got.cif
#   From: 2010.06.25/outbox.cif.g09.slc.cpg/sg12_125_cif.got.tgz:249915.got - 2010.06.28 00:19:55.
