data_PCOD8115857
_publ_section_title
;
Structure prediction by ZEFSAII (Michael W. Deem and Ramdas Pophale) SiO2 
 PCOD8115857
Probable space group: C 2/M
;
_chemical_formula_sum "Si O2"
_cell_formula_units_Z 40
_cell_length_a 21.375291
_cell_length_b 14.748821
_cell_length_c 17.409515
_cell_angle_alpha 90.000000
_cell_angle_beta 19.357155
_cell_angle_gamma 90.000000
_cell_volume 1819.204486
_symmetry_space_group_name_H-M "C 2/M"
_symmetry_group_IT_number 12
_symmetry_cell_setting 'monoclinic'
loop_
_space_group_symop_operation_xyz
x,y,z
-x,y,-z
-x,-y,-z
x,-y,z
1/2+x,1/2+y,z
1/2-x,1/2+y,-z
1/2-x,1/2-y,-z
1/2+x,1/2-y,z
loop_
_atom_site_type_symbol
_atom_site_label
_atom_site_fract_x
_atom_site_fract_y
_atom_site_fract_z
Si Si1 0.584754 0.500000 0.574904
Si Si2 0.500000 0.737315 0.500000
Si Si3 0.769491 0.313681 0.902383
Si Si4 0.700555 0.839972 0.748975
Si Si5 0.860050 0.804852 0.306523
Si Si6 0.176569 0.500000 0.079239
Si Si7 0.762615 0.500000 0.527912
O O1 0.675890 0.408209 0.442372
O O2 0.363015 0.500000 0.809363
O O3 0.614637 0.500000 0.630515
O O4 0.442752 0.789874 0.644374
O O5 0.684525 0.678080 0.306096
O O6 0.750000 0.250000 0.000000
O O7 0.577450 0.311528 0.077335
O O8 0.819824 0.413662 0.870440
O O9 0.660078 0.748242 0.749569
O O10 0.500000 0.886325 0.000000
O O11 0.750000 0.750000 0.500000
O O12 0.778175 0.905133 0.381581
O O13 0.986781 0.500000 0.246792
#
# Coordination Sequence:
#
# PCOD8115857 Si02
#       7
#     4   4   8   8   8   4   4
#     4  12  25  43  70 104 140 187 242 282 360 431
#     4  12  26  46  72 102 146 190 236 292 360 418
#     4  12  25  45  73 105 142 190 238 293 355 427
#     4  12  26  45  68 102 144 187 230 297 356 422
#     4  12  22  45  71 101 141 183 238 292 350 420
#     4  12  24  44  70 105 141 183 239 294 352 419
#     4  12  24  41  73 106 135 181 238 295 347 422
#
# _framework density 21.987631
#
# number of rings (size 3 to 8) (size 9 to 14) (size 15 to 20)
#    0.000    0.000    6.000    5.100    0.000    2.400 
#    0.000    2.500    0.000    0.000    0.000    0.000 
#    0.000    0.000    0.000    0.000    0.000    0.000 
#
# Total GULP energy -247923.483089 kJ/mol
# GULP energy per Si atom -12396.174154 kJ/mol
# Density = 2.193759 g / cm^3
# Si number density = 21.987631 Si / 1000 Ang^3
#
#
#
# Elastic Constant Matrix: (Units=GPa)
#
#
# Indices 1 2 3 4 5 6 
#
# 1 78.1890 28.7805 28.0409 -0.0254 -7.9476 0.0275
# 2 28.7805 135.5621 25.1823 -0.1107 0.8378 0.0578
# 3 28.0409 25.1823 150.3910 -0.1367 -15.7517 0.0944
# 4 -0.0254 -0.1107 -0.1367 43.6396 0.0564 9.0838
# 5 -7.9476 0.8378 -15.7517 0.0564 54.0641 -0.0214
# 6 0.0275 0.0578 0.0944 9.0838 -0.0214 26.0842
#
#
#
# Elastic Compliance Matrix: (Units=1/GPa)
#
#
# Indices 1 2 3 4 5 6 
#
# 1 0.014720 -0.002741 -0.002119 -0.000008 0.001589 0.000002
# 2 -0.002741 0.008137 -0.000935 0.000021 -0.000802 -0.000020
# 3 -0.002119 -0.000935 0.007396 0.000023 0.001858 -0.000029
# 4 -0.000008 0.000021 0.000023 0.024706 -0.000024 -0.008604
# 5 0.001589 -0.000802 0.001858 -0.000024 0.019284 0.000018
# 6 0.000002 -0.000020 -0.000029 -0.008604 0.000018 0.041334
#
#
# Mechanical properties :
#
#
# Convention : Reuss Voigt Hill
#
# Bulk Modulus (GPa) = 53.58632 58.68326 56.13479
# Shear Modulus (GPa) = 37.48431 43.56682 40.52556
#
# Velocity S-wave (km/s) = 4.13339 4.45615 4.29780
# Velocity P-wave (km/s) = 6.87051 7.29544 7.08616
#
# Compressibility (1/GPa) = 0.01866148
#
# Stress axis : x y z
#
# Youngs Moduli (GPa) = 67.93443 122.88901 135.21379
#
# Poissons Ratio (x) = 0.33688 0.28654
# Poissons Ratio (y) = 0.18623 0.12648
# Poissons Ratio (z) = 0.14396 0.11495
#
# Static dielectric constant tensor:
#      x y z
#    x 3.980390 -0.000110 -0.317530 
#    y -0.000110 4.013750 -0.000160 
#    z -0.317530 -0.000160 4.436360 
# 
# 
# High freq. dielectric constant tensor:
#      x y z
#    x 1.855930 0.000000 -0.023450 
#    y 0.000000 1.874140 0.000010 
#    z -0.023450 0.000010 1.887320 
# 
# From -- ./inp_files/284463.got.cif
#   From: 2010.06.25/outbox.cif.g09.slc.cpg/sg12_143_cif.got.tgz:284463.got - 2010.06.28 00:19:55.
