data_PCOD8115608
_publ_section_title
;
Structure prediction by ZEFSAII (Michael W. Deem and Ramdas Pophale) SiO2 
 PCOD8115608
Probable space group: C 2/M
;
_chemical_formula_sum "Si O2"
_cell_formula_units_Z 48
_cell_length_a 9.733190
_cell_length_b 16.379700
_cell_length_c 13.979175
_cell_angle_alpha 90.000000
_cell_angle_beta 77.529667
_cell_angle_gamma 90.000000
_cell_volume 2176.075659
_symmetry_space_group_name_H-M "C 2/M"
_symmetry_group_IT_number 12
_symmetry_cell_setting 'monoclinic'
loop_
_space_group_symop_operation_xyz
x,y,z
-x,y,-z
-x,-y,-z
x,-y,z
1/2+x,1/2+y,z
1/2-x,1/2+y,-z
1/2-x,1/2-y,-z
1/2+x,1/2-y,z
loop_
_atom_site_type_symbol
_atom_site_label
_atom_site_fract_x
_atom_site_fract_y
_atom_site_fract_z
Si Si1 0.842870 0.908827 0.011443
Si Si2 0.798299 0.096392 0.588037
Si Si3 0.968172 0.403750 0.255771
Si Si4 0.763285 0.158761 0.210274
Si Si5 0.089426 0.903263 0.628471
Si Si6 0.128370 0.681495 0.911673
O O1 0.775686 0.910798 0.127130
O O2 0.843360 0.000000 0.968476
O O3 0.758744 0.850498 0.953540
O O4 0.000000 0.873925 0.000000
O O5 0.655391 0.129400 0.656222
O O6 0.809960 0.122750 0.475306
O O7 0.931800 0.127551 0.629125
O O8 0.802915 0.000000 0.593039
O O9 0.997097 0.500000 0.266668
O O10 0.926282 0.388604 0.151679
O O11 0.100763 0.348028 0.266968
O O12 0.863877 0.143530 0.284292
O O13 0.809173 0.243864 0.157400
O O14 0.096853 0.000000 0.644974
O O15 0.000000 0.707638 0.000000
#
# Coordination Sequence:
#
# PCOD8115608 Si02
#       6
#     8   8   8   8   8   8
#     4  11  25  43  67  96 128 170 227 278 326 389
#     4   8  18  38  66  99 131 171 215 272 332 389
#     4  11  24  42  68  99 131 173 226 271 326 395
#     4  12  25  39  63  98 134 173 216 274 328 387
#     4   9  18  38  67  98 135 171 218 271 328 394
#     4  12  27  46  66  90 137 183 221 268 336 396
#
# _framework density 22.058055
#
# number of rings (size 3 to 8) (size 9 to 14) (size 15 to 20)
#    0.000    1.500    1.667    4.000    4.667    1.333 
#    0.000    3.333    0.000    0.000    0.000    0.000 
#    0.000    0.000    0.000    0.000    0.000    0.000 
#
# Total GULP energy -297591.278448 kJ/mol
# GULP energy per Si atom -12399.636602 kJ/mol
# Density = 2.200785 g / cm^3
# Si number density = 22.058055 Si / 1000 Ang^3
#
#
#
# Elastic Constant Matrix: (Units=GPa)
#
#
# Indices 1 2 3 4 5 6 
#
# 1 141.6947 57.3330 53.5012 0.0000 -0.8482 0.0000
# 2 57.3330 85.3477 50.2835 0.0000 3.2608 0.0000
# 3 53.5012 50.2835 122.7331 0.0000 12.1511 0.0000
# 4 0.0000 0.0000 0.0000 21.7687 0.0000 4.1701
# 5 -0.8482 3.2608 12.1511 0.0000 49.0927 0.0000
# 6 0.0000 0.0000 0.0000 4.1701 0.0000 26.6090
#
#
#
# Elastic Compliance Matrix: (Units=1/GPa)
#
#
# Indices 1 2 3 4 5 6 
#
# 1 0.010159 -0.005527 -0.002273 0.000000 0.001105 0.000000
# 2 -0.005527 0.018467 -0.005152 0.000000 -0.000047 0.000000
# 3 -0.002273 -0.005152 0.011501 0.000000 -0.002544 0.000000
# 4 0.000000 0.000000 0.000000 0.047359 0.000000 -0.007422
# 5 0.001105 -0.000047 -0.002544 0.000000 0.021021 0.000000
# 6 0.000000 0.000000 0.000000 -0.007422 0.000000 0.038744
#
#
# Mechanical properties :
#
#
# Convention : Reuss Voigt Hill
#
# Bulk Modulus (GPa) = 70.31221 74.66786 72.49003
# Shear Modulus (GPa) = 28.10611 32.07127 30.08869
#
# Velocity S-wave (km/s) = 3.57345 3.81720 3.69734
# Velocity P-wave (km/s) = 6.99795 7.30426 7.15274
#
# Compressibility (1/GPa) = 0.01422228
#
# Stress axis : x y z
#
# Youngs Moduli (GPa) = 98.43652 54.15166 86.94699
#
# Poissons Ratio (x) = 0.29930 0.19766
# Poissons Ratio (y) = 0.54407 0.44793
# Poissons Ratio (z) = 0.22378 0.27898
#
# Static dielectric constant tensor:
#      x y z
#    x 4.358410 0.000000 -0.304020 
#    y 0.000000 3.645280 0.000000 
#    z -0.304020 0.000000 4.258620 
# 
# 
# High freq. dielectric constant tensor:
#      x y z
#    x 1.881510 0.000000 -0.005060 
#    y 0.000000 1.849390 0.000000 
#    z -0.005060 0.000000 1.871450 
# 
# From -- ./inp_files/196003.got.cif
#   From: 2010.06.25/outbox.cif.g09.slc.cpg/sg12_99_cif.got.tgz:196003.got - 2010.06.28 00:19:55.
