data_PCOD8115812
_publ_section_title
;
Structure prediction by ZEFSAII (Michael W. Deem and Ramdas Pophale) SiO2 
 PCOD8115812
Probable space group: C 2/M
;
_chemical_formula_sum "Si O2"
_cell_formula_units_Z 36
_cell_length_a 29.201150
_cell_length_b 14.052695
_cell_length_c 23.990102
_cell_angle_alpha 90.000000
_cell_angle_beta 168.472783
_cell_angle_gamma 90.000000
_cell_volume 1967.250896
_symmetry_space_group_name_H-M "C 2/M"
_symmetry_group_IT_number 12
_symmetry_cell_setting 'monoclinic'
loop_
_space_group_symop_operation_xyz
x,y,z
-x,y,-z
-x,-y,-z
x,-y,z
1/2+x,1/2+y,z
1/2-x,1/2+y,-z
1/2-x,1/2-y,-z
1/2+x,1/2-y,z
loop_
_atom_site_type_symbol
_atom_site_label
_atom_site_fract_x
_atom_site_fract_y
_atom_site_fract_z
Si Si1 0.355420 0.701922 0.180066
Si Si2 0.557083 0.201782 0.232482
Si Si3 0.803428 0.500000 0.455534
Si Si4 0.333283 0.298197 0.749880
Si Si5 0.663355 0.500000 0.891483
Si Si6 0.750863 0.000000 0.479250
O O1 0.594758 0.749006 0.480896
O O2 0.389815 0.590418 0.210312
O O3 0.250000 0.750000 0.000000
O O4 0.188817 0.718789 0.033272
O O5 0.750000 0.250000 0.500000
O O6 0.550488 0.248612 0.164350
O O7 0.608627 0.090319 0.288407
O O8 0.703217 0.409036 0.305065
O O9 0.722146 0.500000 0.422294
O O10 0.077082 0.500000 0.777795
O O11 0.500000 0.283833 0.000000
O O12 0.505705 0.500000 0.758200
#
# Coordination Sequence:
#
# PCOD8115812 Si02
#       6
#     8   8   4   8   4   4
#     4  12  21  39  66  95 126 169 221 265 311 380
#     4  12  21  39  66  95 126 169 221 265 311 380
#     4  12  23  40  66  96 131 164 214 272 317 384
#     4  12  27  43  62  97 139 172 206 264 336 387
#     4  12  20  35  67 104 121 157 223 276 308 365
#     4  12  20  35  67 104 121 157 223 276 308 365
#
# _framework density 18.299648999999999
#
# number of rings (size 3 to 8) (size 9 to 14) (size 15 to 20)
#    0.000    0.000   11.111    0.333    0.000    0.889 
#    0.000    2.222    0.000    6.667    0.000    0.000 
#    0.000    0.000    0.000    0.000    0.000    0.000 
#
# Total GULP energy -223319.827107 kJ/mol
# GULP energy per Si atom -12406.657062 kJ/mol
# Density = 1.825800 g / cm^3
# Si number density = 18.299649 Si / 1000 Ang^3
#
#
#
# Elastic Constant Matrix: (Units=GPa)
#
#
# Indices 1 2 3 4 5 6 
#
# 1 161.6679 60.3011 97.0165 0.0537 19.7520 -0.0033
# 2 60.3011 167.1898 63.2241 -0.1012 -6.5132 0.0477
# 3 97.0165 63.2241 144.1816 -0.7862 5.7911 0.2349
# 4 0.0537 -0.1012 -0.7862 22.0821 -0.1364 6.5765
# 5 19.7520 -6.5132 5.7911 -0.1364 49.7234 0.0466
# 6 -0.0033 0.0477 0.2349 6.5765 0.0466 25.9886
#
#
#
# Elastic Compliance Matrix: (Units=1/GPa)
#
#
# Indices 1 2 3 4 5 6 
#
# 1 0.011339 -0.001699 -0.006728 -0.000347 -0.003944 0.000160
# 2 -0.001699 0.007511 -0.002228 -0.000032 0.001918 0.000011
# 3 -0.006728 -0.002228 0.012405 0.000526 0.000938 -0.000244
# 4 -0.000347 -0.000032 0.000526 0.049001 0.000218 -0.012405
# 5 -0.003944 0.001918 0.000938 0.000218 0.021821 -0.000107
# 6 0.000160 0.000011 -0.000244 -0.012405 -0.000107 0.041620
#
#
# Mechanical properties :
#
#
# Convention : Reuss Voigt Hill
#
# Bulk Modulus (GPa) = 100.54951 101.56919 101.05935
# Shear Modulus (GPa) = 29.70486 36.39199 33.04843
#
# Velocity S-wave (km/s) = 4.03333 4.46429 4.25427
# Velocity P-wave (km/s) = 8.76103 9.06626 8.91495
#
# Compressibility (1/GPa) = 0.00994535
#
# Stress axis : x y z
#
# Youngs Moduli (GPa) = 88.19094 133.13525 80.60969
#
# Poissons Ratio (x) = 0.22623 0.54237
# Poissons Ratio (y) = 0.14986 0.17956
# Poissons Ratio (z) = 0.59338 0.29656
#
# Static dielectric constant tensor:
#      x y z
#    x 4.024530 -0.001680 0.761060 
#    y -0.001680 3.856670 -0.001610 
#    z 0.761060 -0.001610 3.594420 
# 
# 
# High freq. dielectric constant tensor:
#      x y z
#    x 1.711990 -0.000020 0.029290 
#    y -0.000020 1.737590 -0.000040 
#    z 0.029290 -0.000040 1.694660 
# 
# From -- ./inp_files/284214.got.cif
#   From: 2010.06.25/outbox.cif.g09.slc.cpg/sg12_143_cif.got.tgz:284214.got - 2010.06.28 00:19:55.
