data_PCOD8115636
_publ_section_title
;
Structure prediction by ZEFSAII (Michael W. Deem and Ramdas Pophale) SiO2 
 PCOD8115636
Probable space group: C 2/M
;
_chemical_formula_sum "Si O2"
_cell_formula_units_Z 64
_cell_length_a 17.617344
_cell_length_b 14.771740
_cell_length_c 14.824225
_cell_angle_alpha 90.000000
_cell_angle_beta 49.224893
_cell_angle_gamma 90.000000
_cell_volume 2921.459890
_symmetry_space_group_name_H-M "C 2/M"
_symmetry_group_IT_number 12
_symmetry_cell_setting 'monoclinic'
loop_
_space_group_symop_operation_xyz
x,y,z
-x,y,-z
-x,-y,-z
x,-y,z
1/2+x,1/2+y,z
1/2-x,1/2+y,-z
1/2-x,1/2-y,-z
1/2+x,1/2-y,z
loop_
_atom_site_type_symbol
_atom_site_label
_atom_site_fract_x
_atom_site_fract_y
_atom_site_fract_z
Si Si1 0.899096 0.602711 0.523838
Si Si2 0.594251 0.604932 0.990479
Si Si3 0.277378 0.773913 0.126906
Si Si4 0.052006 0.599057 0.053556
Si Si5 0.926533 0.332704 0.306491
Si Si6 0.929696 0.829128 0.793064
Si Si7 0.232658 0.772147 0.362255
Si Si8 0.941862 0.101442 0.458027
O O1 0.868609 0.500000 0.573766
O O2 0.911484 0.606401 0.406396
O O3 0.808828 0.670365 0.620313
O O4 0.000000 0.630588 0.500000
O O5 0.625628 0.500000 0.953298
O O6 0.560155 0.623019 0.118775
O O7 0.500000 0.630295 0.000000
O O8 0.690566 0.667887 0.892483
O O9 0.182446 0.797903 0.140614
O O10 0.259696 0.811188 0.242088
O O11 0.364687 0.823978 0.003197
O O12 0.103034 0.500000 0.019092
O O13 0.966578 0.603931 0.195703
O O14 0.000000 0.615347 0.000000
O O15 0.828948 0.276428 0.351490
O O16 0.010412 0.261965 0.265318
O O17 0.978789 0.898998 0.684958
O O18 0.151588 0.831449 0.479896
O O19 0.000000 0.136290 0.500000
O O20 0.899817 0.000000 0.502811
#
# Coordination Sequence:
#
# PCOD8115636 Si02
#       8
#     8   8   8   8   8   8   8   8
#     4  11  25  46  70  99 137 182 231 279 329 398
#     4  11  25  46  70  99 137 182 231 279 329 398
#     4  12  24  44  72 100 135 179 223 278 343 404
#     4  11  24  43  69 101 136 172 216 277 342 403
#     4  12  24  44  71  98 134 180 224 276 340 396
#     4  12  24  44  71  98 134 180 224 276 340 396
#     4  12  24  44  72 100 135 179 223 278 343 404
#     4  11  24  43  69 101 136 172 216 277 342 403
#
# _framework density 21.906855
#
# number of rings (size 3 to 8) (size 9 to 14) (size 15 to 20)
#    0.000    0.500    5.000    3.750    0.000    3.000 
#    0.000    1.250    0.000    0.000    0.000    0.000 
#    0.000    0.000    0.000    0.000    0.000    0.000 
#
# Total GULP energy -396817.816940 kJ/mol
# GULP energy per Si atom -12400.556779 kJ/mol
# Density = 2.185699 g / cm^3
# Si number density = 21.906855 Si / 1000 Ang^3
#
#
#
# Elastic Constant Matrix: (Units=GPa)
#
#
# Indices 1 2 3 4 5 6 
#
# 1 104.5156 52.5070 52.6624 0.0000 14.5401 0.0000
# 2 52.5070 106.5759 13.1207 0.0000 -22.3349 0.0000
# 3 52.6624 13.1207 115.7541 0.0000 4.2516 0.0000
# 4 0.0000 0.0000 0.0000 22.0306 0.0000 4.9865
# 5 14.5401 -22.3349 4.2516 0.0000 36.7329 0.0000
# 6 0.0000 0.0000 0.0000 4.9865 0.0000 5.7289
#
#
#
# Elastic Compliance Matrix: (Units=1/GPa)
#
#
# Indices 1 2 3 4 5 6 
#
# 1 0.022916 -0.013721 -0.008266 0.000000 -0.016457 0.000000
# 2 -0.013721 0.019222 0.003449 0.000000 0.016720 0.000000
# 3 -0.008266 0.003449 0.011862 0.000000 0.003996 0.000000
# 4 0.000000 0.000000 0.000000 0.056528 0.000000 -0.049202
# 5 -0.016457 0.016720 0.003996 0.000000 0.043441 0.000000
# 6 0.000000 0.000000 0.000000 -0.049202 0.000000 0.217379
#
#
# Mechanical properties :
#
#
# Convention : Reuss Voigt Hill
#
# Bulk Modulus (GPa) = 59.08468 62.60285 60.84376
# Shear Modulus (GPa) = 12.07543 26.80219 19.43881
#
# Velocity S-wave (km/s) = 2.35035 3.50160 2.98206
# Velocity P-wave (km/s) = 5.86472 6.70724 6.30008
#
# Compressibility (1/GPa) = 0.01692486
#
# Stress axis : x y z
#
# Youngs Moduli (GPa) = 43.63854 52.02300 84.30491
#
# Poissons Ratio (x) = 0.71381 0.69684
# Poissons Ratio (y) = 0.59877 -0.29081
# Poissons Ratio (z) = 0.36070 -0.17945
#
# Static dielectric constant tensor:
#      x y z
#    x 4.047210 0.000000 -0.199310 
#    y 0.000000 3.908170 0.000000 
#    z -0.199310 0.000000 4.984370 
# 
# 
# High freq. dielectric constant tensor:
#      x y z
#    x 1.866270 0.000000 0.011070 
#    y 0.000000 1.862160 0.000000 
#    z 0.011070 0.000000 1.872080 
# 
# From -- ./inp_files/225695.got.cif
#   From: 2010.06.25/outbox.cif.g09.slc.cpg/sg12_113_cif.got.tgz:225695.got - 2010.06.28 00:19:55.
