data_PCOD8115459
_publ_section_title
;
Structure prediction by ZEFSAII (Michael W. Deem and Ramdas Pophale) SiO2 
 PCOD8115459
Probable space group: C 2/M
;
_chemical_formula_sum "Si O2"
_cell_formula_units_Z 36
_cell_length_a 9.370888
_cell_length_b 25.412144
_cell_length_c 7.839089
_cell_angle_alpha 90.000000
_cell_angle_beta 61.982043
_cell_angle_gamma 90.000000
_cell_volume 1647.973325
_symmetry_space_group_name_H-M "C 2/M"
_symmetry_group_IT_number 12
_symmetry_cell_setting 'monoclinic'
loop_
_space_group_symop_operation_xyz
x,y,z
-x,y,-z
-x,-y,-z
x,-y,z
1/2+x,1/2+y,z
1/2-x,1/2+y,-z
1/2-x,1/2-y,-z
1/2+x,1/2-y,z
loop_
_atom_site_type_symbol
_atom_site_label
_atom_site_fract_x
_atom_site_fract_y
_atom_site_fract_z
Si Si1 0.000000 0.326036 0.000000
Si Si2 0.128750 0.702070 0.577248
Si Si3 0.654838 0.500000 0.535195
Si Si4 0.702689 0.609754 0.052040
Si Si5 0.688702 0.000000 0.885591
Si Si6 0.341455 0.613081 0.312907
O O1 0.968789 0.292566 0.188962
O O2 0.841176 0.360978 0.075808
O O3 0.250000 0.750000 0.500000
O O4 0.231243 0.647673 0.502336
O O5 0.000000 0.706573 0.500000
O O6 0.500000 0.500000 0.500000
O O7 0.802581 0.500000 0.323158
O O8 0.669794 0.551361 0.642641
O O9 0.720555 0.548153 0.076024
O O10 0.529687 0.629964 0.219629
O O11 0.723001 0.622141 0.841380
O O12 0.500000 0.000000 0.000000
#
# Coordination Sequence:
#
# PCOD8115459 Si02
#       6
#     4   8   4   8   4   8
#     4  12  26  47  76 106 148 187 246 298 372 434
#     4  12  30  52  77 111 146 191 246 305 370 437
#     4  12  23  39  69 104 149 198 243 294 364 432
#     4  11  23  43  72 102 148 196 241 304 359 435
#     4  12  23  37  61 105 143 194 244 288 359 425
#     4  11  25  46  71 107 148 191 249 300 364 436
#
# _framework density 21.845013000000002
#
# number of rings (size 3 to 8) (size 9 to 14) (size 15 to 20)
#    0.000    0.444    5.556    2.000    3.111    4.444 
#    0.000    1.667    0.000    0.000    0.000    0.000 
#    0.000    0.000    0.000    0.000    0.000    0.000 
#
# Total GULP energy -223205.223208 kJ/mol
# GULP energy per Si atom -12400.290178 kJ/mol
# Density = 2.179529 g / cm^3
# Si number density = 21.845013 Si / 1000 Ang^3
#
#
#
# Elastic Constant Matrix: (Units=GPa)
#
#
# Indices 1 2 3 4 5 6 
#
# 1 137.9129 35.5371 47.1873 0.0000 1.3021 0.0000
# 2 35.5371 106.1312 34.1902 0.0000 -0.9766 0.0000
# 3 47.1873 34.1902 162.0138 0.0000 -4.5973 0.0000
# 4 0.0000 0.0000 0.0000 37.6775 0.0000 36.4648
# 5 1.3021 -0.9766 -4.5973 0.0000 24.7989 0.0000
# 6 0.0000 0.0000 0.0000 36.4648 0.0000 82.2875
#
#
#
# Elastic Compliance Matrix: (Units=1/GPa)
#
#
# Indices 1 2 3 4 5 6 
#
# 1 0.008527 -0.002205 -0.002044 0.000000 -0.000914 0.000000
# 2 -0.002205 0.010680 -0.001605 0.000000 0.000239 0.000000
# 3 -0.002044 -0.001605 0.007145 0.000000 0.001369 0.000000
# 4 0.000000 0.000000 0.000000 0.046472 0.000000 -0.020593
# 5 -0.000914 0.000239 0.001369 0.000000 0.040636 0.000000
# 6 0.000000 0.000000 0.000000 -0.020593 0.000000 0.021278
#
#
# Mechanical properties :
#
#
# Convention : Reuss Voigt Hill
#
# Bulk Modulus (GPa) = 68.28681 71.09857 69.69269
# Shear Modulus (GPa) = 33.04101 48.22899 40.63500
#
# Velocity S-wave (km/s) = 3.89333 4.70380 4.31762
# Velocity P-wave (km/s) = 7.17901 7.88153 7.53846
#
# Compressibility (1/GPa) = 0.01464412
#
# Stress axis : x y z
#
# Youngs Moduli (GPa) = 117.27172 93.63438 139.95443
#
# Poissons Ratio (x) = 0.20648 0.28609
# Poissons Ratio (y) = 0.25860 0.22459
# Poissons Ratio (z) = 0.23972 0.15026
#
# Static dielectric constant tensor:
#      x y z
#    x 3.991170 0.000000 -0.217310 
#    y 0.000000 3.772180 0.000000 
#    z -0.217310 0.000000 4.200000 
# 
# 
# High freq. dielectric constant tensor:
#      x y z
#    x 1.874520 0.000000 -0.004380 
#    y 0.000000 1.846670 0.000000 
#    z -0.004380 0.000000 1.878180 
# 
# From -- ./inp_files/39133.got.cif
#   From: 2010.06.25/outbox.cif.g09.slc.cpg/sg12_20_cif.got.tgz:39133.got - 2010.06.28 00:19:55.
