data_PCOD8115140
_publ_section_title
;
Structure prediction by ZEFSAII (Michael W. Deem and Ramdas Pophale) SiO2 
 PCOD8115140
Probable space group: C 2/M
;
_chemical_formula_sum "Si O2"
_cell_formula_units_Z 64
_cell_length_a 9.050027
_cell_length_b 27.000031
_cell_length_c 18.239968
_cell_angle_alpha 90.000000
_cell_angle_beta 40.261983
_cell_angle_gamma 90.000000
_cell_volume 2880.456617
_symmetry_space_group_name_H-M "C 2/M"
_symmetry_group_IT_number 12
_symmetry_cell_setting 'monoclinic'
loop_
_space_group_symop_operation_xyz
x,y,z
-x,y,-z
-x,-y,-z
x,-y,z
1/2+x,1/2+y,z
1/2-x,1/2+y,-z
1/2-x,1/2-y,-z
1/2+x,1/2-y,z
loop_
_atom_site_type_symbol
_atom_site_label
_atom_site_fract_x
_atom_site_fract_y
_atom_site_fract_z
Si Si1 0.101022 0.368561 0.882993
Si Si2 0.003995 0.056302 0.267576
Si Si3 0.437413 0.690011 0.658123
Si Si4 0.608713 0.590380 0.532995
Si Si5 0.748735 0.752182 0.915970
Si Si6 0.627418 0.114806 0.317550
Si Si7 0.711925 0.285139 0.682417
Si Si8 0.244161 0.360801 0.112773
O O1 0.255263 0.417008 0.836703
O O2 0.248732 0.323487 0.791881
O O3 0.901947 0.380558 0.900356
O O4 0.000000 0.353107 0.000000
O O5 0.946399 0.057086 0.375757
O O6 0.810565 0.083183 0.293200
O O7 0.023877 0.000000 0.233359
O O8 0.489341 0.643976 0.586494
O O9 0.671649 0.706499 0.610603
O O10 0.339709 0.733471 0.644941
O O11 0.500000 0.566913 0.500000
O O12 0.880090 0.592824 0.426261
O O13 0.774046 0.698509 0.868032
O O14 0.959550 0.786741 0.813601
O O15 0.500000 0.776900 0.000000
O O16 0.750000 0.750000 0.000000
O O17 0.636713 0.171438 0.340917
O O18 0.665580 0.111909 0.216210
O O19 0.500000 0.377246 0.000000
#
# Coordination Sequence:
#
# PCOD8115140 Si02
#       8
#     8   8   8   8   8   8   8   8
#     4  11  23  44  70 102 147 186 230 283 349 414
#     4  11  26  50  79 106 130 170 230 298 365 420
#     4  11  25  41  62  97 141 195 238 282 334 403
#     4  11  26  48  70 100 139 176 228 288 355 424
#     4  11  23  34  55  91 136 187 240 278 315 379
#     4  12  24  45  69  98 140 181 233 292 347 418
#     4  12  23  39  60  94 141 186 240 280 329 400
#     4  11  23  40  64  99 141 189 228 278 337 403
#
# _framework density 22.218699000000001
#
# number of rings (size 3 to 8) (size 9 to 14) (size 15 to 20)
#    0.000    0.750    3.750    5.625    3.500    2.000 
#    0.000    1.875    0.000    1.500    0.000    0.000 
#    0.000    0.000    0.000    0.000    0.000    0.000 
#
# Total GULP energy -396781.759573 kJ/mol
# GULP energy per Si atom -12399.429987 kJ/mol
# Density = 2.216813 g / cm^3
# Si number density = 22.218699 Si / 1000 Ang^3
#
#
#
# Elastic Constant Matrix: (Units=GPa)
#
#
# Indices 1 2 3 4 5 6 
#
# 1 159.5459 21.0162 30.6338 0.0000 2.1109 0.0000
# 2 21.0162 94.9283 12.2516 0.0000 -7.4749 0.0000
# 3 30.6338 12.2516 78.2600 0.0000 1.5157 0.0000
# 4 0.0000 0.0000 0.0000 7.8622 0.0000 2.7137
# 5 2.1109 -7.4749 1.5157 0.0000 45.8551 0.0000
# 6 0.0000 0.0000 0.0000 2.7137 0.0000 17.4434
#
#
#
# Elastic Compliance Matrix: (Units=1/GPa)
#
#
# Indices 1 2 3 4 5 6 
#
# 1 0.006918 -0.001243 -0.002505 0.000000 -0.000438 0.000000
# 2 -0.001243 0.011127 -0.001292 0.000000 0.001914 0.000000
# 3 -0.002505 -0.001292 0.013972 0.000000 -0.000557 0.000000
# 4 0.000000 0.000000 0.000000 0.134408 0.000000 -0.020910
# 5 -0.000438 0.001914 -0.000557 0.000000 0.022158 0.000000
# 6 0.000000 0.000000 0.000000 -0.020910 0.000000 0.060581
#
#
# Mechanical properties :
#
#
# Convention : Reuss Voigt Hill
#
# Bulk Modulus (GPa) = 45.58692 51.17082 48.37887
# Shear Modulus (GPa) = 18.75771 32.15434 25.45602
#
# Velocity S-wave (km/s) = 2.90872 3.80830 3.38850
# Velocity P-wave (km/s) = 5.64294 6.51292 6.09347
#
# Compressibility (1/GPa) = 0.02193611
#
# Stress axis : x y z
#
# Youngs Moduli (GPa) = 144.54461 89.87211 71.57378
#
# Poissons Ratio (x) = 0.11170 0.17929
# Poissons Ratio (y) = 0.17965 0.09251
# Poissons Ratio (z) = 0.36209 0.11616
#
# Static dielectric constant tensor:
#      x y z
#    x 4.401120 0.000000 -0.036120 
#    y 0.000000 3.478800 0.000000 
#    z -0.036120 0.000000 4.109960 
# 
# 
# High freq. dielectric constant tensor:
#      x y z
#    x 1.904050 0.000000 -0.002500 
#    y 0.000000 1.837320 0.000000 
#    z -0.002500 0.000000 1.880610 
# 
# From -- ./inp_files/260297.got.cif
#   From: 2010.06.25/outbox.cif.g09.slc.cpg/sg12_131_cif.got.tgz:260297.got - 2010.06.28 00:19:55.
