data_PCOD8115242
_publ_section_title
;
Structure prediction by ZEFSAII (Michael W. Deem and Ramdas Pophale) SiO2 
 PCOD8115242
Probable space group: C 2/M
;
_chemical_formula_sum "Si O2"
_cell_formula_units_Z 56
_cell_length_a 11.161709
_cell_length_b 27.820726
_cell_length_c 9.509456
_cell_angle_alpha 90.000000
_cell_angle_beta 69.258952
_cell_angle_gamma 90.000000
_cell_volume 2761.562898
_symmetry_space_group_name_H-M "C 2/M"
_symmetry_group_IT_number 12
_symmetry_cell_setting 'monoclinic'
loop_
_space_group_symop_operation_xyz
x,y,z
-x,y,-z
-x,-y,-z
x,-y,z
1/2+x,1/2+y,z
1/2-x,1/2+y,-z
1/2-x,1/2-y,-z
1/2+x,1/2-y,z
loop_
_atom_site_type_symbol
_atom_site_label
_atom_site_fract_x
_atom_site_fract_y
_atom_site_fract_z
Si Si1 0.998254 0.718143 0.840606
Si Si2 0.378874 0.053419 0.952837
Si Si3 0.683554 0.365802 0.689044
Si Si4 0.240900 0.650651 0.036818
Si Si5 0.740475 0.801069 0.575167
Si Si6 0.377950 0.053899 0.630068
Si Si7 0.931092 0.184646 0.730067
O O1 0.891818 0.677081 0.873116
O O2 0.986530 0.762606 0.738920
O O3 0.130261 0.693094 0.737982
O O4 0.000000 0.737142 0.000000
O O5 0.277487 0.096447 0.016498
O O6 0.421073 0.055253 0.773707
O O7 0.320893 0.000000 0.011550
O O8 0.500000 0.063788 0.000000
O O9 0.682135 0.347729 0.849637
O O10 0.779551 0.336832 0.547229
O O11 0.741761 0.419539 0.660650
O O12 0.536957 0.357987 0.698265
O O13 0.318824 0.679155 0.889409
O O14 0.750000 0.750000 0.500000
O O15 0.874171 0.814668 0.596478
O O16 0.500000 0.077223 0.500000
O O17 0.354033 0.000000 0.585354
#
# Coordination Sequence:
#
# PCOD8115242 Si02
#       7
#     8   8   8   8   8   8   8
#     4  12  24  40  63  88 119 163 211 257 302 361
#     4   9  19  36  60  91 121 149 197 259 307 355
#     4  11  24  39  62  90 125 163 198 255 309 368
#     4  11  23  39  63  88 122 164 205 249 310 375
#     4  12  26  42  61  88 122 164 208 259 307 365
#     4   9  20  39  63  92 123 161 207 255 308 368
#     4  12  25  42  60  86 127 163 205 251 309 378
#
# _framework density 20.278372999999998
#
# number of rings (size 3 to 8) (size 9 to 14) (size 15 to 20)
#    0.000    1.143    2.857    3.429    4.000    1.143 
#    0.000    0.714    0.000    5.143    0.000    0.000 
#    0.000    0.000    0.000    0.000    0.000    0.000 
#
# Total GULP energy -347058.396850 kJ/mol
# GULP energy per Si atom -12394.942745 kJ/mol
# Density = 2.023222 g / cm^3
# Si number density = 20.278373 Si / 1000 Ang^3
#
#
#
# Elastic Constant Matrix: (Units=GPa)
#
#
# Indices 1 2 3 4 5 6 
#
# 1 116.5230 45.9938 32.1672 0.0000 2.9698 0.0000
# 2 45.9938 80.0722 20.3885 0.0000 8.2456 0.0000
# 3 32.1672 20.3885 65.9753 0.0000 3.7768 0.0000
# 4 0.0000 0.0000 0.0000 26.6282 0.0000 1.4200
# 5 2.9698 8.2456 3.7768 0.0000 41.6641 0.0000
# 6 0.0000 0.0000 0.0000 1.4200 0.0000 22.5843
#
#
#
# Elastic Compliance Matrix: (Units=1/GPa)
#
#
# Indices 1 2 3 4 5 6 
#
# 1 0.012036 -0.005948 -0.004069 0.000000 0.000688 0.000000
# 2 -0.005948 0.016721 -0.002113 0.000000 -0.002694 0.000000
# 3 -0.004069 -0.002113 0.017846 0.000000 -0.000910 0.000000
# 4 0.000000 0.000000 0.000000 0.037681 0.000000 -0.002369
# 5 0.000688 -0.002694 -0.000910 0.000000 0.024568 0.000000
# 6 0.000000 0.000000 0.000000 -0.002369 0.000000 0.044428
#
#
# Mechanical properties :
#
#
# Convention : Reuss Voigt Hill
#
# Bulk Modulus (GPa) = 44.75905 51.07437 47.91671
# Shear Modulus (GPa) = 27.02895 29.11006 28.06950
#
# Velocity S-wave (km/s) = 3.65484 3.79294 3.72453
# Velocity P-wave (km/s) = 6.31908 6.66507 6.49438
#
# Compressibility (1/GPa) = 0.02234185
#
# Stress axis : x y z
#
# Youngs Moduli (GPa) = 83.08654 59.80610 56.03386
#
# Poissons Ratio (x) = 0.35573 0.22803
# Poissons Ratio (y) = 0.49420 0.11840
# Poissons Ratio (z) = 0.33811 0.12637
#
# Static dielectric constant tensor:
#      x y z
#    x 3.713350 0.000000 0.055740 
#    y 0.000000 4.427780 0.000000 
#    z 0.055740 0.000000 4.170590 
# 
# 
# High freq. dielectric constant tensor:
#      x y z
#    x 1.784300 0.000000 0.008190 
#    y 0.000000 1.781750 0.000000 
#    z 0.008190 0.000000 1.809990 
# 
# From -- ./inp_files/54184.got.cif
#   From: 2010.06.25/outbox.cif.g09.slc.cpg/sg12_28_cif.got.tgz:54184.got - 2010.06.28 00:19:55.
