data_PCOD8115926
_publ_section_title
;
Structure prediction by ZEFSAII (Michael W. Deem and Ramdas Pophale) SiO2 
 PCOD8115926
Probable space group: C 2/M
;
_chemical_formula_sum "Si O2"
_cell_formula_units_Z 44
_cell_length_a 12.725155
_cell_length_b 14.919324
_cell_length_c 32.603271
_cell_angle_alpha 90.000000
_cell_angle_beta 160.685480
_cell_angle_gamma 90.000000
_cell_volume 2047.283236
_symmetry_space_group_name_H-M "C 2/M"
_symmetry_group_IT_number 12
_symmetry_cell_setting 'monoclinic'
loop_
_space_group_symop_operation_xyz
x,y,z
-x,y,-z
-x,-y,-z
x,-y,z
1/2+x,1/2+y,z
1/2-x,1/2+y,-z
1/2-x,1/2-y,-z
1/2+x,1/2-y,z
loop_
_atom_site_type_symbol
_atom_site_label
_atom_site_fract_x
_atom_site_fract_y
_atom_site_fract_z
Si Si1 0.615584 0.396599 0.804367
Si Si2 0.299572 0.156403 0.276009
Si Si3 0.645079 0.332274 0.377655
Si Si4 0.232002 0.500000 0.935223
Si Si5 0.465395 0.500000 0.359204
Si Si6 0.276069 0.646207 0.019995
Si Si7 0.792627 0.000000 0.463973
O O1 0.521561 0.500000 0.775998
O O2 0.437646 0.337790 0.772750
O O3 0.520812 0.363571 0.724759
O O4 0.994726 0.383378 0.947265
O O5 0.441431 0.254471 0.323103
O O6 0.579991 0.087949 0.387569
O O7 0.106798 0.126056 0.164641
O O8 0.658367 0.413972 0.414375
O O9 0.000000 0.297527 0.500000
O O10 0.893670 0.500000 0.788605
O O11 0.500000 0.500000 0.000000
O O12 0.264728 0.589182 0.974274
O O13 0.468731 0.500000 0.409617
O O14 0.250000 0.750000 0.000000
O O15 0.000000 0.000000 0.500000
#
# Coordination Sequence:
#
# PCOD8115926 Si02
#       7
#     8   8   8   4   4   8   4
#     4  12  24  47  76 108 141 194 245 292 362 431
#     4  12  27  45  72 111 145 189 242 298 362 427
#     4  12  25  46  75 105 147 193 248 296 352 433
#     4  12  27  46  77 110 139 193 243 296 369 432
#     4  12  25  50  75 103 143 194 251 295 355 437
#     4  12  24  48  74 108 147 187 237 300 362 427
#     4  12  29  46  68 104 149 193 231 299 369 418
#
# _framework density 21.491897000000002
#
# number of rings (size 3 to 8) (size 9 to 14) (size 15 to 20)
#    0.000    0.000    6.364    3.000    2.545    8.000 
#    0.000    0.000    0.000    0.000    0.000    0.000 
#    0.000    0.000    0.000    0.000    0.000    0.000 
#
# Total GULP energy -272987.557947 kJ/mol
# GULP energy per Si atom -12408.525361 kJ/mol
# Density = 2.144298 g / cm^3
# Si number density = 21.491897 Si / 1000 Ang^3
#
#
#
# Elastic Constant Matrix: (Units=GPa)
#
#
# Indices 1 2 3 4 5 6 
#
# 1 164.7059 70.1571 57.1450 0.0007 11.5398 -0.0030
# 2 70.1571 149.7628 57.7863 -0.0066 0.4576 0.0054
# 3 57.1450 57.7863 101.1574 -0.0840 -3.2356 0.0044
# 4 0.0007 -0.0066 -0.0840 -5.1438 -0.0179 6.6579
# 5 11.5398 0.4576 -3.2356 -0.0179 48.7771 0.0047
# 6 -0.0030 0.0054 0.0044 6.6579 0.0047 36.6464
#
#
#
# Elastic Compliance Matrix: (Units=1/GPa)
#
#
# Indices 1 2 3 4 5 6 
#
# 1 0.008540 -0.002700 -0.003353 0.000056 -0.002218 -0.000008
# 2 -0.002700 0.009427 -0.003850 0.000039 0.000295 -0.000008
# 3 -0.003353 -0.003850 0.014035 -0.000189 0.001760 0.000033
# 4 0.000056 0.000039 -0.000189 -0.157394 -0.000087 0.028595
# 5 -0.002218 0.000295 0.001760 -0.000087 0.021140 0.000013
# 6 -0.000008 -0.000008 0.000033 0.028595 0.000013 0.022093
#
#
# Mechanical properties :
#
#
# Convention : Reuss Voigt Hill
#
# Bulk Modulus (GPa) = 81.99609 87.31142 84.65376
# Shear Modulus (GPa) = -85.78227 31.42513 -27.17857
#
# Velocity S-wave (km/s) = -6.32459 3.82800 -3.55997
# Velocity P-wave (km/s) = 3.88574 7.76219 4.75145
#
# Compressibility (1/GPa) = 0.01219570
#
# Stress axis : x y z
#
# Youngs Moduli (GPa) = 117.09268 106.07948 71.24908
#
# Poissons Ratio (x) = 0.28644 0.23889
# Poissons Ratio (y) = 0.31618 0.27433
# Poissons Ratio (z) = 0.39259 0.40843
#
# Static dielectric constant tensor:
#      x y z
#    x 4.066100 0.000340 0.093080 
#    y 0.000340 4.225170 -0.000160 
#    z 0.093080 -0.000160 4.190930 
# 
# 
# High freq. dielectric constant tensor:
#      x y z
#    x 1.850250 0.000000 0.000610 
#    y 0.000000 1.852290 0.000000 
#    z 0.000610 0.000000 1.862030 
# 
# From -- ./inp_files/374522.got.cif
#   From: 2010.06.25/outbox.cif.g09.slc.cpg/sg12_188_cif.got.tgz:374522.got - 2010.06.28 00:19:55.
