data_PCOD8115376
_publ_section_title
;
Structure prediction by ZEFSAII (Michael W. Deem and Ramdas Pophale) SiO2 
 PCOD8115376
Probable space group: C 2/M
;
_chemical_formula_sum "Si O2"
_cell_formula_units_Z 40
_cell_length_a 17.605925
_cell_length_b 15.092004
_cell_length_c 20.153965
_cell_angle_alpha 90.000000
_cell_angle_beta 159.509342
_cell_angle_gamma 90.000000
_cell_volume 1874.571951
_symmetry_space_group_name_H-M "C 2/M"
_symmetry_group_IT_number 12
_symmetry_cell_setting 'monoclinic'
loop_
_space_group_symop_operation_xyz
x,y,z
-x,y,-z
-x,-y,-z
x,-y,z
1/2+x,1/2+y,z
1/2-x,1/2+y,-z
1/2-x,1/2-y,-z
1/2+x,1/2-y,z
loop_
_atom_site_type_symbol
_atom_site_label
_atom_site_fract_x
_atom_site_fract_y
_atom_site_fract_z
Si Si1 0.733424 0.095885 0.594747
Si Si2 0.150645 0.219537 0.562261
Si Si3 0.413403 0.404799 0.002267
Si Si4 0.159670 0.267392 0.998245
Si Si5 0.499820 0.398307 0.321153
O O1 0.578041 0.181083 0.478424
O O2 0.863817 0.111756 0.634043
O O3 0.891555 0.093002 0.786301
O O4 0.608874 0.000000 0.489631
O O5 0.127666 0.148844 0.484983
O O6 0.000000 0.190371 0.500000
O O7 0.401773 0.218976 0.789222
O O8 0.287881 0.500000 0.904864
O O9 0.500000 0.390874 0.000000
O O10 0.265664 0.320189 0.899104
O O11 0.266247 0.352958 0.119207
O O12 0.250000 0.250000 0.000000
O O13 0.459502 0.500000 0.307242
#
# Coordination Sequence:
#
# PCOD8115376 Si02
#       5
#     8   8   8   8   8
#     4   9  19  39  64  95 129 167 212 263 324 393
#     4  11  25  42  66  98 135 169 212 273 331 387
#     4   9  18  34  60  96 133 159 199 264 325 387
#     4  11  23  41  70  94 129 175 219 263 318 390
#     4  11  24  44  69  93 129 175 227 273 313 379
#
# _framework density 21.338204999999999
#
# number of rings (size 3 to 8) (size 9 to 14) (size 15 to 20)
#    0.000    1.800    4.000    0.600    5.600    1.600 
#    0.000    2.000    0.000    0.000    0.000    0.000 
#    0.000    0.000    0.000    0.000    0.000    0.000 
#
# Total GULP energy -247831.669757 kJ/mol
# GULP energy per Si atom -12391.583488 kJ/mol
# Density = 2.128964 g / cm^3
# Si number density = 21.338205 Si / 1000 Ang^3
#
#
#
# Elastic Constant Matrix: (Units=GPa)
#
#
# Indices 1 2 3 4 5 6 
#
# 1 132.5046 41.4744 18.3219 -0.0073 -14.3387 -0.0007
# 2 41.4744 164.3546 7.7175 -0.0610 -18.9242 -0.0065
# 3 18.3219 7.7175 52.6966 -0.0478 -0.3908 -0.0074
# 4 -0.0073 -0.0610 -0.0478 16.5456 0.0125 6.4543
# 5 -14.3387 -18.9242 -0.3908 0.0125 25.3869 -0.0068
# 6 -0.0007 -0.0065 -0.0074 6.4543 -0.0068 39.7735
#
#
#
# Elastic Compliance Matrix: (Units=1/GPa)
#
#
# Indices 1 2 3 4 5 6 
#
# 1 0.008862 -0.001677 -0.002808 -0.000014 0.003712 0.000002
# 2 -0.001677 0.007020 -0.000413 0.000021 0.004279 -0.000002
# 3 -0.002808 -0.000413 0.020002 0.000059 -0.001586 -0.000006
# 4 -0.000014 0.000021 0.000059 0.064524 -0.000026 -0.010471
# 5 0.003712 0.004279 -0.001586 -0.000026 0.044652 0.000012
# 6 0.000002 -0.000002 -0.000006 -0.010471 0.000012 0.026842
#
#
# Mechanical properties :
#
#
# Convention : Reuss Voigt Hill
#
# Bulk Modulus (GPa) = 38.33373 53.84260 46.08816
# Shear Modulus (GPa) = 26.26147 35.14399 30.70273
#
# Velocity S-wave (km/s) = 3.51198 4.06273 3.79735
# Velocity P-wave (km/s) = 5.86934 6.87716 6.39314
#
# Compressibility (1/GPa) = 0.02608669
#
# Stress axis : x y z
#
# Youngs Moduli (GPa) = 112.84442 142.45583 49.99585
#
# Poissons Ratio (x) = 0.23890 0.14039
# Poissons Ratio (y) = 0.18924 0.02066
# Poissons Ratio (z) = 0.31687 0.05887
#
# Static dielectric constant tensor:
#      x y z
#    x 3.877430 -0.000060 -0.268080 
#    y -0.000060 4.858310 -0.000510 
#    z -0.268080 -0.000510 3.816120 
# 
# 
# High freq. dielectric constant tensor:
#      x y z
#    x 1.843330 -0.000010 -0.021920 
#    y -0.000010 1.858790 -0.000020 
#    z -0.021920 -0.000020 1.812470 
# 
# From -- ./inp_files/285069.got.cif
#   From: 2010.06.25/outbox.cif.g09.slc.cpg/sg12_143_cif.got.tgz:285069.got - 2010.06.28 00:19:55.
