data_PCOD8115735
_publ_section_title
;
Structure prediction by ZEFSAII (Michael W. Deem and Ramdas Pophale) SiO2 
 PCOD8115735
Probable space group: C 2/M
;
_chemical_formula_sum "Si O2"
_cell_formula_units_Z 56
_cell_length_a 20.518047
_cell_length_b 20.364789
_cell_length_c 18.160627
_cell_angle_alpha 90.000000
_cell_angle_beta 160.374245
_cell_angle_gamma 90.000000
_cell_volume 2548.733649
_symmetry_space_group_name_H-M "C 2/M"
_symmetry_group_IT_number 12
_symmetry_cell_setting 'monoclinic'
loop_
_space_group_symop_operation_xyz
x,y,z
-x,y,-z
-x,-y,-z
x,-y,z
1/2+x,1/2+y,z
1/2-x,1/2+y,-z
1/2-x,1/2-y,-z
1/2+x,1/2-y,z
loop_
_atom_site_type_symbol
_atom_site_label
_atom_site_fract_x
_atom_site_fract_y
_atom_site_fract_z
Si Si1 0.494959 0.132437 0.075346
Si Si2 0.787437 0.829074 0.743428
Si Si3 0.844139 0.786458 0.484196
Si Si4 0.438144 0.337283 0.154500
Si Si5 0.258507 0.076720 0.421678
Si Si6 0.135769 0.424791 0.916804
Si Si7 0.718270 0.751012 0.803594
O O1 0.715094 0.148902 0.333290
O O2 0.399019 0.084484 0.032989
O O3 0.500000 0.098324 0.000000
O O4 0.374375 0.199781 0.939070
O O5 0.783647 0.778958 0.668435
O O6 0.699355 0.896663 0.616654
O O7 0.662869 0.800678 0.678319
O O8 0.000000 0.841416 0.000000
O O9 0.921128 0.788459 0.649957
O O10 0.025075 0.787295 0.620748
O O11 0.560056 0.388994 0.236796
O O12 0.307925 0.377865 0.073975
O O13 0.298262 0.292407 0.957242
O O14 0.439243 0.094589 0.665429
O O15 0.219770 0.000000 0.377357
O O16 0.193513 0.500000 0.963033
#
# Coordination Sequence:
#
# PCOD8115735 Si02
#       7
#     8   8   8   8   8   8   8
#     4  12  24  42  65  96 131 167 214 265 335 397
#     4  12  23  42  63  99 139 170 215 266 322 389
#     4  12  23  38  67  96 130 168 208 270 339 385
#     4  12  24  41  69  98 127 171 222 271 330 387
#     4  11  25  45  68  93 132 183 225 264 313 381
#     4  11  26  47  67  93 129 172 226 274 317 387
#     4  12  24  40  62 102 134 167 208 277 330 392
#
# _framework density 21.971696000000001
#
# number of rings (size 3 to 8) (size 9 to 14) (size 15 to 20)
#    0.000    0.286    7.143    2.143    2.000    1.714 
#    0.000    0.000    0.000    4.286    0.000    0.000 
#    0.000    0.000    0.000    0.000    0.000    0.000 
#
# Total GULP energy -347210.137458 kJ/mol
# GULP energy per Si atom -12400.362052 kJ/mol
# Density = 2.192169 g / cm^3
# Si number density = 21.971696 Si / 1000 Ang^3
#
#
#
# Elastic Constant Matrix: (Units=GPa)
#
#
# Indices 1 2 3 4 5 6 
#
# 1 93.5458 24.1157 23.4655 -0.0224 -22.6222 -0.0059
# 2 24.1157 53.4621 30.6063 -0.0088 -12.0753 -0.0013
# 3 23.4655 30.6063 79.2805 -0.0266 -8.2742 -0.0164
# 4 -0.0224 -0.0088 -0.0266 21.7160 -0.0236 -4.9487
# 5 -22.6222 -12.0753 -8.2742 -0.0236 40.2438 -0.0105
# 6 -0.0059 -0.0013 -0.0164 -4.9487 -0.0105 33.3373
#
#
#
# Elastic Compliance Matrix: (Units=1/GPa)
#
#
# Indices 1 2 3 4 5 6 
#
# 1 0.013609 -0.003607 -0.001993 0.000018 0.006158 0.000006
# 2 -0.003607 0.026181 -0.008616 0.000000 0.004057 -0.000003
# 3 -0.001993 -0.008616 0.016497 0.000017 -0.000314 0.000010
# 4 0.000018 0.000000 0.000017 0.047661 0.000044 0.007075
# 5 0.006158 0.004057 -0.000314 0.000044 0.029463 0.000017
# 6 0.000006 -0.000003 0.000010 0.007075 0.000017 0.031047
#
#
# Mechanical properties :
#
#
# Convention : Reuss Voigt Hill
#
# Bulk Modulus (GPa) = 35.90070 42.51815 39.20942
# Shear Modulus (GPa) = 24.73120 28.93283 26.83201
#
# Velocity S-wave (km/s) = 3.35863 3.63274 3.49837
# Velocity P-wave (km/s) = 5.60495 6.08187 5.84827
#
# Compressibility (1/GPa) = 0.02785461
#
# Stress axis : x y z
#
# Youngs Moduli (GPa) = 73.48151 38.19601 60.61782
#
# Poissons Ratio (x) = 0.13777 0.12080
# Poissons Ratio (y) = 0.26505 0.52229
# Poissons Ratio (z) = 0.14643 0.32910
#
# Static dielectric constant tensor:
#      x y z
#    x 4.165010 0.000000 -0.128840 
#    y 0.000000 3.723110 0.000000 
#    z -0.128840 0.000000 4.193910 
# 
# 
# High freq. dielectric constant tensor:
#      x y z
#    x 1.875650 0.000000 -0.004840 
#    y 0.000000 1.833080 0.000000 
#    z -0.004840 0.000000 1.884460 
# 
# From -- ./inp_files/286099.got.cif
#   From: 2010.06.25/outbox.cif.g09.slc.cpg/sg12_144_cif.got.tgz:286099.got - 2010.06.28 00:19:55.
