data_PCOD8115831
_publ_section_title
;
Structure prediction by ZEFSAII (Michael W. Deem and Ramdas Pophale) SiO2 
 PCOD8115831
Probable space group: C 2/M
;
_chemical_formula_sum "Si O2"
_cell_formula_units_Z 40
_cell_length_a 17.395582
_cell_length_b 21.915313
_cell_length_c 5.058149
_cell_angle_alpha 90.000000
_cell_angle_beta 106.161097
_cell_angle_gamma 90.000000
_cell_volume 1852.114768
_symmetry_space_group_name_H-M "C 2/M"
_symmetry_group_IT_number 12
_symmetry_cell_setting 'monoclinic'
loop_
_space_group_symop_operation_xyz
x,y,z
-x,y,-z
-x,-y,-z
x,-y,z
1/2+x,1/2+y,z
1/2-x,1/2+y,-z
1/2-x,1/2-y,-z
1/2+x,1/2-y,z
loop_
_atom_site_type_symbol
_atom_site_label
_atom_site_fract_x
_atom_site_fract_y
_atom_site_fract_z
Si Si1 0.091599 0.871156 0.553299
Si Si2 0.160672 0.630666 0.690300
Si Si3 0.833221 0.184616 0.874493
Si Si4 0.091440 0.686978 0.123470
Si Si5 0.660665 0.500000 0.638944
Si Si6 0.731592 0.000000 0.757173
O O1 0.116860 0.857672 0.277703
O O2 0.104775 0.941832 0.632021
O O3 0.000000 0.853032 0.500000
O O4 0.143570 0.830393 0.802216
O O5 0.240044 0.671627 0.747006
O O6 0.099407 0.653937 0.411112
O O7 0.177880 0.559520 0.661546
O O8 0.117813 0.638224 0.929715
O O9 0.850351 0.255030 0.835115
O O10 0.000000 0.708278 0.000000
O O11 0.695359 0.500000 0.377535
O O12 0.733705 0.500000 0.914164
#
# Coordination Sequence:
#
# PCOD8115831 Si02
#       6
#     8   8   8   8   4   4
#     4  12  23  38  63  99 140 180 218 265 329 396
#     4  12  24  46  71  99 129 179 227 271 330 398
#     4  12  24  44  68 100 135 178 218 269 327 405
#     4  12  26  45  69 101 137 173 219 280 337 390
#     4  12  21  42  60  94 139 172 226 274 319 388
#     4  12  24  44  72  94 132 172 228 284 322 386
#
# _framework density 21.596931000000001
#
# number of rings (size 3 to 8) (size 9 to 14) (size 15 to 20)
#    0.000    0.000    4.000    7.500    0.000    0.000 
#    0.000    6.000    0.000    0.000    0.000    0.000 
#    0.000    0.000    0.000    0.000    0.000    0.000 
#
# Total GULP energy -248201.326120 kJ/mol
# GULP energy per Si atom -12410.066306 kJ/mol
# Density = 2.154778 g / cm^3
# Si number density = 21.596931 Si / 1000 Ang^3
#
#
#
# Elastic Constant Matrix: (Units=GPa)
#
#
# Indices 1 2 3 4 5 6 
#
# 1 82.3484 11.2598 14.8756 0.0000 3.5835 0.0000
# 2 11.2598 110.4946 29.6864 0.0000 13.9509 0.0000
# 3 14.8756 29.6864 94.5179 0.0000 2.9696 0.0000
# 4 0.0000 0.0000 0.0000 30.5040 0.0000 -7.6140
# 5 3.5835 13.9509 2.9696 0.0000 34.4999 0.0000
# 6 0.0000 0.0000 0.0000 -7.6140 0.0000 15.3760
#
#
#
# Elastic Compliance Matrix: (Units=1/GPa)
#
#
# Indices 1 2 3 4 5 6 
#
# 1 0.012591 -0.000708 -0.001732 0.000000 -0.000873 0.000000
# 2 -0.000708 0.010430 -0.003043 0.000000 -0.003882 0.000000
# 3 -0.001732 -0.003043 0.011796 0.000000 0.000395 0.000000
# 4 0.000000 0.000000 0.000000 0.037406 0.000000 0.018523
# 5 -0.000873 -0.003882 0.000395 0.000000 0.030612 0.000000
# 6 0.000000 0.000000 0.000000 0.018523 0.000000 0.074209
#
#
# Mechanical properties :
#
#
# Convention : Reuss Voigt Hill
#
# Bulk Modulus (GPa) = 41.92403 44.33383 43.12893
# Shear Modulus (GPa) = 25.51559 31.51193 28.51376
#
# Velocity S-wave (km/s) = 3.44094 3.82395 3.63749
# Velocity P-wave (km/s) = 5.93641 6.33002 6.13637
#
# Compressibility (1/GPa) = 0.02385267
#
# Stress axis : x y z
#
# Youngs Moduli (GPa) = 79.42102 95.87810 84.77598
#
# Poissons Ratio (x) = 0.06784 0.14683
# Poissons Ratio (y) = 0.05620 0.25793
# Poissons Ratio (z) = 0.13756 0.29171
#
# Static dielectric constant tensor:
#      x y z
#    x 3.837080 0.000000 -0.125500 
#    y 0.000000 3.949840 0.000000 
#    z -0.125500 0.000000 4.090950 
# 
# 
# High freq. dielectric constant tensor:
#      x y z
#    x 1.844310 0.000000 -0.007940 
#    y 0.000000 1.854740 0.000000 
#    z -0.007940 0.000000 1.865340 
# 
# From -- ./inp_files/15925.got.cif
#   From: 2010.06.25/outbox.cif.g09.slc.cpg/sg12_8_cif.got.tgz:15925.got - 2010.06.28 00:19:55.
