data_PCOD8115895
_publ_section_title
;
Structure prediction by ZEFSAII (Michael W. Deem and Ramdas Pophale) SiO2 
 PCOD8115895
Probable space group: C 2/M
;
_chemical_formula_sum "Si O2"
_cell_formula_units_Z 36
_cell_length_a 8.597255
_cell_length_b 15.053741
_cell_length_c 25.231964
_cell_angle_alpha 90.000000
_cell_angle_beta 29.660427
_cell_angle_gamma 90.000000
_cell_volume 1615.981671
_symmetry_space_group_name_H-M "C 2/M"
_symmetry_group_IT_number 12
_symmetry_cell_setting 'monoclinic'
loop_
_space_group_symop_operation_xyz
x,y,z
-x,y,-z
-x,-y,-z
x,-y,z
1/2+x,1/2+y,z
1/2-x,1/2+y,-z
1/2-x,1/2-y,-z
1/2+x,1/2-y,z
loop_
_atom_site_type_symbol
_atom_site_label
_atom_site_fract_x
_atom_site_fract_y
_atom_site_fract_z
Si Si1 0.186275 0.172968 0.561386
Si Si2 0.177629 0.000000 0.791965
Si Si3 0.418245 0.500000 0.584566
Si Si4 0.613401 0.827054 0.804174
Si Si5 0.739976 0.000000 0.120626
Si Si6 0.266875 0.346566 0.880738
O O1 0.500000 0.148729 0.500000
O O2 0.250000 0.250000 0.500000
O O3 0.064912 0.086413 0.567721
O O4 0.932299 0.203972 0.680530
O O5 0.041146 0.000000 0.891866
O O6 0.065527 0.912656 0.793944
O O7 0.544772 0.000000 0.696476
O O8 0.500000 0.500000 0.500000
O O9 0.487036 0.915337 0.814017
O O10 0.356860 0.750913 0.873339
O O11 0.653381 0.844551 0.854285
O O12 0.000000 0.000000 0.000000
O O13 0.000000 0.382510 0.000000
#
# Coordination Sequence:
#
# PCOD8115895 Si02
#       6
#     8   4   4   8   4   8
#     4  12  27  48  74 105 142 186 238 291 358 420
#     4  12  26  46  70 103 146 182 238 288 355 424
#     4  12  29  47  74 104 138 186 235 296 354 421
#     4  12  25  45  72 104 142 184 238 291 354 420
#     4  12  23  45  74 104 142 184 232 292 355 424
#     4  12  26  45  71 105 143 188 234 290 354 424
#
# _framework density 22.277481999999999
#
# number of rings (size 3 to 8) (size 9 to 14) (size 15 to 20)
#    0.000    0.000    2.222    7.333    9.333    0.000 
#    0.000    0.000    0.000    0.000    0.000    0.000 
#    0.000    0.000    0.000    0.000    0.000    0.000 
#
# Total GULP energy -223309.027762 kJ/mol
# GULP energy per Si atom -12406.057098 kJ/mol
# Density = 2.222678 g / cm^3
# Si number density = 22.277482 Si / 1000 Ang^3
#
#
#
# Elastic Constant Matrix: (Units=GPa)
#
#
# Indices 1 2 3 4 5 6 
#
# 1 124.5623 44.5837 24.8526 4.5461 1.5016 -1.2037
# 2 44.5837 154.9677 22.0311 2.6086 -18.6853 -0.5821
# 3 24.8526 22.0311 103.3921 -4.4993 8.3222 1.5550
# 4 4.5461 2.6086 -4.4993 31.7947 1.4190 -7.2203
# 5 1.5016 -18.6853 8.3222 1.4190 49.9314 -0.2974
# 6 -1.2037 -0.5821 1.5550 -7.2203 -0.2974 54.4931
#
#
#
# Elastic Compliance Matrix: (Units=1/GPa)
#
#
# Indices 1 2 3 4 5 6 
#
# 1 0.009330 -0.002532 -0.001688 -0.001314 -0.000909 0.000048
# 2 -0.002532 0.007770 -0.001333 -0.000607 0.003223 0.000002
# 3 -0.001688 -0.001333 0.010631 0.001931 -0.002275 -0.000111
# 4 -0.001314 -0.000607 0.001931 0.032997 -0.001422 0.004274
# 5 -0.000909 0.003223 -0.002275 -0.001422 0.021681 0.000009
# 6 0.000048 0.000002 -0.000111 0.004274 0.000009 0.018922
#
#
# Mechanical properties :
#
#
# Convention : Reuss Voigt Hill
#
# Bulk Modulus (GPa) = 60.14908 62.87300 61.51104
# Shear Modulus (GPa) = 42.38125 46.67415 44.52770
#
# Velocity S-wave (km/s) = 4.36641 4.58222 4.47562
# Velocity P-wave (km/s) = 7.24426 7.50197 7.37424
#
# Compressibility (1/GPa) = 0.01662536
#
# Stress axis : x y z
#
# Youngs Moduli (GPa) = 107.17636 128.70556 94.06821
#
# Poissons Ratio (x) = 0.32584 0.15879
# Poissons Ratio (y) = 0.27133 0.12539
# Poissons Ratio (z) = 0.18092 0.17156
#
# Static dielectric constant tensor:
#      x y z
#    x 4.237680 -0.005250 -0.026660 
#    y -0.005250 6.759750 -0.047420 
#    z -0.026660 -0.047420 4.358080 
# 
# 
# High freq. dielectric constant tensor:
#      x y z
#    x 1.902020 0.000010 0.004880 
#    y 0.000010 1.889010 -0.000020 
#    z 0.004880 -0.000020 1.892020 
# 
# From -- ./inp_files/356278.got.cif
#   From: 2010.06.25/outbox.cif.g09.slc.cpg/sg12_179_cif.got.tgz:356278.got - 2010.06.28 00:19:55.
