data_PCOD8115632
_publ_section_title
;
Structure prediction by ZEFSAII (Michael W. Deem and Ramdas Pophale) SiO2 
 PCOD8115632
Probable space group: C 2/M
;
_chemical_formula_sum "Si O2"
_cell_formula_units_Z 60
_cell_length_a 18.248894
_cell_length_b 25.270564
_cell_length_c 6.927456
_cell_angle_alpha 90.000000
_cell_angle_beta 112.651722
_cell_angle_gamma 90.000000
_cell_volume 2948.237466
_symmetry_space_group_name_H-M "C 2/M"
_symmetry_group_IT_number 12
_symmetry_cell_setting 'monoclinic'
loop_
_space_group_symop_operation_xyz
x,y,z
-x,y,-z
-x,-y,-z
x,-y,z
1/2+x,1/2+y,z
1/2-x,1/2+y,-z
1/2-x,1/2-y,-z
1/2+x,1/2-y,z
loop_
_atom_site_type_symbol
_atom_site_label
_atom_site_fract_x
_atom_site_fract_y
_atom_site_fract_z
Si Si1 0.058831 0.326130 0.383301
Si Si2 0.782076 0.063190 0.403902
Si Si3 0.348047 0.059035 0.036855
Si Si4 0.686372 0.706329 0.991195
Si Si5 0.210822 0.374710 0.685557
Si Si6 0.071920 0.218209 0.195592
Si Si7 0.000000 0.597205 0.000000
Si Si8 0.093602 0.147096 0.562931
O O1 0.151892 0.331676 0.530703
O O2 0.041763 0.267471 0.290231
O O3 0.000000 0.337264 0.500000
O O4 0.043834 0.367270 0.199934
O O5 0.755554 0.086899 0.582165
O O6 0.862740 0.090343 0.405563
O O7 0.795040 0.000000 0.435329
O O8 0.714285 0.079525 0.184367
O O9 0.345304 0.091832 0.230148
O O10 0.435924 0.060309 0.038139
O O11 0.325917 0.000000 0.072721
O O12 0.630320 0.686861 0.759534
O O13 0.750000 0.750000 0.000000
O O14 0.724151 0.654001 0.119066
O O15 0.637069 0.736423 0.106629
O O16 0.108288 0.173936 0.371115
O O17 0.000000 0.193042 0.000000
O O18 0.000000 0.138089 0.500000
#
# Coordination Sequence:
#
# PCOD8115632 Si02
#       8
#     8   8   8   8   8   8   4   8
#     4  12  26  40  64  99 138 182 221 268 327 399
#     4  11  25  45  70  99 132 176 228 285 348 405
#     4  11  24  43  67  97 136 182 227 279 339 397
#     4  12  28  42  68 103 136 175 224 273 338 412
#     4  12  24  44  68  97 136 175 227 278 336 405
#     4  12  26  43  67  97 136 177 214 269 330 404
#     4  12  23  42  64  98 142 174 229 278 320 398
#     4  12  25  47  72  99 135 173 225 283 344 402
#
# _framework density 20.351143
#
# number of rings (size 3 to 8) (size 9 to 14) (size 15 to 20)
#    0.000    0.267    7.333    1.800    5.600    1.333 
#    0.000    0.667    0.000    1.200    0.000    0.000 
#    0.000    0.000    0.000    0.000    0.000    0.000 
#
# Total GULP energy -372072.699120 kJ/mol
# GULP energy per Si atom -12402.423304 kJ/mol
# Density = 2.030482 g / cm^3
# Si number density = 20.351143 Si / 1000 Ang^3
#
#
#
# Elastic Constant Matrix: (Units=GPa)
#
#
# Indices 1 2 3 4 5 6 
#
# 1 127.4218 30.5785 37.7102 0.0000 -3.0280 0.0000
# 2 30.5785 82.6811 34.0114 0.0000 0.3523 0.0000
# 3 37.7102 34.0114 109.3375 0.0000 5.7057 0.0000
# 4 0.0000 0.0000 0.0000 30.0665 0.0000 -3.9579
# 5 -3.0280 0.3523 5.7057 0.0000 41.2815 0.0000
# 6 0.0000 0.0000 0.0000 -3.9579 0.0000 38.3094
#
#
#
# Elastic Compliance Matrix: (Units=1/GPa)
#
#
# Indices 1 2 3 4 5 6 
#
# 1 0.009177 -0.002379 -0.002479 0.000000 0.001036 0.000000
# 2 -0.002379 0.014495 -0.003700 0.000000 0.000213 0.000000
# 3 -0.002479 -0.003700 0.011241 0.000000 -0.001704 0.000000
# 4 0.000000 0.000000 0.000000 0.033718 0.000000 0.003484
# 5 0.001036 0.000213 -0.001704 0.000000 0.024534 0.000000
# 6 0.000000 0.000000 0.000000 0.003484 0.000000 0.026463
#
#
# Mechanical properties :
#
#
# Convention : Reuss Voigt Hill
#
# Bulk Modulus (GPa) = 56.18610 58.22672 57.20641
# Shear Modulus (GPa) = 35.04433 36.40751 35.72592
#
# Velocity S-wave (km/s) = 4.15418 4.23421 4.19438
# Velocity P-wave (km/s) = 7.11884 7.25106 7.18525
#
# Compressibility (1/GPa) = 0.01779800
#
# Stress axis : x y z
#
# Youngs Moduli (GPa) = 108.96655 68.98757 88.96064
#
# Poissons Ratio (x) = 0.16409 0.22056
# Poissons Ratio (y) = 0.25918 0.32914
# Poissons Ratio (z) = 0.27017 0.25524
#
# Static dielectric constant tensor:
#      x y z
#    x 3.740580 0.000000 -0.030590 
#    y 0.000000 3.512060 0.000000 
#    z -0.030590 0.000000 4.004170 
# 
# 
# High freq. dielectric constant tensor:
#      x y z
#    x 1.805460 0.000000 -0.003410 
#    y 0.000000 1.785740 0.000000 
#    z -0.003410 0.000000 1.815660 
# 
# From -- ./inp_files/18345.got.cif
#   From: 2010.06.25/outbox.cif.g09.slc.cpg/sg12_10_cif.got.tgz:18345.got - 2010.06.28 00:19:55.
