data_PCOD8115234
_publ_section_title
;
Structure prediction by ZEFSAII (Michael W. Deem and Ramdas Pophale) SiO2 
 PCOD8115234
Probable space group: C 2/M
;
_chemical_formula_sum "Si O2"
_cell_formula_units_Z 64
_cell_length_a 29.209934
_cell_length_b 8.524789
_cell_length_c 11.882427
_cell_angle_alpha 90.000000
_cell_angle_beta 86.299539
_cell_angle_gamma 90.000000
_cell_volume 2952.656751
_symmetry_space_group_name_H-M "C 2/M"
_symmetry_group_IT_number 12
_symmetry_cell_setting 'monoclinic'
loop_
_space_group_symop_operation_xyz
x,y,z
-x,y,-z
-x,-y,-z
x,-y,z
1/2+x,1/2+y,z
1/2-x,1/2+y,-z
1/2-x,1/2-y,-z
1/2+x,1/2-y,z
loop_
_atom_site_type_symbol
_atom_site_label
_atom_site_fract_x
_atom_site_fract_y
_atom_site_fract_z
Si Si1 0.333431 0.321469 0.152262
Si Si2 0.079244 0.180975 0.717882
Si Si3 0.340008 0.183461 0.922905
Si Si4 0.394475 0.813412 0.517659
Si Si5 0.263298 0.317360 0.802106
Si Si6 0.291488 0.183368 0.565035
Si Si7 0.585511 0.683287 0.248327
Si Si8 0.998716 0.682991 0.869637
O O1 0.316201 0.500000 0.146885
O O2 0.368918 0.300375 0.247521
O O3 0.290833 0.208486 0.182927
O O4 0.357914 0.269962 0.032315
O O5 0.077047 0.248845 0.592622
O O6 0.047345 0.281801 0.805048
O O7 0.063441 0.000000 0.721335
O O8 0.288589 0.246000 0.907135
O O9 0.372992 0.222437 0.814474
O O10 0.338846 0.000000 0.945710
O O11 0.341440 0.755895 0.516903
O O12 0.419073 0.741944 0.623217
O O13 0.397861 0.000000 0.522172
O O14 0.273640 0.500000 0.789460
O O15 0.285454 0.228480 0.694388
O O16 0.250000 0.250000 0.500000
O O17 0.289365 0.000000 0.551180
O O18 0.596735 0.500000 0.243689
O O19 0.539003 0.715563 0.188854
O O20 0.986532 0.500000 0.860571
O O21 0.000000 0.733788 0.000000
#
# Coordination Sequence:
#
# PCOD8115234 Si02
#       8
#     8   8   8   8   8   8   8   8
#     4  11  24  42  64  93 131 173 219 273 333 393
#     4  11  25  44  68  98 133 171 217 270 326 391
#     4  12  24  41  64  93 131 172 220 272 330 395
#     4  11  24  43  67  95 132 175 221 271 328 391
#     4  12  24  39  61  91 128 171 221 273 330 393
#     4  11  23  39  62  91 128 174 224 277 329 390
#     4  12  25  43  70 100 133 173 220 273 332 394
#     4  11  25  46  73 103 135 172 216 268 329 395
#
# _framework density 21.675395000000002
#
# number of rings (size 3 to 8) (size 9 to 14) (size 15 to 20)
#    0.000    0.625    1.250    7.125    0.000    9.000 
#    0.000    2.500    0.000    0.000    0.000    0.000 
#    0.000    0.000    0.000    0.000    0.000    0.000 
#
# Total GULP energy -397039.313357 kJ/mol
# GULP energy per Si atom -12407.478542 kJ/mol
# Density = 2.162606 g / cm^3
# Si number density = 21.675395 Si / 1000 Ang^3
#
#
#
# Elastic Constant Matrix: (Units=GPa)
#
#
# Indices 1 2 3 4 5 6 
#
# 1 89.1665 13.5963 35.8059 0.0000 3.0284 0.0000
# 2 13.5963 112.9555 37.9160 0.0000 10.6356 0.0000
# 3 35.8059 37.9160 137.4435 0.0000 -3.8710 0.0000
# 4 0.0000 0.0000 0.0000 35.6013 0.0000 -0.9345
# 5 3.0284 10.6356 -3.8710 0.0000 38.4705 0.0000
# 6 0.0000 0.0000 0.0000 -0.9345 0.0000 35.5219
#
#
#
# Elastic Compliance Matrix: (Units=1/GPa)
#
#
# Indices 1 2 3 4 5 6 
#
# 1 0.012602 -0.000317 -0.003230 0.000000 -0.001229 0.000000
# 2 -0.000317 0.010117 -0.002794 0.000000 -0.003053 0.000000
# 3 -0.003230 -0.002794 0.008942 0.000000 0.001927 0.000000
# 4 0.000000 0.000000 0.000000 0.028108 0.000000 0.000739
# 5 -0.001229 -0.003053 0.001927 0.000000 0.027129 0.000000
# 6 0.000000 0.000000 0.000000 0.000739 0.000000 0.028171
#
#
# Mechanical properties :
#
#
# Convention : Reuss Voigt Hill
#
# Bulk Modulus (GPa) = 52.69146 57.13353 54.91250
# Shear Modulus (GPa) = 37.29172 38.73523 38.01348
#
# Velocity S-wave (km/s) = 4.15235 4.23195 4.19234
# Velocity P-wave (km/s) = 6.88124 7.09191 6.98737
#
# Compressibility (1/GPa) = 0.01897841
#
# Stress axis : x y z
#
# Youngs Moduli (GPa) = 79.35126 98.84729 111.82746
#
# Poissons Ratio (x) = 0.03132 0.36123
# Poissons Ratio (y) = 0.02514 0.31248
# Poissons Ratio (z) = 0.25633 0.27621
#
# Static dielectric constant tensor:
#      x y z
#    x 3.905660 0.000000 0.101150 
#    y 0.000000 3.946680 0.000000 
#    z 0.101150 0.000000 4.069770 
# 
# 
# High freq. dielectric constant tensor:
#      x y z
#    x 1.851410 0.000000 0.003240 
#    y 0.000000 1.862990 0.000000 
#    z 0.003240 0.000000 1.866020 
# 
# From -- ./inp_files/187499.got.cif
#   From: 2010.06.25/outbox.cif.g09.slc.cpg/sg12_94_cif.got.tgz:187499.got - 2010.06.28 00:19:55.
