data_PCOD8115152
_publ_section_title
;
Structure prediction by ZEFSAII (Michael W. Deem and Ramdas Pophale) SiO2 
 PCOD8115152
Probable space group: C 2/M
;
_chemical_formula_sum "Si O2"
_cell_formula_units_Z 40
_cell_length_a 18.946786
_cell_length_b 7.545259
_cell_length_c 13.242257
_cell_angle_alpha 90.000000
_cell_angle_beta 80.343501
_cell_angle_gamma 90.000000
_cell_volume 1866.268958
_symmetry_space_group_name_H-M "C 2/M"
_symmetry_group_IT_number 12
_symmetry_cell_setting 'monoclinic'
loop_
_space_group_symop_operation_xyz
x,y,z
-x,y,-z
-x,-y,-z
x,-y,z
1/2+x,1/2+y,z
1/2-x,1/2+y,-z
1/2-x,1/2-y,-z
1/2+x,1/2-y,z
loop_
_atom_site_type_symbol
_atom_site_label
_atom_site_fract_x
_atom_site_fract_y
_atom_site_fract_z
Si Si1 0.628094 0.199824 0.233770
Si Si2 0.075481 0.199207 0.455561
Si Si3 0.455938 0.500000 0.856110
Si Si4 0.209797 0.293995 0.804805
Si Si5 0.608964 0.500000 0.907659
Si Si6 0.316138 0.794007 0.415491
O O1 0.617978 0.198099 0.357644
O O2 0.568341 0.323518 0.197117
O O3 0.707304 0.266907 0.185810
O O4 0.617865 0.000000 0.195936
O O5 0.117344 0.194123 0.551145
O O6 0.000000 0.291371 0.500000
O O7 0.063403 0.000000 0.418603
O O8 0.542416 0.500000 0.844929
O O9 0.420129 0.500000 0.973231
O O10 0.189656 0.500000 0.824502
O O11 0.198006 0.225751 0.693670
O O12 0.157664 0.175641 0.885561
O O13 0.250000 0.750000 0.500000
O O14 0.332780 0.000000 0.409951
#
# Coordination Sequence:
#
# PCOD8115152 Si02
#       6
#     8   8   4   8   4   8
#     4  12  24  44  72 102 143 183 228 287 346 408
#     4  11  24  39  62  97 140 185 226 272 330 403
#     4  11  28  52  70 105 137 170 232 301 356 413
#     4  11  24  44  70 105 138 181 236 281 338 420
#     4  11  28  50  77  98 135 179 227 295 364 413
#     4  11  23  36  59  93 135 174 218 269 318 390
#
# _framework density 21.433136000000001
#
# number of rings (size 3 to 8) (size 9 to 14) (size 15 to 20)
#    0.000    0.800    5.000    1.200    5.600    4.000 
#    0.000    2.000    0.000    0.000    0.000    0.000 
#    0.000    0.000    0.000    0.000    0.000    0.000 
#
# Total GULP energy -248046.114772 kJ/mol
# GULP energy per Si atom -12402.305739 kJ/mol
# Density = 2.138435 g / cm^3
# Si number density = 21.433136 Si / 1000 Ang^3
#
#
#
# Elastic Constant Matrix: (Units=GPa)
#
#
# Indices 1 2 3 4 5 6 
#
# 1 123.5948 27.1887 2.8404 0.0000 -4.4018 0.0000
# 2 27.1887 125.8571 18.0117 0.0000 -2.2078 0.0000
# 3 2.8404 18.0117 42.6716 0.0000 -3.1748 0.0000
# 4 0.0000 0.0000 0.0000 22.2802 0.0000 -0.7319
# 5 -4.4018 -2.2078 -3.1748 0.0000 37.9296 0.0000
# 6 0.0000 0.0000 0.0000 -0.7319 0.0000 28.4507
#
#
#
# Elastic Compliance Matrix: (Units=1/GPa)
#
#
# Indices 1 2 3 4 5 6 
#
# 1 0.008527 -0.001867 0.000288 0.000000 0.000905 0.000000
# 2 -0.001867 0.008867 -0.003619 0.000000 -0.000003 0.000000
# 3 0.000288 -0.003619 0.025086 0.000000 0.001923 0.000000
# 4 0.000000 0.000000 0.000000 0.044921 0.000000 0.001156
# 5 0.000905 -0.000003 0.001923 0.000000 0.026630 0.000000
# 6 0.000000 0.000000 0.000000 0.001156 0.000000 0.035178
#
#
# Mechanical properties :
#
#
# Convention : Reuss Voigt Hill
#
# Bulk Modulus (GPa) = 31.16821 43.13390 37.15106
# Shear Modulus (GPa) = 29.35983 34.00427 31.68205
#
# Velocity S-wave (km/s) = 3.70514 3.98745 3.84888
# Velocity P-wave (km/s) = 5.73391 6.43181 6.09286
#
# Compressibility (1/GPa) = 0.03208397
#
# Stress axis : x y z
#
# Youngs Moduli (GPa) = 117.26921 112.78082 39.86272
#
# Poissons Ratio (x) = 0.21062 -0.01148
# Poissons Ratio (y) = 0.21900 0.14425
# Poissons Ratio (z) = -0.03377 0.40811
#
# Static dielectric constant tensor:
#      x y z
#    x 10.300760 0.000000 3.884120 
#    y 0.000000 3.983130 0.000000 
#    z 3.884120 0.000000 6.101950 
# 
# 
# High freq. dielectric constant tensor:
#      x y z
#    x 1.849190 0.000000 0.000180 
#    y 0.000000 1.848320 0.000000 
#    z 0.000180 0.000000 1.830340 
# 
# From -- ./inp_files/151763.got.cif
#   From: 2010.06.25/outbox.cif.g09.slc.cpg/sg12_76_cif.got.tgz:151763.got - 2010.06.28 00:19:55.
