data_PCOD8115241
_publ_section_title
;
Structure prediction by ZEFSAII (Michael W. Deem and Ramdas Pophale) SiO2 
 PCOD8115241
Probable space group: C 2/M
;
_chemical_formula_sum "Si O2"
_cell_formula_units_Z 60
_cell_length_a 9.392897
_cell_length_b 18.559206
_cell_length_c 23.249495
_cell_angle_alpha 90.000000
_cell_angle_beta 45.154354
_cell_angle_gamma 90.000000
_cell_volume 2873.586769
_symmetry_space_group_name_H-M "C 2/M"
_symmetry_group_IT_number 12
_symmetry_cell_setting 'monoclinic'
loop_
_space_group_symop_operation_xyz
x,y,z
-x,y,-z
-x,-y,-z
x,-y,z
1/2+x,1/2+y,z
1/2-x,1/2+y,-z
1/2-x,1/2-y,-z
1/2+x,1/2-y,z
loop_
_atom_site_type_symbol
_atom_site_label
_atom_site_fract_x
_atom_site_fract_y
_atom_site_fract_z
Si Si1 0.135941 0.322920 0.016015
Si Si2 0.842720 0.420477 0.593941
Si Si3 0.962683 0.142216 0.636966
Si Si4 0.500000 0.649541 0.500000
Si Si5 0.324768 0.822429 0.790227
Si Si6 0.057580 0.308046 0.615995
Si Si7 0.896155 0.684978 0.190901
Si Si8 0.004558 0.084424 0.065057
O O1 0.987446 0.352330 0.108403
O O2 0.250000 0.250000 0.000000
O O3 0.301099 0.384098 0.958005
O O4 0.000000 0.308192 0.000000
O O5 0.803680 0.500000 0.633674
O O6 0.636500 0.390926 0.626249
O O7 0.000000 0.433138 0.500000
O O8 0.940316 0.362860 0.608435
O O9 0.958012 0.106861 0.573002
O O10 0.983275 0.228166 0.622742
O O11 0.757586 0.130945 0.732105
O O12 0.700500 0.694672 0.458225
O O13 0.504363 0.838167 0.694414
O O14 0.191822 0.761264 0.800519
O O15 0.420150 0.792806 0.821048
O O16 0.192476 0.892077 0.843330
O O17 0.017667 0.000000 0.064333
O O18 0.000000 0.111634 0.000000
#
# Coordination Sequence:
#
# PCOD8115241 Si02
#       8
#     8   8   8   4   8   8   8   8
#     4  12  23  40  70  98 128 167 214 264 323 392
#     4  11  25  45  63  90 133 179 216 267 338 400
#     4  11  24  39  66  97 133 170 224 275 323 389
#     4  12  20  38  61  96 125 172 220 274 322 374
#     4  11  23  40  63  97 130 167 215 270 326 381
#     4  11  24  38  67  96 128 169 225 271 324 393
#     4  11  23  39  63 101 130 162 215 278 322 376
#     4  11  24  43  66  92 130 174 215 261 327 398
#
# _framework density 20.879826999999999
#
# number of rings (size 3 to 8) (size 9 to 14) (size 15 to 20)
#    0.000    0.800    5.333    2.400    7.467    0.800 
#    0.000    2.667    0.000    0.000    0.000    0.000 
#    0.000    0.000    0.000    0.000    0.000    0.000 
#
# Total GULP energy -371753.981291 kJ/mol
# GULP energy per Si atom -12391.799376 kJ/mol
# Density = 2.083230 g / cm^3
# Si number density = 20.879827 Si / 1000 Ang^3
#
#
#
# Elastic Constant Matrix: (Units=GPa)
#
#
# Indices 1 2 3 4 5 6 
#
# 1 151.9796 47.5966 43.6012 -0.0010 5.8642 0.0019
# 2 47.5966 82.1323 19.1399 0.0018 -7.2440 0.0006
# 3 43.6012 19.1399 142.9149 -0.0030 -2.6714 0.0075
# 4 -0.0010 0.0018 -0.0030 19.5461 0.0034 -1.0107
# 5 5.8642 -7.2440 -2.6714 0.0034 33.8393 -0.0033
# 6 0.0019 0.0006 0.0075 -1.0107 -0.0033 27.7550
#
#
#
# Elastic Compliance Matrix: (Units=1/GPa)
#
#
# Indices 1 2 3 4 5 6 
#
# 1 0.008805 -0.004857 -0.002087 0.000001 -0.002730 0.000000
# 2 -0.004857 0.015473 -0.000513 -0.000002 0.004113 0.000001
# 3 -0.002087 -0.000513 0.007719 0.000001 0.000861 -0.000002
# 4 0.000001 -0.000002 0.000001 0.051258 -0.000006 0.001867
# 5 -0.002730 0.004113 0.000861 -0.000006 0.030973 0.000003
# 6 0.000000 0.000001 -0.000002 0.001867 0.000003 0.036097
#
#
# Mechanical properties :
#
#
# Convention : Reuss Voigt Hill
#
# Bulk Modulus (GPa) = 58.54257 66.41136 62.47697
# Shear Modulus (GPa) = 29.25119 34.00737 31.62928
#
# Velocity S-wave (km/s) = 3.74696 4.04012 3.89630
# Velocity P-wave (km/s) = 6.84239 7.32386 7.08722
#
# Compressibility (1/GPa) = 0.01708159
#
# Stress axis : x y z
#
# Youngs Moduli (GPa) = 113.57179 64.63007 129.55562
#
# Poissons Ratio (x) = 0.31391 0.27036
# Poissons Ratio (y) = 0.55163 0.06652
# Poissons Ratio (z) = 0.23700 0.03319
#
# Static dielectric constant tensor:
#      x y z
#    x 3.995790 0.000010 0.028180 
#    y 0.000010 3.520080 0.000030 
#    z 0.028180 0.000030 4.839360 
# 
# 
# High freq. dielectric constant tensor:
#      x y z
#    x 1.836160 0.000000 -0.004520 
#    y 0.000000 1.772040 0.000000 
#    z -0.004520 0.000000 1.840530 
# 
# From -- ./inp_files/301893.got.cif
#   From: 2010.06.25/outbox.cif.g09.slc.cpg/sg12_151_cif.got.tgz:301893.got - 2010.06.28 00:19:55.
