data_PCOD8115514
_publ_section_title
;
Structure prediction by ZEFSAII (Michael W. Deem and Ramdas Pophale) SiO2 
 PCOD8115514
Probable space group: C 2/M
;
_chemical_formula_sum "Si O2"
_cell_formula_units_Z 56
_cell_length_a 9.082871
_cell_length_b 18.328712
_cell_length_c 20.448150
_cell_angle_alpha 90.000000
_cell_angle_beta 59.223436
_cell_angle_gamma 90.000000
_cell_volume 2924.743942
_symmetry_space_group_name_H-M "C 2/M"
_symmetry_group_IT_number 12
_symmetry_cell_setting 'monoclinic'
loop_
_space_group_symop_operation_xyz
x,y,z
-x,y,-z
-x,-y,-z
x,-y,z
1/2+x,1/2+y,z
1/2-x,1/2+y,-z
1/2-x,1/2-y,-z
1/2+x,1/2-y,z
loop_
_atom_site_type_symbol
_atom_site_label
_atom_site_fract_x
_atom_site_fract_y
_atom_site_fract_z
Si Si1 0.091406 0.085791 0.817086
Si Si2 0.302282 0.177831 0.263566
Si Si3 0.109456 0.325954 0.285074
Si Si4 0.259666 0.585850 0.955477
Si Si5 0.885635 0.583846 0.587205
Si Si6 0.495198 0.582465 0.310710
Si Si7 0.974426 0.586505 0.112662
O O1 0.280021 0.118978 0.785637
O O2 0.023758 0.108470 0.760248
O O3 0.954058 0.116199 0.901915
O O4 0.114742 0.000000 0.816969
O O5 0.228602 0.254981 0.258673
O O6 0.421829 0.190156 0.299289
O O7 0.423158 0.138038 0.183621
O O8 0.137391 0.128286 0.317262
O O9 0.072765 0.360943 0.363948
O O10 0.271266 0.500000 0.951663
O O11 0.149643 0.609023 0.918020
O O12 0.167812 0.608360 0.044494
O O13 0.923058 0.500000 0.600496
O O14 0.686669 0.591236 0.611575
O O15 0.000000 0.607193 0.500000
O O16 0.561180 0.500000 0.296742
O O17 0.961373 0.500000 0.133161
#
# Coordination Sequence:
#
# PCOD8115514 Si02
#       7
#     8   8   8   8   8   8   8
#     4   9  16  32  56  80 107 142 184 231 281 335
#     4  12  23  37  53  78 115 153 192 235 270 327
#     4  11  24  37  55  80 113 149 190 230 273 330
#     4   8  14  28  54  84 107 138 186 236 285 333
#     4   9  19  40  67  92 116 141 173 217 272 333
#     4   9  17  32  58  85 110 144 182 222 272 327
#     4   9  17  30  55  84 108 142 188 238 283 327
#
# _framework density 19.146972999999999
#
# number of rings (size 3 to 8) (size 9 to 14) (size 15 to 20)
#    0.000    2.429    1.429    4.286    0.000    2.286 
#    0.000    5.000    0.000    5.143    0.000    0.000 
#    0.000    0.000    0.000    0.000    0.000    0.000 
#
# Total GULP energy -346941.997579 kJ/mol
# GULP energy per Si atom -12390.785628 kJ/mol
# Density = 1.910339 g / cm^3
# Si number density = 19.146973 Si / 1000 Ang^3
#
#
#
# Elastic Constant Matrix: (Units=GPa)
#
#
# Indices 1 2 3 4 5 6 
#
# 1 101.6671 36.0942 36.1990 0.0000 -15.5296 0.0000
# 2 36.0942 69.8796 51.5253 0.0000 -2.4690 0.0000
# 3 36.1990 51.5253 110.0762 0.0000 -22.3137 0.0000
# 4 0.0000 0.0000 0.0000 11.8629 0.0000 0.6760
# 5 -15.5296 -2.4690 -22.3137 0.0000 24.4910 0.0000
# 6 0.0000 0.0000 0.0000 0.6760 0.0000 28.0777
#
#
#
# Elastic Compliance Matrix: (Units=1/GPa)
#
#
# Indices 1 2 3 4 5 6 
#
# 1 0.013406 -0.007060 0.000583 0.000000 0.008320 0.000000
# 2 -0.007060 0.027206 -0.013203 0.000000 -0.013763 0.000000
# 3 0.000583 -0.013203 0.018249 0.000000 0.015665 0.000000
# 4 0.000000 0.000000 0.000000 0.084412 0.000000 -0.002032
# 5 0.008320 -0.013763 0.015665 0.000000 0.058991 0.000000
# 6 0.000000 0.000000 0.000000 -0.002032 0.000000 0.035664
#
#
# Mechanical properties :
#
#
# Convention : Reuss Voigt Hill
#
# Bulk Modulus (GPa) = 51.28327 58.80667 55.04497
# Shear Modulus (GPa) = 17.61873 23.40662 20.51268
#
# Velocity S-wave (km/s) = 3.03674 3.50018 3.27666
# Velocity P-wave (km/s) = 6.25603 6.86403 6.56707
#
# Compressibility (1/GPa) = 0.01949954
#
# Stress axis : x y z
#
# Youngs Moduli (GPa) = 74.59403 36.75682 54.79884
#
# Poissons Ratio (x) = 0.25951 -0.03193
# Poissons Ratio (y) = 0.52664 0.72351
# Poissons Ratio (z) = -0.04346 0.48530
#
# Static dielectric constant tensor:
#      x y z
#    x -0.491870 0.000000 -0.257020 
#    y 0.000000 3.382980 0.000000 
#    z -0.257020 0.000000 3.606740 
# 
# 
# High freq. dielectric constant tensor:
#      x y z
#    x 1.730430 0.000000 -0.032190 
#    y 0.000000 1.728000 0.000000 
#    z -0.032190 0.000000 1.733920 
# 
# From -- ./inp_files/300701.got.cif
#   From: 2010.06.25/outbox.cif.g09.slc.cpg/sg12_151_cif.got.tgz:300701.got - 2010.06.28 00:19:55.
