data_PCOD8115852
_publ_section_title
;
Structure prediction by ZEFSAII (Michael W. Deem and Ramdas Pophale) SiO2 
 PCOD8115852
Probable space group: C 2/M
;
_chemical_formula_sum "Si O2"
_cell_formula_units_Z 36
_cell_length_a 9.407353
_cell_length_b 13.992901
_cell_length_c 20.303156
_cell_angle_alpha 90.000000
_cell_angle_beta 39.050999
_cell_angle_gamma 90.000000
_cell_volume 1683.788319
_symmetry_space_group_name_H-M "C 2/M"
_symmetry_group_IT_number 12
_symmetry_cell_setting 'monoclinic'
loop_
_space_group_symop_operation_xyz
x,y,z
-x,y,-z
-x,-y,-z
x,-y,z
1/2+x,1/2+y,z
1/2-x,1/2+y,-z
1/2-x,1/2-y,-z
1/2+x,1/2-y,z
loop_
_atom_site_type_symbol
_atom_site_label
_atom_site_fract_x
_atom_site_fract_y
_atom_site_fract_z
Si Si1 0.962391 0.000000 0.932601
Si Si2 0.351464 0.500000 0.488251
Si Si3 0.253022 0.820622 0.057181
Si Si4 0.460199 0.000000 0.726393
Si Si5 0.453837 0.786926 0.269907
Si Si6 0.974155 0.799848 0.398001
O O1 0.822269 0.913760 0.954165
O O2 0.195805 0.000000 0.808762
O O3 0.000000 0.000000 0.000000
O O4 0.500000 0.500000 0.500000
O O5 0.414899 0.411762 0.419036
O O6 0.092685 0.500000 0.608347
O O7 0.072303 0.776533 0.172284
O O8 0.500000 0.834554 0.000000
O O9 0.250000 0.750000 0.000000
O O10 0.507989 0.902009 0.750383
O O11 0.554221 0.740518 0.299391
O O12 0.183006 0.774724 0.370272
O O13 0.750000 0.750000 0.500000
#
# Coordination Sequence:
#
# PCOD8115852 Si02
#       6
#     4   4   8   4   8   8
#     4  12  27  48  75 102 145 187 236 297 368 426
#     4  12  22  43  67  97 139 186 238 277 351 418
#     4  12  26  48  73 108 142 185 240 299 357 430
#     4  12  22  43  69 101 132 187 233 282 353 422
#     4  12  25  42  72 100 139 182 236 285 354 423
#     4  12  23  42  65  99 135 185 228 288 341 416
#
# _framework density 21.380358000000001
#
# number of rings (size 3 to 8) (size 9 to 14) (size 15 to 20)
#    0.000    0.000    4.444    7.000    0.000    0.889 
#    0.000    5.556    0.000    0.000    0.000    0.000 
#    0.000    0.000    0.000    0.000    0.000    0.000 
#
# Total GULP energy -222985.290941 kJ/mol
# GULP energy per Si atom -12388.071719 kJ/mol
# Density = 2.133170 g / cm^3
# Si number density = 21.380358 Si / 1000 Ang^3
#
#
#
# Elastic Constant Matrix: (Units=GPa)
#
#
# Indices 1 2 3 4 5 6 
#
# 1 129.4706 70.9158 42.6626 -0.0004 -18.7845 0.0003
# 2 70.9158 193.3673 47.8869 -0.0017 2.5785 0.0019
# 3 42.6626 47.8869 104.2711 0.0002 -17.3558 0.0011
# 4 -0.0004 -0.0017 0.0002 32.5592 0.0019 -8.1388
# 5 -18.7845 2.5785 -17.3558 0.0019 52.6105 0.0016
# 6 0.0003 0.0019 0.0011 -8.1388 0.0016 25.9291
#
#
#
# Elastic Compliance Matrix: (Units=1/GPa)
#
#
# Indices 1 2 3 4 5 6 
#
# 1 0.010851 -0.003452 -0.002308 0.000000 0.003282 0.000000
# 2 -0.003452 0.007010 -0.002190 0.000000 -0.002298 0.000000
# 3 -0.002308 -0.002190 0.012085 -0.000001 0.003270 -0.000001
# 4 0.000000 0.000000 -0.000001 0.033328 -0.000002 0.010461
# 5 0.003282 -0.002298 0.003270 -0.000002 0.021371 -0.000002
# 6 0.000000 0.000000 -0.000001 0.010461 -0.000002 0.041850
#
#
# Mechanical properties :
#
#
# Convention : Reuss Voigt Hill
#
# Bulk Modulus (GPa) = 71.19114 83.33773 77.26444
# Shear Modulus (GPa) = 33.99566 39.92934 36.96250
#
# Velocity S-wave (km/s) = 3.99186 4.32623 4.16240
# Velocity P-wave (km/s) = 7.39029 8.00114 7.70177
#
# Compressibility (1/GPa) = 0.01404669
#
# Stress axis : x y z
#
# Youngs Moduli (GPa) = 92.15584 142.64637 82.74890
#
# Poissons Ratio (x) = 0.49237 0.19101
# Poissons Ratio (y) = 0.31810 0.18121
# Poissons Ratio (z) = 0.21272 0.31237
#
# Static dielectric constant tensor:
#      x y z
#    x 3.924840 0.000040 -0.138290 
#    y 0.000040 3.830160 0.000040 
#    z -0.138290 0.000040 4.110240 
# 
# 
# High freq. dielectric constant tensor:
#      x y z
#    x 1.836440 0.000000 -0.013660 
#    y 0.000000 1.860680 0.000000 
#    z -0.013660 0.000000 1.856640 
# 
# From -- ./inp_files/300089.got.cif
#   From: 2010.06.25/outbox.cif.g09.slc.cpg/sg12_151_cif.got.tgz:300089.got - 2010.06.28 00:19:55.
