data_PCOD8115520
_publ_section_title
;
Structure prediction by ZEFSAII (Michael W. Deem and Ramdas Pophale) SiO2 
 PCOD8115520
Probable space group: C 2/M
;
_chemical_formula_sum "Si O2"
_cell_formula_units_Z 40
_cell_length_a 13.993233
_cell_length_b 27.519584
_cell_length_c 6.817242
_cell_angle_alpha 90.000000
_cell_angle_beta 135.721153
_cell_angle_gamma 90.000000
_cell_volume 1832.812393
_symmetry_space_group_name_H-M "C 2/M"
_symmetry_group_IT_number 12
_symmetry_cell_setting 'monoclinic'
loop_
_space_group_symop_operation_xyz
x,y,z
-x,y,-z
-x,-y,-z
x,-y,z
1/2+x,1/2+y,z
1/2-x,1/2+y,-z
1/2-x,1/2-y,-z
1/2+x,1/2-y,z
loop_
_atom_site_type_symbol
_atom_site_label
_atom_site_fract_x
_atom_site_fract_y
_atom_site_fract_z
Si Si1 0.650769 0.887434 0.629042
Si Si2 0.315026 0.271908 0.291222
Si Si3 0.611983 0.797812 0.313525
Si Si4 0.153157 0.883554 0.720342
Si Si5 0.154782 0.555529 0.276506
O O1 0.500000 0.881866 0.500000
O O2 0.681656 0.843576 0.523400
O O3 0.666881 0.936930 0.528539
O O4 0.769063 0.890164 0.962001
O O5 0.434682 0.238487 0.572879
O O6 0.201613 0.267543 0.291979
O O7 0.365387 0.326492 0.345679
O O8 0.250000 0.250000 0.000000
O O9 0.500000 0.819489 0.000000
O O10 0.239164 0.909998 0.679393
O O11 0.000000 0.906089 0.500000
O O12 0.187017 0.500000 0.268375
O O13 0.000000 0.570230 0.000000
#
# Coordination Sequence:
#
# PCOD8115520 Si02
#       5
#     8   8   8   8   8
#     4  12  23  43  74 103 138 186 238 293 356 424
#     4  11  24  41  61  96 140 194 234 280 342 427
#     4  11  24  38  65  97 135 184 244 290 336 408
#     4  12  27  44  70 106 150 185 235 293 367 424
#     4  11  25  49  77 105 136 179 241 302 358 435
#
# _framework density 21.824383000000001
#
# number of rings (size 3 to 8) (size 9 to 14) (size 15 to 20)
#    0.000    0.600    6.000    1.800    2.800    2.400 
#    0.000    1.000    0.000    0.000    0.000    0.000 
#    0.000    0.000    0.000    0.000    0.000    0.000 
#
# Total GULP energy -247763.777017 kJ/mol
# GULP energy per Si atom -12388.188851 kJ/mol
# Density = 2.177471 g / cm^3
# Si number density = 21.824383 Si / 1000 Ang^3
#
#
#
# Elastic Constant Matrix: (Units=GPa)
#
#
# Indices 1 2 3 4 5 6 
#
# 1 114.0728 49.2626 71.9226 0.0000 -4.5969 0.0000
# 2 49.2626 87.9700 34.7446 0.0000 -0.9839 0.0000
# 3 71.9226 34.7446 183.7784 0.0000 -4.1766 0.0000
# 4 0.0000 0.0000 0.0000 19.6201 0.0000 -9.0633
# 5 -4.5969 -0.9839 -4.1766 0.0000 38.9800 0.0000
# 6 0.0000 0.0000 0.0000 -9.0633 0.0000 14.4876
#
#
#
# Elastic Compliance Matrix: (Units=1/GPa)
#
#
# Indices 1 2 3 4 5 6 
#
# 1 0.014268 -0.006249 -0.004379 0.000000 0.001056 0.000000
# 2 -0.006249 0.015022 -0.000404 0.000000 -0.000401 0.000000
# 3 -0.004379 -0.000404 0.007237 0.000000 0.000249 0.000000
# 4 0.000000 0.000000 0.000000 0.071684 0.000000 0.044845
# 5 0.001056 -0.000401 0.000249 0.000000 0.025795 0.000000
# 6 0.000000 0.000000 0.000000 0.044845 0.000000 0.097079
#
#
# Mechanical properties :
#
#
# Convention : Reuss Voigt Hill
#
# Bulk Modulus (GPa) = 69.13335 77.52009 73.32672
# Shear Modulus (GPa) = 19.38222 29.94363 24.66293
#
# Velocity S-wave (km/s) = 2.98333 3.70811 3.36529
# Velocity P-wave (km/s) = 6.60401 7.34374 6.98367
#
# Compressibility (1/GPa) = 0.01446480
#
# Stress axis : x y z
#
# Youngs Moduli (GPa) = 70.08631 66.57013 138.18190
#
# Poissons Ratio (x) = 0.41599 0.60503
# Poissons Ratio (y) = 0.43796 0.05576
# Poissons Ratio (z) = 0.30687 0.02686
#
# Static dielectric constant tensor:
#      x y z
#    x 4.317270 0.000000 1.356870 
#    y 0.000000 3.914540 0.000000 
#    z 1.356870 0.000000 13.411880 
# 
# 
# High freq. dielectric constant tensor:
#      x y z
#    x 1.859550 0.000000 -0.022230 
#    y 0.000000 1.852680 0.000000 
#    z -0.022230 0.000000 1.873920 
# 
# From -- ./inp_files/13008.got.cif
#   From: 2010.06.25/outbox.cif.g09.slc.cpg/sg12_7_cif.got.tgz:13008.got - 2010.06.28 00:19:55.
