data_PCOD8115326
_publ_section_title
;
Structure prediction by ZEFSAII (Michael W. Deem and Ramdas Pophale) SiO2 
 PCOD8115326
Probable space group: C 2/M
;
_chemical_formula_sum "Si O2"
_cell_formula_units_Z 40
_cell_length_a 14.311508
_cell_length_b 21.349108
_cell_length_c 8.582363
_cell_angle_alpha 90.000000
_cell_angle_beta 131.618924
_cell_angle_gamma 90.000000
_cell_volume 1960.329013
_symmetry_space_group_name_H-M "C 2/M"
_symmetry_group_IT_number 12
_symmetry_cell_setting 'monoclinic'
loop_
_space_group_symop_operation_xyz
x,y,z
-x,y,-z
-x,-y,-z
x,-y,z
1/2+x,1/2+y,z
1/2-x,1/2+y,-z
1/2-x,1/2-y,-z
1/2+x,1/2-y,z
loop_
_atom_site_type_symbol
_atom_site_label
_atom_site_fract_x
_atom_site_fract_y
_atom_site_fract_z
Si Si1 0.563915 0.294476 0.226112
Si Si2 0.418967 0.070088 0.639078
Si Si3 0.187702 0.572460 0.814433
Si Si4 0.681426 0.686058 0.880655
Si Si5 0.710016 0.829572 0.334989
O O1 0.465150 0.299034 0.258513
O O2 0.605991 0.223967 0.235131
O O3 0.689745 0.330030 0.413248
O O4 0.500000 0.323414 0.000000
O O5 0.566924 0.079686 0.789839
O O6 0.351058 0.089546 0.403817
O O7 0.368742 0.107599 0.732009
O O8 0.384519 0.000000 0.641542
O O9 0.238482 0.500000 0.881732
O O10 0.285878 0.625058 0.978566
O O11 0.712618 0.671005 0.737751
O O12 0.750000 0.750000 0.000000
#
# Coordination Sequence:
#
# PCOD8115326 Si02
#       5
#     8   8   8   8   8
#     4  11  23  41  59  86 124 159 202 248 306 362
#     4   9  19  38  62  89 121 161 205 251 299 362
#     4   9  20  38  62  90 124 163 204 247 304 366
#     4  12  23  38  60  91 124 161 200 253 303 361
#     4  11  24  39  60  91 122 160 200 255 305 355
#
# _framework density 20.404737000000001
#
# number of rings (size 3 to 8) (size 9 to 14) (size 15 to 20)
#    0.000    1.600    2.000    4.200    2.800    0.800 
#    0.000    3.000    0.000    6.000    0.000    0.000 
#    0.000    0.000    0.000    0.000    0.000    0.000 
#
# Total GULP energy -247882.476025 kJ/mol
# GULP energy per Si atom -12394.123801 kJ/mol
# Density = 2.035830 g / cm^3
# Si number density = 20.404737 Si / 1000 Ang^3
#
#
#
# Elastic Constant Matrix: (Units=GPa)
#
#
# Indices 1 2 3 4 5 6 
#
# 1 129.8610 23.2724 6.5998 0.0000 -9.9151 0.0000
# 2 23.2724 56.7528 2.3280 0.0000 0.6633 0.0000
# 3 6.5998 2.3280 55.4020 0.0000 1.4526 0.0000
# 4 0.0000 0.0000 0.0000 13.9255 0.0000 -2.7091
# 5 -9.9151 0.6633 1.4526 0.0000 27.9155 0.0000
# 6 0.0000 0.0000 0.0000 -2.7091 0.0000 38.8187
#
#
#
# Elastic Compliance Matrix: (Units=1/GPa)
#
#
# Indices 1 2 3 4 5 6 
#
# 1 0.008627 -0.003536 -0.000963 0.000000 0.003198 0.000000
# 2 -0.003536 0.019104 -0.000337 0.000000 -0.001692 0.000000
# 3 -0.000963 -0.000337 0.018212 0.000000 -0.001282 0.000000
# 4 0.000000 0.000000 0.000000 0.072799 0.000000 0.005080
# 5 0.003198 -0.001692 -0.001282 0.000000 0.037065 0.000000
# 6 0.000000 0.000000 0.000000 0.005080 0.000000 0.026115
#
#
# Mechanical properties :
#
#
# Convention : Reuss Voigt Hill
#
# Bulk Modulus (GPa) = 27.56972 34.04626 30.80799
# Shear Modulus (GPa) = 24.54765 30.11965 27.33365
#
# Velocity S-wave (km/s) = 3.47224 3.84619 3.66399
# Velocity P-wave (km/s) = 5.44207 6.03704 5.74726
#
# Compressibility (1/GPa) = 0.03627168
#
# Stress axis : x y z
#
# Youngs Moduli (GPa) = 115.91091 52.34581 54.90769
#
# Poissons Ratio (x) = 0.18508 0.05288
# Poissons Ratio (y) = 0.40982 0.01851
# Poissons Ratio (z) = 0.11163 0.01765
#
# Static dielectric constant tensor:
#      x y z
#    x 3.857350 0.000000 0.011470 
#    y 0.000000 3.625450 0.000000 
#    z 0.011470 0.000000 3.678440 
# 
# 
# High freq. dielectric constant tensor:
#      x y z
#    x 1.804210 0.000000 -0.003380 
#    y 0.000000 1.789080 0.000000 
#    z -0.003380 0.000000 1.791070 
# 
# From -- ./inp_files/63146.got.cif
#   From: 2010.06.25/outbox.cif.g09.slc.cpg/sg12_32_cif.got.tgz:63146.got - 2010.06.28 00:19:55.
