data_PCOD8115037
_publ_section_title
;
Structure prediction by ZEFSAII (Michael W. Deem and Ramdas Pophale) SiO2 
 PCOD8115037
Probable space group: C 2/M
;
_chemical_formula_sum "Si O2"
_cell_formula_units_Z 44
_cell_length_a 15.759297
_cell_length_b 24.916235
_cell_length_c 12.551505
_cell_angle_alpha 90.000000
_cell_angle_beta 154.319024
_cell_angle_gamma 90.000000
_cell_volume 2135.815624
_symmetry_space_group_name_H-M "C 2/M"
_symmetry_group_IT_number 12
_symmetry_cell_setting 'monoclinic'
loop_
_space_group_symop_operation_xyz
x,y,z
-x,y,-z
-x,-y,-z
x,-y,z
1/2+x,1/2+y,z
1/2-x,1/2+y,-z
1/2-x,1/2-y,-z
1/2+x,1/2-y,z
loop_
_atom_site_type_symbol
_atom_site_label
_atom_site_fract_x
_atom_site_fract_y
_atom_site_fract_z
Si Si1 0.404844 0.110569 0.289517
Si Si2 0.324954 0.500000 0.654223
Si Si3 0.185508 0.614090 0.417171
Si Si4 0.200698 0.773556 0.779484
Si Si5 0.928519 0.820409 0.147774
Si Si6 0.500000 0.845982 0.000000
Si Si7 0.764605 0.500000 0.197048
O O1 0.500000 0.139478 0.500000
O O2 0.529300 0.129164 0.329745
O O3 0.397709 0.047592 0.302905
O O4 0.182814 0.128010 0.022726
O O5 0.257416 0.553479 0.516472
O O6 0.257535 0.500000 0.700312
O O7 0.556776 0.500000 0.906594
O O8 0.345511 0.662089 0.606989
O O9 0.077491 0.615797 0.181634
O O10 0.128601 0.809630 0.795727
O O11 0.315292 0.810294 0.825827
O O12 0.000000 0.749662 0.500000
O O13 0.359708 0.729371 0.996684
#
# Coordination Sequence:
#
# PCOD8115037 Si02
#       7
#     8   4   8   8   8   4   4
#     4  12  23  40  67 101 134 176 221 282 344 410
#     4  11  23  43  70 100 141 182 230 281 341 420
#     4  12  25  44  71 101 136 182 230 279 344 405
#     4  11  24  46  68  98 139 182 226 283 339 405
#     4  11  25  42  69 100 135 179 228 277 344 412
#     4  12  26  45  72  96 138 183 234 284 334 406
#     4  11  22  41  67 101 141 180 218 286 356 401
#
# _framework density 20.601027999999999
#
# number of rings (size 3 to 8) (size 9 to 14) (size 15 to 20)
#    0.000    0.545    7.273    1.364    0.000    4.727 
#    0.000    0.000    0.000    2.182    0.000    0.000 
#    0.000    0.000    0.000    0.000    0.000    0.000 
#
# Total GULP energy -272688.287742 kJ/mol
# GULP energy per Si atom -12394.922170 kJ/mol
# Density = 2.055414 g / cm^3
# Si number density = 20.601028 Si / 1000 Ang^3
#
#
#
# Elastic Constant Matrix: (Units=GPa)
#
#
# Indices 1 2 3 4 5 6 
#
# 1 123.8434 37.2260 49.2228 0.0001 -12.2182 0.0001
# 2 37.2260 88.1628 31.7334 -0.0002 -7.3456 -0.0001
# 3 49.2228 31.7334 137.8689 0.0003 -12.8325 0.0001
# 4 0.0001 -0.0002 0.0003 101.0478 0.0003 42.0066
# 5 -12.2182 -7.3456 -12.8325 0.0003 37.5070 0.0002
# 6 0.0001 -0.0001 0.0001 42.0066 0.0002 59.6719
#
#
#
# Elastic Compliance Matrix: (Units=1/GPa)
#
#
# Indices 1 2 3 4 5 6 
#
# 1 0.010320 -0.003208 -0.002780 0.000000 0.001782 0.000000
# 2 -0.003208 0.013446 -0.001861 0.000000 0.000952 0.000000
# 3 -0.002780 -0.001861 0.008837 0.000000 0.001753 0.000000
# 4 0.000000 0.000000 0.000000 0.013991 0.000000 -0.009849
# 5 0.001782 0.000952 0.001753 0.000000 0.028029 0.000000
# 6 0.000000 0.000000 0.000000 -0.009849 0.000000 0.023691
#
#
# Mechanical properties :
#
#
# Convention : Reuss Voigt Hill
#
# Bulk Modulus (GPa) = 59.15421 65.13772 62.14597
# Shear Modulus (GPa) = 41.78920 55.09154 48.44037
#
# Velocity S-wave (km/s) = 4.50877 5.17689 4.85434
# Velocity P-wave (km/s) = 7.47542 8.21102 7.85184
#
# Compressibility (1/GPa) = 0.01690497
#
# Stress axis : x y z
#
# Youngs Moduli (GPa) = 96.89991 74.36900 113.15556
#
# Poissons Ratio (x) = 0.23860 0.31459
# Poissons Ratio (y) = 0.31089 0.21058
# Poissons Ratio (z) = 0.26939 0.13840
#
# Static dielectric constant tensor:
#      x y z
#    x 3.694970 0.000000 -0.006510 
#    y 0.000000 3.587900 0.000000 
#    z -0.006510 0.000000 4.041460 
# 
# 
# High freq. dielectric constant tensor:
#      x y z
#    x 1.807090 0.000000 0.004250 
#    y 0.000000 1.803030 0.000000 
#    z 0.004250 0.000000 1.831010 
# 
# From -- ./inp_files/149569.got.cif
#   From: 2010.06.25/outbox.cif.g09.slc.cpg/sg12_75_cif.got.tgz:149569.got - 2010.06.28 00:19:55.
