data_PCOD8115842
_publ_section_title
;
Structure prediction by ZEFSAII (Michael W. Deem and Ramdas Pophale) SiO2 
 PCOD8115842
Probable space group: C 2/M
;
_chemical_formula_sum "Si O2"
_cell_formula_units_Z 28
_cell_length_a 13.337124
_cell_length_b 18.151845
_cell_length_c 13.943724
_cell_angle_alpha 90.000000
_cell_angle_beta 158.935841
_cell_angle_gamma 90.000000
_cell_volume 1213.265045
_symmetry_space_group_name_H-M "C 2/M"
_symmetry_group_IT_number 12
_symmetry_cell_setting 'monoclinic'
loop_
_space_group_symop_operation_xyz
x,y,z
-x,y,-z
-x,-y,-z
x,-y,z
1/2+x,1/2+y,z
1/2-x,1/2+y,-z
1/2-x,1/2-y,-z
1/2+x,1/2-y,z
loop_
_atom_site_type_symbol
_atom_site_label
_atom_site_fract_x
_atom_site_fract_y
_atom_site_fract_z
Si Si1 0.222014 0.364082 0.539869
Si Si2 0.500000 0.247564 0.500000
Si Si3 0.500000 0.849133 0.000000
Si Si4 0.220945 0.412728 0.010935
Si Si5 0.693796 0.500000 0.261888
O O1 0.133205 0.298592 0.530755
O O2 0.510633 0.355898 0.736269
O O3 0.359652 0.427387 0.726917
O O4 0.960668 0.388524 0.243437
O O5 0.735841 0.297228 0.755086
O O6 0.467603 0.901595 0.063276
O O7 0.297322 0.500000 0.070354
O O8 0.000000 0.500000 0.500000
O O9 0.500000 0.500000 0.000000
#
# Coordination Sequence:
#
# PCOD8115842 Si02
#       5
#     8   4   4   8   4
#     4  12  25  42  73 105 138 173 226 285 347 408
#     4  12  28  45  67 106 140 186 216 272 356 420
#     4  12  29  48  68  95 144 188 234 274 324 415
#     4  12  25  47  73 102 131 181 237 288 335 383
#     4  12  22  38  68 105 138 175 214 286 350 397
#
# _framework density 23.078223999999999
#
# number of rings (size 3 to 8) (size 9 to 14) (size 15 to 20)
#    0.000    0.000    4.286    5.571    2.000    6.857 
#    0.000    4.286    0.000    0.000    0.000    0.000 
#    0.000    0.000    0.000    0.000    0.000    0.000 
#
# Total GULP energy -173483.959346 kJ/mol
# GULP energy per Si atom -12391.711382 kJ/mol
# Density = 2.302570 g / cm^3
# Si number density = 23.078224 Si / 1000 Ang^3
#
#
#
# Elastic Constant Matrix: (Units=GPa)
#
#
# Indices 1 2 3 4 5 6 
#
# 1 111.0123 31.2140 30.2477 -0.0020 3.5203 0.0001
# 2 31.2140 84.8148 40.9057 -0.0028 -1.8055 -0.0004
# 3 30.2477 40.9057 154.7685 -0.0037 10.1520 0.0005
# 4 -0.0020 -0.0028 -0.0037 35.0272 -0.0056 7.7657
# 5 3.5203 -1.8055 10.1520 -0.0056 35.5182 -0.0006
# 6 0.0001 -0.0004 0.0005 7.7657 -0.0006 59.0829
#
#
#
# Elastic Compliance Matrix: (Units=1/GPa)
#
#
# Indices 1 2 3 4 5 6 
#
# 1 0.010250 -0.003269 -0.001082 0.000000 -0.000873 0.000000
# 2 -0.003269 0.014662 -0.003370 0.000001 0.002032 0.000000
# 3 -0.001082 -0.003370 0.007712 0.000000 -0.002268 0.000000
# 4 0.000000 0.000001 0.000000 0.029406 0.000005 -0.003865
# 5 -0.000873 0.002032 -0.002268 0.000005 0.028993 0.000000
# 6 0.000000 0.000000 0.000000 -0.003865 0.000000 0.017433
#
#
# Mechanical properties :
#
#
# Convention : Reuss Voigt Hill
#
# Bulk Modulus (GPa) = 58.19813 61.70338 59.95076
# Shear Modulus (GPa) = 38.57302 42.47421 40.52361
#
# Velocity S-wave (km/s) = 4.09272 4.29470 4.19492
# Velocity P-wave (km/s) = 6.89973 7.16849 7.03539
#
# Compressibility (1/GPa) = 0.01718268
#
# Stress axis : x y z
#
# Youngs Moduli (GPa) = 97.56455 68.20425 129.66630
#
# Poissons Ratio (x) = 0.22295 0.14029
# Poissons Ratio (y) = 0.31893 0.43692
# Poissons Ratio (z) = 0.10556 0.22982
#
# Static dielectric constant tensor:
#      x y z
#    x 4.900010 0.000000 0.338450 
#    y 0.000000 4.152510 0.000000 
#    z 0.338450 0.000000 4.296170 
# 
# 
# High freq. dielectric constant tensor:
#      x y z
#    x 1.947450 0.000000 0.011240 
#    y 0.000000 1.904300 0.000000 
#    z 0.011240 0.000000 1.930440 
# 
# From -- ./inp_files/133569.got.cif
#   From: 2010.06.25/outbox.cif.g09.slc.cpg/sg12_67_cif.got.tgz:133569.got - 2010.06.28 00:19:55.
