data_PCOD8115439
_publ_section_title
;
Structure prediction by ZEFSAII (Michael W. Deem and Ramdas Pophale) SiO2 
 PCOD8115439
Probable space group: C 2/M
;
_chemical_formula_sum "Si O2"
_cell_formula_units_Z 40
_cell_length_a 13.110548
_cell_length_b 22.980221
_cell_length_c 8.347993
_cell_angle_alpha 90.000000
_cell_angle_beta 135.239561
_cell_angle_gamma 90.000000
_cell_volume 1771.000443
_symmetry_space_group_name_H-M "C 2/M"
_symmetry_group_IT_number 12
_symmetry_cell_setting 'monoclinic'
loop_
_space_group_symop_operation_xyz
x,y,z
-x,y,-z
-x,-y,-z
x,-y,z
1/2+x,1/2+y,z
1/2-x,1/2+y,-z
1/2-x,1/2-y,-z
1/2+x,1/2-y,z
loop_
_atom_site_type_symbol
_atom_site_label
_atom_site_fract_x
_atom_site_fract_y
_atom_site_fract_z
Si Si1 0.216518 0.566984 0.531953
Si Si2 0.538738 0.628257 0.358593
Si Si3 0.457237 0.129186 0.133104
Si Si4 0.926047 0.750449 0.237225
Si Si5 0.217481 0.065665 0.031707
O O1 0.244155 0.500000 0.515602
O O2 0.295719 0.611612 0.496649
O O3 0.257855 0.581443 0.757961
O O4 0.048158 0.582801 0.337346
O O5 0.500000 0.629584 0.500000
O O6 0.492226 0.690854 0.232911
O O7 0.452903 0.575061 0.181490
O O8 0.491035 0.195473 0.216860
O O9 0.293165 0.111295 0.994014
O O10 0.500000 0.118585 0.000000
O O11 0.000000 0.746579 0.500000
O O12 0.750000 0.750000 0.000000
O O13 0.262936 0.000000 0.040571
#
# Coordination Sequence:
#
# PCOD8115439 Si02
#       5
#     8   8   8   8   8
#     4  11  25  43  67 102 138 183 235 287 354 428
#     4  11  24  42  69 100 139 179 233 292 350 418
#     4  12  26  43  69 101 137 180 237 293 355 418
#     4  11  25  48  75 103 143 189 238 291 356 427
#     4  11  23  43  68  95 135 184 229 287 353 425
#
# _framework density 22.586103000000001
#
# number of rings (size 3 to 8) (size 9 to 14) (size 15 to 20)
#    0.000    0.800    2.000    4.800    2.800   10.400 
#    0.000    0.000    0.000    0.000    0.000    0.000 
#    0.000    0.000    0.000    0.000    0.000    0.000 
#
# Total GULP energy -247800.424645 kJ/mol
# GULP energy per Si atom -12390.021232 kJ/mol
# Density = 2.253470 g / cm^3
# Si number density = 22.586103 Si / 1000 Ang^3
#
#
#
# Elastic Constant Matrix: (Units=GPa)
#
#
# Indices 1 2 3 4 5 6 
#
# 1 69.7324 43.8055 -0.3672 0.0000 -1.8387 0.0000
# 2 43.8055 125.0270 24.8306 0.0000 -8.4327 0.0000
# 3 -0.3672 24.8306 98.5784 0.0000 7.8035 0.0000
# 4 0.0000 0.0000 0.0000 31.2358 0.0000 10.2409
# 5 -1.8387 -8.4327 7.8035 0.0000 28.3265 0.0000
# 6 0.0000 0.0000 0.0000 10.2409 0.0000 34.9900
#
#
#
# Elastic Compliance Matrix: (Units=1/GPa)
#
#
# Indices 1 2 3 4 5 6 
#
# 1 0.018743 -0.007052 0.001959 0.000000 -0.001422 0.000000
# 2 -0.007052 0.011359 -0.003188 0.000000 0.003802 0.000000
# 3 0.001959 -0.003188 0.011265 0.000000 -0.003925 0.000000
# 4 0.000000 0.000000 0.000000 0.035413 0.000000 -0.010365
# 5 -0.001422 0.003802 -0.003925 0.000000 0.037424 0.000000
# 6 0.000000 0.000000 0.000000 -0.010365 0.000000 0.031613
#
#
# Mechanical properties :
#
#
# Convention : Reuss Voigt Hill
#
# Bulk Modulus (GPa) = 40.31587 47.76398 44.03993
# Shear Modulus (GPa) = 29.30002 33.91503 31.60753
#
# Velocity S-wave (km/s) = 3.60566 3.87924 3.74495
# Velocity P-wave (km/s) = 5.93489 6.42324 6.18389
#
# Compressibility (1/GPa) = 0.02480413
#
# Stress axis : x y z
#
# Youngs Moduli (GPa) = 53.35216 88.03802 88.76786
#
# Poissons Ratio (x) = 0.62085 -0.17387
# Poissons Ratio (y) = 0.37624 0.28302
# Poissons Ratio (z) = -0.10450 0.28070
#
# Static dielectric constant tensor:
#      x y z
#    x 4.377910 0.000000 0.813960 
#    y 0.000000 4.244420 0.000000 
#    z 0.813960 0.000000 5.097150 
# 
# 
# High freq. dielectric constant tensor:
#      x y z
#    x 1.879050 0.000000 0.008270 
#    y 0.000000 1.905510 0.000000 
#    z 0.008270 0.000000 1.908370 
# 
# From -- ./inp_files/65617.got.cif
#   From: 2010.06.25/outbox.cif.g09.slc.cpg/sg12_33_cif.got.tgz:65617.got - 2010.06.28 00:19:55.
