data_PCOD8115129
_publ_section_title
;
Structure prediction by ZEFSAII (Michael W. Deem and Ramdas Pophale) SiO2 
 PCOD8115129
Probable space group: C 2/M
;
_chemical_formula_sum "Si O2"
_cell_formula_units_Z 32
_cell_length_a 15.287172
_cell_length_b 14.881663
_cell_length_c 10.441410
_cell_angle_alpha 90.000000
_cell_angle_beta 37.033747
_cell_angle_gamma 90.000000
_cell_volume 1430.671873
_symmetry_space_group_name_H-M "C 2/M"
_symmetry_group_IT_number 12
_symmetry_cell_setting 'monoclinic'
loop_
_space_group_symop_operation_xyz
x,y,z
-x,y,-z
-x,-y,-z
x,-y,z
1/2+x,1/2+y,z
1/2-x,1/2+y,-z
1/2-x,1/2-y,-z
1/2+x,1/2-y,z
loop_
_atom_site_type_symbol
_atom_site_label
_atom_site_fract_x
_atom_site_fract_y
_atom_site_fract_z
Si Si1 0.838280 0.845656 0.642139
Si Si2 0.791962 0.845272 0.157111
Si Si3 0.096075 0.104594 0.712801
Si Si4 0.376557 0.000000 0.037602
Si Si5 0.615831 0.000000 0.253903
O O1 0.792066 0.748215 0.744359
O O2 0.829084 0.853873 0.499496
O O3 0.000000 0.869076 0.500000
O O4 0.724412 0.913479 0.835483
O O5 0.792018 0.886765 0.300200
O O6 0.710603 0.910628 0.155375
O O7 0.954725 0.836003 0.911902
O O8 0.054322 0.000000 0.741315
O O9 0.452807 0.000000 0.808595
O O10 0.500000 0.000000 0.000000
O O11 0.500000 0.000000 0.500000
#
# Coordination Sequence:
#
# PCOD8115129 Si02
#       5
#     8   8   8   4   4
#     4  12  27  47  75 105 149 197 245 301 373 439
#     4  11  24  44  72 112 140 190 250 306 355 437
#     4  11  22  45  78 101 148 199 242 300 371 432
#     4  12  31  49  73 109 150 194 246 307 368 442
#     4  12  26  44  73 102 151 188 242 301 365 434
#
# _framework density 22.367111000000001
#
# number of rings (size 3 to 8) (size 9 to 14) (size 15 to 20)
#    0.000    0.500    3.750    4.125    7.000    6.000 
#    0.000    0.000    0.000    0.000    0.000    0.000 
#    0.000    0.000    0.000    0.000    0.000    0.000 
#
# Total GULP energy -198479.505070 kJ/mol
# GULP energy per Si atom -12404.969067 kJ/mol
# Density = 2.231620 g / cm^3
# Si number density = 22.367111 Si / 1000 Ang^3
#
#
#
# Elastic Constant Matrix: (Units=GPa)
#
#
# Indices 1 2 3 4 5 6 
#
# 1 139.8713 41.9742 47.4559 0.0001 13.4726 -0.0001
# 2 41.9742 143.0996 42.0238 0.0000 -4.2747 -0.0001
# 3 47.4559 42.0238 106.9069 0.0001 18.2755 -0.0001
# 4 0.0001 0.0000 0.0001 27.9923 -0.0001 -1.6110
# 5 13.4726 -4.2747 18.2755 -0.0001 48.8249 0.0000
# 6 -0.0001 -0.0001 -0.0001 -1.6110 0.0000 174.8388
#
#
#
# Elastic Compliance Matrix: (Units=1/GPa)
#
#
# Indices 1 2 3 4 5 6 
#
# 1 0.008829 -0.001760 -0.002975 0.000000 -0.001477 0.000000
# 2 -0.001760 0.008435 -0.002931 0.000000 0.002321 0.000000
# 3 -0.002975 -0.002931 0.012532 0.000000 -0.004127 0.000000
# 4 0.000000 0.000000 0.000000 0.035743 0.000000 0.000329
# 5 -0.001477 0.002321 -0.004127 0.000000 0.022637 0.000000
# 6 0.000000 0.000000 0.000000 0.000329 0.000000 0.005723
#
#
# Mechanical properties :
#
#
# Convention : Reuss Voigt Hill
#
# Bulk Modulus (GPa) = 69.13907 72.53173 70.83540
# Shear Modulus (GPa) = 43.83981 67.55945 55.69963
#
# Velocity S-wave (km/s) = 4.43201 5.50185 4.99565
# Velocity P-wave (km/s) = 7.56098 8.53573 8.06310
#
# Compressibility (1/GPa) = 0.01446360
#
# Stress axis : x y z
#
# Youngs Moduli (GPa) = 113.25974 118.56005 79.79558
#
# Poissons Ratio (x) = 0.20870 0.23738
# Poissons Ratio (y) = 0.19937 0.23388
# Poissons Ratio (z) = 0.33693 0.34749
#
# Static dielectric constant tensor:
#      x y z
#    x 4.320560 0.000000 0.107630 
#    y 0.000000 4.031010 0.000000 
#    z 0.107630 0.000000 4.049210 
# 
# 
# High freq. dielectric constant tensor:
#      x y z
#    x 1.891070 0.000000 0.011710 
#    y 0.000000 1.883130 0.000000 
#    z 0.011710 0.000000 1.885440 
# 
# From -- ./inp_files/156467.got.cif
#   From: 2010.06.25/outbox.cif.g09.slc.cpg/sg12_79_cif.got.tgz:156467.got - 2010.06.28 00:19:55.
