data_PCOD8115327
_publ_section_title
;
Structure prediction by ZEFSAII (Michael W. Deem and Ramdas Pophale) SiO2 
 PCOD8115327
Probable space group: C 2/M
;
_chemical_formula_sum "Si O2"
_cell_formula_units_Z 56
_cell_length_a 14.562278
_cell_length_b 13.555225
_cell_length_c 17.583250
_cell_angle_alpha 90.000000
_cell_angle_beta 51.755865
_cell_angle_gamma 90.000000
_cell_volume 2725.933159
_symmetry_space_group_name_H-M "C 2/M"
_symmetry_group_IT_number 12
_symmetry_cell_setting 'monoclinic'
loop_
_space_group_symop_operation_xyz
x,y,z
-x,y,-z
-x,-y,-z
x,-y,z
1/2+x,1/2+y,z
1/2-x,1/2+y,-z
1/2-x,1/2-y,-z
1/2+x,1/2-y,z
loop_
_atom_site_type_symbol
_atom_site_label
_atom_site_fract_x
_atom_site_fract_y
_atom_site_fract_z
Si Si1 0.544882 0.893520 0.140258
Si Si2 0.184060 0.881925 0.595438
Si Si3 0.678437 0.614465 0.860724
Si Si4 0.698048 0.385817 0.017607
Si Si5 0.920224 0.607965 0.700631
Si Si6 0.525728 0.312114 0.813471
Si Si7 0.088482 0.740766 0.523624
O O1 0.665016 0.869589 0.032414
O O2 0.577388 0.904858 0.210847
O O3 0.451233 0.804765 0.182563
O O4 0.492972 0.000000 0.138643
O O5 0.141226 0.839830 0.535198
O O6 0.306448 0.830921 0.557427
O O7 0.088408 0.854343 0.707325
O O8 0.199402 0.000000 0.581319
O O9 0.699989 0.500000 0.863577
O O10 0.670117 0.661916 0.948684
O O11 0.789693 0.651302 0.752262
O O12 0.563386 0.632003 0.870572
O O13 0.664852 0.500000 0.038544
O O14 0.614543 0.330212 0.121773
O O15 0.940208 0.500000 0.651540
O O16 0.017899 0.683438 0.624398
O O17 0.000000 0.766848 0.500000
#
# Coordination Sequence:
#
# PCOD8115327 Si02
#       7
#     8   8   8   8   8   8   8
#     4   9  19  34  52  77 106 144 187 218 261 330
#     4  11  25  40  59  93 120 147 198 247 291 349
#     4   9  18  30  52  85 111 137 181 232 284 335
#     4   9  18  32  52  80 110 143 181 223 278 335
#     4   9  17  35  58  78 105 140 182 232 276 330
#     4  12  19  32  54  82 113 144 175 234 287 330
#     4  11  23  41  62  85 117 158 192 239 298 356
#
# _framework density 20.543424000000002
#
# number of rings (size 3 to 8) (size 9 to 14) (size 15 to 20)
#    0.000    2.000    1.429    5.143    0.000    3.714 
#    0.000    0.000    0.000    4.286    0.000    0.000 
#    0.000    0.000    0.000    0.000    0.000    0.000 
#
# Total GULP energy -346907.132578 kJ/mol
# GULP energy per Si atom -12389.540449 kJ/mol
# Density = 2.049667 g / cm^3
# Si number density = 20.543424 Si / 1000 Ang^3
#
#
#
# Elastic Constant Matrix: (Units=GPa)
#
#
# Indices 1 2 3 4 5 6 
#
# 1 58.7826 23.2401 14.5236 0.0000 0.1250 0.0000
# 2 23.2401 104.0679 41.9847 0.0000 -5.1185 0.0000
# 3 14.5236 41.9847 89.6477 0.0000 -15.2892 0.0000
# 4 0.0000 0.0000 0.0000 24.6180 0.0000 -3.8397
# 5 0.1250 -5.1185 -15.2892 0.0000 18.3894 0.0000
# 6 0.0000 0.0000 0.0000 -3.8397 0.0000 24.0292
#
#
#
# Elastic Compliance Matrix: (Units=1/GPa)
#
#
# Indices 1 2 3 4 5 6 
#
# 1 0.018897 -0.003616 -0.001819 0.000000 -0.002648 0.000000
# 2 -0.003616 0.012577 -0.005480 0.000000 -0.001031 0.000000
# 3 -0.001819 -0.005480 0.016031 0.000000 0.011816 0.000000
# 4 0.000000 0.000000 0.000000 0.041659 0.000000 0.006657
# 5 -0.002648 -0.001031 0.011816 0.000000 0.063934 0.000000
# 6 0.000000 0.000000 0.000000 0.006657 0.000000 0.042680
#
#
# Mechanical properties :
#
#
# Convention : Reuss Voigt Hill
#
# Bulk Modulus (GPa) = 38.95090 45.77721 42.36406
# Shear Modulus (GPa) = 22.10762 24.92397 23.51580
#
# Velocity S-wave (km/s) = 3.28402 3.48693 3.38699
# Velocity P-wave (km/s) = 5.77764 6.20831 5.99684
#
# Compressibility (1/GPa) = 0.02567335
#
# Stress axis : x y z
#
# Youngs Moduli (GPa) = 52.91941 79.51139 62.37861
#
# Poissons Ratio (x) = 0.28753 0.11349
# Poissons Ratio (y) = 0.19137 0.34184
# Poissons Ratio (z) = 0.09628 0.43573
#
# Static dielectric constant tensor:
#      x y z
#    x 3.515340 0.000000 -0.330450 
#    y 0.000000 3.810520 0.000000 
#    z -0.330450 0.000000 3.834740 
# 
# 
# High freq. dielectric constant tensor:
#      x y z
#    x 1.770220 0.000000 -0.020280 
#    y 0.000000 1.799800 0.000000 
#    z -0.020280 0.000000 1.810470 
# 
# From -- ./inp_files/270218.got.cif
#   From: 2010.06.25/outbox.cif.g09.slc.cpg/sg12_136_cif.got.tgz:270218.got - 2010.06.28 00:19:55.
