data_PCOD8115721
_publ_section_title
;
Structure prediction by ZEFSAII (Michael W. Deem and Ramdas Pophale) SiO2 
 PCOD8115721
Probable space group: C 2/M
;
_chemical_formula_sum "Si O2"
_cell_formula_units_Z 32
_cell_length_a 23.295534
_cell_length_b 13.429710
_cell_length_c 4.766167
_cell_angle_alpha 90.000000
_cell_angle_beta 115.095519
_cell_angle_gamma 90.000000
_cell_volume 1350.348666
_symmetry_space_group_name_H-M "C 2/M"
_symmetry_group_IT_number 12
_symmetry_cell_setting 'monoclinic'
loop_
_space_group_symop_operation_xyz
x,y,z
-x,y,-z
-x,-y,-z
x,-y,z
1/2+x,1/2+y,z
1/2-x,1/2+y,-z
1/2-x,1/2-y,-z
1/2+x,1/2-y,z
loop_
_atom_site_type_symbol
_atom_site_label
_atom_site_fract_x
_atom_site_fract_y
_atom_site_fract_z
Si Si1 0.721342 0.111768 0.415889
Si Si2 0.542932 0.260897 0.842314
Si Si3 0.639338 0.387601 0.377893
Si Si4 0.158596 0.707881 0.797004
O O1 0.794688 0.119231 0.661721
O O2 0.672950 0.137459 0.564173
O O3 0.705554 0.000000 0.278031
O O4 0.713310 0.191087 0.143671
O O5 0.500000 0.304018 0.500000
O O6 0.591966 0.179116 0.815025
O O7 0.500000 0.211904 0.000000
O O8 0.582472 0.350917 0.063833
O O9 0.625421 0.500000 0.447390
O O10 0.648490 0.321836 0.678018
#
# Coordination Sequence:
#
# PCOD8115721 Si02
#       4
#     8   8   8   8
#     4  11  25  43  72 107 137 171 224 286 348 409
#     4  12  25  45  66  97 135 191 232 273 323 401
#     4  11  26  43  69 107 143 178 222 273 341 416
#     4  12  23  46  70  98 142 180 223 279 347 394
#
# _framework density 23.697586000000001
#
# number of rings (size 3 to 8) (size 9 to 14) (size 15 to 20)
#    0.000    0.500    5.000    2.250    3.500    2.000 
#    0.000    0.000    0.000   15.000    0.000    0.000 
#    0.000    0.000    0.000    0.000    0.000    0.000 
#
# Total GULP energy -198293.924581 kJ/mol
# GULP energy per Si atom -12393.370286 kJ/mol
# Density = 2.364365 g / cm^3
# Si number density = 23.697586 Si / 1000 Ang^3
#
#
#
# Elastic Constant Matrix: (Units=GPa)
#
#
# Indices 1 2 3 4 5 6 
#
# 1 111.1954 -6.3127 22.0212 0.0000 -14.7685 0.0000
# 2 -6.3127 24.1630 -5.8514 0.0000 0.5951 0.0000
# 3 22.0212 -5.8514 130.4108 0.0000 4.4191 0.0000
# 4 0.0000 0.0000 0.0000 53.3094 0.0000 65.6135
# 5 -14.7685 0.5951 4.4191 0.0000 46.4490 0.0000
# 6 0.0000 0.0000 0.0000 65.6135 0.0000 180.5696
#
#
#
# Elastic Compliance Matrix: (Units=1/GPa)
#
#
# Indices 1 2 3 4 5 6 
#
# 1 0.009881 0.002093 -0.001686 0.000000 0.003275 0.000000
# 2 0.002093 0.042307 0.001546 0.000000 -0.000024 0.000000
# 3 -0.001686 0.001546 0.008067 0.000000 -0.001323 0.000000
# 4 0.000000 0.000000 0.000000 0.033936 0.000000 -0.012331
# 5 0.003275 -0.000024 -0.001323 0.000000 0.022697 0.000000
# 6 0.000000 0.000000 0.000000 -0.012331 0.000000 0.010019
#
#
# Mechanical properties :
#
#
# Convention : Reuss Voigt Hill
#
# Bulk Modulus (GPa) = 15.58596 31.72037 23.65317
# Shear Modulus (GPa) = 34.62908 73.12640 53.87774
#
# Velocity S-wave (km/s) = 3.82683 5.56104 4.77335
# Velocity P-wave (km/s) = 5.11053 7.39243 6.35475
#
# Compressibility (1/GPa) = 0.06416031
#
# Stress axis : x y z
#
# Youngs Moduli (GPa) = 101.20657 23.63666 123.96338
#
# Poissons Ratio (x) = -0.04946 0.20895
# Poissons Ratio (y) = -0.21178 -0.19162
# Poissons Ratio (z) = 0.17059 -0.03654
#
# Static dielectric constant tensor:
#      x y z
#    x 4.961700 0.000000 0.020370 
#    y 0.000000 4.008390 0.000000 
#    z 0.020370 0.000000 4.371030 
# 
# 
# High freq. dielectric constant tensor:
#      x y z
#    x 1.962970 0.000000 -0.004170 
#    y 0.000000 1.893030 0.000000 
#    z -0.004170 0.000000 1.948960 
# 
# From -- ./inp_files/23952.got.cif
#   From: 2010.06.25/outbox.cif.g09.slc.cpg/sg12_12_cif.got.tgz:23952.got - 2010.06.28 00:19:55.
