data_PCOD8115055
_publ_section_title
;
Structure prediction by ZEFSAII (Michael W. Deem and Ramdas Pophale) SiO2 
 PCOD8115055
Probable space group: C 2/M
;
_chemical_formula_sum "Si O2"
_cell_formula_units_Z 64
_cell_length_a 14.598280
_cell_length_b 18.510088
_cell_length_c 15.835884
_cell_angle_alpha 90.000000
_cell_angle_beta 137.404635
_cell_angle_gamma 90.000000
_cell_volume 2896.165469
_symmetry_space_group_name_H-M "C 2/M"
_symmetry_group_IT_number 12
_symmetry_cell_setting 'monoclinic'
loop_
_space_group_symop_operation_xyz
x,y,z
-x,y,-z
-x,-y,-z
x,-y,z
1/2+x,1/2+y,z
1/2-x,1/2+y,-z
1/2-x,1/2-y,-z
1/2+x,1/2-y,z
loop_
_atom_site_type_symbol
_atom_site_label
_atom_site_fract_x
_atom_site_fract_y
_atom_site_fract_z
Si Si1 0.295188 0.079427 0.540720
Si Si2 0.657021 0.614870 0.617356
Si Si3 0.796900 0.331807 0.037408
Si Si4 0.485336 0.794107 0.699801
Si Si5 0.842855 0.582476 0.904802
Si Si6 0.367787 0.654479 0.700881
Si Si7 0.367697 0.778386 0.365142
Si Si8 0.927314 0.085349 0.038016
O O1 0.236980 0.080484 0.594776
O O2 0.399222 0.144326 0.595069
O O3 0.178256 0.090735 0.392432
O O4 0.360857 0.000000 0.570808
O O5 0.500000 0.589015 0.500000
O O6 0.739550 0.589555 0.756177
O O7 0.664504 0.700868 0.616185
O O8 0.952777 0.328978 0.173259
O O9 0.750000 0.250000 0.000000
O O10 0.780837 0.368577 0.936117
O O11 0.720543 0.378693 0.058083
O O12 0.396308 0.724784 0.662937
O O13 0.605650 0.771186 0.717083
O O14 0.843324 0.500000 0.935693
O O15 0.000000 0.607232 0.000000
O O16 0.258352 0.670083 0.700075
O O17 0.500522 0.625005 0.835352
O O18 0.500000 0.811009 0.500000
O O19 0.920039 0.000000 0.047128
O O20 0.000000 0.104567 0.000000
#
# Coordination Sequence:
#
# PCOD8115055 Si02
#       8
#     8   8   8   8   8   8   8   8
#     4  12  26  43  68 103 143 183 225 283 358 420
#     4  11  24  42  69 105 136 180 236 292 349 417
#     4  12  25  44  69 102 135 184 236 282 339 415
#     4  12  24  45  70 103 138 181 240 286 341 412
#     4  11  26  46  67  97 143 186 224 282 357 422
#     4  12  23  46  72 102 138 182 235 290 345 414
#     4  11  22  41  70 101 138 178 230 291 344 406
#     4  11  26  47  71 102 140 183 232 291 352 407
#
# _framework density 22.098185000000001
#
# number of rings (size 3 to 8) (size 9 to 14) (size 15 to 20)
#    0.000    0.500    3.750    5.250    1.750    3.500 
#    0.000    1.875    0.000    0.000    0.000    0.000 
#    0.000    0.000    0.000    0.000    0.000    0.000 
#
# Total GULP energy -396792.327428 kJ/mol
# GULP energy per Si atom -12399.760232 kJ/mol
# Density = 2.204789 g / cm^3
# Si number density = 22.098185 Si / 1000 Ang^3
#
#
#
# Elastic Constant Matrix: (Units=GPa)
#
#
# Indices 1 2 3 4 5 6 
#
# 1 108.2849 43.4232 14.6972 -0.0001 -12.8149 -0.0001
# 2 43.4232 125.3871 22.1493 0.0001 -6.2685 0.0000
# 3 14.6972 22.1493 103.4682 -0.0002 -0.3057 -0.0002
# 4 -0.0001 0.0001 -0.0002 27.3875 -0.0001 4.3468
# 5 -12.8149 -6.2685 -0.3057 -0.0001 36.1123 -0.0001
# 6 -0.0001 0.0000 -0.0002 4.3468 -0.0001 28.7932
#
#
#
# Elastic Compliance Matrix: (Units=1/GPa)
#
#
# Indices 1 2 3 4 5 6 
#
# 1 0.011167 -0.003556 -0.000815 0.000000 0.003338 0.000000
# 2 -0.003556 0.009495 -0.001526 0.000000 0.000373 0.000000
# 3 -0.000815 -0.001526 0.010106 0.000000 -0.000469 0.000000
# 4 0.000000 0.000000 0.000000 0.037409 0.000000 -0.005648
# 5 0.003338 0.000373 -0.000469 0.000000 0.028937 0.000000
# 6 0.000000 0.000000 0.000000 -0.005648 0.000000 0.035583
#
#
# Mechanical properties :
#
#
# Convention : Reuss Voigt Hill
#
# Bulk Modulus (GPa) = 52.70802 55.29775 54.00289
# Shear Modulus (GPa) = 33.15280 35.58327 34.36804
#
# Velocity S-wave (km/s) = 3.87751 4.01713 3.94793
# Velocity P-wave (km/s) = 6.62950 6.82601 6.72847
#
# Compressibility (1/GPa) = 0.01897245
#
# Stress axis : x y z
#
# Youngs Moduli (GPa) = 89.55181 105.31648 98.95170
#
# Poissons Ratio (x) = 0.37454 0.08065
# Poissons Ratio (y) = 0.31847 0.15104
# Poissons Ratio (z) = 0.07299 0.16075
#
# Static dielectric constant tensor:
#      x y z
#    x 4.045840 0.000000 0.031430 
#    y 0.000000 3.944270 0.000000 
#    z 0.031430 0.000000 4.396690 
# 
# 
# High freq. dielectric constant tensor:
#      x y z
#    x 1.871270 0.000000 -0.001010 
#    y 0.000000 1.870170 0.000000 
#    z -0.001010 0.000000 1.881110 
# 
# From -- ./inp_files/216822.got.cif
#   From: 2010.06.25/outbox.cif.g09.slc.cpg/sg12_109_cif.got.tgz:216822.got - 2010.06.28 00:19:55.
