data_PCOD8115677
_publ_section_title
;
Structure prediction by ZEFSAII (Michael W. Deem and Ramdas Pophale) SiO2 
 PCOD8115677
Probable space group: C 2/M
;
_chemical_formula_sum "Si O2"
_cell_formula_units_Z 48
_cell_length_a 8.615599
_cell_length_b 24.270079
_cell_length_c 11.973990
_cell_angle_alpha 90.000000
_cell_angle_beta 73.919166
_cell_angle_gamma 90.000000
_cell_volume 2405.808391
_symmetry_space_group_name_H-M "C 2/M"
_symmetry_group_IT_number 12
_symmetry_cell_setting 'monoclinic'
loop_
_space_group_symop_operation_xyz
x,y,z
-x,y,-z
-x,-y,-z
x,-y,z
1/2+x,1/2+y,z
1/2-x,1/2+y,-z
1/2-x,1/2-y,-z
1/2+x,1/2-y,z
loop_
_atom_site_type_symbol
_atom_site_label
_atom_site_fract_x
_atom_site_fract_y
_atom_site_fract_z
Si Si1 0.510474 0.723964 0.623056
Si Si2 0.075765 0.666498 0.228485
Si Si3 0.820088 0.189288 0.995931
Si Si4 0.824298 0.350470 0.565078
Si Si5 0.681777 0.561587 0.424898
Si Si6 0.727397 0.639539 0.232355
O O1 0.500000 0.746323 0.500000
O O2 0.472104 0.771896 0.720084
O O3 0.688602 0.697380 0.603812
O O4 0.367780 0.679867 0.665305
O O5 0.145684 0.628065 0.314457
O O6 0.918378 0.643426 0.201733
O O7 0.214512 0.660285 0.110010
O O8 0.822997 0.151326 0.884553
O O9 0.750000 0.250000 0.000000
O O10 0.000000 0.196028 0.000000
O O11 0.783882 0.398157 0.485270
O O12 0.000000 0.324422 0.500000
O O13 0.500000 0.563410 0.500000
O O14 0.753084 0.500000 0.420704
O O15 0.686558 0.579535 0.292930
#
# Coordination Sequence:
#
# PCOD8115677 Si02
#       6
#     8   8   8   8   8   8
#     4  12  22  36  58  89 137 174 207 247 317 389
#     4  12  25  37  61  94 132 176 206 256 311 388
#     4  12  26  42  61  90 131 178 216 256 305 379
#     4  12  22  40  60  96 132 166 215 262 323 383
#     4  11  24  45  70  94 124 166 214 275 335 379
#     4  12  22  43  63  89 130 167 220 258 314 380
#
# _framework density 19.951712000000001
#
# number of rings (size 3 to 8) (size 9 to 14) (size 15 to 20)
#    0.000    0.167    6.667    4.000    0.000    2.333 
#    0.000    0.000    0.000    3.500    0.000    0.000 
#    0.000    0.000    0.000    0.000    0.000    0.000 
#
# Total GULP energy -297324.564607 kJ/mol
# GULP energy per Si atom -12388.523525 kJ/mol
# Density = 1.990630 g / cm^3
# Si number density = 19.951712 Si / 1000 Ang^3
#
#
#
# Elastic Constant Matrix: (Units=GPa)
#
#
# Indices 1 2 3 4 5 6 
#
# 1 136.4966 38.3399 54.2191 0.0000 -1.2508 0.0000
# 2 38.3399 87.6105 44.6367 0.0000 1.1877 0.0000
# 3 54.2191 44.6367 149.0310 0.0000 1.8166 0.0000
# 4 0.0000 0.0000 0.0000 15.4597 0.0000 6.3023
# 5 -1.2508 1.1877 1.8166 0.0000 44.8519 0.0000
# 6 0.0000 0.0000 0.0000 6.3023 0.0000 7.2782
#
#
#
# Elastic Compliance Matrix: (Units=1/GPa)
#
#
# Indices 1 2 3 4 5 6 
#
# 1 0.009083 -0.002708 -0.002499 0.000000 0.000426 0.000000
# 2 -0.002708 0.014278 -0.003288 0.000000 -0.000320 0.000000
# 3 -0.002499 -0.003288 0.008608 0.000000 -0.000331 0.000000
# 4 0.000000 0.000000 0.000000 0.099976 0.000000 -0.086572
# 5 0.000426 -0.000320 -0.000331 0.000000 0.022329 0.000000
# 6 0.000000 0.000000 0.000000 -0.086572 0.000000 0.212362
#
#
# Mechanical properties :
#
#
# Convention : Reuss Voigt Hill
#
# Bulk Modulus (GPa) = 66.74951 71.94772 69.34862
# Shear Modulus (GPa) = 12.86608 29.24743 21.05676
#
# Velocity S-wave (km/s) = 2.54217 3.83288 3.25219
# Velocity P-wave (km/s) = 6.49192 7.46506 6.99543
#
# Compressibility (1/GPa) = 0.01498138
#
# Stress axis : x y z
#
# Youngs Moduli (GPa) = 110.09335 70.03577 116.17344
#
# Poissons Ratio (x) = 0.18963 0.29029
# Poissons Ratio (y) = 0.29809 0.38193
# Poissons Ratio (z) = 0.27510 0.23025
#
# Static dielectric constant tensor:
#      x y z
#    x 3.954490 0.000000 -0.107430 
#    y 0.000000 3.120110 0.000000 
#    z -0.107430 0.000000 4.191580 
# 
# 
# High freq. dielectric constant tensor:
#      x y z
#    x 1.803000 0.000000 -0.008120 
#    y 0.000000 1.729440 0.000000 
#    z -0.008120 0.000000 1.792310 
# 
# From -- ./inp_files/122423.got.cif
#   From: 2010.06.25/outbox.cif.g09.slc.cpg/sg12_62_cif.got.tgz:122423.got - 2010.06.28 00:19:55.
