data_PCOD8115217
_publ_section_title
;
Structure prediction by ZEFSAII (Michael W. Deem and Ramdas Pophale) SiO2 
 PCOD8115217
Probable space group: C 2/M
;
_chemical_formula_sum "Si O2"
_cell_formula_units_Z 56
_cell_length_a 14.445178
_cell_length_b 8.526305
_cell_length_c 24.061743
_cell_angle_alpha 90.000000
_cell_angle_beta 79.825047
_cell_angle_gamma 90.000000
_cell_volume 2916.932541
_symmetry_space_group_name_H-M "C 2/M"
_symmetry_group_IT_number 12
_symmetry_cell_setting 'monoclinic'
loop_
_space_group_symop_operation_xyz
x,y,z
-x,y,-z
-x,-y,-z
x,-y,z
1/2+x,1/2+y,z
1/2-x,1/2+y,-z
1/2-x,1/2-y,-z
1/2+x,1/2-y,z
loop_
_atom_site_type_symbol
_atom_site_label
_atom_site_fract_x
_atom_site_fract_y
_atom_site_fract_z
Si Si1 0.179705 0.185389 0.846516
Si Si2 0.060472 0.684575 0.765783
Si Si3 0.494817 0.685952 0.063186
Si Si4 0.078145 0.316495 0.637231
Si Si5 0.615027 0.814285 0.144090
Si Si6 0.554845 0.681118 0.438419
Si Si7 0.247087 0.317539 0.438729
O O1 0.148709 0.239433 0.788486
O O2 0.102556 0.247091 0.899111
O O3 0.282506 0.255128 0.850661
O O4 0.184800 0.000000 0.846879
O O5 0.071099 0.500000 0.770241
O O6 0.064024 0.738743 0.701857
O O7 0.961409 0.742597 0.802228
O O8 0.499406 0.500000 0.063896
O O9 0.584669 0.750994 0.087024
O O10 0.500000 0.750901 0.000000
O O11 0.056506 0.500000 0.631674
O O12 0.183775 0.279604 0.607870
O O13 0.008795 0.212583 0.607940
O O14 0.619374 0.000000 0.141037
O O15 0.500000 0.727073 0.500000
O O16 0.586111 0.500000 0.436592
O O17 0.644319 0.793730 0.424140
O O18 0.274987 0.500000 0.436562
O O19 0.250000 0.250000 0.500000
#
# Coordination Sequence:
#
# PCOD8115217 Si02
#       7
#     8   8   8   8   8   8   8
#     4   9  18  33  54  77 105 144 184 225 272 322
#     4   9  20  37  55  78 107 138 176 225 273 322
#     4   9  18  32  49  75 111 146 182 224 271 322
#     4  11  23  39  59  84 114 146 183 228 281 339
#     4   9  18  34  54  76 105 140 181 225 270 319
#     4  11  23  39  60  85 113 145 182 223 273 333
#     4  12  24  39  60  84 111 144 181 223 273 329
#
# _framework density 19.198250000000002
#
# number of rings (size 3 to 8) (size 9 to 14) (size 15 to 20)
#    0.000    2.000    1.429    2.143    0.000    4.286 
#    0.000    1.429    0.000    0.000    0.000    0.000 
#    0.000    0.000    0.000    0.000    0.000    0.000 
#
# Total GULP energy -347278.261395 kJ/mol
# GULP energy per Si atom -12402.795050 kJ/mol
# Density = 1.915455 g / cm^3
# Si number density = 19.198250 Si / 1000 Ang^3
#
#
#
# Elastic Constant Matrix: (Units=GPa)
#
#
# Indices 1 2 3 4 5 6 
#
# 1 144.9168 14.0511 66.0271 0.0000 18.9160 0.0000
# 2 14.0511 26.5828 20.3187 0.0000 1.4670 0.0000
# 3 66.0271 20.3187 157.2658 0.0000 11.2802 0.0000
# 4 0.0000 0.0000 0.0000 25.0837 0.0000 5.4439
# 5 18.9160 1.4670 11.2802 0.0000 25.1474 0.0000
# 6 0.0000 0.0000 0.0000 5.4439 0.0000 29.3344
#
#
#
# Elastic Compliance Matrix: (Units=1/GPa)
#
#
# Indices 1 2 3 4 5 6 
#
# 1 0.009288 -0.002138 -0.003235 0.000000 -0.005411 0.000000
# 2 -0.002138 0.042233 -0.004647 0.000000 0.001229 0.000000
# 3 -0.003235 -0.004647 0.008393 0.000000 -0.001060 0.000000
# 4 0.000000 0.000000 0.000000 0.041540 0.000000 -0.007709
# 5 -0.005411 0.001229 -0.001060 0.000000 0.044239 0.000000
# 6 0.000000 0.000000 0.000000 -0.007709 0.000000 0.035520
#
#
# Mechanical properties :
#
#
# Convention : Reuss Voigt Hill
#
# Bulk Modulus (GPa) = 25.07923 58.83992 41.95957
# Shear Modulus (GPa) = 23.30515 31.13768 27.22142
#
# Velocity S-wave (km/s) = 3.48792 4.03165 3.76960
# Velocity P-wave (km/s) = 5.41409 7.23792 6.39139
#
# Compressibility (1/GPa) = 0.03987363
#
# Stress axis : x y z
#
# Youngs Moduli (GPa) = 107.66458 23.67842 119.14130
#
# Poissons Ratio (x) = 0.05063 0.38545
# Poissons Ratio (y) = 0.23019 0.55364
# Poissons Ratio (z) = 0.34832 0.11003
#
# Static dielectric constant tensor:
#      x y z
#    x 3.800140 0.000000 -0.120070 
#    y 0.000000 3.444890 0.000000 
#    z -0.120070 0.000000 3.674810 
# 
# 
# High freq. dielectric constant tensor:
#      x y z
#    x 1.754120 0.000000 0.004020 
#    y 0.000000 1.739730 0.000000 
#    z 0.004020 0.000000 1.745950 
# 
# From -- ./inp_files/309042.got.cif
#   From: 2010.06.25/outbox.cif.g09.slc.cpg/sg12_155_cif.got.tgz:309042.got - 2010.06.28 00:19:55.
