data_PCOD8115106
_publ_section_title
;
Structure prediction by ZEFSAII (Michael W. Deem and Ramdas Pophale) SiO2 
 PCOD8115106
Probable space group: C 2/M
;
_chemical_formula_sum "Si O2"
_cell_formula_units_Z 48
_cell_length_a 11.751749
_cell_length_b 24.927096
_cell_length_c 9.772985
_cell_angle_alpha 90.000000
_cell_angle_beta 47.359957
_cell_angle_gamma 90.000000
_cell_volume 2105.994474
_symmetry_space_group_name_H-M "C 2/M"
_symmetry_group_IT_number 12
_symmetry_cell_setting 'monoclinic'
loop_
_space_group_symop_operation_xyz
x,y,z
-x,y,-z
-x,-y,-z
x,-y,z
1/2+x,1/2+y,z
1/2-x,1/2+y,-z
1/2-x,1/2-y,-z
1/2+x,1/2-y,z
loop_
_atom_site_type_symbol
_atom_site_label
_atom_site_fract_x
_atom_site_fract_y
_atom_site_fract_z
Si Si1 0.577720 0.881919 0.180361
Si Si2 0.768309 0.500000 0.269955
Si Si3 0.332293 0.789395 0.691422
Si Si4 0.706125 0.323442 0.185093
Si Si5 0.282849 0.390950 0.568486
Si Si6 0.389932 0.000000 0.889862
Si Si7 0.559306 0.347003 0.800947
O O1 0.644177 0.843622 0.242373
O O2 0.394730 0.877993 0.319609
O O3 0.628372 0.943619 0.177509
O O4 0.648858 0.860976 0.978429
O O5 0.681790 0.448029 0.394480
O O6 0.943467 0.500000 0.177396
O O7 0.760112 0.500000 0.112769
O O8 0.500000 0.770779 0.500000
O O9 0.254683 0.739583 0.834047
O O10 0.200681 0.804142 0.688180
O O11 0.652740 0.346298 0.376828
O O12 0.582719 0.321955 0.163920
O O13 0.376913 0.394127 0.348891
O O14 0.500000 0.365777 0.000000
#
# Coordination Sequence:
#
# PCOD8115106 Si02
#       7
#     8   4   8   8   8   4   8
#     4  11  22  43  74 105 135 179 234 289 345 400
#     4   9  18  38  70 102 133 172 236 294 333 396
#     4  12  26  46  69  98 142 193 231 276 343 422
#     4  12  26  43  70 104 139 182 228 286 347 410
#     4  11  23  44  73 102 136 182 237 287 342 405
#     4   9  18  38  69 107 132 171 234 299 328 398
#     4  12  27  45  65  96 147 178 231 283 342 419
#
# _framework density 22.792083000000002
#
# number of rings (size 3 to 8) (size 9 to 14) (size 15 to 20)
#    0.000    0.833    5.000    2.500    2.333    1.333 
#    0.000    4.167    0.000    0.000    0.000    0.000 
#    0.000    0.000    0.000    0.000    0.000    0.000 
#
# Total GULP energy -297379.213028 kJ/mol
# GULP energy per Si atom -12390.800543 kJ/mol
# Density = 2.274021 g / cm^3
# Si number density = 22.792083 Si / 1000 Ang^3
#
#
#
# Elastic Constant Matrix: (Units=GPa)
#
#
# Indices 1 2 3 4 5 6 
#
# 1 90.1388 31.5383 28.1099 0.0000 8.9532 0.0000
# 2 31.5383 173.5164 30.3837 0.0000 14.0339 0.0000
# 3 28.1099 30.3837 119.5436 0.0000 12.2159 0.0000
# 4 0.0000 0.0000 0.0000 26.0294 0.0000 6.0064
# 5 8.9532 14.0339 12.2159 0.0000 35.4768 0.0000
# 6 0.0000 0.0000 0.0000 6.0064 0.0000 21.5128
#
#
#
# Elastic Compliance Matrix: (Units=1/GPa)
#
#
# Indices 1 2 3 4 5 6 
#
# 1 0.012604 -0.001743 -0.002349 0.000000 -0.001682 0.000000
# 2 -0.001743 0.006402 -0.001040 0.000000 -0.001735 0.000000
# 3 -0.002349 -0.001040 0.009410 0.000000 -0.002236 0.000000
# 4 0.000000 0.000000 0.000000 0.041064 0.000000 -0.011465
# 5 -0.001682 -0.001735 -0.002236 0.000000 0.030068 0.000000
# 6 0.000000 0.000000 0.000000 -0.011465 0.000000 0.049685
#
#
# Mechanical properties :
#
#
# Convention : Reuss Voigt Hill
#
# Bulk Modulus (GPa) = 55.09049 62.58474 58.83761
# Shear Modulus (GPa) = 30.20272 36.14826 33.17549
#
# Velocity S-wave (km/s) = 3.64420 3.98678 3.81933
# Velocity P-wave (km/s) = 6.47536 6.97934 6.73207
#
# Compressibility (1/GPa) = 0.01815195
#
# Stress axis : x y z
#
# Youngs Moduli (GPa) = 79.34282 156.19025 106.26701
#
# Poissons Ratio (x) = 0.27232 0.24958
# Poissons Ratio (y) = 0.13833 0.11052
# Poissons Ratio (z) = 0.18634 0.16245
#
# Static dielectric constant tensor:
#      x y z
#    x 4.032270 0.000000 -0.049370 
#    y 0.000000 4.207980 0.000000 
#    z -0.049370 0.000000 4.406710 
# 
# 
# High freq. dielectric constant tensor:
#      x y z
#    x 1.890900 0.000000 -0.007300 
#    y 0.000000 1.894760 0.000000 
#    z -0.007300 0.000000 1.906870 
# 
# From -- ./inp_files/147949.got.cif
#   From: 2010.06.25/outbox.cif.g09.slc.cpg/sg12_74_cif.got.tgz:147949.got - 2010.06.28 00:19:55.
