data_PCOD8115337
_publ_section_title
;
Structure prediction by ZEFSAII (Michael W. Deem and Ramdas Pophale) SiO2 
 PCOD8115337
Probable space group: C 2/M
;
_chemical_formula_sum "Si O2"
_cell_formula_units_Z 40
_cell_length_a 12.437105
_cell_length_b 27.697167
_cell_length_c 8.630438
_cell_angle_alpha 90.000000
_cell_angle_beta 144.928171
_cell_angle_gamma 90.000000
_cell_volume 1708.265280
_symmetry_space_group_name_H-M "C 2/M"
_symmetry_group_IT_number 12
_symmetry_cell_setting 'monoclinic'
loop_
_space_group_symop_operation_xyz
x,y,z
-x,y,-z
-x,-y,-z
x,-y,z
1/2+x,1/2+y,z
1/2-x,1/2+y,-z
1/2-x,1/2-y,-z
1/2+x,1/2-y,z
loop_
_atom_site_type_symbol
_atom_site_label
_atom_site_fract_x
_atom_site_fract_y
_atom_site_fract_z
Si Si1 0.032607 0.297536 0.856641
Si Si2 0.340796 0.555488 0.188771
Si Si3 0.045249 0.200009 0.723958
Si Si4 0.923497 0.107446 0.748687
Si Si5 0.025342 0.393753 0.347306
O O1 0.972558 0.242682 0.751240
O O2 0.920900 0.337905 0.628063
O O3 0.234274 0.307871 0.017609
O O4 0.000000 0.307137 0.000000
O O5 0.500000 0.572824 0.500000
O O6 0.286126 0.500000 0.149467
O O7 0.437492 0.564210 0.137300
O O8 0.146600 0.586221 0.960679
O O9 0.000000 0.217758 0.500000
O O10 0.937242 0.151173 0.640936
O O11 0.719947 0.082052 0.521778
O O12 0.000000 0.128764 0.000000
O O13 0.000000 0.402621 0.500000
#
# Coordination Sequence:
#
# PCOD8115337 Si02
#       5
#     8   8   8   8   8
#     4  11  24  39  66 101 139 191 238 285 343 414
#     4  11  27  50  74 104 141 180 234 299 364 426
#     4  11  23  41  64  98 146 188 237 287 343 414
#     4  12  24  44  73 103 145 187 235 293 352 417
#     4  12  25  45  72 105 141 188 236 289 353 427
#
# _framework density 23.415568
#
# number of rings (size 3 to 8) (size 9 to 14) (size 15 to 20)
#    0.000    0.600    4.000    3.000    2.800    8.000 
#    0.000    2.000    0.000    0.000    0.000    0.000 
#    0.000    0.000    0.000    0.000    0.000    0.000 
#
# Total GULP energy -247824.729256 kJ/mol
# GULP energy per Si atom -12391.236463 kJ/mol
# Density = 2.336227 g / cm^3
# Si number density = 23.415568 Si / 1000 Ang^3
#
#
#
# Elastic Constant Matrix: (Units=GPa)
#
#
# Indices 1 2 3 4 5 6 
#
# 1 115.4618 28.9229 40.3047 0.0000 17.1662 0.0000
# 2 28.9229 89.6942 30.1870 0.0000 -3.3084 0.0000
# 3 40.3047 30.1870 119.3758 0.0000 8.6477 0.0000
# 4 0.0000 0.0000 0.0000 34.6000 0.0000 9.2742
# 5 17.1662 -3.3084 8.6477 0.0000 41.6224 0.0000
# 6 0.0000 0.0000 0.0000 9.2742 0.0000 66.9685
#
#
#
# Elastic Compliance Matrix: (Units=1/GPa)
#
#
# Indices 1 2 3 4 5 6 
#
# 1 0.010909 -0.002769 -0.002682 0.000000 -0.004162 0.000000
# 2 -0.002769 0.012999 -0.002548 0.000000 0.002705 0.000000
# 3 -0.002682 -0.002548 0.010012 0.000000 -0.001177 0.000000
# 4 0.000000 0.000000 0.000000 0.030016 0.000000 -0.004157
# 5 -0.004162 0.002705 -0.001177 0.000000 0.026202 0.000000
# 6 0.000000 0.000000 0.000000 -0.004157 0.000000 0.015508
#
#
# Mechanical properties :
#
#
# Convention : Reuss Voigt Hill
#
# Bulk Modulus (GPa) = 55.79402 58.15121 56.97262
# Shear Modulus (GPa) = 39.17943 43.64599 41.41271
#
# Velocity S-wave (km/s) = 4.09494 4.32206 4.21003
# Velocity P-wave (km/s) = 6.79982 7.05658 6.92939
#
# Compressibility (1/GPa) = 0.01792307
#
# Stress axis : x y z
#
# Youngs Moduli (GPa) = 91.66431 76.92765 99.88095
#
# Poissons Ratio (x) = 0.21300 0.26784
# Poissons Ratio (y) = 0.25381 0.25452
# Poissons Ratio (z) = 0.24581 0.19603
#
# Static dielectric constant tensor:
#      x y z
#    x 3.808630 0.000000 -0.371050 
#    y 0.000000 3.967560 0.000000 
#    z -0.371050 0.000000 3.728000 
# 
# 
# High freq. dielectric constant tensor:
#      x y z
#    x 1.941410 0.000000 0.010940 
#    y 0.000000 1.909270 0.000000 
#    z 0.010940 0.000000 1.929780 
# 
# From -- ./inp_files/54468.got.cif
#   From: 2010.06.25/outbox.cif.g09.slc.cpg/sg12_28_cif.got.tgz:54468.got - 2010.06.28 00:19:55.
