data_PCOD8115906
_publ_section_title
;
Structure prediction by ZEFSAII (Michael W. Deem and Ramdas Pophale) SiO2 
 PCOD8115906
Probable space group: C 2/M
;
_chemical_formula_sum "Si O2"
_cell_formula_units_Z 40
_cell_length_a 10.252771
_cell_length_b 25.609470
_cell_length_c 9.709307
_cell_angle_alpha 90.000000
_cell_angle_beta 52.124435
_cell_angle_gamma 90.000000
_cell_volume 2012.322056
_symmetry_space_group_name_H-M "C 2/M"
_symmetry_group_IT_number 12
_symmetry_cell_setting 'monoclinic'
loop_
_space_group_symop_operation_xyz
x,y,z
-x,y,-z
-x,-y,-z
x,-y,z
1/2+x,1/2+y,z
1/2-x,1/2+y,-z
1/2-x,1/2-y,-z
1/2+x,1/2-y,z
loop_
_atom_site_type_symbol
_atom_site_label
_atom_site_fract_x
_atom_site_fract_y
_atom_site_fract_z
Si Si1 0.888167 0.291903 0.947652
Si Si2 0.685935 0.387615 0.045209
Si Si3 0.698217 0.500000 0.722500
Si Si4 0.614959 0.791567 0.544157
Si Si5 0.193146 0.886803 0.711249
Si Si6 0.807152 0.000000 0.973015
O O1 0.003928 0.305504 0.745589
O O2 0.750000 0.250000 0.000000
O O3 0.797165 0.345207 0.051508
O O4 0.000000 0.270272 0.000000
O O5 0.496314 0.375652 0.206112
O O6 0.740477 0.445054 0.069084
O O7 0.712354 0.384008 0.863610
O O8 0.749095 0.444800 0.618482
O O9 0.502517 0.500000 0.866595
O O10 0.778512 0.500000 0.822041
O O11 0.500000 0.766546 0.500000
O O12 0.750000 0.750000 0.500000
O O13 0.694045 0.844732 0.436587
#
# Coordination Sequence:
#
# PCOD8115906 Si02
#       6
#     8   8   4   8   8   4
#     4  12  26  41  59  83 115 157 197 240 295 349
#     4   9  17  34  59  87 117 151 193 228 289 341
#     4   7  12  26  52  88 116 144 187 226 286 332
#     4  12  24  40  58  85 115 150 195 245 294 339
#     4   9  17  33  60  88 117 150 188 242 278 344
#     4   7  12  26  54  85 114 149 185 229 270 353
#
# _framework density 19.877534000000001
#
# number of rings (size 3 to 8) (size 9 to 14) (size 15 to 20)
#    0.000    2.200    2.000    4.800    2.800    0.000 
#    0.000    2.000    0.000    0.000    0.000    4.900 
#    0.000    0.000    0.000    0.000    0.000    0.000 
#
# Total GULP energy -247790.219598 kJ/mol
# GULP energy per Si atom -12389.510980 kJ/mol
# Density = 1.983229 g / cm^3
# Si number density = 19.877534 Si / 1000 Ang^3
#
#
#
# Elastic Constant Matrix: (Units=GPa)
#
#
# Indices 1 2 3 4 5 6 
#
# 1 111.5195 63.8876 26.6058 0.0000 -1.6996 0.0000
# 2 63.8876 163.4189 32.3509 0.0000 -15.5083 0.0000
# 3 26.6058 32.3509 77.2395 0.0000 -9.0194 0.0000
# 4 0.0000 0.0000 0.0000 -13.4873 0.0000 18.8802
# 5 -1.6996 -15.5083 -9.0194 0.0000 22.5051 0.0000
# 6 0.0000 0.0000 0.0000 18.8802 0.0000 14.0032
#
#
#
# Elastic Compliance Matrix: (Units=1/GPa)
#
#
# Indices 1 2 3 4 5 6 
#
# 1 0.012151 -0.004533 -0.002669 0.000000 -0.003276 0.000000
# 2 -0.004533 0.008662 -0.001479 0.000000 0.005034 0.000000
# 3 -0.002669 -0.001479 0.015047 0.000000 0.004810 0.000000
# 4 0.000000 0.000000 0.000000 -0.025679 0.000000 0.034622
# 5 -0.003276 0.005034 0.004810 0.000000 0.049583 0.000000
# 6 0.000000 0.000000 0.000000 0.034622 0.000000 0.024732
#
#
# Mechanical properties :
#
#
# Convention : Reuss Voigt Hill
#
# Bulk Modulus (GPa) = 54.06003 66.42964 60.24484
# Shear Modulus (GPa) = 46.28574 19.89311 33.08943
#
# Velocity S-wave (km/s) = 4.83074 3.16695 4.08446
# Velocity P-wave (km/s) = 7.64004 6.84578 7.25379
#
# Compressibility (1/GPa) = 0.01849795
#
# Stress axis : x y z
#
# Youngs Moduli (GPa) = 82.30010 115.45089 66.45722
#
# Poissons Ratio (x) = 0.52330 0.17741
# Poissons Ratio (y) = 0.37304 0.09827
# Poissons Ratio (z) = 0.21970 0.17072
#
# Static dielectric constant tensor:
#      x y z
#    x 3.379400 0.000000 -0.117710 
#    y 0.000000 4.171580 0.000000 
#    z -0.117710 0.000000 3.313770 
# 
# 
# High freq. dielectric constant tensor:
#      x y z
#    x 1.748340 0.000000 -0.024500 
#    y 0.000000 1.799890 0.000000 
#    z -0.024500 0.000000 1.742690 
# 
# From -- ./inp_files/52365.got.cif
#   From: 2010.06.25/outbox.cif.g09.slc.cpg/sg12_27_cif.got.tgz:52365.got - 2010.06.28 00:19:55.
