data_PCOD8115273
_publ_section_title
;
Structure prediction by ZEFSAII (Michael W. Deem and Ramdas Pophale) SiO2 
 PCOD8115273
Probable space group: C 2/M
;
_chemical_formula_sum "Si O2"
_cell_formula_units_Z 56
_cell_length_a 8.872141
_cell_length_b 28.506897
_cell_length_c 20.570361
_cell_angle_alpha 90.000000
_cell_angle_beta 30.799449
_cell_angle_gamma 90.000000
_cell_volume 2663.910366
_symmetry_space_group_name_H-M "C 2/M"
_symmetry_group_IT_number 12
_symmetry_cell_setting 'monoclinic'
loop_
_space_group_symop_operation_xyz
x,y,z
-x,y,-z
-x,-y,-z
x,-y,z
1/2+x,1/2+y,z
1/2-x,1/2+y,-z
1/2-x,1/2-y,-z
1/2+x,1/2-y,z
loop_
_atom_site_type_symbol
_atom_site_label
_atom_site_fract_x
_atom_site_fract_y
_atom_site_fract_z
Si Si1 0.185633 0.225809 0.144889
Si Si2 0.327108 0.698262 0.496399
Si Si3 0.308943 0.448349 0.624979
Si Si4 0.662334 0.355497 0.255304
Si Si5 0.653525 0.551963 0.629033
Si Si6 0.803733 0.612188 0.861867
Si Si7 0.792517 0.693516 0.771689
O O1 0.191862 0.178755 0.184334
O O2 0.054622 0.268037 0.237109
O O3 0.983502 0.219570 0.157210
O O4 0.500000 0.240075 0.000000
O O5 0.500000 0.700242 0.500000
O O6 0.250000 0.750000 0.500000
O O7 0.480666 0.666296 0.384095
O O8 0.012666 0.675901 0.633300
O O9 0.500000 0.420302 0.500000
O O10 0.233790 0.500000 0.626591
O O11 0.524237 0.449860 0.605447
O O12 0.993426 0.425962 0.753768
O O13 0.509308 0.402319 0.280639
O O14 0.992823 0.366402 0.156646
O O15 0.589876 0.500000 0.685370
O O16 0.000000 0.561402 0.500000
O O17 0.689268 0.650573 0.853532
O O18 0.500000 0.589013 0.000000
#
# Coordination Sequence:
#
# PCOD8115273 Si02
#       7
#     8   8   8   8   8   8   8
#     4  12  25  42  60  85 122 166 207 247 301 367
#     4  12  24  40  60  90 124 156 203 258 315 359
#     4   9  20  38  62  92 123 155 200 256 309 362
#     4  11  24  39  62  91 124 157 203 261 305 365
#     4   9  20  37  60  88 121 156 194 243 309 369
#     4  11  23  40  61  87 122 166 207 248 305 369
#     4  12  24  39  62  84 122 162 204 252 302 361
#
# _framework density 21.021728
#
# number of rings (size 3 to 8) (size 9 to 14) (size 15 to 20)
#    0.000    1.143    2.857    3.429    6.000    0.286 
#    0.000    0.000    0.000    0.429    0.000    0.000 
#    0.000    0.000    0.000    0.000    0.000    0.000 
#
# Total GULP energy -346969.662766 kJ/mol
# GULP energy per Si atom -12391.773670 kJ/mol
# Density = 2.097388 g / cm^3
# Si number density = 21.021728 Si / 1000 Ang^3
#
#
#
# Elastic Constant Matrix: (Units=GPa)
#
#
# Indices 1 2 3 4 5 6 
#
# 1 59.6430 21.6696 23.5762 0.0016 -13.9424 -0.0011
# 2 21.6696 93.2955 42.2076 0.0012 2.5899 -0.0005
# 3 23.5762 42.2076 138.6195 -0.0008 -16.9141 -0.0015
# 4 0.0016 0.0012 -0.0008 -1.9298 0.0010 19.4573
# 5 -13.9424 2.5899 -16.9141 0.0010 32.3506 -0.0003
# 6 -0.0011 -0.0005 -0.0015 19.4573 -0.0003 17.1631
#
#
#
# Elastic Compliance Matrix: (Units=1/GPa)
#
#
# Indices 1 2 3 4 5 6 
#
# 1 0.020935 -0.004621 -0.001076 0.000003 0.008830 -0.000002
# 2 -0.004621 0.013764 -0.004040 0.000000 -0.005206 0.000000
# 3 -0.001076 -0.004040 0.009197 0.000000 0.004668 0.000000
# 4 0.000003 0.000000 0.000000 -0.041688 0.000003 0.047260
# 5 0.008830 -0.005206 0.004668 0.000003 0.037574 -0.000002
# 6 -0.000002 0.000000 0.000000 0.047260 -0.000002 0.004687
#
#
# Mechanical properties :
#
#
# Convention : Reuss Voigt Hill
#
# Bulk Modulus (GPa) = 40.94786 51.82941 46.38863
# Shear Modulus (GPa) = 69.36292 23.12376 46.24334
#
# Velocity S-wave (km/s) = 5.75043 3.32021 4.69528
# Velocity P-wave (km/s) = 7.97565 6.27751 7.17698
#
# Compressibility (1/GPa) = 0.02442130
#
# Stress axis : x y z
#
# Youngs Moduli (GPa) = 47.76759 72.65196 108.73286
#
# Poissons Ratio (x) = 0.33570 0.11702
# Poissons Ratio (y) = 0.22072 0.43932
# Poissons Ratio (z) = 0.05141 0.29354
#
# Static dielectric constant tensor:
#      x y z
#    x 4.262400 -0.000120 -0.438700 
#    y -0.000120 5.139270 0.000060 
#    z -0.438700 0.000060 4.277720 
# 
# 
# High freq. dielectric constant tensor:
#      x y z
#    x 1.824380 0.000000 -0.010690 
#    y 0.000000 1.826130 0.000000 
#    z -0.010690 0.000000 1.820190 
# 
# From -- ./inp_files/302980.got.cif
#   From: 2010.06.25/outbox.cif.g09.slc.cpg/sg12_152_cif.got.tgz:302980.got - 2010.06.28 00:19:55.
