data_PCOD8115060
_publ_section_title
;
Structure prediction by ZEFSAII (Michael W. Deem and Ramdas Pophale) SiO2 
 PCOD8115060
Probable space group: C 2/M
;
_chemical_formula_sum "Si O2"
_cell_formula_units_Z 32
_cell_length_a 9.858825
_cell_length_b 14.132055
_cell_length_c 11.555631
_cell_angle_alpha 90.000000
_cell_angle_beta 54.021651
_cell_angle_gamma 90.000000
_cell_volume 1302.869668
_symmetry_space_group_name_H-M "C 2/M"
_symmetry_group_IT_number 12
_symmetry_cell_setting 'monoclinic'
loop_
_space_group_symop_operation_xyz
x,y,z
-x,y,-z
-x,-y,-z
x,-y,z
1/2+x,1/2+y,z
1/2-x,1/2+y,-z
1/2-x,1/2-y,-z
1/2+x,1/2-y,z
loop_
_atom_site_type_symbol
_atom_site_label
_atom_site_fract_x
_atom_site_fract_y
_atom_site_fract_z
Si Si1 0.227788 0.766880 0.333114
Si Si2 0.510868 0.500000 0.804033
Si Si3 0.607174 0.791444 0.155088
Si Si4 0.226442 0.500000 0.117798
Si Si5 0.291573 0.604125 0.456450
O O1 0.423594 0.769408 0.197005
O O2 0.118072 0.758672 0.274007
O O3 0.179469 0.680683 0.444487
O O4 0.174186 0.861546 0.429687
O O5 0.650617 0.500000 0.834970
O O6 0.538651 0.592093 0.707516
O O7 0.327046 0.500000 0.946502
O O8 0.617737 0.904616 0.170035
O O9 0.750000 0.750000 0.000000
O O10 0.202687 0.500000 0.505982
#
# Coordination Sequence:
#
# PCOD8115060 Si02
#       5
#     8   4   8   4   8
#     4  11  24  44  68 106 136 182 228 288 344 409
#     4   9  18  39  70  99 128 188 230 268 337 425
#     4  12  26  45  71 103 140 180 235 286 340 412
#     4  11  22  41  75  95 142 185 240 264 347 427
#     4   9  20  41  70  96 141 179 229 280 349 413
#
# _framework density 24.561167000000001
#
# number of rings (size 3 to 8) (size 9 to 14) (size 15 to 20)
#    0.750    0.750    2.500    2.250    5.250    4.000 
#    2.250    5.000    0.000    0.000    0.000    0.000 
#    0.000    0.000    0.000    0.000    0.000    0.000 
#
# Total GULP energy -198243.629163 kJ/mol
# GULP energy per Si atom -12390.226823 kJ/mol
# Density = 2.450526 g / cm^3
# Si number density = 24.561167 Si / 1000 Ang^3
#
#
#
# Elastic Constant Matrix: (Units=GPa)
#
#
# Indices 1 2 3 4 5 6 
#
# 1 53.6028 8.6410 11.2580 0.0000 -7.1325 0.0000
# 2 8.6410 149.4807 26.8391 0.0000 9.6654 0.0000
# 3 11.2580 26.8391 131.4523 0.0000 10.7897 0.0000
# 4 0.0000 0.0000 0.0000 56.8181 0.0000 1.8429
# 5 -7.1325 9.6654 10.7897 0.0000 35.1760 0.0000
# 6 0.0000 0.0000 0.0000 1.8429 0.0000 13.4485
#
#
#
# Elastic Compliance Matrix: (Units=1/GPa)
#
#
# Indices 1 2 3 4 5 6 
#
# 1 0.019887 -0.001131 -0.001876 0.000000 0.004918 0.000000
# 2 -0.001131 0.007088 -0.001202 0.000000 -0.001808 0.000000
# 3 -0.001876 -0.001202 0.008225 0.000000 -0.002573 0.000000
# 4 0.000000 0.000000 0.000000 0.017679 0.000000 -0.002423
# 5 0.004918 -0.001808 -0.002573 0.000000 0.030712 0.000000
# 6 0.000000 0.000000 0.000000 -0.002423 0.000000 0.074690
#
#
# Mechanical properties :
#
#
# Convention : Reuss Voigt Hill
#
# Bulk Modulus (GPa) = 37.33900 47.55691 42.44795
# Shear Modulus (GPa) = 28.46993 40.27501 34.37247
#
# Velocity S-wave (km/s) = 3.40831 4.05382 3.74500
# Velocity P-wave (km/s) = 5.54295 6.42775 6.00167
#
# Compressibility (1/GPa) = 0.02678165
#
# Stress axis : x y z
#
# Youngs Moduli (GPa) = 50.28537 141.08526 121.58691
#
# Poissons Ratio (x) = 0.15954 0.22809
# Poissons Ratio (y) = 0.05686 0.14614
# Poissons Ratio (z) = 0.09433 0.16957
#
# Static dielectric constant tensor:
#      x y z
#    x 3.789540 0.000000 0.079820 
#    y 0.000000 4.790390 0.000000 
#    z 0.079820 0.000000 4.652610 
# 
# 
# High freq. dielectric constant tensor:
#      x y z
#    x 1.934780 0.000000 0.003920 
#    y 0.000000 1.996670 0.000000 
#    z 0.003920 0.000000 1.994170 
# 
# From -- ./inp_files/128494.got.cif
#   From: 2010.06.25/outbox.cif.g09.slc.cpg/sg12_65_cif.got.tgz:128494.got - 2010.06.28 00:19:55.
