data_PCOD8115176
_publ_section_title
;
Structure prediction by ZEFSAII (Michael W. Deem and Ramdas Pophale) SiO2 
 PCOD8115176
Probable space group: C 2/M
;
_chemical_formula_sum "Si O2"
_cell_formula_units_Z 56
_cell_length_a 28.733809
_cell_length_b 17.134659
_cell_length_c 18.922542
_cell_angle_alpha 90.000000
_cell_angle_beta 19.216658
_cell_angle_gamma 90.000000
_cell_volume 3066.411181
_symmetry_space_group_name_H-M "C 2/M"
_symmetry_group_IT_number 12
_symmetry_cell_setting 'monoclinic'
loop_
_space_group_symop_operation_xyz
x,y,z
-x,y,-z
-x,-y,-z
x,-y,z
1/2+x,1/2+y,z
1/2-x,1/2+y,-z
1/2-x,1/2-y,-z
1/2+x,1/2-y,z
loop_
_atom_site_type_symbol
_atom_site_label
_atom_site_fract_x
_atom_site_fract_y
_atom_site_fract_z
Si Si1 0.918633 0.158579 0.857770
Si Si2 0.521921 0.165466 0.258995
Si Si3 0.512422 0.589783 0.587856
Si Si4 0.387625 0.091496 0.723352
Si Si5 0.513866 0.589348 0.095001
Si Si6 0.730751 0.589429 0.661867
Si Si7 0.228399 0.908104 0.168736
O O1 0.946341 0.243262 0.785766
O O2 0.008294 0.102973 0.677133
O O3 0.981238 0.148022 0.846062
O O4 0.754105 0.136515 0.095055
O O5 0.551287 0.127359 0.292710
O O6 0.360440 0.148706 0.470025
O O7 0.618573 0.129875 0.058566
O O8 0.518282 0.500000 0.559957
O O9 0.368292 0.621589 0.758498
O O10 0.653692 0.624213 0.347747
O O11 0.500000 0.103833 0.500000
O O12 0.354471 0.000000 0.782674
O O13 0.530587 0.500000 0.097055
O O14 0.364606 0.601134 0.270640
O O15 0.641200 0.610115 0.859784
O O16 0.784508 0.500000 0.589404
O O17 0.251403 0.000000 0.135834
#
# Coordination Sequence:
#
# PCOD8115176 Si02
#       7
#     8   8   8   8   8   8   8
#     4  12  23  34  52  84 117 146 175 224 285 337
#     4  12  23  34  52  84 117 146 175 224 285 337
#     4   9  18  33  52  71  98 143 191 223 249 302
#     4  11  23  38  57  81 111 149 190 233 278 326
#     4   9  19  38  63  85 106 141 188 232 275 329
#     4   9  19  38  63  85 106 141 188 232 275 329
#     4   9  18  33  52  71  98 143 191 223 249 302
#
# _framework density 18.262391000000001
#
# number of rings (size 3 to 8) (size 9 to 14) (size 15 to 20)
#    0.000    1.857    1.429    5.571    0.000    5.143 
#    0.000    0.000    0.000    0.857    0.000    4.000 
#    0.000    0.000    0.000    0.000    0.000    0.000 
#
# Total GULP energy -347151.559518 kJ/mol
# GULP energy per Si atom -12398.269983 kJ/mol
# Density = 1.822083 g / cm^3
# Si number density = 18.262391 Si / 1000 Ang^3
#
#
#
# Elastic Constant Matrix: (Units=GPa)
#
#
# Indices 1 2 3 4 5 6 
#
# 1 92.5889 24.1452 48.1402 0.0004 6.0773 -0.0003
# 2 24.1452 66.2963 40.6583 0.0023 -5.4969 -0.0008
# 3 48.1402 40.6583 120.6660 0.0052 0.1167 -0.0017
# 4 0.0004 0.0023 0.0052 9.6458 -0.0024 -7.7593
# 5 6.0773 -5.4969 0.1167 -0.0024 25.7624 0.0001
# 6 -0.0003 -0.0008 -0.0017 -7.7593 0.0001 15.9148
#
#
#
# Elastic Compliance Matrix: (Units=1/GPa)
#
#
# Indices 1 2 3 4 5 6 
#
# 1 0.014221 -0.002551 -0.004810 0.000002 -0.003877 0.000001
# 2 -0.002551 0.019910 -0.005696 0.000000 0.004876 0.000000
# 3 -0.004810 -0.005696 0.012126 -0.000007 -0.000135 -0.000003
# 4 0.000002 0.000000 -0.000007 0.170568 0.000015 0.083161
# 5 -0.003877 0.004876 -0.000135 0.000015 0.040772 0.000007
# 6 0.000001 0.000000 -0.000003 0.083161 0.000007 0.103380
#
#
# Mechanical properties :
#
#
# Convention : Reuss Voigt Hill
#
# Bulk Modulus (GPa) = 49.64427 56.15984 52.90205
# Shear Modulus (GPa) = 12.69661 21.37176 17.03418
#
# Velocity S-wave (km/s) = 2.63959 3.42462 3.05740
# Velocity P-wave (km/s) = 6.04424 6.81584 6.44160
#
# Compressibility (1/GPa) = 0.02014331
#
# Stress axis : x y z
#
# Youngs Moduli (GPa) = 70.31765 50.22557 82.46883
#
# Poissons Ratio (x) = 0.12811 0.39671
# Poissons Ratio (y) = 0.17936 0.46973
# Poissons Ratio (z) = 0.33826 0.28608
#
# Static dielectric constant tensor:
#      x y z
#    x 3.220230 0.000000 0.134770 
#    y 0.000000 3.235620 0.000000 
#    z 0.134770 0.000000 3.502350 
# 
# 
# High freq. dielectric constant tensor:
#      x y z
#    x 1.694080 0.000000 0.016400 
#    y 0.000000 1.694040 0.000000 
#    z 0.016400 0.000000 1.717590 
# 
# From -- ./inp_files/214198.got.cif
#   From: 2010.06.25/outbox.cif.g09.slc.cpg/sg12_108_cif.got.tgz:214198.got - 2010.06.28 00:19:55.
