data_PCOD8115414
_publ_section_title
;
Structure prediction by ZEFSAII (Michael W. Deem and Ramdas Pophale) SiO2 
 PCOD8115414
Probable space group: C 2/M
;
_chemical_formula_sum "Si O2"
_cell_formula_units_Z 40
_cell_length_a 11.991873
_cell_length_b 16.425700
_cell_length_c 8.675328
_cell_angle_alpha 90.000000
_cell_angle_beta 93.405077
_cell_angle_gamma 90.000000
_cell_volume 1705.805130
_symmetry_space_group_name_H-M "C 2/M"
_symmetry_group_IT_number 12
_symmetry_cell_setting 'monoclinic'
loop_
_space_group_symop_operation_xyz
x,y,z
-x,y,-z
-x,-y,-z
x,-y,z
1/2+x,1/2+y,z
1/2-x,1/2+y,-z
1/2-x,1/2-y,-z
1/2+x,1/2-y,z
loop_
_atom_site_type_symbol
_atom_site_label
_atom_site_fract_x
_atom_site_fract_y
_atom_site_fract_z
Si Si1 0.761569 0.833924 0.597541
Si Si2 0.099696 0.589760 0.796593
Si Si3 0.337686 0.594231 0.310742
Si Si4 0.881715 0.644623 0.865576
Si Si5 0.037054 0.179733 0.169827
O O1 0.750000 0.750000 0.500000
O O2 0.639314 0.858400 0.650707
O O3 0.813963 0.902408 0.490479
O O4 0.838502 0.838204 0.757496
O O5 0.152630 0.500000 0.787664
O O6 0.964416 0.578430 0.794441
O O7 0.142694 0.631395 0.957277
O O8 0.345226 0.500000 0.257068
O O9 0.238101 0.644649 0.222702
O O10 0.449770 0.644290 0.285528
O O11 0.960396 0.723252 0.842926
O O12 0.000000 0.142067 0.000000
#
# Coordination Sequence:
#
# PCOD8115414 Si02
#       5
#     8   8   8   8   8
#     4  12  26  45  72 104 146 189 238 293 364 430
#     4  11  23  42  70 104 142 184 238 298 357 424
#     4  12  27  47  72 106 148 189 238 300 362 423
#     4  11  23  44  74 103 141 187 241 293 358 427
#     4  12  26  46  76 103 142 189 245 289 356 430
#
# _framework density 23.449337
#
# number of rings (size 3 to 8) (size 9 to 14) (size 15 to 20)
#    0.000    0.400    4.000    6.000    0.000    5.200 
#    0.000    2.000    0.000    0.000    0.000    0.000 
#    0.000    0.000    0.000    0.000    0.000    0.000 
#
# Total GULP energy -247802.271607 kJ/mol
# GULP energy per Si atom -12390.113580 kJ/mol
# Density = 2.339597 g / cm^3
# Si number density = 23.449337 Si / 1000 Ang^3
#
#
#
# Elastic Constant Matrix: (Units=GPa)
#
#
# Indices 1 2 3 4 5 6 
#
# 1 103.0284 30.1660 34.7050 0.0000 -9.1670 0.0000
# 2 30.1660 115.7681 39.0401 0.0000 -23.5361 0.0000
# 3 34.7050 39.0401 95.4275 0.0000 -23.6946 0.0000
# 4 0.0000 0.0000 0.0000 30.8343 0.0000 -3.8023
# 5 -9.1670 -23.5361 -23.6946 0.0000 57.0491 0.0000
# 6 0.0000 0.0000 0.0000 -3.8023 0.0000 24.8437
#
#
#
# Elastic Compliance Matrix: (Units=1/GPa)
#
#
# Indices 1 2 3 4 5 6 
#
# 1 0.011390 -0.001876 -0.003471 0.000000 -0.000385 0.000000
# 2 -0.001876 0.010720 -0.002988 0.000000 0.002880 0.000000
# 3 -0.003471 -0.002988 0.013959 0.000000 0.004007 0.000000
# 4 0.000000 0.000000 0.000000 0.033055 0.000000 0.005059
# 5 -0.000385 0.002880 0.004007 0.000000 0.020319 0.000000
# 6 0.000000 0.000000 0.000000 0.005059 0.000000 0.041026
#
#
# Mechanical properties :
#
#
# Convention : Reuss Voigt Hill
#
# Bulk Modulus (GPa) = 51.54774 58.00513 54.77644
# Shear Modulus (GPa) = 32.55094 36.56629 34.55862
#
# Velocity S-wave (km/s) = 3.72982 3.95318 3.84312
# Velocity P-wave (km/s) = 6.37017 6.75477 6.56528
#
# Compressibility (1/GPa) = 0.01939949
#
# Stress axis : x y z
#
# Youngs Moduli (GPa) = 87.79568 93.28341 71.63939
#
# Poissons Ratio (x) = 0.17499 0.24863
# Poissons Ratio (y) = 0.16469 0.21408
# Poissons Ratio (z) = 0.30470 0.27876
#
# Static dielectric constant tensor:
#      x y z
#    x 4.090000 0.000000 0.065840 
#    y 0.000000 4.159880 0.000000 
#    z 0.065840 0.000000 4.334300 
# 
# 
# High freq. dielectric constant tensor:
#      x y z
#    x 1.930060 0.000000 -0.004450 
#    y 0.000000 1.923670 0.000000 
#    z -0.004450 0.000000 1.932020 
# 
# From -- ./inp_files/59118.got.cif
#   From: 2010.06.25/outbox.cif.g09.slc.cpg/sg12_30_cif.got.tgz:59118.got - 2010.06.28 00:19:55.
