data_PCOD8115078
_publ_section_title
;
Structure prediction by ZEFSAII (Michael W. Deem and Ramdas Pophale) SiO2 
 PCOD8115078
Probable space group: C 2/M
;
_chemical_formula_sum "Si O2"
_cell_formula_units_Z 56
_cell_length_a 21.695080
_cell_length_b 19.686856
_cell_length_c 18.849595
_cell_angle_alpha 90.000000
_cell_angle_beta 18.469725
_cell_angle_gamma 90.000000
_cell_volume 2550.525333
_symmetry_space_group_name_H-M "C 2/M"
_symmetry_group_IT_number 12
_symmetry_cell_setting 'monoclinic'
loop_
_space_group_symop_operation_xyz
x,y,z
-x,y,-z
-x,-y,-z
x,-y,z
1/2+x,1/2+y,z
1/2-x,1/2+y,-z
1/2-x,1/2-y,-z
1/2+x,1/2-y,z
loop_
_atom_site_type_symbol
_atom_site_label
_atom_site_fract_x
_atom_site_fract_y
_atom_site_fract_z
Si Si1 0.936212 0.077850 0.741822
Si Si2 0.751543 0.326760 0.348495
Si Si3 0.354914 0.125073 0.713732
Si Si4 0.423972 0.155001 0.903216
Si Si5 0.217288 0.230214 0.245476
Si Si6 0.528467 0.423199 0.802583
Si Si7 0.367909 0.820275 0.466722
O O1 0.063022 0.125020 0.551561
O O2 0.987079 0.097136 0.766833
O O3 0.981241 0.000000 0.675608
O O4 0.707514 0.091062 0.976390
O O5 0.835248 0.309165 0.178722
O O6 0.705885 0.254153 0.433831
O O7 0.913209 0.367257 0.217428
O O8 0.500000 0.086238 0.500000
O O9 0.265307 0.188590 0.767502
O O10 0.474117 0.152058 0.650864
O O11 0.176080 0.078124 0.931899
O O12 0.527250 0.187866 0.723104
O O13 0.287470 0.211044 0.090046
O O14 0.000000 0.206774 0.500000
O O15 0.610042 0.500000 0.719040
O O16 0.686514 0.372146 0.662026
#
# Coordination Sequence:
#
# PCOD8115078 Si02
#       7
#     8   8   8   8   8   8   8
#     4  11  25  44  67  97 138 182 229 283 339 409
#     4  12  24  44  68 105 137 178 224 292 344 405
#     4  11  23  44  68  97 138 182 222 277 345 410
#     4  12  24  39  69 100 130 175 230 277 343 404
#     4  11  22  42  67  97 143 173 218 285 352 397
#     4  11  26  45  67 100 142 183 229 285 339 406
#     4  12  24  41  72 106 131 176 236 288 340 404
#
# _framework density 21.956261000000001
#
# number of rings (size 3 to 8) (size 9 to 14) (size 15 to 20)
#    0.000    0.571    7.143    1.714    2.000    3.714 
#    0.000    2.143    0.000    1.714    0.000    0.000 
#    0.000    0.000    0.000    0.000    0.000    0.000 
#
# Total GULP energy -347111.503755 kJ/mol
# GULP energy per Si atom -12396.839420 kJ/mol
# Density = 2.190629 g / cm^3
# Si number density = 21.956261 Si / 1000 Ang^3
#
#
#
# Elastic Constant Matrix: (Units=GPa)
#
#
# Indices 1 2 3 4 5 6 
#
# 1 86.8456 29.2581 17.0337 0.0350 -0.5846 -0.0413
# 2 29.2581 100.5442 33.5469 0.0792 -11.4909 0.0043
# 3 17.0337 33.5469 105.0694 0.0902 1.0279 -0.0286
# 4 0.0350 0.0792 0.0902 26.8463 -0.0333 -2.6212
# 5 -0.5846 -11.4909 1.0279 -0.0333 42.7707 -0.0029
# 6 -0.0413 0.0043 -0.0286 -2.6212 -0.0029 21.6149
#
#
#
# Elastic Compliance Matrix: (Units=1/GPa)
#
#
# Indices 1 2 3 4 5 6 
#
# 1 0.012882 -0.003514 -0.000959 -0.000002 -0.000745 0.000024
# 2 -0.003514 0.012510 -0.003458 -0.000018 0.003396 -0.000016
# 3 -0.000959 -0.003458 0.010789 -0.000025 -0.001201 0.000010
# 4 -0.000002 -0.000018 -0.000025 0.037696 0.000025 0.004571
# 5 -0.000745 0.003396 -0.001201 0.000025 0.024312 0.000003
# 6 0.000024 -0.000016 0.000010 0.004571 0.000003 0.046819
#
#
# Mechanical properties :
#
#
# Convention : Reuss Voigt Hill
#
# Bulk Modulus (GPa) = 49.21452 50.23743 49.72597
# Shear Modulus (GPa) = 29.82564 32.42109 31.12336
#
# Velocity S-wave (km/s) = 3.68966 3.84685 3.76908
# Velocity P-wave (km/s) = 6.37298 6.53157 6.45276
#
# Compressibility (1/GPa) = 0.02031921
#
# Stress axis : x y z
#
# Youngs Moduli (GPa) = 77.63051 79.93482 92.68823
#
# Poissons Ratio (x) = 0.28086 0.08891
# Poissons Ratio (y) = 0.27276 0.32051
# Poissons Ratio (z) = 0.07446 0.27641
#
# Static dielectric constant tensor:
#      x y z
#    x 4.402550 -0.000280 0.049400 
#    y -0.000280 3.595420 0.000380 
#    z 0.049400 0.000380 4.214550 
# 
# 
# High freq. dielectric constant tensor:
#      x y z
#    x 1.875010 -0.000020 0.001100 
#    y -0.000020 1.832330 0.000050 
#    z 0.001100 0.000050 1.883480 
# 
# From -- ./inp_files/285979.got.cif
#   From: 2010.06.25/outbox.cif.g09.slc.cpg/sg12_143_cif.got.tgz:285979.got - 2010.06.28 00:19:55.
