data_PCOD8115862
_publ_section_title
;
Structure prediction by ZEFSAII (Michael W. Deem and Ramdas Pophale) SiO2 
 PCOD8115862
Probable space group: C 2/M
;
_chemical_formula_sum "Si O2"
_cell_formula_units_Z 48
_cell_length_a 30.375758
_cell_length_b 8.828816
_cell_length_c 13.539792
_cell_angle_alpha 90.000000
_cell_angle_beta 131.735669
_cell_angle_gamma 90.000000
_cell_volume 2709.634664
_symmetry_space_group_name_H-M "C 2/M"
_symmetry_group_IT_number 12
_symmetry_cell_setting 'monoclinic'
loop_
_space_group_symop_operation_xyz
x,y,z
-x,y,-z
-x,-y,-z
x,-y,z
1/2+x,1/2+y,z
1/2-x,1/2+y,-z
1/2-x,1/2-y,-z
1/2+x,1/2-y,z
loop_
_atom_site_type_symbol
_atom_site_label
_atom_site_fract_x
_atom_site_fract_y
_atom_site_fract_z
Si Si1 0.750524 0.322048 0.609038
Si Si2 0.550656 0.175440 0.869423
Si Si3 0.480743 0.819219 0.577580
Si Si4 0.864436 0.671349 0.503962
Si Si5 0.364386 0.324271 0.866965
Si Si6 0.433633 0.831917 0.809186
O O1 0.753738 0.500000 0.599211
O O2 0.750000 0.250000 0.500000
O O3 0.692485 0.278185 0.584580
O O4 0.805656 0.268101 0.755509
O O5 0.526498 0.240291 0.728943
O O6 0.500887 0.198694 0.879015
O O7 0.567606 0.000000 0.883980
O O8 0.608601 0.268818 0.988066
O O9 0.500000 0.754922 0.500000
O O10 0.413912 0.765690 0.501534
O O11 0.481381 0.000000 0.582256
O O12 0.845693 0.500000 0.448327
O O13 0.891373 0.675265 0.652583
O O14 0.348873 0.500000 0.849321
O O15 0.412969 0.294386 0.855111
O O16 0.428325 0.000000 0.849331
#
# Coordination Sequence:
#
# PCOD8115862 Si02
#       6
#     8   8   8   8   8   8
#     4  12  23  35  51  72 102 140 178 214 251 303
#     4   9  18  32  50  74 103 136 170 209 256 306
#     4   8  15  31  58  86 106 130 167 210 259 312
#     4   9  17  31  52  78 106 136 171 211 251 300
#     4  12  23  32  46  70 102 141 176 212 251 299
#     4   9  17  30  48  69 100 139 172 205 249 302
#
# _framework density 17.714563999999999
#
# number of rings (size 3 to 8) (size 9 to 14) (size 15 to 20)
#    0.000    2.167    1.667    5.500    0.000    2.667 
#    0.000    2.500    0.000    3.000    0.000    0.000 
#    0.000    0.000    0.000    0.000    0.000    0.000 
#
# Total GULP energy -297559.182553 kJ/mol
# GULP energy per Si atom -12398.299273 kJ/mol
# Density = 1.767424 g / cm^3
# Si number density = 17.714564 Si / 1000 Ang^3
#
#
#
# Elastic Constant Matrix: (Units=GPa)
#
#
# Indices 1 2 3 4 5 6 
#
# 1 97.0296 34.3795 58.3530 0.0000 -1.7331 0.0000
# 2 34.3795 95.5327 47.4284 0.0000 7.2703 0.0000
# 3 58.3530 47.4284 113.0074 0.0000 20.3898 0.0000
# 4 0.0000 0.0000 0.0000 24.8248 0.0000 6.8700
# 5 -1.7331 7.2703 20.3898 0.0000 17.7619 0.0000
# 6 0.0000 0.0000 0.0000 6.8700 0.0000 16.3031
#
#
#
# Elastic Compliance Matrix: (Units=1/GPa)
#
#
# Indices 1 2 3 4 5 6 
#
# 1 0.018115 -0.002104 -0.011282 0.000000 0.015580 0.000000
# 2 -0.002104 0.013488 -0.004466 0.000000 -0.000599 0.000000
# 3 -0.011282 -0.004466 0.020707 0.000000 -0.023043 0.000000
# 4 0.000000 0.000000 0.000000 0.045600 0.000000 -0.019216
# 5 0.015580 -0.000599 -0.023043 0.000000 0.084517 0.000000
# 6 0.000000 0.000000 0.000000 -0.019216 0.000000 0.069435
#
#
# Mechanical properties :
#
#
# Convention : Reuss Voigt Hill
#
# Bulk Modulus (GPa) = 60.22229 65.09905 62.66067
# Shear Modulus (GPa) = 17.05900 22.80520 19.93210
#
# Velocity S-wave (km/s) = 3.10658 3.59189 3.35801
# Velocity P-wave (km/s) = 6.85110 7.35057 7.10522
#
# Compressibility (1/GPa) = 0.01660515
#
# Stress axis : x y z
#
# Youngs Moduli (GPa) = 55.20414 74.14210 48.29369
#
# Poissons Ratio (x) = 0.15596 0.54484
# Poissons Ratio (y) = 0.11612 0.21570
# Poissons Ratio (z) = 0.62281 0.33115
#
# Static dielectric constant tensor:
#      x y z
#    x 3.318110 0.000000 0.112400 
#    y 0.000000 3.079290 0.000000 
#    z 0.112400 0.000000 3.431850 
# 
# 
# High freq. dielectric constant tensor:
#      x y z
#    x 1.654050 0.000000 0.013360 
#    y 0.000000 1.663060 0.000000 
#    z 0.013360 0.000000 1.691420 
# 
# From -- ./inp_files/249356.got.cif
#   From: 2010.06.25/outbox.cif.g09.slc.cpg/sg12_125_cif.got.tgz:249356.got - 2010.06.28 00:19:55.
