data_PCOD8115404
_publ_section_title
;
Structure prediction by ZEFSAII (Michael W. Deem and Ramdas Pophale) SiO2 
 PCOD8115404
Probable space group: C 2/M
;
_chemical_formula_sum "Si O2"
_cell_formula_units_Z 24
_cell_length_a 10.372407
_cell_length_b 21.353421
_cell_length_c 6.695120
_cell_angle_alpha 90.000000
_cell_angle_beta 46.078958
_cell_angle_gamma 90.000000
_cell_volume 1068.111590
_symmetry_space_group_name_H-M "C 2/M"
_symmetry_group_IT_number 12
_symmetry_cell_setting 'monoclinic'
loop_
_space_group_symop_operation_xyz
x,y,z
-x,y,-z
-x,-y,-z
x,-y,z
1/2+x,1/2+y,z
1/2-x,1/2+y,-z
1/2-x,1/2-y,-z
1/2+x,1/2-y,z
loop_
_atom_site_type_symbol
_atom_site_label
_atom_site_fract_x
_atom_site_fract_y
_atom_site_fract_z
Si Si1 0.038464 0.740796 0.687291
Si Si2 0.355536 0.427714 0.491181
Si Si3 0.500000 0.870583 0.000000
Si Si4 0.500000 0.654368 0.000000
O O1 0.250000 0.750000 0.500000
O O2 0.000000 0.746155 0.500000
O O3 0.974023 0.673420 0.834727
O O4 0.920515 0.796075 0.921880
O O5 0.500000 0.405398 0.500000
O O6 0.382606 0.500000 0.407548
O O7 0.166026 0.416722 0.797056
O O8 0.364945 0.389495 0.271091
#
# Coordination Sequence:
#
# PCOD8115404 Si02
#       4
#     8   8   4   4
#     4  11  25  42  69 105 137 180 223 283 347 414
#     4  11  25  45  69  97 136 183 232 284 338 401
#     4  11  25  42  70 102 137 175 230 282 342 409
#     4  11  23  42  68  94 139 173 226 272 344 401
#
# _framework density 22.469562
#
# number of rings (size 3 to 8) (size 9 to 14) (size 15 to 20)
#    0.000    1.000    3.333    2.000    4.667    2.667 
#    0.000    0.000    0.000    8.000    0.000    0.000 
#    0.000    0.000    0.000    0.000    0.000    0.000 
#
# Total GULP energy -148678.814308 kJ/mol
# GULP energy per Si atom -12389.901192 kJ/mol
# Density = 2.241842 g / cm^3
# Si number density = 22.469562 Si / 1000 Ang^3
#
#
#
# Elastic Constant Matrix: (Units=GPa)
#
#
# Indices 1 2 3 4 5 6 
#
# 1 113.9114 23.5201 72.2914 0.0000 15.7173 0.0000
# 2 23.5201 90.3906 36.7180 0.0000 17.0533 0.0000
# 3 72.2914 36.7180 151.8333 0.0000 19.4545 0.0000
# 4 0.0000 0.0000 0.0000 51.2049 0.0000 -6.9833
# 5 15.7173 17.0533 19.4545 0.0000 52.8872 0.0000
# 6 0.0000 0.0000 0.0000 -6.9833 0.0000 11.1537
#
#
#
# Elastic Compliance Matrix: (Units=1/GPa)
#
#
# Indices 1 2 3 4 5 6 
#
# 1 0.012753 -0.000724 -0.005710 0.000000 -0.001456 0.000000
# 2 -0.000724 0.012782 -0.002357 0.000000 -0.003039 0.000000
# 3 -0.005710 -0.002357 0.010033 0.000000 -0.001234 0.000000
# 4 0.000000 0.000000 0.000000 0.021353 0.000000 0.013369
# 5 -0.001456 -0.003039 -0.001234 0.000000 0.020775 0.000000
# 6 0.000000 0.000000 0.000000 0.013369 0.000000 0.098027
#
#
# Mechanical properties :
#
#
# Convention : Reuss Voigt Hill
#
# Bulk Modulus (GPa) = 55.59985 69.02160 62.31073
# Shear Modulus (GPa) = 25.08770 37.95620 31.52195
#
# Velocity S-wave (km/s) = 3.34506 4.11448 3.74956
# Velocity P-wave (km/s) = 6.30218 7.30455 6.82180
#
# Compressibility (1/GPa) = 0.01798566
#
# Stress axis : x y z
#
# Youngs Moduli (GPa) = 78.41201 78.23268 99.67023
#
# Poissons Ratio (x) = 0.05665 0.56916
# Poissons Ratio (y) = 0.05678 0.23492
# Poissons Ratio (z) = 0.44776 0.18439
#
# Static dielectric constant tensor:
#      x y z
#    x 2.797090 0.000000 0.816230 
#    y 0.000000 4.251750 0.000000 
#    z 0.816230 0.000000 4.007150 
# 
# 
# High freq. dielectric constant tensor:
#      x y z
#    x 1.850360 0.000000 0.007250 
#    y 0.000000 1.899690 0.000000 
#    z 0.007250 0.000000 1.913170 
# 
# From -- ./inp_files/6478.got.cif
#   From: 2010.06.25/outbox.cif.g09.slc.cpg/sg12_4_cif.got.tgz:6478.got - 2010.06.28 00:19:55.
