data_PCOD8115171
_publ_section_title
;
Structure prediction by ZEFSAII (Michael W. Deem and Ramdas Pophale) SiO2 
 PCOD8115171
Probable space group: C 2/M
;
_chemical_formula_sum "Si O2"
_cell_formula_units_Z 56
_cell_length_a 11.641207
_cell_length_b 27.227049
_cell_length_c 12.975272
_cell_angle_alpha 90.000000
_cell_angle_beta 45.560697
_cell_angle_gamma 90.000000
_cell_volume 2936.356254
_symmetry_space_group_name_H-M "C 2/M"
_symmetry_group_IT_number 12
_symmetry_cell_setting 'monoclinic'
loop_
_space_group_symop_operation_xyz
x,y,z
-x,y,-z
-x,-y,-z
x,-y,z
1/2+x,1/2+y,z
1/2-x,1/2+y,-z
1/2-x,1/2-y,-z
1/2+x,1/2-y,z
loop_
_atom_site_type_symbol
_atom_site_label
_atom_site_fract_x
_atom_site_fract_y
_atom_site_fract_z
Si Si1 0.839150 0.802086 0.656607
Si Si2 0.003102 0.444254 0.326613
Si Si3 0.878911 0.308711 0.657572
Si Si4 0.052336 0.865797 0.859501
Si Si5 0.987220 0.655079 0.221414
Si Si6 0.260753 0.445405 0.341898
Si Si7 0.277125 0.696313 0.935349
O O1 0.831811 0.744058 0.640092
O O2 0.692131 0.831655 0.699806
O O3 0.837021 0.806799 0.780971
O O4 0.000000 0.823328 0.500000
O O5 0.012639 0.500000 0.274787
O O6 0.003800 0.402889 0.237666
O O7 0.837169 0.437653 0.492241
O O8 0.150703 0.435004 0.311010
O O9 0.716891 0.337586 0.772354
O O10 0.000000 0.334832 0.500000
O O11 0.968113 0.308857 0.711649
O O12 0.085237 0.909179 0.756587
O O13 0.916582 0.828137 0.913272
O O14 0.000000 0.890346 0.000000
O O15 0.110728 0.666114 0.050726
O O16 0.330495 0.500000 0.293652
O O17 0.250000 0.750000 0.000000
#
# Coordination Sequence:
#
# PCOD8115171 Si02
#       7
#     8   8   8   8   8   8   8
#     4  11  27  41  60  91 121 162 211 256 302 367
#     4   9  18  35  61  93 122 160 209 253 312 373
#     4  11  23  37  59  90 121 159 205 254 307 364
#     4  12  21  35  59  90 123 161 206 247 310 378
#     4  12  22  41  65  86 124 170 203 254 311 371
#     4   9  18  33  56  91 129 156 195 262 321 367
#     4  12  24  43  60  86 129 171 204 250 306 369
#
# _framework density 19.071256000000002
#
# number of rings (size 3 to 8) (size 9 to 14) (size 15 to 20)
#    0.000    1.143    4.286    3.000    4.000    1.429 
#    0.000    0.714    0.000    3.000    0.000    0.000 
#    0.000    0.000    0.000    0.000    0.000    0.000 
#
# Total GULP energy -347084.624559 kJ/mol
# GULP energy per Si atom -12395.879449 kJ/mol
# Density = 1.902785 g / cm^3
# Si number density = 19.071256 Si / 1000 Ang^3
#
#
#
# Elastic Constant Matrix: (Units=GPa)
#
#
# Indices 1 2 3 4 5 6 
#
# 1 56.1527 27.9649 34.5388 0.0000 -3.2657 0.0000
# 2 27.9649 122.8441 44.7520 0.0000 -5.7160 0.0000
# 3 34.5388 44.7520 145.9842 0.0000 -3.5681 0.0000
# 4 0.0000 0.0000 0.0000 33.8517 0.0000 4.7785
# 5 -3.2657 -5.7160 -3.5681 0.0000 25.4622 0.0000
# 6 0.0000 0.0000 0.0000 4.7785 0.0000 53.6057
#
#
#
# Elastic Compliance Matrix: (Units=1/GPa)
#
#
# Indices 1 2 3 4 5 6 
#
# 1 0.022172 -0.003468 -0.004146 0.000000 0.001484 0.000000
# 2 -0.003468 0.009777 -0.002141 0.000000 0.001450 0.000000
# 3 -0.004146 -0.002141 0.008492 0.000000 0.000177 0.000000
# 4 0.000000 0.000000 0.000000 0.029917 0.000000 -0.002667
# 5 0.001484 0.001450 0.000177 0.000000 0.039815 0.000000
# 6 0.000000 0.000000 0.000000 -0.002667 0.000000 0.018892
#
#
# Mechanical properties :
#
#
# Convention : Reuss Voigt Hill
#
# Bulk Modulus (GPa) = 47.77769 59.94361 53.86065
# Shear Modulus (GPa) = 32.14318 37.09894 34.62106
#
# Velocity S-wave (km/s) = 4.10985 4.41532 4.26532
# Velocity P-wave (km/s) = 6.90128 7.58241 7.24985
#
# Compressibility (1/GPa) = 0.02093027
#
# Stress axis : x y z
#
# Youngs Moduli (GPa) = 45.10116 102.27653 117.75966
#
# Poissons Ratio (x) = 0.35468 0.48829
# Poissons Ratio (y) = 0.15640 0.25217
# Poissons Ratio (z) = 0.18701 0.21901
#
# Static dielectric constant tensor:
#      x y z
#    x 3.164800 0.000000 -0.030330 
#    y 0.000000 3.680010 0.000000 
#    z -0.030330 0.000000 4.047990 
# 
# 
# High freq. dielectric constant tensor:
#      x y z
#    x 1.703570 0.000000 -0.004910 
#    y 0.000000 1.741090 0.000000 
#    z -0.004910 0.000000 1.762470 
# 
# From -- ./inp_files/80070.got.cif
#   From: 2010.06.25/outbox.cif.g09.slc.cpg/sg12_41_cif.got.tgz:80070.got - 2010.06.28 00:19:55.
