data_PCOD8115667
_publ_section_title
;
Structure prediction by ZEFSAII (Michael W. Deem and Ramdas Pophale) SiO2 
 PCOD8115667
Probable space group: C 2/M
;
_chemical_formula_sum "Si O2"
_cell_formula_units_Z 32
_cell_length_a 11.352916
_cell_length_b 22.408794
_cell_length_c 8.205795
_cell_angle_alpha 90.000000
_cell_angle_beta 138.313469
_cell_angle_gamma 90.000000
_cell_volume 1388.366148
_symmetry_space_group_name_H-M "C 2/M"
_symmetry_group_IT_number 12
_symmetry_cell_setting 'monoclinic'
loop_
_space_group_symop_operation_xyz
x,y,z
-x,y,-z
-x,-y,-z
x,-y,z
1/2+x,1/2+y,z
1/2-x,1/2+y,-z
1/2-x,1/2-y,-z
1/2+x,1/2-y,z
loop_
_atom_site_type_symbol
_atom_site_label
_atom_site_fract_x
_atom_site_fract_y
_atom_site_fract_z
Si Si1 0.893230 0.377234 0.591211
Si Si2 0.458199 0.366700 0.639828
Si Si3 0.768747 0.568354 0.133365
Si Si4 0.547766 0.756910 0.860468
O O1 0.740709 0.392679 0.563867
O O2 0.801877 0.388776 0.321297
O O3 0.057502 0.421519 0.799662
O O4 0.959044 0.308999 0.662928
O O5 0.500000 0.351008 0.500000
O O6 0.451717 0.305643 0.733590
O O7 0.592417 0.414197 0.855399
O O8 0.752717 0.500000 0.172144
O O9 0.500000 0.773137 0.000000
O O10 0.750000 0.750000 0.000000
#
# Coordination Sequence:
#
# PCOD8115667 Si02
#       4
#     8   8   8   8
#     4  11  24  44  74 103 140 186 241 297 365 432
#     4  12  27  44  72 109 147 192 237 302 367 436
#     4  11  26  48  74 103 141 194 251 299 358 432
#     4  12  25  45  75 111 152 189 235 304 373 445
#
# _framework density 23.048674999999999
#
# number of rings (size 3 to 8) (size 9 to 14) (size 15 to 20)
#    0.000    0.500    2.500    6.000    7.000    3.500 
#    0.000    1.250    0.000    0.000    0.000    0.000 
#    0.000    0.000    0.000    0.000    0.000    0.000 
#
# Total GULP energy -198300.781981 kJ/mol
# GULP energy per Si atom -12393.798874 kJ/mol
# Density = 2.299621 g / cm^3
# Si number density = 23.048675 Si / 1000 Ang^3
#
#
#
# Elastic Constant Matrix: (Units=GPa)
#
#
# Indices 1 2 3 4 5 6 
#
# 1 158.4351 39.4823 57.2245 0.0000 29.1542 0.0000
# 2 39.4823 128.8804 54.1772 0.0000 -7.0108 0.0000
# 3 57.2245 54.1772 96.6261 0.0000 20.9125 0.0000
# 4 0.0000 0.0000 0.0000 29.5215 0.0000 -10.3697
# 5 29.1542 -7.0108 20.9125 0.0000 47.3434 0.0000
# 6 0.0000 0.0000 0.0000 -10.3697 0.0000 11.1637
#
#
#
# Elastic Compliance Matrix: (Units=1/GPa)
#
#
# Indices 1 2 3 4 5 6 
#
# 1 0.008653 -0.001412 -0.003466 0.000000 -0.004007 0.000000
# 2 -0.001412 0.011304 -0.006692 0.000000 0.005499 0.000000
# 3 -0.003466 -0.006692 0.017588 0.000000 -0.006626 0.000000
# 4 0.000000 0.000000 0.000000 0.050278 0.000000 0.046702
# 5 -0.004007 0.005499 -0.006626 0.000000 0.027331 0.000000
# 6 0.000000 0.000000 0.000000 0.046702 0.000000 0.132956
#
#
# Mechanical properties :
#
#
# Convention : Reuss Voigt Hill
#
# Bulk Modulus (GPa) = 69.41899 76.18996 72.80447
# Shear Modulus (GPa) = 18.11271 33.14290 25.62781
#
# Velocity S-wave (km/s) = 2.80634 3.79615 3.33813
# Velocity P-wave (km/s) = 6.37844 7.23479 6.82007
#
# Compressibility (1/GPa) = 0.01440528
#
# Stress axis : x y z
#
# Youngs Moduli (GPa) = 115.57333 88.46476 56.85788
#
# Poissons Ratio (x) = 0.12490 0.19704
# Poissons Ratio (y) = 0.16317 0.38050
# Poissons Ratio (z) = 0.40052 0.59201
#
# Static dielectric constant tensor:
#      x y z
#    x 4.769130 0.000000 0.518670 
#    y 0.000000 4.009990 0.000000 
#    z 0.518670 0.000000 4.293830 
# 
# 
# High freq. dielectric constant tensor:
#      x y z
#    x 1.930530 0.000000 0.024670 
#    y 0.000000 1.902020 0.000000 
#    z 0.024670 0.000000 1.909870 
# 
# From -- ./inp_files/51115.got.cif
#   From: 2010.06.25/outbox.cif.g09.slc.cpg/sg12_26_cif.got.tgz:51115.got - 2010.06.28 00:19:55.
