data_PCOD8115766
_publ_section_title
;
Structure prediction by ZEFSAII (Michael W. Deem and Ramdas Pophale) SiO2 
 PCOD8115766
Probable space group: C 2/M
;
_chemical_formula_sum "Si O2"
_cell_formula_units_Z 40
_cell_length_a 11.954385
_cell_length_b 12.146647
_cell_length_c 24.228742
_cell_angle_alpha 90.000000
_cell_angle_beta 34.734003
_cell_angle_gamma 90.000000
_cell_volume 2004.527703
_symmetry_space_group_name_H-M "C 2/M"
_symmetry_group_IT_number 12
_symmetry_cell_setting 'monoclinic'
loop_
_space_group_symop_operation_xyz
x,y,z
-x,y,-z
-x,-y,-z
x,-y,z
1/2+x,1/2+y,z
1/2-x,1/2+y,-z
1/2-x,1/2-y,-z
1/2+x,1/2-y,z
loop_
_atom_site_type_symbol
_atom_site_label
_atom_site_fract_x
_atom_site_fract_y
_atom_site_fract_z
Si Si1 0.703739 0.500000 0.495953
Si Si2 0.186628 0.121049 0.120458
Si Si3 0.847537 0.275964 0.256972
Si Si4 0.002414 0.377856 0.910315
Si Si5 0.762539 0.000000 0.648757
Si Si6 0.483755 0.121938 0.570065
O O1 0.469506 0.500000 0.598463
O O2 0.733007 0.500000 0.418697
O O3 0.804006 0.607906 0.484630
O O4 0.346176 0.111937 0.102317
O O5 0.018309 0.200111 0.212168
O O6 0.095972 0.000000 0.145938
O O7 0.293712 0.163116 0.020528
O O8 0.851721 0.390662 0.287543
O O9 0.640550 0.212474 0.346364
O O10 0.905622 0.292506 0.169930
O O11 0.975812 0.500000 0.894353
O O12 0.500000 0.163305 0.500000
O O13 0.381783 0.000000 0.611411
#
# Coordination Sequence:
#
# PCOD8115766 Si02
#       6
#     4   8   8   8   4   8
#     4   9  23  48  56  81 123 153 202 236 307 350
#     4   9  20  37  63  84 119 152 200 238 284 340
#     4  12  22  36  61  91 117 152 198 239 292 350
#     4   9  19  39  57  89 119 156 188 242 290 338
#     4  11  26  38  58  89 121 162 185 246 303 353
#     4   9  22  43  64  85 112 151 206 248 289 344
#
# _framework density 19.954825
#
# number of rings (size 3 to 8) (size 9 to 14) (size 15 to 20)
#    0.600    1.600    1.000    2.400    5.600    2.400 
#    0.000    0.000    0.000    1.200    0.000    0.000 
#    0.000    0.000    0.000    0.000    0.000    0.000 
#
# Total GULP energy -247773.696043 kJ/mol
# GULP energy per Si atom -12388.684802 kJ/mol
# Density = 1.990941 g / cm^3
# Si number density = 19.954825 Si / 1000 Ang^3
#
#
#
# Elastic Constant Matrix: (Units=GPa)
#
#
# Indices 1 2 3 4 5 6 
#
# 1 80.5626 21.0575 35.4658 -0.0001 -2.7677 0.0000
# 2 21.0575 99.5656 53.2409 -0.0002 -7.6122 0.0000
# 3 35.4658 53.2409 100.2285 0.0008 -4.0317 0.0003
# 4 -0.0001 -0.0002 0.0008 38.1267 -0.0002 2.4280
# 5 -2.7677 -7.6122 -4.0317 -0.0002 27.7318 -0.0002
# 6 0.0000 0.0000 0.0003 2.4280 -0.0002 11.8393
#
#
#
# Elastic Compliance Matrix: (Units=1/GPa)
#
#
# Indices 1 2 3 4 5 6 
#
# 1 0.014729 -0.000410 -0.004969 0.000000 0.000635 0.000000
# 2 -0.000410 0.014257 -0.007315 0.000000 0.002809 0.000000
# 3 -0.004969 -0.007315 0.015612 0.000000 -0.000234 0.000000
# 4 0.000000 0.000000 0.000000 0.026575 0.000000 -0.005450
# 5 0.000635 0.002809 -0.000234 0.000000 0.036860 0.000001
# 6 0.000000 0.000000 0.000000 -0.005450 0.000001 0.085583
#
#
# Mechanical properties :
#
#
# Convention : Reuss Voigt Hill
#
# Bulk Modulus (GPa) = 52.05501 55.54279 53.79890
# Shear Modulus (GPa) = 22.18223 26.91239 24.54731
#
# Velocity S-wave (km/s) = 3.33772 3.67640 3.51115
# Velocity P-wave (km/s) = 6.40288 6.77613 6.59215
#
# Compressibility (1/GPa) = 0.01921045
#
# Stress axis : x y z
#
# Youngs Moduli (GPa) = 67.89347 70.14281 64.05448
#
# Poissons Ratio (x) = 0.02873 0.31827
# Poissons Ratio (y) = 0.02781 0.46857
# Poissons Ratio (z) = 0.33734 0.51310
#
# Static dielectric constant tensor:
#      x y z
#    x 3.340670 0.000000 0.036400 
#    y 0.000000 3.790180 0.000000 
#    z 0.036400 0.000000 3.699370 
# 
# 
# High freq. dielectric constant tensor:
#      x y z
#    x 1.755620 0.000000 0.007070 
#    y 0.000000 1.777980 0.000000 
#    z 0.007070 0.000000 1.784170 
# 
# From -- ./inp_files/335059.got.cif
#   From: 2010.06.25/outbox.cif.g09.slc.cpg/sg12_168_cif.got.tgz:335059.got - 2010.06.28 00:19:55.
