data_PCOD8115393
_publ_section_title
;
Structure prediction by ZEFSAII (Michael W. Deem and Ramdas Pophale) SiO2 
 PCOD8115393
Probable space group: C 2/M
;
_chemical_formula_sum "Si O2"
_cell_formula_units_Z 32
_cell_length_a 13.985751
_cell_length_b 17.187665
_cell_length_c 9.238299
_cell_angle_alpha 90.000000
_cell_angle_beta 43.684020
_cell_angle_gamma 90.000000
_cell_volume 1533.811663
_symmetry_space_group_name_H-M "C 2/M"
_symmetry_group_IT_number 12
_symmetry_cell_setting 'monoclinic'
loop_
_space_group_symop_operation_xyz
x,y,z
-x,y,-z
-x,-y,-z
x,-y,z
1/2+x,1/2+y,z
1/2-x,1/2+y,-z
1/2-x,1/2-y,-z
1/2+x,1/2-y,z
loop_
_atom_site_type_symbol
_atom_site_label
_atom_site_fract_x
_atom_site_fract_y
_atom_site_fract_z
Si Si1 0.088179 0.500000 0.632152
Si Si2 0.301404 0.000000 0.812293
Si Si3 0.960224 0.913597 0.889413
Si Si4 0.082633 0.787934 0.552601
Si Si5 0.114586 0.339193 0.751523
O O1 0.148060 0.500000 0.406602
O O2 0.139547 0.425595 0.664524
O O3 0.921335 0.500000 0.800484
O O4 0.206636 0.922841 0.940578
O O5 0.015313 0.863685 0.697629
O O6 0.030976 0.000000 0.805959
O O7 0.000000 0.873928 0.000000
O O8 0.063994 0.713863 0.675130
O O9 0.242461 0.805456 0.340715
O O10 0.000000 0.766475 0.500000
O O11 0.000000 0.338799 0.000000
#
# Coordination Sequence:
#
# PCOD8115393 Si02
#       5
#     4   4   8   8   8
#     4  11  23  42  66  98 139 171 214 272 336 398
#     4   9  21  36  68 101 122 179 218 262 328 393
#     4   9  19  39  67  96 125 171 221 273 314 378
#     4  11  26  45  69  99 130 175 227 271 323 394
#     4  11  27  46  66  98 137 174 215 277 335 389
#
# _framework density 20.863056
#
# number of rings (size 3 to 8) (size 9 to 14) (size 15 to 20)
#    0.750    1.000    0.000    2.625    8.750    3.500 
#    0.000    0.000    0.000    0.000    0.000    0.000 
#    0.000    0.000    0.000    0.000    0.000    0.000 
#
# Total GULP energy -198415.699138 kJ/mol
# GULP energy per Si atom -12400.981196 kJ/mol
# Density = 2.081557 g / cm^3
# Si number density = 20.863056 Si / 1000 Ang^3
#
#
#
# Elastic Constant Matrix: (Units=GPa)
#
#
# Indices 1 2 3 4 5 6 
#
# 1 107.0848 22.5953 19.5932 0.0001 15.3280 0.0001
# 2 22.5953 104.3309 36.7149 -0.0001 13.2569 0.0000
# 3 19.5932 36.7149 101.7808 0.0001 5.9472 0.0001
# 4 0.0001 -0.0001 0.0001 -55.6906 -0.0001 -25.6791
# 5 15.3280 13.2569 5.9472 -0.0001 26.9177 -0.0001
# 6 0.0001 0.0000 0.0001 -25.6791 -0.0001 13.9550
#
#
#
# Elastic Compliance Matrix: (Units=1/GPa)
#
#
# Indices 1 2 3 4 5 6 
#
# 1 0.010562 -0.001173 -0.001310 0.000000 -0.005148 0.000000
# 2 -0.001173 0.011699 -0.003745 0.000000 -0.004267 0.000000
# 3 -0.001310 -0.003745 0.011424 0.000000 0.000066 0.000000
# 4 0.000000 0.000000 0.000000 -0.009714 0.000000 -0.017875
# 5 -0.005148 -0.004267 0.000066 0.000000 0.042168 0.000000
# 6 0.000000 0.000000 0.000000 -0.017875 0.000000 0.038766
#
#
# Mechanical properties :
#
#
# Convention : Reuss Voigt Hill
#
# Bulk Modulus (GPa) = 47.10080 52.33369 49.71724
# Shear Modulus (GPa) = 40.18102 12.65599 26.41850
#
# Velocity S-wave (km/s) = 4.39332 2.46564 3.56235
# Velocity P-wave (km/s) = 6.95415 5.76582 6.38768
#
# Compressibility (1/GPa) = 0.02123106
#
# Stress axis : x y z
#
# Youngs Moduli (GPa) = 94.67678 85.47828 87.53349
#
# Poissons Ratio (x) = 0.10023 0.11463
# Poissons Ratio (y) = 0.11102 0.32782
# Poissons Ratio (z) = 0.12398 0.32012
#
# Static dielectric constant tensor:
#      x y z
#    x 3.904770 0.000000 -0.167990 
#    y 0.000000 3.712870 0.000000 
#    z -0.167990 0.000000 3.702480 
# 
# 
# High freq. dielectric constant tensor:
#      x y z
#    x 1.816990 0.000000 -0.009350 
#    y 0.000000 1.814300 0.000000 
#    z -0.009350 0.000000 1.820640 
# 
# From -- ./inp_files/60042.got.cif
#   From: 2010.06.25/outbox.cif.g09.slc.cpg/sg12_31_cif.got.tgz:60042.got - 2010.06.28 00:19:55.
