data_PCOD8115839
_publ_section_title
;
Structure prediction by ZEFSAII (Michael W. Deem and Ramdas Pophale) SiO2 
 PCOD8115839
Probable space group: C 2/M
;
_chemical_formula_sum "Si O2"
_cell_formula_units_Z 48
_cell_length_a 17.432486
_cell_length_b 25.164823
_cell_length_c 17.884044
_cell_angle_alpha 90.000000
_cell_angle_beta 163.783474
_cell_angle_gamma 90.000000
_cell_volume 2190.989146
_symmetry_space_group_name_H-M "C 2/M"
_symmetry_group_IT_number 12
_symmetry_cell_setting 'monoclinic'
loop_
_space_group_symop_operation_xyz
x,y,z
-x,y,-z
-x,-y,-z
x,-y,z
1/2+x,1/2+y,z
1/2-x,1/2+y,-z
1/2-x,1/2-y,-z
1/2+x,1/2-y,z
loop_
_atom_site_type_symbol
_atom_site_label
_atom_site_fract_x
_atom_site_fract_y
_atom_site_fract_z
Si Si1 0.559477 0.938828 0.270248
Si Si2 0.275401 0.880989 0.726615
Si Si3 0.502361 0.609860 0.221395
Si Si4 0.899207 0.782195 0.204944
Si Si5 0.676552 0.768097 0.278511
Si Si6 0.710403 0.651514 0.258564
O O1 0.614122 0.908815 0.244263
O O2 0.812137 0.933682 0.563729
O O3 0.505884 0.000000 0.201702
O O4 0.300868 0.913562 0.071538
O O5 0.180744 0.820220 0.621393
O O6 0.000000 0.909572 0.500000
O O7 0.500000 0.885950 0.000000
O O8 0.494996 0.660897 0.267324
O O9 0.629632 0.625250 0.261135
O O10 0.170473 0.755659 0.497784
O O11 0.750000 0.750000 0.000000
O O12 0.645767 0.784600 0.025408
O O13 0.713187 0.715554 0.263984
O O14 0.000000 0.630330 0.500000
O O15 0.500000 0.631519 0.000000
#
# Coordination Sequence:
#
# PCOD8115839 Si02
#       6
#     8   8   8   8   8   8
#     4  12  27  48  73  99 125 174 240 291 344 396
#     4  12  24  41  65  98 141 182 218 269 324 392
#     4  12  24  46  72  95 137 177 226 287 342 400
#     4  12  22  37  66  99 131 180 227 265 318 391
#     4  12  23  39  63  98 142 186 220 253 309 409
#     4  12  26  42  66 103 141 181 221 269 338 416
#
# _framework density 21.907914000000002
#
# number of rings (size 3 to 8) (size 9 to 14) (size 15 to 20)
#    0.000    0.000    5.000    6.000    2.333    0.667 
#    0.000    0.000    0.000   10.000    0.000    0.000 
#    0.000    0.000    0.000    0.000    0.000    0.000 
#
# Total GULP energy -297577.627963 kJ/mol
# GULP energy per Si atom -12399.067832 kJ/mol
# Density = 2.185805 g / cm^3
# Si number density = 21.907914 Si / 1000 Ang^3
#
#
#
# Elastic Constant Matrix: (Units=GPa)
#
#
# Indices 1 2 3 4 5 6 
#
# 1 123.9972 37.2752 46.3513 -0.0003 15.3444 0.0024
# 2 37.2752 83.2177 18.1544 0.0007 3.5530 0.0027
# 3 46.3513 18.1544 126.4390 0.0104 -8.1296 -0.0194
# 4 -0.0003 0.0007 0.0104 33.0592 0.0059 -1.1444
# 5 15.3444 3.5530 -8.1296 0.0059 41.7211 -0.0052
# 6 0.0024 0.0027 -0.0194 -1.1444 -0.0052 4.0200
#
#
#
# Elastic Compliance Matrix: (Units=1/GPa)
#
#
# Indices 1 2 3 4 5 6 
#
# 1 0.011274 -0.004016 -0.003849 0.000001 -0.004555 -0.000028
# 2 -0.004016 0.013919 -0.000514 -0.000001 0.000191 -0.000009
# 3 -0.003849 -0.000514 0.009608 -0.000002 0.003332 0.000053
# 4 0.000001 -0.000001 -0.000002 0.030550 -0.000004 0.008697
# 5 -0.004555 0.000191 0.003332 -0.000004 0.026277 0.000051
# 6 -0.000028 -0.000009 0.000053 0.008697 0.000051 0.251235
#
#
# Mechanical properties :
#
#
# Convention : Reuss Voigt Hill
#
# Bulk Modulus (GPa) = 55.42197 59.69065 57.55631
# Shear Modulus (GPa) = 13.67475 31.21824 22.44649
#
# Velocity S-wave (km/s) = 2.50109 3.77898 3.20438
# Velocity P-wave (km/s) = 5.80459 6.80781 6.32612
#
# Compressibility (1/GPa) = 0.01804339
#
# Stress axis : x y z
#
# Youngs Moduli (GPa) = 88.69574 71.84181 104.07841
#
# Poissons Ratio (x) = 0.28851 0.40064
# Poissons Ratio (y) = 0.35619 0.05351
# Poissons Ratio (z) = 0.34142 0.03693
#
# Static dielectric constant tensor:
#      x y z
#    x 4.513160 -0.000290 0.463720 
#    y -0.000290 3.632750 -0.000210 
#    z 0.463720 -0.000210 4.324880 
# 
# 
# High freq. dielectric constant tensor:
#      x y z
#    x 1.875020 0.000000 0.006550 
#    y 0.000000 1.825600 0.000000 
#    z 0.006550 0.000000 1.889220 
# 
# From -- ./inp_files/219604.got.cif
#   From: 2010.06.25/outbox.cif.g09.slc.cpg/sg12_110_cif.got.tgz:219604.got - 2010.06.28 00:19:55.
