data_PCOD8115814
_publ_section_title
;
Structure prediction by ZEFSAII (Michael W. Deem and Ramdas Pophale) SiO2 
 PCOD8115814
Probable space group: C 2/M
;
_chemical_formula_sum "Si O2"
_cell_formula_units_Z 36
_cell_length_a 5.036438
_cell_length_b 30.117120
_cell_length_c 11.158990
_cell_angle_alpha 90.000000
_cell_angle_beta 72.595679
_cell_angle_gamma 90.000000
_cell_volume 1615.136833
_symmetry_space_group_name_H-M "C 2/M"
_symmetry_group_IT_number 12
_symmetry_cell_setting 'monoclinic'
loop_
_space_group_symop_operation_xyz
x,y,z
-x,y,-z
-x,-y,-z
x,-y,z
1/2+x,1/2+y,z
1/2-x,1/2+y,-z
1/2-x,1/2-y,-z
1/2+x,1/2-y,z
loop_
_atom_site_type_symbol
_atom_site_label
_atom_site_fract_x
_atom_site_fract_y
_atom_site_fract_z
Si Si1 0.840045 0.873883 0.645143
Si Si2 0.696893 0.000000 0.092147
Si Si3 0.314046 0.225638 0.271799
Si Si4 0.734377 0.089149 0.229779
Si Si5 0.000000 0.295871 0.000000
Si Si6 0.000000 0.148320 0.000000
O O1 0.796812 0.824112 0.698945
O O2 0.538354 0.894698 0.663430
O O3 0.000000 0.871982 0.500000
O O4 0.005114 0.906196 0.714944
O O5 0.663812 0.958948 0.186544
O O6 0.500000 0.000000 0.000000
O O7 0.000000 0.000000 0.000000
O O8 0.557882 0.240397 0.329979
O O9 0.481028 0.233253 0.122912
O O10 0.795607 0.119666 0.108623
O O11 0.714456 0.323536 0.048742
#
# Coordination Sequence:
#
# PCOD8115814 Si02
#       6
#     8   4   8   8   4   4
#     4  12  27  48  70  93 137 194 238 277 330 400
#     4  12  26  42  75 116 145 170 212 281 351 422
#     4  12  24  40  64  98 132 175 230 290 344 403
#     4  12  24  46  70 106 138 174 229 278 346 407
#     4  12  22  39  62 103 133 176 217 283 362 415
#     4  12  20  38  72  96 133 174 219 276 350 416
#
# _framework density 22.289133
#
# number of rings (size 3 to 8) (size 9 to 14) (size 15 to 20)
#    0.000    0.000    5.556    5.333    1.556    0.889 
#    0.000    3.333    0.000    0.000    0.000    0.000 
#    0.000    0.000    0.000    0.000    0.000    0.000 
#
# Total GULP energy -223096.651856 kJ/mol
# GULP energy per Si atom -12394.258436 kJ/mol
# Density = 2.223840 g / cm^3
# Si number density = 22.289133 Si / 1000 Ang^3
#
#
#
# Elastic Constant Matrix: (Units=GPa)
#
#
# Indices 1 2 3 4 5 6 
#
# 1 141.9272 51.3004 20.5325 0.0000 -17.0363 0.0000
# 2 51.3004 115.4507 24.4524 0.0000 -2.6327 0.0000
# 3 20.5325 24.4524 95.8285 0.0000 -20.6335 0.0000
# 4 0.0000 0.0000 0.0000 15.1583 0.0000 -0.8710
# 5 -17.0363 -2.6327 -20.6335 0.0000 39.5672 0.0000
# 6 0.0000 0.0000 0.0000 -0.8710 0.0000 31.0440
#
#
#
# Elastic Compliance Matrix: (Units=1/GPa)
#
#
# Indices 1 2 3 4 5 6 
#
# 1 0.008871 -0.003825 -0.000177 0.000000 0.003473 0.000000
# 2 -0.003825 0.010823 -0.002412 0.000000 -0.002185 0.000000
# 3 -0.000177 -0.002412 0.012434 0.000000 0.006247 0.000000
# 4 0.000000 0.000000 0.000000 0.066077 0.000000 0.001854
# 5 0.003473 -0.002185 0.006247 0.000000 0.029881 0.000000
# 6 0.000000 0.000000 0.000000 0.001854 0.000000 0.032264
#
#
# Mechanical properties :
#
#
# Convention : Reuss Voigt Hill
#
# Bulk Modulus (GPa) = 51.81761 60.64190 56.22975
# Shear Modulus (GPa) = 27.83786 34.28199 31.05992
#
# Velocity S-wave (km/s) = 3.53787 3.92606 3.73701
# Velocity P-wave (km/s) = 6.32354 6.91505 6.62590
#
# Compressibility (1/GPa) = 0.01929846
#
# Stress axis : x y z
#
# Youngs Moduli (GPa) = 112.72781 92.39992 80.42496
#
# Poissons Ratio (x) = 0.35344 0.01423
# Poissons Ratio (y) = 0.43120 0.19402
# Poissons Ratio (z) = 0.01994 0.22291
#
# Static dielectric constant tensor:
#      x y z
#    x 4.294690 0.000000 -0.101220 
#    y 0.000000 3.720410 0.000000 
#    z -0.101220 0.000000 3.882020 
# 
# 
# High freq. dielectric constant tensor:
#      x y z
#    x 1.907060 0.000000 -0.012410 
#    y 0.000000 1.869920 0.000000 
#    z -0.012410 0.000000 1.868240 
# 
# From -- ./inp_files/115417.got.cif
#   From: 2010.06.25/outbox.cif.g09.slc.cpg/sg12_58_cif.got.tgz:115417.got - 2010.06.28 00:19:55.
