data_PCOD8115935
_publ_section_title
;
Structure prediction by ZEFSAII (Michael W. Deem and Ramdas Pophale) SiO2 
 PCOD8115935
Probable space group: C 2/M
;
_chemical_formula_sum "Si O2"
_cell_formula_units_Z 44
_cell_length_a 9.131131
_cell_length_b 27.887231
_cell_length_c 7.936294
_cell_angle_alpha 90.000000
_cell_angle_beta 58.440968
_cell_angle_gamma 90.000000
_cell_volume 1722.023144
_symmetry_space_group_name_H-M "C 2/M"
_symmetry_group_IT_number 12
_symmetry_cell_setting 'monoclinic'
loop_
_space_group_symop_operation_xyz
x,y,z
-x,y,-z
-x,-y,-z
x,-y,z
1/2+x,1/2+y,z
1/2-x,1/2+y,-z
1/2-x,1/2-y,-z
1/2+x,1/2-y,z
loop_
_atom_site_type_symbol
_atom_site_label
_atom_site_fract_x
_atom_site_fract_y
_atom_site_fract_z
Si Si1 0.199415 0.296681 0.424487
Si Si2 0.500000 0.867875 0.000000
Si Si3 0.448524 0.367753 0.348048
Si Si4 0.724142 0.694188 0.991889
Si Si5 0.955848 0.553380 0.262461
Si Si6 0.220742 0.052812 0.728050
O O1 0.250000 0.250000 0.500000
O O2 0.261203 0.342449 0.495790
O O3 0.310581 0.307539 0.187360
O O4 0.000000 0.296003 0.500000
O O5 0.397090 0.834045 0.935021
O O6 0.614952 0.905932 0.822474
O O7 0.500000 0.388332 0.500000
O O8 0.434598 0.409933 0.214989
O O9 0.576258 0.326777 0.200994
O O10 0.750000 0.750000 0.000000
O O11 0.955041 0.500000 0.181738
O O12 0.835356 0.552481 0.493943
O O13 0.153983 0.567505 0.193514
O O14 0.141163 0.000000 0.807100
#
# Coordination Sequence:
#
# PCOD8115935 Si02
#       6
#     8   4   8   8   8   8
#     4  12  28  48  76 102 139 193 250 312 376 443
#     4  12  25  42  72 102 146 202 245 310 386 450
#     4  12  26  45  72 110 153 195 250 309 379 452
#     4  12  29  47  70 104 149 190 258 310 376 448
#     4   9  19  39  69 108 147 191 251 303 367 455
#     4   9  20  41  71 105 146 196 243 301 372 451
#
# _framework density 25.551341000000001
#
# number of rings (size 3 to 8) (size 9 to 14) (size 15 to 20)
#    0.000    1.091    0.000    6.818   12.727    0.364 
#    0.000    1.818    0.000    4.364    0.000    0.000 
#    0.000    0.000    0.000    0.000    0.000    0.000 
#
# Total GULP energy -272555.406567 kJ/mol
# GULP energy per Si atom -12388.882117 kJ/mol
# Density = 2.549318 g / cm^3
# Si number density = 25.551341 Si / 1000 Ang^3
#
#
#
# Elastic Constant Matrix: (Units=GPa)
#
#
# Indices 1 2 3 4 5 6 
#
# 1 81.3368 37.0360 13.9929 0.0000 7.0112 0.0000
# 2 37.0360 165.5384 9.5142 0.0000 10.5218 0.0000
# 3 13.9929 9.5142 66.4247 0.0000 12.8741 0.0000
# 4 0.0000 0.0000 0.0000 23.1529 0.0000 2.7397
# 5 7.0112 10.5218 12.8741 0.0000 40.4456 0.0000
# 6 0.0000 0.0000 0.0000 2.7397 0.0000 39.9988
#
#
#
# Elastic Compliance Matrix: (Units=1/GPa)
#
#
# Indices 1 2 3 4 5 6 
#
# 1 0.014133 -0.002967 -0.002374 0.000000 -0.000923 0.000000
# 2 -0.002967 0.006788 -0.000112 0.000000 -0.001216 0.000000
# 3 -0.002374 -0.000112 0.016503 0.000000 -0.004813 0.000000
# 4 0.000000 0.000000 0.000000 0.043544 0.000000 -0.002982
# 5 -0.000923 -0.001216 -0.004813 0.000000 0.026733 0.000000
# 6 0.000000 0.000000 0.000000 -0.002982 0.000000 0.025205
#
#
# Mechanical properties :
#
#
# Convention : Reuss Voigt Hill
#
# Bulk Modulus (GPa) = 37.70599 48.26512 42.98555
# Shear Modulus (GPa) = 32.75432 37.56992 35.16212
#
# Velocity S-wave (km/s) = 3.58425 3.83870 3.71366
# Velocity P-wave (km/s) = 5.64961 6.21112 5.93701
#
# Compressibility (1/GPa) = 0.02652099
#
# Stress axis : x y z
#
# Youngs Moduli (GPa) = 70.75429 147.30971 60.59362
#
# Poissons Ratio (x) = 0.43707 0.14382
# Poissons Ratio (y) = 0.20993 0.00676
# Poissons Ratio (z) = 0.16794 0.01644
#
# Static dielectric constant tensor:
#      x y z
#    x 4.669760 0.000000 -0.155360 
#    y 0.000000 5.110320 0.000000 
#    z -0.155360 0.000000 3.997150 
# 
# 
# High freq. dielectric constant tensor:
#      x y z
#    x 2.021760 0.000000 0.017360 
#    y 0.000000 2.038820 0.000000 
#    z 0.017360 0.000000 2.013280 
# 
# From -- ./inp_files/42096.got.cif
#   From: 2010.06.25/outbox.cif.g09.slc.cpg/sg12_22_cif.got.tgz:42096.got - 2010.06.28 00:19:55.
