data_PCOD8115642
_publ_section_title
;
Structure prediction by ZEFSAII (Michael W. Deem and Ramdas Pophale) SiO2 
 PCOD8115642
Probable space group: C 2/M
;
_chemical_formula_sum "Si O2"
_cell_formula_units_Z 40
_cell_length_a 18.256943
_cell_length_b 16.595100
_cell_length_c 12.072654
_cell_angle_alpha 90.000000
_cell_angle_beta 150.707820
_cell_angle_gamma 90.000000
_cell_volume 1789.589557
_symmetry_space_group_name_H-M "C 2/M"
_symmetry_group_IT_number 12
_symmetry_cell_setting 'monoclinic'
loop_
_space_group_symop_operation_xyz
x,y,z
-x,y,-z
-x,-y,-z
x,-y,z
1/2+x,1/2+y,z
1/2-x,1/2+y,-z
1/2-x,1/2-y,-z
1/2+x,1/2-y,z
loop_
_atom_site_type_symbol
_atom_site_label
_atom_site_fract_x
_atom_site_fract_y
_atom_site_fract_z
Si Si1 0.147849 0.407045 0.520769
Si Si2 0.133928 0.089477 0.599817
Si Si3 0.178421 0.355516 0.974386
Si Si4 0.335290 0.333204 0.591198
Si Si5 0.676907 0.676868 0.051453
O O1 0.125635 0.500000 0.526315
O O2 0.251636 0.403230 0.548820
O O3 0.220798 0.356146 0.715261
O O4 0.991759 0.364539 0.287126
O O5 0.166188 0.148810 0.540986
O O6 0.000000 0.124282 0.500000
O O7 0.095922 0.000000 0.505251
O O8 0.280402 0.083458 0.872194
O O9 0.285497 0.373634 0.010182
O O10 0.215610 0.268761 0.076004
O O11 0.250000 0.250000 0.500000
O O12 0.504469 0.331059 0.858677
#
# Coordination Sequence:
#
# PCOD8115642 Si02
#       5
#     8   8   8   8   8
#     4  12  27  45  70 109 148 184 234 301 366 421
#     4  11  24  43  71 101 139 185 236 290 351 427
#     4  11  24  45  73 103 140 185 241 294 350 426
#     4  12  24  47  72 103 140 190 236 294 355 429
#     4  11  25  44  73 100 140 193 239 283 351 431
#
# _framework density 22.351493999999999
#
# number of rings (size 3 to 8) (size 9 to 14) (size 15 to 20)
#    0.000    0.600    4.000    3.600    0.000    5.600 
#    0.000    2.000    0.000    0.000    0.000    0.000 
#    0.000    0.000    0.000    0.000    0.000    0.000 
#
# Total GULP energy -248042.468595 kJ/mol
# GULP energy per Si atom -12402.123430 kJ/mol
# Density = 2.230062 g / cm^3
# Si number density = 22.351494 Si / 1000 Ang^3
#
#
#
# Elastic Constant Matrix: (Units=GPa)
#
#
# Indices 1 2 3 4 5 6 
#
# 1 153.6470 56.2062 55.9876 0.0000 -7.3578 0.0000
# 2 56.2062 104.8498 50.3905 0.0000 -13.4671 0.0000
# 3 55.9876 50.3905 157.3942 0.0000 -16.3217 0.0000
# 4 0.0000 0.0000 0.0000 28.5725 0.0000 -4.5085
# 5 -7.3578 -13.4671 -16.3217 0.0000 36.2633 0.0000
# 6 0.0000 0.0000 0.0000 -4.5085 0.0000 25.3579
#
#
#
# Elastic Compliance Matrix: (Units=1/GPa)
#
#
# Indices 1 2 3 4 5 6 
#
# 1 0.008540 -0.003732 -0.001896 0.000000 -0.000506 0.000000
# 2 -0.003732 0.013158 -0.002577 0.000000 0.002969 0.000000
# 3 -0.001896 -0.002577 0.008091 0.000000 0.002300 0.000000
# 4 0.000000 0.000000 0.000000 0.036009 0.000000 0.006402
# 5 -0.000506 0.002969 0.002300 0.000000 0.029611 0.000000
# 6 0.000000 0.000000 0.000000 0.006402 0.000000 0.040574
#
#
# Mechanical properties :
#
#
# Convention : Reuss Voigt Hill
#
# Bulk Modulus (GPa) = 74.73831 82.33996 78.53913
# Shear Modulus (GPa) = 31.87697 34.92585 33.40141
#
# Velocity S-wave (km/s) = 3.78056 3.95723 3.86990
# Velocity P-wave (km/s) = 7.25032 7.60251 7.42850
#
# Compressibility (1/GPa) = 0.01338002
#
# Stress axis : x y z
#
# Youngs Moduli (GPa) = 117.09395 75.99913 123.58894
#
# Poissons Ratio (x) = 0.28364 0.23426
# Poissons Ratio (y) = 0.43701 0.31850
# Poissons Ratio (z) = 0.22195 0.19586
#
# Static dielectric constant tensor:
#      x y z
#    x 4.273680 0.000000 0.010330 
#    y 0.000000 3.946670 0.000000 
#    z 0.010330 0.000000 4.036370 
# 
# 
# High freq. dielectric constant tensor:
#      x y z
#    x 1.892150 0.000000 -0.002020 
#    y 0.000000 1.875100 0.000000 
#    z -0.002020 0.000000 1.893010 
# 
# From -- ./inp_files/47136.got.cif
#   From: 2010.06.25/outbox.cif.g09.slc.cpg/sg12_24_cif.got.tgz:47136.got - 2010.06.28 00:19:55.
