data_PCOD8115044
_publ_section_title
;
Structure prediction by ZEFSAII (Michael W. Deem and Ramdas Pophale) SiO2 
 PCOD8115044
Probable space group: C 2/M
;
_chemical_formula_sum "Si O2"
_cell_formula_units_Z 56
_cell_length_a 17.467388
_cell_length_b 26.467017
_cell_length_c 9.456127
_cell_angle_alpha 90.000000
_cell_angle_beta 143.927037
_cell_angle_gamma 90.000000
_cell_volume 2574.098344
_symmetry_space_group_name_H-M "C 2/M"
_symmetry_group_IT_number 12
_symmetry_cell_setting 'monoclinic'
loop_
_space_group_symop_operation_xyz
x,y,z
-x,y,-z
-x,-y,-z
x,-y,z
1/2+x,1/2+y,z
1/2-x,1/2+y,-z
1/2-x,1/2-y,-z
1/2+x,1/2-y,z
loop_
_atom_site_type_symbol
_atom_site_label
_atom_site_fract_x
_atom_site_fract_y
_atom_site_fract_z
Si Si1 0.743102 0.601145 0.927547
Si Si2 0.851778 0.500000 0.630511
Si Si3 0.396928 0.353732 0.025143
Si Si4 0.008148 0.668972 0.672757
Si Si5 0.687906 0.244809 0.060991
Si Si6 0.770467 0.610597 0.449577
Si Si7 0.173493 0.839609 0.566390
Si Si8 0.342185 0.000000 0.946497
O O1 0.663309 0.606567 0.953091
O O2 0.653033 0.626939 0.674639
O O3 0.773853 0.544803 0.928506
O O4 0.879775 0.628173 0.145149
O O5 0.792811 0.550640 0.475698
O O6 0.811549 0.500000 0.734767
O O7 0.002686 0.500000 0.814551
O O8 0.541998 0.337845 0.280585
O O9 0.322099 0.300875 0.896714
O O10 0.371680 0.379863 0.834815
O O11 0.000000 0.688918 0.500000
O O12 0.876374 0.641500 0.519006
O O13 0.048735 0.716066 0.834524
O O14 0.778335 0.215616 0.310814
O O15 0.750000 0.250000 0.000000
O O16 0.777480 0.632100 0.619895
#
# Coordination Sequence:
#
# PCOD8115044 Si02
#       8
#     8   4   8   8   8   8   8   4
#     4  11  22  41  70 100 135 176 231 291 339 410
#     4  11  24  41  76  98 145 180 229 294 369 420
#     4  12  26  45  66 101 144 185 229 285 347 415
#     4  11  22  41  68 104 140 168 229 294 348 411
#     4  11  24  41  72  99 132 191 228 280 348 411
#     4  12  25  47  69 105 141 181 229 300 352 412
#     4  11  26  46  68  98 143 183 236 281 338 431
#     4  11  22  41  70 110 129 180 235 296 363 402
#
# _framework density 21.755189999999999
#
# number of rings (size 3 to 8) (size 9 to 14) (size 15 to 20)
#    0.000    0.714    7.143    0.857    4.000    3.429 
#    2.571    5.714    0.000    0.000    0.000    0.000 
#    0.000    0.000    0.000    0.000    0.000    0.000 
#
# Total GULP energy -347032.903040 kJ/mol
# GULP energy per Si atom -12394.032251 kJ/mol
# Density = 2.170567 g / cm^3
# Si number density = 21.755190 Si / 1000 Ang^3
#
#
#
# Elastic Constant Matrix: (Units=GPa)
#
#
# Indices 1 2 3 4 5 6 
#
# 1 60.2667 31.4453 16.5140 0.0000 -10.3292 0.0000
# 2 31.4453 134.4454 48.2134 0.0000 -3.5461 0.0000
# 3 16.5140 48.2134 134.8909 0.0000 -5.2258 0.0000
# 4 0.0000 0.0000 0.0000 70.1033 0.0000 -12.8428
# 5 -10.3292 -3.5461 -5.2258 0.0000 28.5658 0.0000
# 6 0.0000 0.0000 0.0000 -12.8428 0.0000 30.7164
#
#
#
# Elastic Compliance Matrix: (Units=1/GPa)
#
#
# Indices 1 2 3 4 5 6 
#
# 1 0.020157 -0.004298 -0.000675 0.000000 0.006632 0.000000
# 2 -0.004298 0.009455 -0.002889 0.000000 -0.000909 0.000000
# 3 -0.000675 -0.002889 0.008566 0.000000 0.000964 0.000000
# 4 0.000000 0.000000 0.000000 0.015448 0.000000 0.006459
# 5 0.006632 -0.000909 0.000964 0.000000 0.037469 0.000000
# 6 0.000000 0.000000 0.000000 0.006459 0.000000 0.035256
#
#
# Mechanical properties :
#
#
# Convention : Reuss Voigt Hill
#
# Bulk Modulus (GPa) = 44.53166 57.99427 51.26297
# Shear Modulus (GPa) = 33.43199 41.43912 37.43556
#
# Velocity S-wave (km/s) = 3.92438 4.36913 4.15271
# Velocity P-wave (km/s) = 6.40689 7.22274 6.82701
#
# Compressibility (1/GPa) = 0.02245593
#
# Stress axis : x y z
#
# Youngs Moduli (GPa) = 49.61115 105.76414 116.74342
#
# Poissons Ratio (x) = 0.45453 0.07877
# Poissons Ratio (y) = 0.21321 0.33722
# Poissons Ratio (z) = 0.03347 0.30550
#
# Static dielectric constant tensor:
#      x y z
#    x 4.060030 0.000000 -0.062100 
#    y 0.000000 4.246190 0.000000 
#    z -0.062100 0.000000 4.187950 
# 
# 
# High freq. dielectric constant tensor:
#      x y z
#    x 1.846950 0.000000 -0.007230 
#    y 0.000000 1.856000 0.000000 
#    z -0.007230 0.000000 1.867760 
# 
# From -- ./inp_files/80160.got.cif
#   From: 2010.06.25/outbox.cif.g09.slc.cpg/sg12_41_cif.got.tgz:80160.got - 2010.06.28 00:19:55.
