data_PCOD8115352
_publ_section_title
;
Structure prediction by ZEFSAII (Michael W. Deem and Ramdas Pophale) SiO2 
 PCOD8115352
Probable space group: C 2/M
;
_chemical_formula_sum "Si O2"
_cell_formula_units_Z 40
_cell_length_a 15.072796
_cell_length_b 10.024206
_cell_length_c 12.093953
_cell_angle_alpha 90.000000
_cell_angle_beta 83.058769
_cell_angle_gamma 90.000000
_cell_volume 1813.916346
_symmetry_space_group_name_H-M "C 2/M"
_symmetry_group_IT_number 12
_symmetry_cell_setting 'monoclinic'
loop_
_space_group_symop_operation_xyz
x,y,z
-x,y,-z
-x,-y,-z
x,-y,z
1/2+x,1/2+y,z
1/2-x,1/2+y,-z
1/2-x,1/2-y,-z
1/2+x,1/2-y,z
loop_
_atom_site_type_symbol
_atom_site_label
_atom_site_fract_x
_atom_site_fract_y
_atom_site_fract_z
Si Si1 0.756866 0.150054 0.101906
Si Si2 0.198315 0.752394 0.338717
Si Si3 0.538842 0.349478 0.885765
Si Si4 0.008432 0.847616 0.341781
Si Si5 0.364457 0.853116 0.434487
O O1 0.696487 0.189602 0.216073
O O2 0.855788 0.154345 0.133648
O O3 0.731707 0.000000 0.066025
O O4 0.750000 0.250000 0.000000
O O5 0.112260 0.848934 0.359226
O O6 0.291480 0.827941 0.348504
O O7 0.185501 0.644668 0.438850
O O8 0.500814 0.500000 0.893910
O O9 0.501584 0.284651 0.779600
O O10 0.500000 0.273209 0.000000
O O11 0.944543 0.755163 0.426575
O O12 0.972491 0.000000 0.355895
O O13 0.405605 0.000000 0.408224
#
# Coordination Sequence:
#
# PCOD8115352 Si02
#       5
#     8   8   8   8   8
#     4  11  23  41  66  96 132 173 219 271 331 393
#     4  11  24  42  68  97 133 177 223 270 327 394
#     4   9  18  36  61  89 123 165 214 265 316 379
#     4  11  23  42  68  96 130 175 225 270 323 396
#     4  11  25  43  66  98 137 175 219 276 332 387
#
# _framework density 22.051734
#
# number of rings (size 3 to 8) (size 9 to 14) (size 15 to 20)
#    0.000    1.400    2.000    3.000    0.000   10.400 
#    0.000    0.000    0.000    2.400    0.000    0.000 
#    0.000    0.000    0.000    0.000    0.000    0.000 
#
# Total GULP energy -247876.366639 kJ/mol
# GULP energy per Si atom -12393.818332 kJ/mol
# Density = 2.200154 g / cm^3
# Si number density = 22.051734 Si / 1000 Ang^3
#
#
#
# Elastic Constant Matrix: (Units=GPa)
#
#
# Indices 1 2 3 4 5 6 
#
# 1 104.3533 37.4993 14.5426 0.0000 -1.1458 0.0000
# 2 37.4993 136.2344 42.1722 0.0000 -4.8419 0.0000
# 3 14.5426 42.1722 146.1855 0.0000 -2.5607 0.0000
# 4 0.0000 0.0000 0.0000 19.9190 0.0000 -3.1004
# 5 -1.1458 -4.8419 -2.5607 0.0000 35.7212 0.0000
# 6 0.0000 0.0000 0.0000 -3.1004 0.0000 25.7006
#
#
#
# Elastic Compliance Matrix: (Units=1/GPa)
#
#
# Indices 1 2 3 4 5 6 
#
# 1 0.010642 -0.002859 -0.000235 0.000000 -0.000063 0.000000
# 2 -0.002859 0.008859 -0.002255 0.000000 0.000947 0.000000
# 3 -0.000235 -0.002255 0.007518 0.000000 0.000226 0.000000
# 4 0.000000 0.000000 0.000000 0.051164 0.000000 0.006172
# 5 -0.000063 0.000947 0.000226 0.000000 0.028137 0.000000
# 6 0.000000 0.000000 0.000000 0.006172 0.000000 0.039654
#
#
# Mechanical properties :
#
#
# Convention : Reuss Voigt Hill
#
# Bulk Modulus (GPa) = 61.26558 63.91127 62.58843
# Shear Modulus (GPa) = 30.84275 35.77210 33.30743
#
# Velocity S-wave (km/s) = 3.74392 4.03201 3.89063
# Velocity P-wave (km/s) = 6.82145 7.12190 6.97329
#
# Compressibility (1/GPa) = 0.01632238
#
# Stress axis : x y z
#
# Youngs Moduli (GPa) = 93.96545 112.88211 133.00720
#
# Poissons Ratio (x) = 0.32271 0.03127
# Poissons Ratio (y) = 0.26863 0.29988
# Poissons Ratio (z) = 0.02209 0.25451
#
# Static dielectric constant tensor:
#      x y z
#    x 3.853750 0.000000 0.004920 
#    y 0.000000 3.680840 0.000000 
#    z 0.004920 0.000000 4.329020 
# 
# 
# High freq. dielectric constant tensor:
#      x y z
#    x 1.868820 0.000000 0.004100 
#    y 0.000000 1.830840 0.000000 
#    z 0.004100 0.000000 1.887840 
# 
# From -- ./inp_files/140256.got.cif
#   From: 2010.06.25/outbox.cif.g09.slc.cpg/sg12_71_cif.got.tgz:140256.got - 2010.06.28 00:19:55.
