data_PCOD8115530
_publ_section_title
;
Structure prediction by ZEFSAII (Michael W. Deem and Ramdas Pophale) SiO2 
 PCOD8115530
Probable space group: C 2/M
;
_chemical_formula_sum "Si O2"
_cell_formula_units_Z 40
_cell_length_a 18.289171
_cell_length_b 8.685447
_cell_length_c 26.318981
_cell_angle_alpha 90.000000
_cell_angle_beta 29.761188
_cell_angle_gamma 90.000000
_cell_volume 2075.270974
_symmetry_space_group_name_H-M "C 2/M"
_symmetry_group_IT_number 12
_symmetry_cell_setting 'monoclinic'
loop_
_space_group_symop_operation_xyz
x,y,z
-x,y,-z
-x,-y,-z
x,-y,z
1/2+x,1/2+y,z
1/2-x,1/2+y,-z
1/2-x,1/2-y,-z
1/2+x,1/2-y,z
loop_
_atom_site_type_symbol
_atom_site_label
_atom_site_fract_x
_atom_site_fract_y
_atom_site_fract_z
Si Si1 0.829262 0.821330 0.596342
Si Si2 0.641716 0.183424 0.219232
Si Si3 0.823953 0.819651 0.406062
Si Si4 0.584640 0.332521 0.001299
Si Si5 0.803825 0.183972 0.223425
O O1 0.774411 0.719820 0.582890
O O2 0.742830 0.773476 0.698643
O O3 0.000000 0.784424 0.500000
O O4 0.800504 0.000000 0.602094
O O5 0.486564 0.255674 0.299481
O O6 0.760175 0.251122 0.106056
O O7 0.690584 0.228771 0.246770
O O8 0.634367 0.000000 0.218860
O O9 0.750000 0.750000 0.500000
O O10 0.832160 0.000000 0.408561
O O11 0.622469 0.500000 0.001367
O O12 0.500000 0.356477 0.000000
O O13 0.469536 0.252696 0.109738
O O14 0.804604 0.000000 0.231359
#
# Coordination Sequence:
#
# PCOD8115530 Si02
#       5
#     8   8   8   8   8
#     4  11  24  40  57  79 108 141 180 226 274 323
#     4   9  17  33  58  85 114 146 180 220 266 316
#     4  12  25  40  58  80 108 141 180 223 270 325
#     4   7  12  26  51  82 112 143 179 217 259 312
#     4   9  17  32  57  86 113 144 182 221 265 318
#
# _framework density 19.274591999999998
#
# number of rings (size 3 to 8) (size 9 to 14) (size 15 to 20)
#    0.000    2.400    0.000    6.000    0.000    5.600 
#    0.000    2.000    0.000    3.600    0.000    0.000 
#    0.000    0.000    0.000    0.000    0.000    0.000 
#
# Total GULP energy -247829.260120 kJ/mol
# GULP energy per Si atom -12391.463006 kJ/mol
# Density = 1.923072 g / cm^3
# Si number density = 19.274592 Si / 1000 Ang^3
#
#
#
# Elastic Constant Matrix: (Units=GPa)
#
#
# Indices 1 2 3 4 5 6 
#
# 1 76.4214 19.8315 53.9411 0.0012 1.5820 -0.0024
# 2 19.8315 41.7367 35.3315 0.0035 -4.3141 -0.0029
# 3 53.9411 35.3315 174.2487 0.0040 2.2780 -0.0001
# 4 0.0012 0.0035 0.0040 0.3435 -0.0004 11.8803
# 5 1.5820 -4.3141 2.2780 -0.0004 32.2188 0.0010
# 6 -0.0024 -0.0029 -0.0001 11.8803 0.0010 20.3666
#
#
#
# Elastic Compliance Matrix: (Units=1/GPa)
#
#
# Indices 1 2 3 4 5 6 
#
# 1 0.017454 -0.004651 -0.004445 0.000001 -0.001166 0.000001
# 2 -0.004651 0.030769 -0.004860 0.000019 0.004692 -0.000007
# 3 -0.004445 -0.004860 0.008114 0.000000 -0.001006 -0.000001
# 4 0.000001 0.000019 0.000000 -0.151824 -0.000002 0.088563
# 5 -0.001166 0.004692 -0.001006 -0.000002 0.031794 0.000000
# 6 0.000001 -0.000007 -0.000001 0.088563 0.000000 -0.002561
#
#
# Mechanical properties :
#
#
# Convention : Reuss Voigt Hill
#
# Bulk Modulus (GPa) = 35.18164 56.73499 45.95831
# Shear Modulus (GPa) = -173.20868 22.80597 -75.20136
#
# Velocity S-wave (km/s) = -9.48993 3.44352 -6.25304
# Velocity P-wave (km/s) = 10.08890 6.73123 5.31397
#
# Compressibility (1/GPa) = 0.02842392
#
# Stress axis : x y z
#
# Youngs Moduli (GPa) = 57.29448 32.50001 123.25102
#
# Poissons Ratio (x) = 0.15116 0.54782
# Poissons Ratio (y) = 0.26648 0.59905
# Poissons Ratio (z) = 0.25466 0.15796
#
# Static dielectric constant tensor:
#      x y z
#    x 3.295150 0.000000 0.010920 
#    y 0.000000 3.280580 0.000000 
#    z 0.010920 0.000000 4.089460 
# 
# 
# High freq. dielectric constant tensor:
#      x y z
#    x 1.726570 0.000000 0.001290 
#    y 0.000000 1.723680 0.000000 
#    z 0.001290 0.000000 1.780820 
# 
# From -- ./inp_files/151961.got.cif
#   From: 2010.06.25/outbox.cif.g09.slc.cpg/sg12_76_cif.got.tgz:151961.got - 2010.06.28 00:19:55.
