data_PCOD8115945
_publ_section_title
;
Structure prediction by ZEFSAII (Michael W. Deem and Ramdas Pophale) SiO2 
 PCOD8115945
Probable space group: C 2/M
;
_chemical_formula_sum "Si O2"
_cell_formula_units_Z 40
_cell_length_a 9.322745
_cell_length_b 15.361429
_cell_length_c 21.013654
_cell_angle_alpha 90.000000
_cell_angle_beta 140.400725
_cell_angle_gamma 90.000000
_cell_volume 1918.221533
_symmetry_space_group_name_H-M "C 2/M"
_symmetry_group_IT_number 12
_symmetry_cell_setting 'monoclinic'
loop_
_space_group_symop_operation_xyz
x,y,z
-x,y,-z
-x,-y,-z
x,-y,z
1/2+x,1/2+y,z
1/2-x,1/2+y,-z
1/2-x,1/2-y,-z
1/2+x,1/2-y,z
loop_
_atom_site_type_symbol
_atom_site_label
_atom_site_fract_x
_atom_site_fract_y
_atom_site_fract_z
Si Si1 0.552512 0.000000 0.590698
Si Si2 0.647189 0.663868 0.697799
Si Si3 0.334575 0.330112 0.711970
Si Si4 0.018223 0.102585 0.109211
Si Si5 0.859829 0.601722 0.117680
Si Si6 0.051613 0.000000 0.444955
O O1 0.500000 0.000000 0.500000
O O2 0.690098 0.083935 0.656634
O O3 0.316892 0.000000 0.544394
O O4 0.497108 0.683654 0.707914
O O5 0.660775 0.749273 0.657738
O O6 0.542176 0.584710 0.622621
O O7 0.901147 0.647276 0.807210
O O8 0.481342 0.340503 0.826479
O O9 0.238515 0.126339 0.142625
O O10 0.016271 0.000000 0.124251
O O11 0.794919 0.129638 0.994527
O O12 0.902222 0.500000 0.130226
O O13 0.000000 0.000000 0.500000
#
# Coordination Sequence:
#
# PCOD8115945 Si02
#       6
#     4   8   8   8   8   4
#     4  12  26  52  71  96 133 171 220 283 332 398
#     4  12  26  45  67 104 134 174 223 274 329 399
#     4  12  26  43  71  99 137 175 221 274 333 392
#     4   9  19  38  67 101 133 182 216 268 330 387
#     4   9  19  38  67  99 139 173 224 267 322 398
#     4  12  30  48  75  98 129 175 222 275 342 392
#
# _framework density 20.852649
#
# number of rings (size 3 to 8) (size 9 to 14) (size 15 to 20)
#    0.000    1.200    4.000    2.400    5.600    3.200 
#    0.000    2.000    0.000    0.000    0.000    0.000 
#    0.000    0.000    0.000    0.000    0.000    0.000 
#
# Total GULP energy -247994.405965 kJ/mol
# GULP energy per Si atom -12399.720298 kJ/mol
# Density = 2.080519 g / cm^3
# Si number density = 20.852649 Si / 1000 Ang^3
#
#
#
# Elastic Constant Matrix: (Units=GPa)
#
#
# Indices 1 2 3 4 5 6 
#
# 1 182.6811 67.6270 60.1384 0.0003 1.4894 -0.0001
# 2 67.6270 133.9925 49.6456 -0.0003 3.9127 0.0001
# 3 60.1384 49.6456 89.7717 0.0009 6.3478 -0.0003
# 4 0.0003 -0.0003 0.0009 -476.9079 0.0010 118.5047
# 5 1.4894 3.9127 6.3478 0.0010 48.0815 -0.0003
# 6 -0.0001 0.0001 -0.0003 118.5047 -0.0003 4.7010
#
#
#
# Elastic Compliance Matrix: (Units=1/GPa)
#
#
# Indices 1 2 3 4 5 6 
#
# 1 0.007626 -0.002462 -0.003780 0.000000 0.000463 0.000000
# 2 -0.002462 0.010181 -0.003965 0.000000 -0.000229 0.000000
# 3 -0.003780 -0.003965 0.015982 0.000000 -0.001670 0.000000
# 4 0.000000 0.000000 0.000000 -0.000289 0.000000 0.007277
# 5 0.000463 -0.000229 -0.001670 0.000000 0.021023 0.000000
# 6 0.000000 0.000000 0.000000 0.007277 0.000000 0.029285
#
#
# Mechanical properties :
#
#
# Convention : Reuss Voigt Hill
#
# Bulk Modulus (GPa) = 74.76108 84.58525 79.67316
# Shear Modulus (GPa) = 46.00615 -69.55612 -11.77499
#
# Velocity S-wave (km/s) = 4.70217 -5.78173 -2.37887
# Velocity P-wave (km/s) = 8.08767 1.97986 5.54484
#
# Compressibility (1/GPa) = 0.01337594
#
# Stress axis : x y z
#
# Youngs Moduli (GPa) = 131.13094 98.21786 62.56853
#
# Poissons Ratio (x) = 0.24180 0.23650
# Poissons Ratio (y) = 0.32283 0.24809
# Poissons Ratio (z) = 0.49567 0.38945
#
# Static dielectric constant tensor:
#      x y z
#    x 3.846840 0.000000 0.004330 
#    y 0.000000 3.920170 0.000000 
#    z 0.004330 0.000000 3.752180 
# 
# 
# High freq. dielectric constant tensor:
#      x y z
#    x 1.823120 0.000000 -0.000360 
#    y 0.000000 1.826040 0.000000 
#    z -0.000360 0.000000 1.820450 
# 
# From -- ./inp_files/300991.got.cif
#   From: 2010.06.25/outbox.cif.g09.slc.cpg/sg12_151_cif.got.tgz:300991.got - 2010.06.28 00:19:55.
