data_PCOD8115702
_publ_section_title
;
Structure prediction by ZEFSAII (Michael W. Deem and Ramdas Pophale) SiO2 
 PCOD8115702
Probable space group: C 2/M
;
_chemical_formula_sum "Si O2"
_cell_formula_units_Z 56
_cell_length_a 27.277543
_cell_length_b 17.324382
_cell_length_c 8.836460
_cell_angle_alpha 90.000000
_cell_angle_beta 38.573715
_cell_angle_gamma 90.000000
_cell_volume 2603.708746
_symmetry_space_group_name_H-M "C 2/M"
_symmetry_group_IT_number 12
_symmetry_cell_setting 'monoclinic'
loop_
_space_group_symop_operation_xyz
x,y,z
-x,y,-z
-x,-y,-z
x,-y,z
1/2+x,1/2+y,z
1/2-x,1/2+y,-z
1/2-x,1/2-y,-z
1/2+x,1/2-y,z
loop_
_atom_site_type_symbol
_atom_site_label
_atom_site_fract_x
_atom_site_fract_y
_atom_site_fract_z
Si Si1 0.214880 0.830065 0.028600
Si Si2 0.917925 0.500000 0.492156
Si Si3 0.045975 0.199044 0.739401
Si Si4 0.813846 0.909013 0.600189
Si Si5 0.403392 0.000000 0.860849
Si Si6 0.431985 0.729640 0.767601
Si Si7 0.642783 0.150629 0.517026
Si Si8 0.165664 0.353735 0.816298
O O1 0.268919 0.857859 0.759364
O O2 0.250000 0.750000 0.000000
O O3 0.217746 0.893370 0.154347
O O4 0.123407 0.824918 0.200576
O O5 0.870428 0.500000 0.766681
O O6 0.904397 0.575392 0.422907
O O7 0.004594 0.500000 0.346128
O O8 0.098334 0.122887 0.635795
O O9 0.099607 0.272416 0.558639
O O10 0.980448 0.179348 0.771836
O O11 0.000000 0.222857 0.000000
O O12 0.759659 0.859752 0.614097
O O13 0.811458 0.000000 0.570735
O O14 0.370496 0.070593 0.030433
O O15 0.500000 0.771035 0.500000
O O16 0.372374 0.785791 0.995525
O O17 0.645789 0.156112 0.689604
#
# Coordination Sequence:
#
# PCOD8115702 Si02
#       8
#     8   4   8   8   4   8   8   8
#     4  12  24  45  72 101 138 187 241 291 354 431
#     4  11  27  41  71  99 150 185 230 289 368 440
#     4  12  26  46  73 104 138 189 240 303 363 418
#     4  12  27  49  73 102 146 193 245 294 360 430
#     4  11  25  41  63 105 137 192 227 278 367 436
#     4  12  24  42  71 105 133 179 242 296 353 423
#     4  12  26  45  67 107 146 188 234 298 362 439
#     4  12  25  42  72 102 142 184 232 297 360 430
#
# _framework density 21.507781000000001
#
# number of rings (size 3 to 8) (size 9 to 14) (size 15 to 20)
#    0.000    0.143    6.429    2.143    7.000    2.000 
#    0.000    1.429    0.000    0.000    0.000    0.000 
#    0.000    0.000    0.000    0.000    0.000    0.000 
#
# Total GULP energy -347173.480279 kJ/mol
# GULP energy per Si atom -12399.052867 kJ/mol
# Density = 2.145883 g / cm^3
# Si number density = 21.507781 Si / 1000 Ang^3
#
#
#
# Elastic Constant Matrix: (Units=GPa)
#
#
# Indices 1 2 3 4 5 6 
#
# 1 142.6602 22.5820 19.7195 0.0000 -16.8229 0.0000
# 2 22.5820 49.8428 9.8246 0.0000 -8.5317 0.0000
# 3 19.7195 9.8246 76.8881 0.0000 -10.6258 0.0000
# 4 0.0000 0.0000 0.0000 31.4279 0.0000 -2.7271
# 5 -16.8229 -8.5317 -10.6258 0.0000 40.6540 0.0000
# 6 0.0000 0.0000 0.0000 -2.7271 0.0000 31.4216
#
#
#
# Elastic Compliance Matrix: (Units=1/GPa)
#
#
# Indices 1 2 3 4 5 6 
#
# 1 0.007932 -0.002933 -0.001339 0.000000 0.002317 0.000000
# 2 -0.002933 0.022238 -0.001672 0.000000 0.003016 0.000000
# 3 -0.001339 -0.001672 0.013942 0.000000 0.002739 0.000000
# 4 0.000000 0.000000 0.000000 0.032060 0.000000 0.002783
# 5 0.002317 0.003016 0.002739 0.000000 0.026905 0.000000
# 6 0.000000 0.000000 0.000000 0.002783 0.000000 0.032067
#
#
# Mechanical properties :
#
#
# Convention : Reuss Voigt Hill
#
# Bulk Modulus (GPa) = 31.03500 41.51590 36.27545
# Shear Modulus (GPa) = 31.69069 35.18502 33.43786
#
# Velocity S-wave (km/s) = 3.84272 4.04904 3.94723
# Velocity P-wave (km/s) = 5.84377 6.41906 6.13816
#
# Compressibility (1/GPa) = 0.03222168
#
# Stress axis : x y z
#
# Youngs Moduli (GPa) = 126.06643 44.96822 71.72765
#
# Poissons Ratio (x) = 0.13190 0.09607
# Poissons Ratio (y) = 0.36979 0.11996
# Poissons Ratio (z) = 0.16886 0.07521
#
# Static dielectric constant tensor:
#      x y z
#    x 4.267610 0.000000 -0.176120 
#    y 0.000000 3.560850 0.000000 
#    z -0.176120 0.000000 4.275740 
# 
# 
# High freq. dielectric constant tensor:
#      x y z
#    x 1.863960 0.000000 -0.002230 
#    y 0.000000 1.817210 0.000000 
#    z -0.002230 0.000000 1.860500 
# 
# From -- ./inp_files/105994.got.cif
#   From: 2010.06.25/outbox.cif.g09.slc.cpg/sg12_53_cif.got.tgz:105994.got - 2010.06.28 00:19:55.
