data_PCOD8115117
_publ_section_title
;
Structure prediction by ZEFSAII (Michael W. Deem and Ramdas Pophale) SiO2 
 PCOD8115117
Probable space group: C 2/M
;
_chemical_formula_sum "Si O2"
_cell_formula_units_Z 28
_cell_length_a 9.114713
_cell_length_b 17.837662
_cell_length_c 7.579336
_cell_angle_alpha 90.000000
_cell_angle_beta 109.691426
_cell_angle_gamma 90.000000
_cell_volume 1160.224655
_symmetry_space_group_name_H-M "C 2/M"
_symmetry_group_IT_number 12
_symmetry_cell_setting 'monoclinic'
loop_
_space_group_symop_operation_xyz
x,y,z
-x,y,-z
-x,-y,-z
x,-y,z
1/2+x,1/2+y,z
1/2-x,1/2+y,-z
1/2-x,1/2-y,-z
1/2+x,1/2-y,z
loop_
_atom_site_type_symbol
_atom_site_label
_atom_site_fract_x
_atom_site_fract_y
_atom_site_fract_z
Si Si1 0.864058 0.083348 0.691127
Si Si2 0.873679 0.295338 0.303868
Si Si3 0.500000 0.155543 0.000000
Si Si4 0.692194 0.625423 0.720886
O O1 0.763151 0.143287 0.757596
O O2 0.817905 0.082328 0.466810
O O3 0.046902 0.103611 0.786117
O O4 0.833851 0.000000 0.754853
O O5 0.949761 0.291222 0.141332
O O6 0.805883 0.214152 0.323205
O O7 0.000000 0.320258 0.500000
O O8 0.353922 0.103593 0.882611
#
# Coordination Sequence:
#
# PCOD8115117 Si02
#       4
#     8   8   4   8
#     4  11  24  45  72  99 139 188 226 273 348 414
#     4  12  23  45  73 103 138 181 227 285 341 400
#     4  12  26  40  69 112 133 172 236 290 330 404
#     4  11  22  44  72 103 138 176 232 284 338 404
#
# _framework density 24.133255999999999
#
# number of rings (size 3 to 8) (size 9 to 14) (size 15 to 20)
#    0.000    0.571    5.714    5.143    0.000    1.714 
#    0.000    7.857    0.000    0.000    0.000    0.000 
#    0.000    0.000    0.000    0.000    0.000    0.000 
#
# Total GULP energy -173654.497137 kJ/mol
# GULP energy per Si atom -12403.892653 kJ/mol
# Density = 2.407833 g / cm^3
# Si number density = 24.133256 Si / 1000 Ang^3
#
#
#
# Elastic Constant Matrix: (Units=GPa)
#
#
# Indices 1 2 3 4 5 6 
#
# 1 152.2916 46.4107 49.5058 0.0000 29.5181 0.0000
# 2 46.4107 157.7412 -4.2858 0.0000 -0.7761 0.0000
# 3 49.5058 -4.2858 82.8254 0.0000 16.0816 0.0000
# 4 0.0000 0.0000 0.0000 8.3374 0.0000 -10.9887
# 5 29.5181 -0.7761 16.0816 0.0000 60.5421 0.0000
# 6 0.0000 0.0000 0.0000 -10.9887 0.0000 25.7695
#
#
#
# Elastic Compliance Matrix: (Units=1/GPa)
#
#
# Indices 1 2 3 4 5 6 
#
# 1 0.009942 -0.003090 -0.005434 0.000000 -0.003443 0.000000
# 2 -0.003090 0.007309 0.002018 0.000000 0.001064 0.000000
# 3 -0.005434 0.002018 0.015717 0.000000 -0.001500 0.000000
# 4 0.000000 0.000000 0.000000 0.273858 0.000000 0.116779
# 5 -0.003443 0.001064 -0.001500 0.000000 0.018608 0.000000
# 6 0.000000 0.000000 0.000000 0.116779 0.000000 0.088603
#
#
# Mechanical properties :
#
#
# Convention : Reuss Voigt Hill
#
# Bulk Modulus (GPa) = 50.10646 64.01327 57.05986
# Shear Modulus (GPa) = 11.52875 39.01164 25.27019
#
# Velocity S-wave (km/s) = 2.18803 4.02495 3.23942
# Velocity P-wave (km/s) = 5.21448 6.94138 6.13896
#
# Compressibility (1/GPa) = 0.01995751
#
# Stress axis : x y z
#
# Youngs Moduli (GPa) = 100.58721 136.82527 63.62572
#
# Poissons Ratio (x) = 0.42274 0.34571
# Poissons Ratio (y) = 0.31077 -0.12842
# Poissons Ratio (z) = 0.54654 -0.27615
#
# Static dielectric constant tensor:
#      x y z
#    x 4.729660 0.000000 0.255860 
#    y 0.000000 3.908160 0.000000 
#    z 0.255860 0.000000 4.328730 
# 
# 
# High freq. dielectric constant tensor:
#      x y z
#    x 1.973970 0.000000 0.008350 
#    y 0.000000 1.929280 0.000000 
#    z 0.008350 0.000000 1.955370 
# 
# From -- ./inp_files/37748.got.cif
#   From: 2010.06.25/outbox.cif.g09.slc.cpg/sg12_19_cif.got.tgz:37748.got - 2010.06.28 00:19:55.
