data_PCOD8115491
_publ_section_title
;
Structure prediction by ZEFSAII (Michael W. Deem and Ramdas Pophale) SiO2 
 PCOD8115491
Probable space group: C 2/M
;
_chemical_formula_sum "Si O2"
_cell_formula_units_Z 32
_cell_length_a 14.802761
_cell_length_b 12.685924
_cell_length_c 9.522323
_cell_angle_alpha 90.000000
_cell_angle_beta 124.594920
_cell_angle_gamma 90.000000
_cell_volume 1471.994179
_symmetry_space_group_name_H-M "C 2/M"
_symmetry_group_IT_number 12
_symmetry_cell_setting 'monoclinic'
loop_
_space_group_symop_operation_xyz
x,y,z
-x,y,-z
-x,-y,-z
x,-y,z
1/2+x,1/2+y,z
1/2-x,1/2+y,-z
1/2-x,1/2-y,-z
1/2+x,1/2-y,z
loop_
_atom_site_type_symbol
_atom_site_label
_atom_site_fract_x
_atom_site_fract_y
_atom_site_fract_z
Si Si1 0.000000 0.326504 0.000000
Si Si2 0.500000 0.174957 0.500000
Si Si3 0.886518 0.000000 0.811265
Si Si4 0.843648 0.500000 0.239119
Si Si5 0.519795 0.679499 0.268128
Si Si6 0.594403 0.500000 0.698131
Si Si7 0.663490 0.000000 0.103296
O O1 0.973383 0.256248 0.109832
O O2 0.106500 0.398095 0.120748
O O3 0.442217 0.250389 0.565239
O O4 0.404793 0.104244 0.348116
O O5 0.883445 0.104290 0.708385
O O6 0.781444 0.000000 0.818605
O O7 0.000000 0.000000 0.000000
O O8 0.845206 0.500000 0.072699
O O9 0.417324 0.604842 0.218601
O O10 0.500000 0.500000 0.500000
O O11 0.712849 0.500000 0.731402
#
# Coordination Sequence:
#
# PCOD8115491 Si02
#       7
#     4   4   4   4   8   4   4
#     4  11  24  45  68 102 128 173 228 271 332 390
#     4  11  24  45  68  98 134 175 222 271 340 386
#     4  11  24  43  66  99 133 171 227 274 323 395
#     4  11  24  44  70  97 133 177 219 276 331 396
#     4  11  23  45  66  97 139 172 220 273 329 397
#     4  11  25  46  66  98 134 176 220 270 330 394
#     4  11  25  43  70  97 136 171 224 276 328 394
#
# _framework density 21.739217
#
# number of rings (size 3 to 8) (size 9 to 14) (size 15 to 20)
#    0.000    1.000    5.000    1.500    0.000    4.000 
#    9.000    0.000    0.000    0.000    0.000    0.000 
#    0.000    0.000    0.000    0.000    0.000    0.000 
#
# Total GULP energy -198378.060661 kJ/mol
# GULP energy per Si atom -12398.628791 kJ/mol
# Density = 2.168974 g / cm^3
# Si number density = 21.739217 Si / 1000 Ang^3
#
#
#
# Elastic Constant Matrix: (Units=GPa)
#
#
# Indices 1 2 3 4 5 6 
#
# 1 130.4887 50.9066 39.3001 0.0000 15.3183 0.0000
# 2 50.9066 154.4396 47.7036 0.0000 -5.3479 0.0000
# 3 39.3001 47.7036 98.8818 0.0000 -3.1100 0.0000
# 4 0.0000 0.0000 0.0000 25.5473 0.0000 -9.3837
# 5 15.3183 -5.3479 -3.1100 0.0000 39.5983 0.0000
# 6 0.0000 0.0000 0.0000 -9.3837 0.0000 -28.3760
#
#
#
# Elastic Compliance Matrix: (Units=1/GPa)
#
#
# Indices 1 2 3 4 5 6 
#
# 1 0.010067 -0.002578 -0.002898 0.000000 -0.004470 0.000000
# 2 -0.002578 0.008291 -0.002916 0.000000 0.001888 0.000000
# 3 -0.002898 -0.002916 0.012726 0.000000 0.001727 0.000000
# 4 0.000000 0.000000 0.000000 0.034903 0.000000 -0.011542
# 5 -0.004470 0.001888 0.001727 0.000000 0.027373 0.000000
# 6 0.000000 0.000000 0.000000 -0.011542 0.000000 -0.031424
#
#
# Mechanical properties :
#
#
# Convention : Reuss Voigt Hill
#
# Bulk Modulus (GPa) = 69.92928 73.29230 71.61079
# Shear Modulus (GPa) = 59.89040 23.74724 41.81882
#
# Velocity S-wave (km/s) = 5.25445 3.30869 4.39071
# Velocity P-wave (km/s) = 8.30961 6.95586 7.66269
#
# Compressibility (1/GPa) = 0.01430016
#
# Stress axis : x y z
#
# Youngs Moduli (GPa) = 99.33730 120.61640 78.58050
#
# Poissons Ratio (x) = 0.31093 0.22772
# Poissons Ratio (y) = 0.25608 0.22912
# Poissons Ratio (z) = 0.28787 0.35169
#
# Static dielectric constant tensor:
#      x y z
#    x 3.929390 0.000000 -0.404650 
#    y 0.000000 4.403080 0.000000 
#    z -0.404650 0.000000 3.879600 
# 
# 
# High freq. dielectric constant tensor:
#      x y z
#    x 1.845070 0.000000 -0.031150 
#    y 0.000000 1.882480 0.000000 
#    z -0.031150 0.000000 1.841140 
# 
# From -- ./inp_files/58777.got.cif
#   From: 2010.06.25/outbox.cif.g09.slc.cpg/sg12_30_cif.got.tgz:58777.got - 2010.06.28 00:19:55.
