data_PCOD8115754
_publ_section_title
;
Structure prediction by ZEFSAII (Michael W. Deem and Ramdas Pophale) SiO2 
 PCOD8115754
Probable space group: C 2/M
;
_chemical_formula_sum "Si O2"
_cell_formula_units_Z 32
_cell_length_a 14.830118
_cell_length_b 23.048384
_cell_length_c 6.797675
_cell_angle_alpha 90.000000
_cell_angle_beta 40.031326
_cell_angle_gamma 90.000000
_cell_volume 1494.499598
_symmetry_space_group_name_H-M "C 2/M"
_symmetry_group_IT_number 12
_symmetry_cell_setting 'monoclinic'
loop_
_space_group_symop_operation_xyz
x,y,z
-x,y,-z
-x,-y,-z
x,-y,z
1/2+x,1/2+y,z
1/2-x,1/2+y,-z
1/2-x,1/2-y,-z
1/2+x,1/2-y,z
loop_
_atom_site_type_symbol
_atom_site_label
_atom_site_fract_x
_atom_site_fract_y
_atom_site_fract_z
Si Si1 0.339368 0.567602 0.313604
Si Si2 0.861803 0.857480 0.639515
Si Si3 0.856078 0.629668 0.662419
Si Si4 0.896778 0.743518 0.353122
O O1 0.322943 0.500000 0.383578
O O2 0.294593 0.602455 0.582619
O O3 0.235574 0.584489 0.310106
O O4 0.500000 0.584574 0.000000
O O5 0.921050 0.796648 0.460007
O O6 0.000000 0.888902 0.500000
O O7 0.739622 0.846837 0.000621
O O8 0.910174 0.683641 0.445572
O O9 0.000000 0.599244 0.500000
O O10 0.750000 0.750000 0.500000
O O11 0.000000 0.745868 0.000000
#
# Coordination Sequence:
#
# PCOD8115754 Si02
#       4
#     8   8   8   8
#     4  11  25  47  72  99 132 178 233 281 326 399
#     4  12  23  43  71 100 132 181 227 274 330 401
#     4  12  26  43  68 104 142 174 219 282 347 397
#     4  12  23  41  69  97 140 182 217 271 339 403
#
# _framework density 21.411850000000001
#
# number of rings (size 3 to 8) (size 9 to 14) (size 15 to 20)
#    0.000    0.250    5.000    5.250    0.000    2.000 
#    0.000    1.250    0.000    0.000    0.000    0.000 
#    0.000    0.000    0.000    0.000    0.000    0.000 
#
# Total GULP energy -198454.295185 kJ/mol
# GULP energy per Si atom -12403.393449 kJ/mol
# Density = 2.136312 g / cm^3
# Si number density = 21.411850 Si / 1000 Ang^3
#
#
#
# Elastic Constant Matrix: (Units=GPa)
#
#
# Indices 1 2 3 4 5 6 
#
# 1 163.3917 22.0669 39.2595 0.0000 -16.6766 0.0000
# 2 22.0669 65.5426 -4.5288 0.0000 -1.6687 0.0000
# 3 39.2595 -4.5288 125.9440 0.0000 -12.7072 0.0000
# 4 0.0000 0.0000 0.0000 14.4727 0.0000 -6.3852
# 5 -16.6766 -1.6687 -12.7072 0.0000 36.2855 0.0000
# 6 0.0000 0.0000 0.0000 -6.3852 0.0000 20.2604
#
#
#
# Elastic Compliance Matrix: (Units=1/GPa)
#
#
# Indices 1 2 3 4 5 6 
#
# 1 0.007213 -0.002510 -0.002090 0.000000 0.002468 0.000000
# 2 -0.002510 0.016199 0.001372 0.000000 0.000072 0.000000
# 3 -0.002090 0.001372 0.008863 0.000000 0.002207 0.000000
# 4 0.000000 0.000000 0.000000 0.080255 0.000000 0.025293
# 5 0.002468 0.000072 0.002207 0.000000 0.029470 0.000000
# 6 0.000000 0.000000 0.000000 0.025293 0.000000 0.057329
#
#
# Mechanical properties :
#
#
# Convention : Reuss Voigt Hill
#
# Bulk Modulus (GPa) = 38.72920 52.05261 45.39091
# Shear Modulus (GPa) = 23.32187 34.07576 28.69881
#
# Velocity S-wave (km/s) = 3.30389 3.99362 3.66502
# Velocity P-wave (km/s) = 5.71675 6.75487 6.25738
#
# Compressibility (1/GPa) = 0.02582031
#
# Stress axis : x y z
#
# Youngs Moduli (GPa) = 138.63305 61.73214 112.82281
#
# Poissons Ratio (x) = 0.15496 0.23578
# Poissons Ratio (y) = 0.34799 -0.15482
# Poissons Ratio (z) = 0.28972 -0.08471
#
# Static dielectric constant tensor:
#      x y z
#    x 4.315950 0.000000 0.136610 
#    y 0.000000 3.460660 0.000000 
#    z 0.136610 0.000000 3.875250 
# 
# 
# High freq. dielectric constant tensor:
#      x y z
#    x 1.867460 0.000000 0.005440 
#    y 0.000000 1.820100 0.000000 
#    z 0.005440 0.000000 1.851310 
# 
# From -- ./inp_files/3818.got.cif
#   From: 2010.06.25/outbox.cif.g09.slc.cpg/sg12_2_cif.got.tgz:3818.got - 2010.06.28 00:19:55.
