data_PCOD8115457
_publ_section_title
;
Structure prediction by ZEFSAII (Michael W. Deem and Ramdas Pophale) SiO2 
 PCOD8115457
Probable space group: C 2/M
;
_chemical_formula_sum "Si O2"
_cell_formula_units_Z 56
_cell_length_a 13.976204
_cell_length_b 25.133124
_cell_length_c 8.281355
_cell_angle_alpha 90.000000
_cell_angle_beta 111.952869
_cell_angle_gamma 90.000000
_cell_volume 2698.032233
_symmetry_space_group_name_H-M "C 2/M"
_symmetry_group_IT_number 12
_symmetry_cell_setting 'monoclinic'
loop_
_space_group_symop_operation_xyz
x,y,z
-x,y,-z
-x,-y,-z
x,-y,z
1/2+x,1/2+y,z
1/2-x,1/2+y,-z
1/2-x,1/2-y,-z
1/2+x,1/2-y,z
loop_
_atom_site_type_symbol
_atom_site_label
_atom_site_fract_x
_atom_site_fract_y
_atom_site_fract_z
Si Si1 0.589435 0.351622 0.428651
Si Si2 0.798089 0.129158 0.009307
Si Si3 0.700865 0.169821 0.254208
Si Si4 0.985456 0.061284 0.181591
Si Si5 0.347614 0.939275 0.283843
Si Si6 0.048492 0.611147 0.376890
Si Si7 0.105531 0.221275 0.137318
O O1 0.500000 0.339980 0.500000
O O2 0.701543 0.345246 0.576330
O O3 0.576978 0.410640 0.341226
O O4 0.576078 0.308463 0.281590
O O5 0.748483 0.095560 0.834062
O O6 0.848239 0.181638 0.966529
O O7 0.710997 0.145003 0.083199
O O8 0.880968 0.093102 0.158087
O O9 0.596567 0.147449 0.269589
O O10 0.688705 0.233134 0.228935
O O11 0.978500 0.000000 0.230912
O O12 0.000000 0.067518 0.000000
O O13 0.365843 0.928035 0.486919
O O14 0.452533 0.924387 0.249404
O O15 0.317442 0.000000 0.234824
O O16 0.000000 0.645421 0.500000
O O17 0.000000 0.246354 0.000000
#
# Coordination Sequence:
#
# PCOD8115457 Si02
#       7
#     8   8   8   8   8   8   8
#     4  12  23  46  66  98 138 165 218 277 320 400
#     4  12  22  43  66  98 134 167 223 274 325 397
#     4  12  26  41  67  98 131 174 220 271 329 387
#     4  11  23  43  71  96 131 178 217 269 339 392
#     4   9  20  41  68  90 130 173 214 264 331 390
#     4   8  21  41  64  92 133 167 221 268 319 386
#     4  12  25  44  68  93 131 179 218 269 336 387
#
# _framework density 20.755866999999999
#
# number of rings (size 3 to 8) (size 9 to 14) (size 15 to 20)
#    0.857    0.143    4.286    3.000    2.000    0.857 
#    0.000    4.286    0.000    0.000    0.000    0.000 
#    0.000    0.000    0.000    0.000    0.000    0.000 
#
# Total GULP energy -347059.292252 kJ/mol
# GULP energy per Si atom -12394.974723 kJ/mol
# Density = 2.070863 g / cm^3
# Si number density = 20.755867 Si / 1000 Ang^3
#
#
#
# Elastic Constant Matrix: (Units=GPa)
#
#
# Indices 1 2 3 4 5 6 
#
# 1 82.3671 46.8505 26.2656 0.0000 -10.5415 0.0000
# 2 46.8505 145.9243 42.3035 0.0000 5.7099 0.0000
# 3 26.2656 42.3035 72.2013 0.0000 5.5996 0.0000
# 4 0.0000 0.0000 0.0000 19.6109 0.0000 9.2274
# 5 -10.5415 5.7099 5.5996 0.0000 48.5247 0.0000
# 6 0.0000 0.0000 0.0000 9.2274 0.0000 21.9441
#
#
#
# Elastic Compliance Matrix: (Units=1/GPa)
#
#
# Indices 1 2 3 4 5 6 
#
# 1 0.016391 -0.004347 -0.003765 0.000000 0.004507 0.000000
# 2 -0.004347 0.009416 -0.003811 0.000000 -0.001613 0.000000
# 3 -0.003765 -0.003811 0.017639 0.000000 -0.002405 0.000000
# 4 0.000000 0.000000 0.000000 0.063569 0.000000 -0.026731
# 5 0.004507 -0.001613 -0.002405 0.000000 0.022054 0.000000
# 6 0.000000 0.000000 0.000000 -0.026731 0.000000 0.056810
#
#
# Mechanical properties :
#
#
# Convention : Reuss Voigt Hill
#
# Bulk Modulus (GPa) = 51.01965 59.03688 55.02827
# Shear Modulus (GPa) = 23.12030 30.35415 26.73723
#
# Velocity S-wave (km/s) = 3.34116 3.82833 3.59301
# Velocity P-wave (km/s) = 6.28639 6.93157 6.61685
#
# Compressibility (1/GPa) = 0.01960029
#
# Stress axis : x y z
#
# Youngs Moduli (GPa) = 61.00928 106.19736 56.69235
#
# Poissons Ratio (x) = 0.46167 0.21345
# Poissons Ratio (y) = 0.26523 0.21603
# Poissons Ratio (z) = 0.22971 0.40468
#
# Static dielectric constant tensor:
#      x y z
#    x 3.785300 0.000000 0.072110 
#    y 0.000000 3.603140 0.000000 
#    z 0.072110 0.000000 3.778410 
# 
# 
# High freq. dielectric constant tensor:
#      x y z
#    x 1.814580 0.000000 0.008890 
#    y 0.000000 1.799060 0.000000 
#    z 0.008890 0.000000 1.813460 
# 
# From -- ./inp_files/65467.got.cif
#   From: 2010.06.25/outbox.cif.g09.slc.cpg/sg12_33_cif.got.tgz:65467.got - 2010.06.28 00:19:55.
