data_PCOD8115650
_publ_section_title
;
Structure prediction by ZEFSAII (Michael W. Deem and Ramdas Pophale) SiO2 
 PCOD8115650
Probable space group: C 2/M
;
_chemical_formula_sum "Si O2"
_cell_formula_units_Z 48
_cell_length_a 9.914953
_cell_length_b 21.666881
_cell_length_c 12.071467
_cell_angle_alpha 90.000000
_cell_angle_beta 114.222735
_cell_angle_gamma 90.000000
_cell_volume 2364.948320
_symmetry_space_group_name_H-M "C 2/M"
_symmetry_group_IT_number 12
_symmetry_cell_setting 'monoclinic'
loop_
_space_group_symop_operation_xyz
x,y,z
-x,y,-z
-x,-y,-z
x,-y,z
1/2+x,1/2+y,z
1/2-x,1/2+y,-z
1/2-x,1/2-y,-z
1/2+x,1/2-y,z
loop_
_atom_site_type_symbol
_atom_site_label
_atom_site_fract_x
_atom_site_fract_y
_atom_site_fract_z
Si Si1 0.620622 0.872818 0.766942
Si Si2 0.771301 0.000000 0.858942
Si Si3 0.592552 0.500000 0.861736
Si Si4 0.826700 0.192051 0.665343
Si Si5 0.864486 0.128148 0.237362
Si Si6 0.198124 0.664878 0.387941
Si Si7 0.651616 0.193869 0.003177
O O1 0.723782 0.826547 0.732726
O O2 0.454991 0.872665 0.662757
O O3 0.617549 0.851644 0.891783
O O4 0.682501 0.941631 0.783569
O O5 0.931495 0.000000 0.859445
O O6 0.787189 0.000000 0.998101
O O7 0.610611 0.557937 0.787783
O O8 0.832044 0.265645 0.662327
O O9 0.761963 0.162403 0.532476
O O10 0.991519 0.168332 0.741311
O O11 0.820557 0.132425 0.351694
O O12 0.727985 0.154319 0.123434
O O13 0.500000 0.221623 0.000000
O O14 0.750000 0.250000 0.000000
#
# Coordination Sequence:
#
# PCOD8115650 Si02
#       7
#     8   4   4   8   8   8   8
#     4  12  24  43  68  99 134 178 231 276 334 408
#     4  11  24  45  66  94 137 190 229 276 343 410
#     4  11  24  45  66  94 137 190 229 276 343 410
#     4  11  24  44  71  96 140 180 220 273 346 413
#     4  12  24  43  68  99 134 178 231 276 334 408
#     4  11  24  44  67 104 136 176 220 283 346 399
#     4  12  26  41  66 105 141 172 218 286 351 407
#
# _framework density 20.296426
#
# number of rings (size 3 to 8) (size 9 to 14) (size 15 to 20)
#    0.000    0.500    5.000    4.000    2.333    3.333 
#    0.000    6.667    0.000    0.000    0.000    0.000 
#    0.000    0.000    0.000    0.000    0.000    0.000 
#
# Total GULP energy -297776.712952 kJ/mol
# GULP energy per Si atom -12407.363040 kJ/mol
# Density = 2.025023 g / cm^3
# Si number density = 20.296426 Si / 1000 Ang^3
#
#
#
# Elastic Constant Matrix: (Units=GPa)
#
#
# Indices 1 2 3 4 5 6 
#
# 1 94.4839 20.3392 14.5422 0.0000 0.2459 0.0000
# 2 20.3392 105.1438 23.9646 0.0000 2.9378 0.0000
# 3 14.5422 23.9646 84.6041 0.0000 2.4011 0.0000
# 4 0.0000 0.0000 0.0000 60.4585 0.0000 1.4070
# 5 0.2459 2.9378 2.4011 0.0000 27.3440 0.0000
# 6 0.0000 0.0000 0.0000 1.4070 0.0000 37.2364
#
#
#
# Elastic Compliance Matrix: (Units=1/GPa)
#
#
# Indices 1 2 3 4 5 6 
#
# 1 0.011198 -0.001852 -0.001407 0.000000 0.000222 0.000000
# 2 -0.001852 0.010493 -0.002629 0.000000 -0.000880 0.000000
# 3 -0.001407 -0.002629 0.012830 0.000000 -0.000832 0.000000
# 4 0.000000 0.000000 0.000000 0.016555 0.000000 -0.000626
# 5 0.000222 -0.000880 -0.000832 0.000000 0.036737 0.000000
# 6 0.000000 0.000000 0.000000 -0.000626 0.000000 0.026879
#
#
# Mechanical properties :
#
#
# Convention : Reuss Voigt Hill
#
# Bulk Modulus (GPa) = 43.96314 44.65821 44.31067
# Shear Modulus (GPa) = 37.30002 40.03349 38.66675
#
# Velocity S-wave (km/s) = 4.29156 4.44603 4.36948
# Velocity P-wave (km/s) = 6.80178 6.95752 6.88009
#
# Compressibility (1/GPa) = 0.02274633
#
# Stress axis : x y z
#
# Youngs Moduli (GPa) = 89.29876 95.30378 77.94369
#
# Poissons Ratio (x) = 0.17649 0.10963
# Poissons Ratio (y) = 0.16537 0.20490
# Poissons Ratio (z) = 0.12561 0.25054
#
# Static dielectric constant tensor:
#      x y z
#    x 3.834080 0.000000 -0.005880 
#    y 0.000000 3.573110 0.000000 
#    z -0.005880 0.000000 3.914060 
# 
# 
# High freq. dielectric constant tensor:
#      x y z
#    x 1.810970 0.000000 -0.000510 
#    y 0.000000 1.786380 0.000000 
#    z -0.000510 0.000000 1.805540 
# 
# From -- ./inp_files/122596.got.cif
#   From: 2010.06.25/outbox.cif.g09.slc.cpg/sg12_62_cif.got.tgz:122596.got - 2010.06.28 00:19:55.
