data_PCOD8115487
_publ_section_title
;
Structure prediction by ZEFSAII (Michael W. Deem and Ramdas Pophale) SiO2 
 PCOD8115487
Probable space group: C 2/M
;
_chemical_formula_sum "Si O2"
_cell_formula_units_Z 44
_cell_length_a 11.181235
_cell_length_b 23.425408
_cell_length_c 11.763420
_cell_angle_alpha 90.000000
_cell_angle_beta 38.999628
_cell_angle_gamma 90.000000
_cell_volume 1939.004710
_symmetry_space_group_name_H-M "C 2/M"
_symmetry_group_IT_number 12
_symmetry_cell_setting 'monoclinic'
loop_
_space_group_symop_operation_xyz
x,y,z
-x,y,-z
-x,-y,-z
x,-y,z
1/2+x,1/2+y,z
1/2-x,1/2+y,-z
1/2-x,1/2-y,-z
1/2+x,1/2-y,z
loop_
_atom_site_type_symbol
_atom_site_label
_atom_site_fract_x
_atom_site_fract_y
_atom_site_fract_z
Si Si1 0.934333 0.000000 0.233886
Si Si2 0.281793 0.685101 0.177403
Si Si3 0.384516 0.306313 0.694187
Si Si4 0.030536 0.609126 0.225731
Si Si5 0.000000 0.369548 0.000000
Si Si6 0.335368 0.625246 0.371324
Si Si7 0.196571 0.500000 0.185436
O O1 0.904737 0.058832 0.326470
O O2 0.785754 0.000000 0.242551
O O3 0.147575 0.000000 0.029115
O O4 0.137386 0.738061 0.291015
O O5 0.209732 0.650314 0.120216
O O6 0.263128 0.643329 0.299851
O O7 0.500000 0.703982 0.000000
O O8 0.500000 0.327477 0.500000
O O9 0.494547 0.331152 0.722485
O O10 0.174297 0.329462 0.843485
O O11 0.033213 0.593481 0.089390
O O12 0.055248 0.552498 0.279943
O O13 0.832530 0.636139 0.413962
#
# Coordination Sequence:
#
# PCOD8115487 Si02
#       7
#     4   8   8   8   4   8   4
#     4  11  23  45  75 109 140 183 242 302 360 422
#     4  12  26  44  73 109 144 190 243 302 362 426
#     4  12  26  47  73 106 149 193 242 296 362 437
#     4  12  26  45  72 107 146 190 239 299 364 430
#     4  12  26  47  70 102 150 195 238 290 364 440
#     4  12  26  46  75 110 144 188 245 302 362 427
#     4  11  23  44  74 106 141 184 239 300 361 426
#
# _framework density 22.692053000000001
#
# number of rings (size 3 to 8) (size 9 to 14) (size 15 to 20)
#    0.000    0.182    4.545    5.455    2.545    4.000 
#    0.000    1.364    0.000    0.000    0.000    0.000 
#    0.000    0.000    0.000    0.000    0.000    0.000 
#
# Total GULP energy -272818.855095 kJ/mol
# GULP energy per Si atom -12400.857050 kJ/mol
# Density = 2.264040 g / cm^3
# Si number density = 22.692053 Si / 1000 Ang^3
#
#
#
# Elastic Constant Matrix: (Units=GPa)
#
#
# Indices 1 2 3 4 5 6 
#
# 1 117.2379 41.4405 42.2591 0.0000 -3.9073 0.0000
# 2 41.4405 119.9138 13.7641 0.0000 -11.5668 0.0000
# 3 42.2591 13.7641 107.7152 0.0000 0.2455 0.0000
# 4 0.0000 0.0000 0.0000 32.0269 0.0000 -7.9313
# 5 -3.9073 -11.5668 0.2455 0.0000 37.5338 0.0000
# 6 0.0000 0.0000 0.0000 -7.9313 0.0000 24.8691
#
#
#
# Elastic Compliance Matrix: (Units=1/GPa)
#
#
# Indices 1 2 3 4 5 6 
#
# 1 0.011153 -0.003388 -0.003943 0.000000 0.000143 0.000000
# 2 -0.003388 0.009757 0.000076 0.000000 0.002654 0.000000
# 3 -0.003943 0.000076 0.010822 0.000000 -0.000458 0.000000
# 4 0.000000 0.000000 0.000000 0.033901 0.000000 0.010812
# 5 0.000143 0.002654 -0.000458 0.000000 0.027478 0.000000
# 6 0.000000 0.000000 0.000000 0.010812 0.000000 0.043659
#
#
# Mechanical properties :
#
#
# Convention : Reuss Voigt Hill
#
# Bulk Modulus (GPa) = 58.06156 59.97714 59.01935
# Shear Modulus (GPa) = 31.84274 35.37952 33.61113
#
# Velocity S-wave (km/s) = 3.75007 3.95285 3.85279
# Velocity P-wave (km/s) = 6.66281 6.87907 6.77180
#
# Compressibility (1/GPa) = 0.01722310
#
# Stress axis : x y z
#
# Youngs Moduli (GPa) = 89.65946 102.48633 92.40445
#
# Poissons Ratio (x) = 0.34723 0.36436
# Poissons Ratio (y) = 0.30377 -0.00705
# Poissons Ratio (z) = 0.35353 -0.00782
#
# Static dielectric constant tensor:
#      x y z
#    x 4.168990 0.000000 -0.060430 
#    y 0.000000 4.001290 0.000000 
#    z -0.060430 0.000000 4.088640 
# 
# 
# High freq. dielectric constant tensor:
#      x y z
#    x 1.898360 0.000000 -0.011710 
#    y 0.000000 1.887060 0.000000 
#    z -0.011710 0.000000 1.907740 
# 
# From -- ./inp_files/135799.got.cif
#   From: 2010.06.25/outbox.cif.g09.slc.cpg/sg12_68_cif.got.tgz:135799.got - 2010.06.28 00:19:55.
