data_PCOD8115825
_publ_section_title
;
Structure prediction by ZEFSAII (Michael W. Deem and Ramdas Pophale) SiO2 
 PCOD8115825
Probable space group: C 2/M
;
_chemical_formula_sum "Si O2"
_cell_formula_units_Z 56
_cell_length_a 14.240075
_cell_length_b 24.090030
_cell_length_c 9.813542
_cell_angle_alpha 90.000000
_cell_angle_beta 60.348460
_cell_angle_gamma 90.000000
_cell_volume 2925.636023
_symmetry_space_group_name_H-M "C 2/M"
_symmetry_group_IT_number 12
_symmetry_cell_setting 'monoclinic'
loop_
_space_group_symop_operation_xyz
x,y,z
-x,y,-z
-x,-y,-z
x,-y,z
1/2+x,1/2+y,z
1/2-x,1/2+y,-z
1/2-x,1/2-y,-z
1/2+x,1/2-y,z
loop_
_atom_site_type_symbol
_atom_site_label
_atom_site_fract_x
_atom_site_fract_y
_atom_site_fract_z
Si Si1 0.584727 0.825806 0.183060
Si Si2 0.124405 0.614882 0.685877
Si Si3 0.707783 0.112705 0.321475
Si Si4 0.957273 0.215247 0.677345
Si Si5 0.295740 0.208022 0.176552
Si Si6 0.899658 0.500000 0.674901
Si Si7 0.911319 0.820923 0.178151
Si Si8 0.553242 0.000000 0.814335
O O1 0.503666 0.875085 0.204277
O O2 0.667803 0.843014 0.239490
O O3 0.510237 0.776970 0.298160
O O4 0.640325 0.804385 0.006702
O O5 0.155350 0.622423 0.506308
O O6 0.194425 0.656980 0.725710
O O7 0.135007 0.551774 0.730936
O O8 0.835636 0.124472 0.235714
O O9 0.679639 0.051702 0.289678
O O10 0.828199 0.211778 0.778349
O O11 0.000000 0.200365 0.500000
O O12 0.021327 0.174463 0.730804
O O13 0.340430 0.264494 0.212690
O O14 0.000000 0.500000 0.500000
O O15 0.950544 0.500000 0.787426
O O16 0.000000 0.826088 0.000000
O O17 0.500000 0.000000 0.000000
#
# Coordination Sequence:
#
# PCOD8115825 Si02
#       8
#     8   8   8   8   8   4   8   4
#     4  12  21  36  60  91 125 163 206 250 314 376
#     4  12  23  39  62  94 128 160 207 258 317 380
#     4  12  24  39  66  93 124 167 204 262 323 367
#     4  12  24  38  57  87 127 163 210 259 303 378
#     4  12  24  40  60  89 128 175 207 254 322 375
#     4  12  22  46  67  97 126 155 207 266 314 369
#     4  12  24  42  61  90 129 169 213 256 310 380
#     4  12  24  40  64  95 131 159 199 260 318 369
#
# _framework density 19.141137000000001
#
# number of rings (size 3 to 8) (size 9 to 14) (size 15 to 20)
#    0.000    0.000    7.143    4.714    0.000    1.143 
#    0.000    0.357    0.000    0.857    0.000    3.000 
#    0.000    0.000    0.000    0.000    0.000    0.000 
#
# Total GULP energy -347187.741343 kJ/mol
# GULP energy per Si atom -12399.562191 kJ/mol
# Density = 1.909757 g / cm^3
# Si number density = 19.141137 Si / 1000 Ang^3
#
#
#
# Elastic Constant Matrix: (Units=GPa)
#
#
# Indices 1 2 3 4 5 6 
#
# 1 114.4391 43.0871 40.7750 0.0000 0.3090 0.0000
# 2 43.0871 95.4544 31.6346 0.0000 -0.4859 0.0000
# 3 40.7750 31.6346 88.0270 0.0000 22.9225 0.0000
# 4 0.0000 0.0000 0.0000 16.5863 0.0000 -4.8838
# 5 0.3090 -0.4859 22.9225 0.0000 37.8798 0.0000
# 6 0.0000 0.0000 0.0000 -4.8838 0.0000 32.4171
#
#
#
# Elastic Compliance Matrix: (Units=1/GPa)
#
#
# Indices 1 2 3 4 5 6 
#
# 1 0.011878 -0.003724 -0.004898 0.000000 0.002819 0.000000
# 2 -0.003724 0.013407 -0.003734 0.000000 0.002462 0.000000
# 3 -0.004898 -0.003734 0.017774 0.000000 -0.010764 0.000000
# 4 0.000000 0.000000 0.000000 0.063089 0.000000 0.009505
# 5 0.002819 0.002462 -0.010764 0.000000 0.032921 0.000000
# 6 0.000000 0.000000 0.000000 0.009505 0.000000 0.032280
#
#
# Mechanical properties :
#
#
# Convention : Reuss Voigt Hill
#
# Bulk Modulus (GPa) = 54.50604 58.76822 56.63713
# Shear Modulus (GPa) = 24.73076 29.53822 27.13449
#
# Velocity S-wave (km/s) = 3.59837 3.93259 3.76919
# Velocity P-wave (km/s) = 6.76772 7.16866 6.97107
#
# Compressibility (1/GPa) = 0.01834659
#
# Stress axis : x y z
#
# Youngs Moduli (GPa) = 84.19017 74.58599 56.26277
#
# Poissons Ratio (x) = 0.27776 0.27556
# Poissons Ratio (y) = 0.31353 0.21011
# Poissons Ratio (z) = 0.41234 0.27853
#
# Static dielectric constant tensor:
#      x y z
#    x 3.305700 0.000000 0.178540 
#    y 0.000000 3.683830 0.000000 
#    z 0.178540 0.000000 3.581510 
# 
# 
# High freq. dielectric constant tensor:
#      x y z
#    x 1.748410 0.000000 0.017350 
#    y 0.000000 1.733520 0.000000 
#    z 0.017350 0.000000 1.755650 
# 
# From -- ./inp_files/65801.got.cif
#   From: 2010.06.25/outbox.cif.g09.slc.cpg/sg12_33_cif.got.tgz:65801.got - 2010.06.28 00:19:55.
