data_PCOD8115320
_publ_section_title
;
Structure prediction by ZEFSAII (Michael W. Deem and Ramdas Pophale) SiO2 
 PCOD8115320
Probable space group: C 2/M
;
_chemical_formula_sum "Si O2"
_cell_formula_units_Z 56
_cell_length_a 14.184840
_cell_length_b 26.493778
_cell_length_c 7.702078
_cell_angle_alpha 90.000000
_cell_angle_beta 57.093852
_cell_angle_gamma 90.000000
_cell_volume 2430.126049
_symmetry_space_group_name_H-M "C 2/M"
_symmetry_group_IT_number 12
_symmetry_cell_setting 'monoclinic'
loop_
_space_group_symop_operation_xyz
x,y,z
-x,y,-z
-x,-y,-z
x,-y,z
1/2+x,1/2+y,z
1/2-x,1/2+y,-z
1/2-x,1/2-y,-z
1/2+x,1/2-y,z
loop_
_atom_site_type_symbol
_atom_site_label
_atom_site_fract_x
_atom_site_fract_y
_atom_site_fract_z
Si Si1 0.511333 0.943435 0.189477
Si Si2 0.799792 0.304774 0.632866
Si Si3 0.771947 0.594894 0.496231
Si Si4 0.060142 0.000000 0.209166
Si Si5 0.679378 0.855991 0.037832
Si Si6 0.172007 0.000000 0.756918
Si Si7 0.115987 0.279156 0.812617
Si Si8 0.384131 0.603039 0.674216
O O1 0.406143 0.909235 0.351319
O O2 0.620964 0.910288 0.125092
O O3 0.517806 0.000000 0.270309
O O4 0.500000 0.953527 0.000000
O O5 0.733571 0.353358 0.626687
O O6 0.852038 0.319617 0.767843
O O7 0.889689 0.290067 0.390324
O O8 0.716134 0.258998 0.751707
O O9 0.740505 0.549435 0.649577
O O10 0.707913 0.591777 0.379592
O O11 0.070032 0.049466 0.312715
O O12 0.942677 0.000000 0.231755
O O13 0.160254 0.000000 0.973673
O O14 0.637863 0.830753 0.898515
O O15 0.815305 0.865123 0.888712
O O16 0.000000 0.255563 0.000000
O O17 0.500000 0.632408 0.500000
#
# Coordination Sequence:
#
# PCOD8115320 Si02
#       8
#     8   8   8   4   8   4   8   8
#     4  11  23  40  70 105 144 197 239 294 359 435
#     4  11  26  47  74 105 145 189 241 304 372 437
#     4  12  22  44  67 101 142 184 239 298 362 437
#     4  11  24  39  59  95 135 203 235 297 351 430
#     4  12  25  47  73 106 146 189 246 299 376 443
#     4  11  23  42  63  95 146 183 251 291 359 434
#     4  11  25  50  77 105 141 188 244 311 376 438
#     4  12  24  40  67  97 141 189 244 295 358 434
#
# _framework density 23.044073999999998
#
# number of rings (size 3 to 8) (size 9 to 14) (size 15 to 20)
#    0.000    0.571    5.000    3.214    1.000    3.429 
#    3.857    0.714    0.000    0.000    0.000    0.000 
#    0.000    0.000    0.000    0.000    0.000    0.000 
#
# Total GULP energy -347055.492171 kJ/mol
# GULP energy per Si atom -12394.839006 kJ/mol
# Density = 2.299162 g / cm^3
# Si number density = 23.044074 Si / 1000 Ang^3
#
#
#
# Elastic Constant Matrix: (Units=GPa)
#
#
# Indices 1 2 3 4 5 6 
#
# 1 65.4664 18.5403 54.5103 0.0000 -10.2242 0.0000
# 2 18.5403 98.7357 32.7922 0.0000 -5.7243 0.0000
# 3 54.5103 32.7922 151.4839 0.0000 -7.9669 0.0000
# 4 0.0000 0.0000 0.0000 19.0820 0.0000 -28.8486
# 5 -10.2242 -5.7243 -7.9669 0.0000 38.4040 0.0000
# 6 0.0000 0.0000 0.0000 -28.8486 0.0000 4.9671
#
#
#
# Elastic Compliance Matrix: (Units=1/GPa)
#
#
# Indices 1 2 3 4 5 6 
#
# 1 0.022709 -0.001485 -0.007627 0.000000 0.004242 0.000000
# 2 -0.001485 0.011060 -0.001814 0.000000 0.000877 0.000000
# 3 -0.007627 -0.001814 0.009724 0.000000 -0.000284 0.000000
# 4 0.000000 0.000000 0.000000 -0.006735 0.000000 -0.039119
# 5 0.004242 0.000877 -0.000284 0.000000 0.027240 0.000000
# 6 0.000000 0.000000 0.000000 -0.039119 0.000000 -0.025875
#
#
# Mechanical properties :
#
#
# Convention : Reuss Voigt Hill
#
# Bulk Modulus (GPa) = 46.20901 58.59684 52.40292
# Shear Modulus (GPa) = 74.41939 26.48018 50.44979
#
# Velocity S-wave (km/s) = 5.68898 3.39353 4.68404
# Velocity P-wave (km/s) = 7.95290 6.39047 7.21411
#
# Compressibility (1/GPa) = 0.02164080
#
# Stress axis : x y z
#
# Youngs Moduli (GPa) = 44.03605 90.41490 102.84313
#
# Poissons Ratio (x) = 0.13428 0.78438
# Poissons Ratio (y) = 0.06540 0.18652
# Poissons Ratio (z) = 0.33586 0.16398
#
# Static dielectric constant tensor:
#      x y z
#    x 3.938150 0.000000 -0.114220 
#    y 0.000000 4.151980 0.000000 
#    z -0.114220 0.000000 4.887980 
# 
# 
# High freq. dielectric constant tensor:
#      x y z
#    x 1.889610 0.000000 0.001530 
#    y 0.000000 1.911430 0.000000 
#    z 0.001530 0.000000 1.933150 
# 
# From -- ./inp_files/68160.got.cif
#   From: 2010.06.25/outbox.cif.g09.slc.cpg/sg12_35_cif.got.tgz:68160.got - 2010.06.28 00:19:55.
