data_PCOD8115813
_publ_section_title
;
Structure prediction by ZEFSAII (Michael W. Deem and Ramdas Pophale) SiO2 
 PCOD8115813
Probable space group: C 2/M
;
_chemical_formula_sum "Si O2"
_cell_formula_units_Z 48
_cell_length_a 9.042133
_cell_length_b 20.816710
_cell_length_c 12.559132
_cell_angle_alpha 90.000000
_cell_angle_beta 109.531003
_cell_angle_gamma 90.000000
_cell_volume 2227.952208
_symmetry_space_group_name_H-M "C 2/M"
_symmetry_group_IT_number 12
_symmetry_cell_setting 'monoclinic'
loop_
_space_group_symop_operation_xyz
x,y,z
-x,y,-z
-x,-y,-z
x,-y,z
1/2+x,1/2+y,z
1/2-x,1/2+y,-z
1/2-x,1/2-y,-z
1/2+x,1/2-y,z
loop_
_atom_site_type_symbol
_atom_site_label
_atom_site_fract_x
_atom_site_fract_y
_atom_site_fract_z
Si Si1 0.992569 0.571782 0.654483
Si Si2 0.827663 0.272912 0.751364
Si Si3 0.993085 0.809331 0.618574
Si Si4 0.036747 0.618518 0.892500
Si Si5 0.739452 0.423402 0.432535
Si Si6 0.818720 0.194740 0.941886
O O1 0.991319 0.500000 0.612775
O O2 0.153253 0.599223 0.642284
O O3 0.987665 0.574121 0.781351
O O4 0.833763 0.599835 0.562416
O O5 0.902035 0.247469 0.659358
O O6 0.672553 0.315935 0.700174
O O7 0.951549 0.313252 0.852157
O O8 0.785139 0.211198 0.811033
O O9 0.917313 0.880353 0.610945
O O10 0.000000 0.784506 0.500000
O O11 0.223857 0.629240 0.940357
O O12 0.000000 0.588261 0.000000
O O13 0.694947 0.500000 0.421114
O O14 0.750000 0.250000 0.000000
O O15 0.000000 0.179411 0.000000
#
# Coordination Sequence:
#
# PCOD8115813 Si02
#       6
#     8   8   8   8   8   8
#     4   9  20  41  69  95 120 163 212 265 321 373
#     4  12  23  39  58  88 134 172 204 255 316 379
#     4  12  25  39  58  94 132 168 210 261 320 373
#     4  12  23  38  63  93 128 165 213 256 315 381
#     4   9  20  43  71  93 122 166 218 264 315 377
#     4  12  20  38  59  84 117 162 214 251 298 372
#
# _framework density 21.544447000000002
#
# number of rings (size 3 to 8) (size 9 to 14) (size 15 to 20)
#    0.000    1.000    5.000    3.500    0.000    0.667 
#    0.000    0.833    0.000    0.500    0.000    0.000 
#    0.000    0.000    0.000    0.000    0.000    0.000 
#
# Total GULP energy -297407.000646 kJ/mol
# GULP energy per Si atom -12391.958360 kJ/mol
# Density = 2.149541 g / cm^3
# Si number density = 21.544447 Si / 1000 Ang^3
#
#
#
# Elastic Constant Matrix: (Units=GPa)
#
#
# Indices 1 2 3 4 5 6 
#
# 1 136.2368 40.3521 59.0458 0.0000 9.3259 0.0000
# 2 40.3521 49.8876 24.2770 0.0000 5.8381 0.0000
# 3 59.0458 24.2770 147.6755 0.0000 -18.3606 0.0000
# 4 0.0000 0.0000 0.0000 30.0383 0.0000 0.1038
# 5 9.3259 5.8381 -18.3606 0.0000 46.9560 0.0000
# 6 0.0000 0.0000 0.0000 0.1038 0.0000 29.3372
#
#
#
# Elastic Compliance Matrix: (Units=1/GPa)
#
#
# Indices 1 2 3 4 5 6 
#
# 1 0.011176 -0.006923 -0.003678 0.000000 -0.002797 0.000000
# 2 -0.006923 0.026943 -0.002004 0.000000 -0.002759 0.000000
# 3 -0.003678 -0.002004 0.009138 0.000000 0.004553 0.000000
# 4 0.000000 0.000000 0.000000 0.033291 0.000000 -0.000118
# 5 -0.002797 -0.002759 0.004553 0.000000 0.023975 0.000000
# 6 0.000000 0.000000 0.000000 -0.000118 0.000000 0.034087
#
#
# Mechanical properties :
#
#
# Convention : Reuss Voigt Hill
#
# Bulk Modulus (GPa) = 45.35932 64.57220 54.96576
# Shear Modulus (GPa) = 29.21074 35.27464 32.24269
#
# Velocity S-wave (km/s) = 3.68616 4.05074 3.87274
# Velocity P-wave (km/s) = 6.26232 7.20519 6.75023
#
# Compressibility (1/GPa) = 0.02204619
#
# Stress axis : x y z
#
# Youngs Moduli (GPa) = 89.47480 37.11574 109.43405
#
# Poissons Ratio (x) = 0.25694 0.40255
# Poissons Ratio (y) = 0.61941 0.21934
# Poissons Ratio (z) = 0.32913 0.07439
#
# Static dielectric constant tensor:
#      x y z
#    x 4.291460 0.000000 -0.003580 
#    y 0.000000 3.423990 0.000000 
#    z -0.003580 0.000000 4.036100 
# 
# 
# High freq. dielectric constant tensor:
#      x y z
#    x 1.859480 0.000000 -0.007420 
#    y 0.000000 1.806380 0.000000 
#    z -0.007420 0.000000 1.857430 
# 
# From -- ./inp_files/121820.got.cif
#   From: 2010.06.25/outbox.cif.g09.slc.cpg/sg12_61_cif.got.tgz:121820.got - 2010.06.28 00:19:55.
