data_PCOD8115528
_publ_section_title
;
Structure prediction by ZEFSAII (Michael W. Deem and Ramdas Pophale) SiO2 
 PCOD8115528
Probable space group: C 2/M
;
_chemical_formula_sum "Si O2"
_cell_formula_units_Z 24
_cell_length_a 22.532011
_cell_length_b 7.462433
_cell_length_c 10.146831
_cell_angle_alpha 90.000000
_cell_angle_beta 50.733244
_cell_angle_gamma 90.000000
_cell_volume 1320.894843
_symmetry_space_group_name_H-M "C 2/M"
_symmetry_group_IT_number 12
_symmetry_cell_setting 'monoclinic'
loop_
_space_group_symop_operation_xyz
x,y,z
-x,y,-z
-x,-y,-z
x,-y,z
1/2+x,1/2+y,z
1/2-x,1/2+y,-z
1/2-x,1/2-y,-z
1/2+x,1/2-y,z
loop_
_atom_site_type_symbol
_atom_site_label
_atom_site_fract_x
_atom_site_fract_y
_atom_site_fract_z
Si Si1 0.285348 0.706949 0.090500
Si Si2 0.812117 0.795451 0.522530
Si Si3 0.097542 0.500000 0.001617
Si Si4 0.421249 0.000000 0.281014
O O1 0.308497 0.500000 0.071088
O O2 0.221989 0.759676 0.286256
O O3 0.362033 0.821661 0.001955
O O4 0.250000 0.750000 0.000000
O O5 0.750000 0.750000 0.500000
O O6 0.887474 0.676259 0.397476
O O7 0.838118 0.000000 0.472434
O O8 0.102039 0.500000 0.838371
O O9 0.011664 0.500000 0.176270
#
# Coordination Sequence:
#
# PCOD8115528 Si02
#       4
#     8   8   4   4
#     4  12  22  39  65  91 121 163 208 250 301 369
#     4  12  20  37  63  91 118 164 212 245 295 369
#     4  11  24  41  59  99 130 155 202 262 315 347
#     4  11  24  39  63  95 132 156 199 266 307 356
#
# _framework density 18.169501
#
# number of rings (size 3 to 8) (size 9 to 14) (size 15 to 20)
#    0.000    0.333   10.000    0.000    0.000    1.333 
#    0.000    6.667    0.000    4.000    0.000    0.000 
#    0.000    0.000    0.000    0.000    0.000    0.000 
#
# Total GULP energy -148869.480537 kJ/mol
# GULP energy per Si atom -12405.790045 kJ/mol
# Density = 1.812815 g / cm^3
# Si number density = 18.169501 Si / 1000 Ang^3
#
#
#
# Elastic Constant Matrix: (Units=GPa)
#
#
# Indices 1 2 3 4 5 6 
#
# 1 111.5680 61.4503 75.5604 0.0000 -8.5490 0.0000
# 2 61.4503 211.1476 64.6891 0.0000 -22.2546 0.0000
# 3 75.5604 64.6891 140.7844 0.0000 -5.5807 0.0000
# 4 0.0000 0.0000 0.0000 34.5519 0.0000 -6.0680
# 5 -8.5490 -22.2546 -5.5807 0.0000 35.6279 0.0000
# 6 0.0000 0.0000 0.0000 -6.0680 0.0000 24.7396
#
#
#
# Elastic Compliance Matrix: (Units=1/GPa)
#
#
# Indices 1 2 3 4 5 6 
#
# 1 0.014956 -0.002074 -0.007027 0.000000 0.001192 0.000000
# 2 -0.002074 0.006154 -0.001592 0.000000 0.003097 0.000000
# 3 -0.007027 -0.001592 0.011571 0.000000 -0.000868 0.000000
# 4 0.000000 0.000000 0.000000 0.030245 0.000000 0.007418
# 5 0.001192 0.003097 -0.000868 0.000000 0.030153 0.000000
# 6 0.000000 0.000000 0.000000 0.007418 0.000000 0.042241
#
#
# Mechanical properties :
#
#
# Convention : Reuss Voigt Hill
#
# Bulk Modulus (GPa) = 88.52679 96.32216 92.42447
# Shear Modulus (GPa) = 31.15879 36.43722 33.79800
#
# Velocity S-wave (km/s) = 4.14562 4.48303 4.31763
# Velocity P-wave (km/s) = 8.47015 8.94008 8.70828
#
# Compressibility (1/GPa) = 0.01129602
#
# Stress axis : x y z
#
# Youngs Moduli (GPa) = 66.86395 162.50443 86.42145
#
# Poissons Ratio (x) = 0.33706 0.60725
# Poissons Ratio (y) = 0.13869 0.13755
# Poissons Ratio (z) = 0.46982 0.25864
#
# Static dielectric constant tensor:
#      x y z
#    x 3.247900 0.000000 0.083740 
#    y 0.000000 4.206940 0.000000 
#    z 0.083740 0.000000 3.642080 
# 
# 
# High freq. dielectric constant tensor:
#      x y z
#    x 1.688970 0.000000 0.011970 
#    y 0.000000 1.727820 0.000000 
#    z 0.011970 0.000000 1.712800 
# 
# From -- ./inp_files/55372.got.cif
#   From: 2010.06.25/outbox.cif.g09.slc.cpg/sg12_28_cif.got.tgz:55372.got - 2010.06.28 00:19:55.
