data_PCOD8115977
_publ_section_title
;
Structure prediction by ZEFSAII (Michael W. Deem and Ramdas Pophale) SiO2 
 PCOD8115977
Probable space group: C 2/M
;
_chemical_formula_sum "Si O2"
_cell_formula_units_Z 64
_cell_length_a 27.569903
_cell_length_b 9.248441
_cell_length_c 18.394727
_cell_angle_alpha 90.000000
_cell_angle_beta 111.425488
_cell_angle_gamma 90.000000
_cell_volume 4366.134100
_symmetry_space_group_name_H-M "C 2/M"
_symmetry_group_IT_number 12
_symmetry_cell_setting 'monoclinic'
loop_
_space_group_symop_operation_xyz
x,y,z
-x,y,-z
-x,-y,-z
x,-y,z
1/2+x,1/2+y,z
1/2-x,1/2+y,-z
1/2-x,1/2-y,-z
1/2+x,1/2-y,z
loop_
_atom_site_type_symbol
_atom_site_label
_atom_site_fract_x
_atom_site_fract_y
_atom_site_fract_z
Si Si1 0.262393 0.168521 0.615116
Si Si2 0.634452 0.668753 0.776096
Si Si3 0.173387 0.336509 0.928489
Si Si4 0.434491 0.671688 0.532948
Si Si5 0.712577 0.336624 0.077326
Si Si6 0.951077 0.171539 0.381219
Si Si7 0.829161 0.830402 0.543613
Si Si8 0.746133 0.667670 0.771070
O O1 0.209687 0.207722 0.543500
O O2 0.311252 0.252447 0.607499
O O3 0.255271 0.219013 0.693893
O O4 0.274641 0.000000 0.616761
O O5 0.628540 0.500000 0.791833
O O6 0.634892 0.756653 0.851494
O O7 0.586007 0.730666 0.702866
O O8 0.686180 0.697170 0.757641
O O9 0.153867 0.500000 0.930672
O O10 0.231099 0.335839 0.928235
O O11 0.172483 0.250950 0.004307
O O12 0.430457 0.500000 0.526735
O O13 0.432643 0.732779 0.449457
O O14 0.488968 0.718420 0.600642
O O15 0.385922 0.731803 0.552642
O O16 0.692068 0.500000 0.075819
O O17 0.715356 0.259764 0.157035
O O18 0.946183 0.000000 0.380617
O O19 0.830728 0.000000 0.560145
O O20 0.759889 0.500000 0.789770
#
# Coordination Sequence:
#
# PCOD8115977 Si02
#       8
#     8   8   8   8   8   8   8   8
#     4   9  17  27  38  54  76 102 131 160 191 227
#     4   9  15  23  37  56  76  99 128 160 190 220
#     4   9  16  25  36  51  74 103 129 152 183 223
#     4   8  13  22  37  57  78  99 126 161 197 227
#     4   9  16  25  37  53  73  98 128 158 186 219
#     4   8  13  21  36  58  79  98 125 161 195 226
#     4   9  16  26  40  56  75 100 130 163 194 223
#     4   9  16  25  37  53  75 102 129 157 189 225
#
# _framework density 14.658277
#
# number of rings (size 3 to 8) (size 9 to 14) (size 15 to 20)
#    0.000    3.250    0.000    2.250    0.000    6.500 
#    0.000    0.000    0.000    3.000    0.000    1.750 
#    0.000    1.000    0.000   11.500    0.000    3.375 
#
# Total GULP energy -396672.370316 kJ/mol
# GULP energy per Si atom -12396.011572 kJ/mol
# Density = 1.462491 g / cm^3
# Si number density = 14.658277 Si / 1000 Ang^3
#
#
#
# Elastic Constant Matrix: (Units=GPa)
#
#
# Indices 1 2 3 4 5 6 
#
# 1 78.9090 27.0972 47.0202 0.0000 1.3290 0.0000
# 2 27.0972 56.8526 51.7970 0.0000 0.3334 0.0000
# 3 47.0202 51.7970 132.5541 0.0000 5.9814 0.0000
# 4 0.0000 0.0000 0.0000 22.9669 0.0000 -2.9876
# 5 1.3290 0.3334 5.9814 0.0000 19.2914 0.0000
# 6 0.0000 0.0000 0.0000 -2.9876 0.0000 12.7252
#
#
#
# Elastic Compliance Matrix: (Units=1/GPa)
#
#
# Indices 1 2 3 4 5 6 
#
# 1 0.016626 -0.003946 -0.004368 0.000000 0.000277 0.000000
# 2 -0.003946 0.028408 -0.009829 0.000000 0.002828 0.000000
# 3 -0.004368 -0.009829 0.013096 0.000000 -0.003590 0.000000
# 4 0.000000 0.000000 0.000000 0.044912 0.000000 0.010544
# 5 0.000277 0.002828 -0.003590 0.000000 0.052882 0.000000
# 6 0.000000 0.000000 0.000000 0.010544 0.000000 0.081060
#
#
# Mechanical properties :
#
#
# Convention : Reuss Voigt Hill
#
# Bulk Modulus (GPa) = 45.77815 57.79384 51.78600
# Shear Modulus (GPa) = 17.82198 20.49012 19.15605
#
# Velocity S-wave (km/s) = 3.49066 3.74284 3.61895
# Velocity P-wave (km/s) = 6.89524 7.62834 7.27103
#
# Compressibility (1/GPa) = 0.02184448
#
# Stress axis : x y z
#
# Youngs Moduli (GPa) = 60.14596 35.20100 76.35801
#
# Poissons Ratio (x) = 0.13892 0.33354
# Poissons Ratio (y) = 0.23736 0.75049
# Poissons Ratio (z) = 0.26273 0.34598
#
# Static dielectric constant tensor:
#      x y z
#    x 2.685610 0.000000 0.053950 
#    y 0.000000 2.709790 0.000000 
#    z 0.053950 0.000000 2.966090 
# 
# 
# High freq. dielectric constant tensor:
#      x y z
#    x 1.518170 0.000000 0.003140 
#    y 0.000000 1.542790 0.000000 
#    z 0.003140 0.000000 1.561750 
# 
# From -- ./inp_files/294581.got.cif
#   From: 2010.06.25/outbox.cif.g09.slc.cpg/sg12_148_cif.got.tgz:294581.got - 2010.06.28 00:19:55.
