data_PCOD8115332
_publ_section_title
;
Structure prediction by ZEFSAII (Michael W. Deem and Ramdas Pophale) SiO2 
 PCOD8115332
Probable space group: C 2/M
;
_chemical_formula_sum "Si O2"
_cell_formula_units_Z 56
_cell_length_a 9.339906
_cell_length_b 22.606198
_cell_length_c 14.015691
_cell_angle_alpha 90.000000
_cell_angle_beta 68.891610
_cell_angle_gamma 90.000000
_cell_volume 2760.705093
_symmetry_space_group_name_H-M "C 2/M"
_symmetry_group_IT_number 12
_symmetry_cell_setting 'monoclinic'
loop_
_space_group_symop_operation_xyz
x,y,z
-x,y,-z
-x,-y,-z
x,-y,z
1/2+x,1/2+y,z
1/2-x,1/2+y,-z
1/2-x,1/2-y,-z
1/2+x,1/2-y,z
loop_
_atom_site_type_symbol
_atom_site_label
_atom_site_fract_x
_atom_site_fract_y
_atom_site_fract_z
Si Si1 0.015845 0.433713 0.607751
Si Si2 0.479702 0.814720 0.898920
Si Si3 0.005386 0.931071 0.385655
Si Si4 0.367544 0.689888 0.100708
Si Si5 0.730389 0.630823 0.691378
Si Si6 0.794859 0.637798 0.302381
Si Si7 0.663959 0.750617 0.423711
O O1 0.067229 0.500000 0.622723
O O2 0.142865 0.388097 0.613134
O O3 0.000000 0.424731 0.500000
O O4 0.850953 0.419539 0.693832
O O5 0.572753 0.753246 0.877277
O O6 0.300621 0.805949 0.910627
O O7 0.565729 0.859311 0.806488
O O8 0.500000 0.842236 0.000000
O O9 0.162926 0.907535 0.300466
O O10 0.000000 0.919007 0.500000
O O11 0.871272 0.893503 0.370022
O O12 0.984144 0.000000 0.367113
O O13 0.366529 0.646962 0.191954
O O14 0.500000 0.663580 0.000000
O O15 0.828759 0.687223 0.632515
O O16 0.725540 0.702545 0.334274
O O17 0.500000 0.732224 0.500000
O O18 0.750000 0.750000 0.500000
#
# Coordination Sequence:
#
# PCOD8115332 Si02
#       7
#     8   8   8   8   8   8   8
#     4  11  23  41  64  90 125 172 223 264 306 380
#     4  11  24  42  66  97 132 169 215 265 329 400
#     4  11  25  43  64  94 132 181 228 266 311 380
#     4  11  24  42  67  97 130 170 216 265 329 401
#     4  12  23  40  66  93 131 169 217 267 328 385
#     4  12  23  40  65  94 131 172 213 265 328 389
#     4  12  24  36  57  92 135 166 199 254 328 388
#
# _framework density 20.284673000000002
#
# number of rings (size 3 to 8) (size 9 to 14) (size 15 to 20)
#    0.000    0.571    2.857    7.714    4.000    2.286 
#    0.000    0.000    0.000    5.143    0.000    0.000 
#    0.000    0.000    0.000    0.000    0.000    0.000 
#
# Total GULP energy -347117.525910 kJ/mol
# GULP energy per Si atom -12397.054497 kJ/mol
# Density = 2.023850 g / cm^3
# Si number density = 20.284673 Si / 1000 Ang^3
#
#
#
# Elastic Constant Matrix: (Units=GPa)
#
#
# Indices 1 2 3 4 5 6 
#
# 1 131.5858 38.8264 26.1565 0.0000 -11.4522 0.0000
# 2 38.8264 92.8689 43.6660 0.0000 0.3810 0.0000
# 3 26.1565 43.6660 105.1507 0.0000 -11.7798 0.0000
# 4 0.0000 0.0000 0.0000 10.4796 0.0000 5.1551
# 5 -11.4522 0.3810 -11.7798 0.0000 36.4762 0.0000
# 6 0.0000 0.0000 0.0000 5.1551 0.0000 12.9958
#
#
#
# Elastic Compliance Matrix: (Units=1/GPa)
#
#
# Indices 1 2 3 4 5 6 
#
# 1 0.008973 -0.003548 -0.000455 0.000000 0.002707 0.000000
# 2 -0.003548 0.014927 -0.005663 0.000000 -0.003099 0.000000
# 3 -0.000455 -0.005663 0.012415 0.000000 0.003926 0.000000
# 4 0.000000 0.000000 0.000000 0.118559 0.000000 -0.047030
# 5 0.002707 -0.003099 0.003926 0.000000 0.029565 0.000000
# 6 0.000000 0.000000 0.000000 -0.047030 0.000000 0.095604
#
#
# Mechanical properties :
#
#
# Convention : Reuss Voigt Hill
#
# Bulk Modulus (GPa) = 58.88928 60.76701 59.82815
# Shear Modulus (GPa) = 16.39150 26.72073 21.55612
#
# Velocity S-wave (km/s) = 2.84575 3.63338 3.26341
# Velocity P-wave (km/s) = 6.31602 6.90102 6.61499
#
# Compressibility (1/GPa) = 0.01698102
#
# Stress axis : x y z
#
# Youngs Moduli (GPa) = 111.44916 66.99336 80.54832
#
# Poissons Ratio (x) = 0.23772 0.03666
# Poissons Ratio (y) = 0.39546 0.45616
# Poissons Ratio (z) = 0.05073 0.37940
#
# Static dielectric constant tensor:
#      x y z
#    x 3.958320 0.000000 -0.129790 
#    y 0.000000 4.040350 0.000000 
#    z -0.129790 0.000000 3.804730 
# 
# 
# High freq. dielectric constant tensor:
#      x y z
#    x 1.813460 0.000000 -0.009520 
#    y 0.000000 1.778990 0.000000 
#    z -0.009520 0.000000 1.787650 
# 
# From -- ./inp_files/198793.got.cif
#   From: 2010.06.25/outbox.cif.g09.slc.cpg/sg12_100_cif.got.tgz:198793.got - 2010.06.28 00:19:55.
