data_PCOD8115907
_publ_section_title
;
Structure prediction by ZEFSAII (Michael W. Deem and Ramdas Pophale) SiO2 
 PCOD8115907
Probable space group: C 2/M
;
_chemical_formula_sum "Si O2"
_cell_formula_units_Z 52
_cell_length_a 8.713899
_cell_length_b 27.094671
_cell_length_c 14.990980
_cell_angle_alpha 90.000000
_cell_angle_beta 44.387984
_cell_angle_gamma 90.000000
_cell_volume 2475.839690
_symmetry_space_group_name_H-M "C 2/M"
_symmetry_group_IT_number 12
_symmetry_cell_setting 'monoclinic'
loop_
_space_group_symop_operation_xyz
x,y,z
-x,y,-z
-x,-y,-z
x,-y,z
1/2+x,1/2+y,z
1/2-x,1/2+y,-z
1/2-x,1/2-y,-z
1/2+x,1/2-y,z
loop_
_atom_site_type_symbol
_atom_site_label
_atom_site_fract_x
_atom_site_fract_y
_atom_site_fract_z
Si Si1 0.500000 0.773928 0.000000
Si Si2 0.424118 0.556551 0.892170
Si Si3 0.134207 0.852041 0.198581
Si Si4 0.146615 0.443910 0.183697
Si Si5 0.166807 0.781774 0.769811
Si Si6 0.844918 0.285165 0.385283
Si Si7 0.706442 0.618528 0.370713
O O1 0.705091 0.810646 0.908237
O O2 0.494478 0.737138 0.916764
O O3 0.415300 0.500000 0.860916
O O4 0.335530 0.593062 0.853218
O O5 0.673432 0.570701 0.816253
O O6 0.259938 0.563586 0.041924
O O7 0.155796 0.858614 0.294869
O O8 0.904539 0.829562 0.258931
O O9 0.074794 0.500000 0.227678
O O10 0.927432 0.412501 0.279134
O O11 0.214506 0.736685 0.685336
O O12 0.395590 0.794399 0.721054
O O13 0.750000 0.250000 0.500000
O O14 0.730501 0.338199 0.434324
O O15 0.500000 0.588252 0.500000
#
# Coordination Sequence:
#
# PCOD8115907 Si02
#       7
#     4   8   8   8   8   8   8
#     4  12  24  40  59  94 135 156 214 264 332 386
#     4   9  20  41  70  99 128 165 213 264 329 397
#     4  12  24  40  63  94 129 168 209 267 325 385
#     4   9  20  42  68  97 129 166 211 266 326 388
#     4  12  24  40  61  88 125 166 211 266 320 375
#     4  12  24  43  63  85 121 172 222 262 308 376
#     4  12  25  42  62  92 128 171 222 264 321 384
#
# _framework density 21.002974999999999
#
# number of rings (size 3 to 8) (size 9 to 14) (size 15 to 20)
#    0.000    0.923    3.077    5.538    0.000    2.154 
#    0.000    4.231    0.000    1.846    0.000    0.000 
#    0.000    0.000    0.000    0.000    0.000    0.000 
#
# Total GULP energy -322223.691907 kJ/mol
# GULP energy per Si atom -12393.218919 kJ/mol
# Density = 2.095517 g / cm^3
# Si number density = 21.002975 Si / 1000 Ang^3
#
#
#
# Elastic Constant Matrix: (Units=GPa)
#
#
# Indices 1 2 3 4 5 6 
#
# 1 86.1987 51.7288 48.2183 0.0000 0.7662 0.0000
# 2 51.7288 99.7692 45.2756 0.0000 -2.6623 0.0000
# 3 48.2183 45.2756 115.3344 0.0000 -4.6304 0.0000
# 4 0.0000 0.0000 0.0000 32.2218 0.0000 -3.2678
# 5 0.7662 -2.6623 -4.6304 0.0000 30.4109 0.0000
# 6 0.0000 0.0000 0.0000 -3.2678 0.0000 44.6421
#
#
#
# Elastic Compliance Matrix: (Units=1/GPa)
#
#
# Indices 1 2 3 4 5 6 
#
# 1 0.019007 -0.007623 -0.005031 0.000000 -0.001912 0.000000
# 2 -0.007623 0.015256 -0.002758 0.000000 0.001108 0.000000
# 3 -0.005031 -0.002758 0.011924 0.000000 0.001701 0.000000
# 4 0.000000 0.000000 0.000000 0.031267 0.000000 0.002289
# 5 -0.001912 0.001108 0.001701 0.000000 0.033287 0.000000
# 6 0.000000 0.000000 0.000000 0.002289 0.000000 0.022568
#
#
# Mechanical properties :
#
#
# Convention : Reuss Voigt Hill
#
# Bulk Modulus (GPa) = 65.08111 65.74973 65.41542
# Shear Modulus (GPa) = 29.54149 31.86026 30.70087
#
# Velocity S-wave (km/s) = 3.75445 3.89902 3.82742
# Velocity P-wave (km/s) = 7.06034 7.18629 7.12359
#
# Compressibility (1/GPa) = 0.01536544
#
# Stress axis : x y z
#
# Youngs Moduli (GPa) = 52.61316 65.54601 83.86144
#
# Poissons Ratio (x) = 0.49964 0.42187
# Poissons Ratio (y) = 0.40106 0.23126
# Poissons Ratio (z) = 0.26467 0.18076
#
# Static dielectric constant tensor:
#      x y z
#    x 5.834680 0.000000 2.873480 
#    y 0.000000 3.840280 0.000000 
#    z 2.873480 0.000000 8.789010 
# 
# 
# High freq. dielectric constant tensor:
#      x y z
#    x 1.834250 0.000000 -0.009110 
#    y 0.000000 1.819710 0.000000 
#    z -0.009110 0.000000 1.818420 
# 
# From -- ./inp_files/201192.got.cif
#   From: 2010.06.25/outbox.cif.g09.slc.cpg/sg12_101_cif.got.tgz:201192.got - 2010.06.28 00:19:55.
