data_PCOD8115779
_publ_section_title
;
Structure prediction by ZEFSAII (Michael W. Deem and Ramdas Pophale) SiO2 
 PCOD8115779
Probable space group: C 2/M
;
_chemical_formula_sum "Si O2"
_cell_formula_units_Z 28
_cell_length_a 8.004991
_cell_length_b 21.994822
_cell_length_c 9.374892
_cell_angle_alpha 90.000000
_cell_angle_beta 135.579569
_cell_angle_gamma 90.000000
_cell_volume 1155.300012
_symmetry_space_group_name_H-M "C 2/M"
_symmetry_group_IT_number 12
_symmetry_cell_setting 'monoclinic'
loop_
_space_group_symop_operation_xyz
x,y,z
-x,y,-z
-x,-y,-z
x,-y,z
1/2+x,1/2+y,z
1/2-x,1/2+y,-z
1/2-x,1/2-y,-z
1/2+x,1/2-y,z
loop_
_atom_site_type_symbol
_atom_site_label
_atom_site_fract_x
_atom_site_fract_y
_atom_site_fract_z
Si Si1 0.622986 0.660843 0.208346
Si Si2 0.517350 0.225264 0.275677
Si Si3 0.500000 0.139028 0.000000
Si Si4 0.472225 0.569720 0.316246
O O1 0.424391 0.711290 0.144642
O O2 0.854763 0.697727 0.300734
O O3 0.678245 0.610230 0.362978
O O4 0.500000 0.627082 0.000000
O O5 0.750000 0.250000 0.500000
O O6 0.572427 0.177392 0.184091
O O7 0.721684 0.094295 0.103206
O O8 0.500000 0.578863 0.500000
O O9 0.505192 0.500000 0.292203
#
# Coordination Sequence:
#
# PCOD8115779 Si02
#       4
#     8   8   4   8
#     4  12  23  46  69 104 150 193 239 298 367 439
#     4  12  25  42  73 109 149 192 241 303 375 447
#     4  12  23  48  74 108 151 196 246 308 378 434
#     4  11  26  48  75 106 146 199 255 306 363 435
#
# _framework density 24.236128999999998
#
# number of rings (size 3 to 8) (size 9 to 14) (size 15 to 20)
#    0.000    0.286    4.286    5.571    0.000    0.571 
#    0.000    0.000    0.000    6.857    0.000    0.000 
#    0.000    0.000    0.000    0.000    0.000    0.000 
#
# Total GULP energy -173527.318866 kJ/mol
# GULP energy per Si atom -12394.808490 kJ/mol
# Density = 2.418097 g / cm^3
# Si number density = 24.236129 Si / 1000 Ang^3
#
#
#
# Elastic Constant Matrix: (Units=GPa)
#
#
# Indices 1 2 3 4 5 6 
#
# 1 138.3231 96.7047 47.4443 0.0000 -28.9748 0.0000
# 2 96.7047 197.4865 65.1015 0.0000 -36.2388 0.0000
# 3 47.4443 65.1015 110.4415 0.0000 -22.2397 0.0000
# 4 0.0000 0.0000 0.0000 44.9173 0.0000 -14.6308
# 5 -28.9748 -36.2388 -22.2397 0.0000 36.6292 0.0000
# 6 0.0000 0.0000 0.0000 -14.6308 0.0000 32.2845
#
#
#
# Elastic Compliance Matrix: (Units=1/GPa)
#
#
# Indices 1 2 3 4 5 6 
#
# 1 0.011743 -0.004514 -0.001609 0.000000 0.003846 0.000000
# 2 -0.004514 0.008754 -0.002502 0.000000 0.003571 0.000000
# 3 -0.001609 -0.002502 0.011924 0.000000 0.003491 0.000000
# 4 0.000000 0.000000 0.000000 0.026119 0.000000 0.011837
# 5 0.003846 0.003571 0.003491 0.000000 0.035996 0.000000
# 6 0.000000 0.000000 0.000000 0.011837 0.000000 0.036339
#
#
# Mechanical properties :
#
#
# Convention : Reuss Voigt Hill
#
# Bulk Modulus (GPa) = 65.91856 96.08357 81.00107
# Shear Modulus (GPa) = 32.64113 38.56625 35.60369
#
# Velocity S-wave (km/s) = 3.67385 3.99340 3.83696
# Velocity P-wave (km/s) = 6.72709 7.80986 7.28861
#
# Compressibility (1/GPa) = 0.01517023
#
# Stress axis : x y z
#
# Youngs Moduli (GPa) = 85.15797 114.23232 83.86594
#
# Poissons Ratio (x) = 0.51564 0.13496
# Poissons Ratio (y) = 0.38440 0.20983
# Poissons Ratio (z) = 0.13704 0.28581
#
# Static dielectric constant tensor:
#      x y z
#    x 4.680700 0.000000 -0.472420 
#    y 0.000000 4.508530 0.000000 
#    z -0.472420 0.000000 4.879210 
# 
# 
# High freq. dielectric constant tensor:
#      x y z
#    x 1.963280 0.000000 -0.018520 
#    y 0.000000 1.949640 0.000000 
#    z -0.018520 0.000000 1.988940 
# 
# From -- ./inp_files/49096.got.cif
#   From: 2010.06.25/outbox.cif.g09.slc.cpg/sg12_25_cif.got.tgz:49096.got - 2010.06.28 00:19:55.
