data_PCOD8115983
_publ_section_title
;
Structure prediction by ZEFSAII (Michael W. Deem and Ramdas Pophale) SiO2 
 PCOD8115983
Probable space group: C 2/M
;
_chemical_formula_sum "Si O2"
_cell_formula_units_Z 64
_cell_length_a 28.568165
_cell_length_b 21.209155
_cell_length_c 7.577020
_cell_angle_alpha 90.000000
_cell_angle_beta 90.000000
_cell_angle_gamma 90.000000
_cell_volume 4590.966726
_symmetry_space_group_name_H-M "C 2/M"
_symmetry_group_IT_number 12
_symmetry_cell_setting 'monoclinic'
loop_
_space_group_symop_operation_xyz
x,y,z
-x,y,-z
-x,-y,-z
x,-y,z
1/2+x,1/2+y,z
1/2-x,1/2+y,-z
1/2-x,1/2-y,-z
1/2+x,1/2-y,z
loop_
_atom_site_type_symbol
_atom_site_label
_atom_site_fract_x
_atom_site_fract_y
_atom_site_fract_z
Si Si1 0.675199 0.231811 0.000001
Si Si2 0.637483 0.152032 0.703447
Si Si3 0.948042 0.570148 0.709123
Si Si4 0.770011 0.427035 0.299968
Si Si5 0.770011 0.572965 0.700031
Si Si6 0.731728 0.650590 1.000000
Si Si7 0.551958 0.929852 0.709124
Si Si8 0.862517 0.347967 0.703445
O O1 0.723932 0.195752 0.000001
O O2 0.646735 0.213468 0.176812
O O3 0.646736 0.213468 0.823191
O O4 0.684685 0.306978 1.000000
O O5 0.678453 0.101095 0.727053
O O6 0.590317 0.119550 0.778044
O O7 0.633042 0.173962 0.500001
O O8 0.938188 0.500000 0.785255
O O9 0.944468 0.566881 0.500000
O O10 0.909683 0.619551 0.778043
O O11 1.000000 0.592514 0.767958
O O12 0.772841 0.500000 0.248669
O O13 0.752681 0.417154 0.500000
O O14 0.732451 0.392803 0.174431
O O15 0.772841 0.500000 0.751329
O O16 0.732451 0.607196 0.825569
O O17 0.821547 0.601096 0.727052
O O18 0.561812 0.000000 0.785255
#
# Coordination Sequence:
#
# PCOD8115983 Si02
#       8
#     8   8   8   8   8   8   8   8
#     4   9  18  28  37  51  68  92 126 155 183 218
#     4   9  16  26  39  53  72  97 124 155 185 213
#     4   8  13  22  37  55  74  97 124 155 191 222
#     4   9  16  25  39  57  73  92 119 150 186 223
#     4   9  16  25  39  57  73  92 119 150 186 223
#     4   9  17  28  38  50  71  93 117 154 189 216
#     4   8  13  22  37  55  74  97 124 155 191 222
#     4   9  16  26  39  53  72  97 124 155 185 213
#
# _framework density 13.94042
#
# number of rings (size 3 to 8) (size 9 to 14) (size 15 to 20)
#    0.000    3.250    0.000    1.875    0.000    4.000 
#    0.000    7.500    0.000    1.500    0.000    0.000 
#    0.000    0.000    0.000    0.000    0.000   10.000 
#
# Total GULP energy -396621.305754 kJ/mol
# GULP energy per Si atom -12394.415805 kJ/mol
# Density = 1.390869 g / cm^3
# Si number density = 13.940420 Si / 1000 Ang^3
#
#
#
# Elastic Constant Matrix: (Units=GPa)
#
#
# Indices 1 2 3 4 5 6 
#
# 1 65.3329 47.0923 34.9413 0.0000 0.0001 0.0000
# 2 47.0923 71.5916 45.0905 0.0000 0.0000 0.0000
# 3 34.9413 45.0905 77.8485 0.0000 0.0002 0.0000
# 4 0.0000 0.0000 0.0000 19.2148 0.0000 0.0000
# 5 0.0001 0.0000 0.0002 0.0000 9.1269 0.0000
# 6 0.0000 0.0000 0.0000 0.0000 0.0000 25.9738
#
#
#
# Elastic Compliance Matrix: (Units=1/GPa)
#
#
# Indices 1 2 3 4 5 6 
#
# 1 0.029593 -0.017475 -0.003160 0.000000 0.000000 0.000000
# 2 -0.017475 0.032310 -0.010871 0.000000 0.000001 0.000000
# 3 -0.003160 -0.010871 0.020560 0.000000 0.000000 0.000000
# 4 0.000000 0.000000 0.000000 0.052043 0.000000 0.000000
# 5 0.000000 0.000001 0.000000 0.000000 0.109566 0.000000
# 6 0.000000 0.000000 0.000000 0.000000 0.000000 0.038500
#
#
# Mechanical properties :
#
#
# Convention : Reuss Voigt Hill
#
# Bulk Modulus (GPa) = 51.41328 52.11348 51.76338
# Shear Modulus (GPa) = 14.20178 16.70637 15.45407
#
# Velocity S-wave (km/s) = 3.19525 3.46556 3.33315
# Velocity P-wave (km/s) = 7.11151 7.31284 7.21288
#
# Compressibility (1/GPa) = 0.01945023
#
# Stress axis : x y z
#
# Youngs Moduli (GPa) = 33.79190 30.95027 48.63734
#
# Poissons Ratio (x) = 0.54087 0.15372
# Poissons Ratio (y) = 0.59053 0.52872
# Poissons Ratio (z) = 0.10680 0.33645
#
# Static dielectric constant tensor:
#      x y z
#    x 2.698940 0.000000 0.000000 
#    y 0.000000 2.709340 0.000000 
#    z 0.000000 0.000000 2.821360 
# 
# 
# High freq. dielectric constant tensor:
#      x y z
#    x 1.495210 0.000000 0.000000 
#    y 0.000000 1.500760 0.000000 
#    z 0.000000 0.000000 1.540830 
# 
# From -- ./inp_files/105375.got.cif
#   From: 2010.06.25/outbox.cif.g09.slc.cpg/sg12_53_cif.got.tgz:105375.got - 2010.06.28 00:19:55.
