data_PCOD8115955
_publ_section_title
;
Structure prediction by ZEFSAII (Michael W. Deem and Ramdas Pophale) SiO2 
 PCOD8115955
Probable space group: C 2/M
;
_chemical_formula_sum "Si O2"
_cell_formula_units_Z 64
_cell_length_a 30.358900
_cell_length_b 9.599004
_cell_length_c 15.363077
_cell_angle_alpha 90.000000
_cell_angle_beta 78.327242
_cell_angle_gamma 90.000000
_cell_volume 4384.445178
_symmetry_space_group_name_H-M "C 2/M"
_symmetry_group_IT_number 12
_symmetry_cell_setting 'monoclinic'
loop_
_space_group_symop_operation_xyz
x,y,z
-x,y,-z
-x,-y,-z
x,-y,z
1/2+x,1/2+y,z
1/2-x,1/2+y,-z
1/2-x,1/2-y,-z
1/2+x,1/2-y,z
loop_
_atom_site_type_symbol
_atom_site_label
_atom_site_fract_x
_atom_site_fract_y
_atom_site_fract_z
Si Si1 0.123152 0.165779 0.239407
Si Si2 0.896833 0.834191 0.076559
Si Si3 0.557460 0.333864 0.116164
Si Si4 0.458888 0.333889 0.204055
Si Si5 0.714751 0.339468 0.125284
Si Si6 0.298476 0.339524 0.071918
Si Si7 0.033388 0.165671 0.607643
Si Si8 0.563260 0.334444 0.414939
O O1 0.089819 0.225085 0.178859
O O2 0.174126 0.216464 0.202402
O O3 0.105728 0.219430 0.341047
O O4 0.122402 0.000000 0.234074
O O5 0.919840 0.777501 0.155807
O O6 0.845221 0.783465 0.093408
O O7 0.897643 0.000000 0.072367
O O8 0.924823 0.775978 0.983186
O O9 0.557882 0.500000 0.116947
O O10 0.507059 0.277859 0.151747
O O11 0.459370 0.500000 0.202859
O O12 0.449309 0.277592 0.305980
O O13 0.726231 0.500000 0.139612
O O14 0.758567 0.249662 0.130339
O O15 0.699170 0.318535 0.032424
O O16 0.289916 0.500000 0.099257
O O17 0.065404 0.217634 0.514930
O O18 0.982713 0.219651 0.611195
O O19 0.032846 0.000000 0.610025
O O20 0.562696 0.500000 0.413858
#
# Coordination Sequence:
#
# PCOD8115955 Si02
#       8
#     8   8   8   8   8   8   8   8
#     4   9  13  19  31  46  65  90 115 140 172 209
#     4   9  15  21  29  43  65  93 119 142 170 206
#     4   9  13  18  26  41  65  91 116 137 163 205
#     4   9  14  18  26  41  64  93 119 139 165 207
#     4   9  16  25  38  53  70  92 121 152 180 213
#     4   9  16  26  37  51  72  95 118 149 185 214
#     4   8  12  17  24  38  60  89 119 140 162 204
#     4   8  12  17  26  39  60  89 117 140 167 204
#
# _framework density 14.597058000000001
#
# number of rings (size 3 to 8) (size 9 to 14) (size 15 to 20)
#    0.000    3.250    2.500    1.125    0.000    1.500 
#    0.000    0.000    0.000    0.000    0.000    0.875 
#    0.000    3.000    0.000    2.250    0.000    3.625 
#
# Total GULP energy -396483.418200 kJ/mol
# GULP energy per Si atom -12390.106819 kJ/mol
# Density = 1.456383 g / cm^3
# Si number density = 14.597058 Si / 1000 Ang^3
#
#
#
# Elastic Constant Matrix: (Units=GPa)
#
#
# Indices 1 2 3 4 5 6 
#
# 1 122.7957 19.7845 75.8415 0.0000 -9.0753 0.0000
# 2 19.7845 11.4940 12.9264 0.0000 -3.3924 0.0000
# 3 75.8415 12.9264 131.2733 0.0000 -8.1897 0.0000
# 4 0.0000 0.0000 0.0000 4.2913 0.0000 -2.6720
# 5 -9.0753 -3.3924 -8.1897 0.0000 23.9252 0.0000
# 6 0.0000 0.0000 0.0000 -2.6720 0.0000 12.3906
#
#
#
# Elastic Compliance Matrix: (Units=1/GPa)
#
#
# Indices 1 2 3 4 5 6 
#
# 1 0.015607 -0.018594 -0.007134 0.000000 0.000842 0.000000
# 2 -0.018594 0.122801 -0.000719 0.000000 0.010113 0.000000
# 3 -0.007134 -0.000719 0.011889 0.000000 0.001262 0.000000
# 4 0.000000 0.000000 0.000000 0.269173 0.000000 0.058047
# 5 0.000842 0.010113 0.001262 0.000000 0.043982 0.000000
# 6 0.000000 0.000000 0.000000 0.058047 0.000000 0.093224
#
#
# Mechanical properties :
#
#
# Convention : Reuss Voigt Hill
#
# Bulk Modulus (GPa) = 10.26648 53.62976 31.94812
# Shear Modulus (GPa) = 7.78771 18.58880 13.18826
#
# Velocity S-wave (km/s) = 2.31229 3.57243 3.00907
# Velocity P-wave (km/s) = 3.76530 7.33732 5.83154
#
# Compressibility (1/GPa) = 0.09740435
#
# Stress axis : x y z
#
# Youngs Moduli (GPa) = 64.07177 8.14326 84.11474
#
# Poissons Ratio (x) = 0.15142 0.60004
# Poissons Ratio (y) = 1.19135 0.06046
# Poissons Ratio (z) = 0.45706 0.00585
#
# Static dielectric constant tensor:
#      x y z
#    x 2.906610 0.000000 -0.077190 
#    y 0.000000 2.191980 0.000000 
#    z -0.077190 0.000000 3.171650 
# 
# 
# High freq. dielectric constant tensor:
#      x y z
#    x 1.547660 0.000000 -0.009920 
#    y 0.000000 1.479890 0.000000 
#    z -0.009920 0.000000 1.556970 
# 
# From -- ./inp_files/245121.got.cif
#   From: 2010.06.25/outbox.cif.g09.slc.cpg/sg12_123_cif.got.tgz:245121.got - 2010.06.28 00:19:55.
