data_PCOD8115646
_publ_section_title
;
Structure prediction by ZEFSAII (Michael W. Deem and Ramdas Pophale) SiO2 
 PCOD8115646
Probable space group: C 2/M
;
_chemical_formula_sum "Si O2"
_cell_formula_units_Z 48
_cell_length_a 11.270613
_cell_length_b 21.010882
_cell_length_c 14.627674
_cell_angle_alpha 90.000000
_cell_angle_beta 37.543436
_cell_angle_gamma 90.000000
_cell_volume 2110.779941
_symmetry_space_group_name_H-M "C 2/M"
_symmetry_group_IT_number 12
_symmetry_cell_setting 'monoclinic'
loop_
_space_group_symop_operation_xyz
x,y,z
-x,y,-z
-x,-y,-z
x,-y,z
1/2+x,1/2+y,z
1/2-x,1/2+y,-z
1/2-x,1/2-y,-z
1/2+x,1/2-y,z
loop_
_atom_site_type_symbol
_atom_site_label
_atom_site_fract_x
_atom_site_fract_y
_atom_site_fract_z
Si Si1 0.742447 0.643061 0.657203
Si Si2 0.306167 0.000000 0.381227
Si Si3 0.680688 0.280155 0.331322
Si Si4 0.878462 0.000000 0.704953
Si Si5 0.670821 0.369049 0.167400
Si Si6 0.388739 0.809395 0.888000
Si Si7 0.474933 0.114983 0.668485
O O1 0.820600 0.703982 0.667655
O O2 0.513344 0.636476 0.787932
O O3 0.828663 0.590062 0.676140
O O4 0.834913 0.643936 0.499532
O O5 0.442553 0.940057 0.317087
O O6 0.226722 0.000000 0.327475
O O7 0.113341 0.000000 0.562097
O O8 0.500000 0.308466 0.500000
O O9 0.662531 0.309719 0.241868
O O10 0.882606 0.296550 0.255840
O O11 0.808828 0.062983 0.798628
O O12 0.855488 0.361751 0.987833
O O13 0.352388 0.836689 0.808752
O O14 0.250000 0.750000 0.000000
#
# Coordination Sequence:
#
# PCOD8115646 Si02
#       7
#     8   4   8   4   8   8   8
#     4  11  24  43  72 107 141 196 242 313 361 445
#     4  11  24  45  76 103 144 189 259 311 345 449
#     4  12  25  43  72 105 145 192 247 301 369 434
#     4  11  26  46  75 108 141 201 249 306 368 431
#     4  12  26  46  70 107 151 191 250 300 375 441
#     4  12  26  44  72 107 153 191 238 308 377 442
#     4  11  24  44  67 107 140 191 249 294 372 425
#
# _framework density 22.740407999999999
#
# number of rings (size 3 to 8) (size 9 to 14) (size 15 to 20)
#    0.000    0.500    5.000    3.500    2.333    4.667 
#    0.000    2.500    0.000    2.000    0.000    0.000 
#    0.000    0.000    0.000    0.000    0.000    0.000 
#
# Total GULP energy -297414.597992 kJ/mol
# GULP energy per Si atom -12392.274916 kJ/mol
# Density = 2.268865 g / cm^3
# Si number density = 22.740408 Si / 1000 Ang^3
#
#
#
# Elastic Constant Matrix: (Units=GPa)
#
#
# Indices 1 2 3 4 5 6 
#
# 1 116.3496 35.9679 40.2433 -0.0010 5.6686 0.0000
# 2 35.9679 109.4864 40.2735 -0.0002 8.3555 -0.0002
# 3 40.2433 40.2735 138.4879 -0.0033 16.5802 0.0007
# 4 -0.0010 -0.0002 -0.0033 30.6030 0.0018 0.3363
# 5 5.6686 8.3555 16.5802 0.0018 38.9846 -0.0006
# 6 0.0000 -0.0002 0.0007 0.3363 -0.0006 36.1942
#
#
#
# Elastic Compliance Matrix: (Units=1/GPa)
#
#
# Indices 1 2 3 4 5 6 
#
# 1 0.010139 -0.002516 -0.002215 0.000000 0.000007 0.000000
# 2 -0.002516 0.010888 -0.002317 0.000000 -0.000982 0.000000
# 3 -0.002215 -0.002317 0.008893 0.000001 -0.002964 0.000000
# 4 0.000000 0.000000 0.000001 0.032680 -0.000002 -0.000304
# 5 0.000007 -0.000982 -0.002964 -0.000002 0.027121 0.000001
# 6 0.000000 0.000000 0.000000 -0.000304 0.000001 0.027632
#
#
# Mechanical properties :
#
#
# Convention : Reuss Voigt Hill
#
# Bulk Modulus (GPa) = 63.20550 66.36591 64.78570
# Shear Modulus (GPa) = 36.57009 37.67896 37.12453
#
# Velocity S-wave (km/s) = 4.01453 4.07494 4.04485
# Velocity P-wave (km/s) = 7.02448 7.16852 7.09686
#
# Compressibility (1/GPa) = 0.01582141
#
# Stress axis : x y z
#
# Youngs Moduli (GPa) = 98.63344 91.84763 112.44411
#
# Poissons Ratio (x) = 0.23112 0.24909
# Poissons Ratio (y) = 0.24820 0.26058
# Poissons Ratio (z) = 0.21850 0.21285
#
# Static dielectric constant tensor:
#      x y z
#    x 4.158810 -0.000010 0.009420 
#    y -0.000010 4.084640 0.000010 
#    z 0.009420 0.000010 4.258120 
# 
# 
# High freq. dielectric constant tensor:
#      x y z
#    x 1.916850 0.000000 0.004540 
#    y 0.000000 1.877960 0.000000 
#    z 0.004540 0.000000 1.902480 
# 
# From -- ./inp_files/207948.got.cif
#   From: 2010.06.25/outbox.cif.g09.slc.cpg/sg12_104_cif.got.tgz:207948.got - 2010.06.28 00:19:55.
