data_PCOD8115964
_publ_section_title
;
Structure prediction by ZEFSAII (Michael W. Deem and Ramdas Pophale) SiO2 
 PCOD8115964
Probable space group: C 2/M
;
_chemical_formula_sum "Si O2"
_cell_formula_units_Z 56
_cell_length_a 19.357612
_cell_length_b 9.564925
_cell_length_c 22.015033
_cell_angle_alpha 90.000000
_cell_angle_beta 124.947766
_cell_angle_gamma 90.000000
_cell_volume 3341.136140
_symmetry_space_group_name_H-M "C 2/M"
_symmetry_group_IT_number 12
_symmetry_cell_setting 'monoclinic'
loop_
_space_group_symop_operation_xyz
x,y,z
-x,y,-z
-x,-y,-z
x,-y,z
1/2+x,1/2+y,z
1/2-x,1/2+y,-z
1/2-x,1/2-y,-z
1/2+x,1/2-y,z
loop_
_atom_site_type_symbol
_atom_site_label
_atom_site_fract_x
_atom_site_fract_y
_atom_site_fract_z
Si Si1 0.541375 0.337572 0.706671
Si Si2 0.800793 0.339398 0.195327
Si Si3 0.770782 0.338971 0.320793
Si Si4 0.869286 0.165866 0.942260
Si Si5 0.506814 0.333675 0.098624
Si Si6 0.587739 0.335043 0.260235
Si Si7 0.569214 0.336951 0.583302
O O1 0.561343 0.500000 0.726911
O O2 0.617333 0.253160 0.775522
O O3 0.454599 0.294585 0.696766
O O4 0.531972 0.301097 0.631017
O O5 0.824653 0.500000 0.194476
O O6 0.766690 0.321251 0.246443
O O7 0.727394 0.282976 0.113022
O O8 0.785962 0.500000 0.346660
O O9 0.683424 0.278371 0.304685
O O10 0.846015 0.248469 0.387214
O O11 0.924254 0.224905 0.913960
O O12 0.868700 0.000000 0.936485
O O13 0.913260 0.213798 0.027984
O O14 0.509715 0.500000 0.101110
O O15 0.528978 0.273034 0.176382
O O16 0.593615 0.500000 0.254318
O O17 0.500000 0.288767 0.500000
O O18 0.590685 0.500000 0.587728
#
# Coordination Sequence:
#
# PCOD8115964 Si02
#       7
#     8   8   8   8   8   8   8
#     4   9  18  30  45  63  85 115 144 171 210 258
#     4   9  15  26  43  64  87 111 143 181 213 244
#     4   9  16  27  47  70  87 107 139 179 215 245
#     4   8  12  19  35  61  87 109 139 179 215 242
#     4   8  12  19  35  60  87 111 138 176 215 246
#     4   9  15  26  42  63  89 113 141 177 214 250
#     4   9  18  33  49  64  85 114 144 170 202 254
#
# _framework density 16.760767000000001
#
# number of rings (size 3 to 8) (size 9 to 14) (size 15 to 20)
#    0.000    3.286    1.429    0.857    0.000    0.286 
#    0.000    2.143    0.000    0.000    0.000    3.000 
#    0.000    0.000    0.000    0.000    0.000    0.000 
#
# Total GULP energy -346966.001600 kJ/mol
# GULP energy per Si atom -12391.642914 kJ/mol
# Density = 1.672262 g / cm^3
# Si number density = 16.760767 Si / 1000 Ang^3
#
#
#
# Elastic Constant Matrix: (Units=GPa)
#
#
# Indices 1 2 3 4 5 6 
#
# 1 112.7510 30.8547 60.9386 0.0000 16.7512 0.0000
# 2 30.8547 29.3391 33.0490 0.0000 9.9876 0.0000
# 3 60.9386 33.0490 134.9094 0.0000 22.5987 0.0000
# 4 0.0000 0.0000 0.0000 15.0629 0.0000 5.6439
# 5 16.7512 9.9876 22.5987 0.0000 22.9582 0.0000
# 6 0.0000 0.0000 0.0000 5.6439 0.0000 16.5903
#
#
#
# Elastic Compliance Matrix: (Units=1/GPa)
#
#
# Indices 1 2 3 4 5 6 
#
# 1 0.013751 -0.009803 -0.003405 0.000000 -0.002417 0.000000
# 2 -0.009803 0.056470 -0.007770 0.000000 -0.009766 0.000000
# 3 -0.003405 -0.007770 0.011820 0.000000 -0.005771 0.000000
# 4 0.000000 0.000000 0.000000 0.076087 0.000000 -0.025884
# 5 -0.002417 -0.009766 -0.005771 0.000000 0.055250 0.000000
# 6 0.000000 0.000000 0.000000 -0.025884 0.000000 0.069082
#
#
# Mechanical properties :
#
#
# Convention : Reuss Voigt Hill
#
# Bulk Modulus (GPa) = 24.94624 58.52047 41.73336
# Shear Modulus (GPa) = 14.80261 21.06609 17.93435
#
# Velocity S-wave (km/s) = 2.97504 3.54908 3.27466
# Velocity P-wave (km/s) = 5.16887 7.19622 6.26509
#
# Compressibility (1/GPa) = 0.04008619
#
# Stress axis : x y z
#
# Youngs Moduli (GPa) = 72.72101 17.70839 84.59896
#
# Poissons Ratio (x) = 0.17360 0.28806
# Poissons Ratio (y) = 0.71290 0.65731
# Poissons Ratio (z) = 0.24762 0.13759
#
# Static dielectric constant tensor:
#      x y z
#    x 3.117250 0.000000 0.127200 
#    y 0.000000 2.737980 0.000000 
#    z 0.127200 0.000000 3.326370 
# 
# 
# High freq. dielectric constant tensor:
#      x y z
#    x 1.632310 0.000000 0.012250 
#    y 0.000000 1.595910 0.000000 
#    z 0.012250 0.000000 1.646330 
# 
# From -- ./inp_files/313275.got.cif
#   From: 2010.06.25/outbox.cif.g09.slc.cpg/sg12_157_cif.got.tgz:313275.got - 2010.06.28 00:19:55.
