data_PCOD8115461
_publ_section_title
;
Structure prediction by ZEFSAII (Michael W. Deem and Ramdas Pophale) SiO2 
 PCOD8115461
Probable space group: C 2/M
;
_chemical_formula_sum "Si O2"
_cell_formula_units_Z 28
_cell_length_a 14.995321
_cell_length_b 8.902873
_cell_length_c 14.123795
_cell_angle_alpha 90.000000
_cell_angle_beta 142.078186
_cell_angle_gamma 90.000000
_cell_volume 1158.829966
_symmetry_space_group_name_H-M "C 2/M"
_symmetry_group_IT_number 12
_symmetry_cell_setting 'monoclinic'
loop_
_space_group_symop_operation_xyz
x,y,z
-x,y,-z
-x,-y,-z
x,-y,z
1/2+x,1/2+y,z
1/2-x,1/2+y,-z
1/2-x,1/2-y,-z
1/2+x,1/2-y,z
loop_
_atom_site_type_symbol
_atom_site_label
_atom_site_fract_x
_atom_site_fract_y
_atom_site_fract_z
Si Si1 0.500000 0.756078 0.000000
Si Si2 0.800281 0.668484 0.319070
Si Si3 0.900982 0.333598 0.114502
Si Si4 0.462410 0.678879 0.608730
O O1 0.367096 0.656123 0.850964
O O2 0.555263 0.854865 0.958394
O O3 0.862729 0.500000 0.375359
O O4 0.822319 0.747510 0.440242
O O5 0.890401 0.769197 0.320626
O O6 0.885624 0.500000 0.146042
O O7 0.025457 0.239699 0.273803
O O8 0.750000 0.250000 0.000000
O O9 0.448871 0.500000 0.596579
#
# Coordination Sequence:
#
# PCOD8115461 Si02
#       4
#     4   8   8   8
#     4  12  28  44  74 108 148 182 240 294 360 418
#     4  11  23  43  72 105 142 186 238 294 352 420
#     4  12  26  46  73 105 144 188 235 293 357 421
#     4  11  24  44  71 102 143 190 236 289 355 424
#
# _framework density 24.162302
#
# number of rings (size 3 to 8) (size 9 to 14) (size 15 to 20)
#    0.000    0.571    2.857    6.857    0.000    8.000 
#    0.000    0.000    0.000    0.000    0.000    0.000 
#    0.000    0.000    0.000    0.000    0.000    0.000 
#
# Total GULP energy -173565.014807 kJ/mol
# GULP energy per Si atom -12397.501058 kJ/mol
# Density = 2.410731 g / cm^3
# Si number density = 24.162302 Si / 1000 Ang^3
#
#
#
# Elastic Constant Matrix: (Units=GPa)
#
#
# Indices 1 2 3 4 5 6 
#
# 1 90.0127 29.3050 51.0371 0.0000 -18.8754 0.0000
# 2 29.3050 210.7062 68.8313 0.0000 -12.1603 0.0000
# 3 51.0371 68.8313 206.5755 0.0000 -7.7916 0.0000
# 4 0.0000 0.0000 0.0000 26.8923 0.0000 -2.5584
# 5 -18.8754 -12.1603 -7.7916 0.0000 47.9071 0.0000
# 6 0.0000 0.0000 0.0000 -2.5584 0.0000 14.6041
#
#
#
# Elastic Compliance Matrix: (Units=1/GPa)
#
#
# Indices 1 2 3 4 5 6 
#
# 1 0.014096 -0.000675 -0.003074 0.000000 0.004883 0.000000
# 2 -0.000675 0.005413 -0.001605 0.000000 0.000847 0.000000
# 3 -0.003074 -0.001605 0.006111 0.000000 -0.000624 0.000000
# 4 0.000000 0.000000 0.000000 0.037816 0.000000 0.006625
# 5 0.004883 0.000847 -0.000624 0.000000 0.022911 0.000000
# 6 0.000000 0.000000 0.000000 0.006625 0.000000 0.069634
#
#
# Mechanical properties :
#
#
# Convention : Reuss Voigt Hill
#
# Bulk Modulus (GPa) = 67.05197 89.51569 78.28383
# Shear Modulus (GPa) = 29.12758 41.75545 35.44152
#
# Velocity S-wave (km/s) = 3.47579 4.16158 3.83405
# Velocity P-wave (km/s) = 6.62715 7.76014 7.21591
#
# Compressibility (1/GPa) = 0.01491380
#
# Stress axis : x y z
#
# Youngs Moduli (GPa) = 70.94330 184.74183 163.62734
#
# Poissons Ratio (x) = 0.12463 0.50292
# Poissons Ratio (y) = 0.04786 0.26262
# Poissons Ratio (z) = 0.21805 0.29651
#
# Static dielectric constant tensor:
#      x y z
#    x 4.271570 0.000000 -0.392780 
#    y 0.000000 4.065010 0.000000 
#    z -0.392780 0.000000 4.996810 
# 
# 
# High freq. dielectric constant tensor:
#      x y z
#    x 1.946020 0.000000 -0.013460 
#    y 0.000000 1.957720 0.000000 
#    z -0.013460 0.000000 1.982110 
# 
# From -- ./inp_files/211511.got.cif
#   From: 2010.06.25/outbox.cif.g09.slc.cpg/sg12_106_cif.got.tgz:211511.got - 2010.06.28 00:19:55.
