data_PCOD8115546
_publ_section_title
;
Structure prediction by ZEFSAII (Michael W. Deem and Ramdas Pophale) SiO2 
 PCOD8115546
Probable space group: C 2/M
;
_chemical_formula_sum "Si O2"
_cell_formula_units_Z 64
_cell_length_a 25.597291
_cell_length_b 14.448809
_cell_length_c 9.142919
_cell_angle_alpha 90.000000
_cell_angle_beta 113.328965
_cell_angle_gamma 90.000000
_cell_volume 3105.060854
_symmetry_space_group_name_H-M "C 2/M"
_symmetry_group_IT_number 12
_symmetry_cell_setting 'monoclinic'
loop_
_space_group_symop_operation_xyz
x,y,z
-x,y,-z
-x,-y,-z
x,-y,z
1/2+x,1/2+y,z
1/2-x,1/2+y,-z
1/2-x,1/2-y,-z
1/2+x,1/2-y,z
loop_
_atom_site_type_symbol
_atom_site_label
_atom_site_fract_x
_atom_site_fract_y
_atom_site_fract_z
Si Si1 0.709350 0.098458 0.195404
Si Si2 0.562177 0.101329 0.297944
Si Si3 0.755047 0.351964 0.071512
Si Si4 0.797143 0.178678 0.498034
Si Si5 0.440197 0.108175 0.254429
Si Si6 0.357543 0.827145 0.394132
Si Si7 0.650210 0.395531 0.149731
Si Si8 0.599512 0.791745 0.078027
O O1 0.766986 0.110335 0.350769
O O2 0.665544 0.181002 0.181499
O O3 0.681513 0.000000 0.209913
O O4 0.724313 0.087085 0.040664
O O5 0.508382 0.117086 0.346549
O O6 0.620573 0.102940 0.455949
O O7 0.561173 0.180747 0.174190
O O8 0.557089 0.000000 0.218551
O O9 0.799723 0.360616 0.254077
O O10 0.695829 0.387072 0.070072
O O11 0.750000 0.250000 0.000000
O O12 0.750000 0.250000 0.500000
O O13 0.847620 0.228835 0.462753
O O14 0.823044 0.122039 0.661207
O O15 0.408343 0.175612 0.332229
O O16 0.421195 0.000000 0.249250
O O17 0.423291 0.148306 0.079347
O O18 0.625092 0.500000 0.118758
O O19 0.600120 0.320007 0.061234
#
# Coordination Sequence:
#
# PCOD8115546 Si02
#       8
#     8   8   8   8   8   8   8   8
#     4  12  23  36  59  90 124 162 202 244 297 366
#     4  11  24  40  61  91 125 160 201 249 307 374
#     4  12  21  40  60  87 130 163 201 246 291 361
#     4  12  21  41  57  86 125 165 207 245 293 356
#     4  11  24  41  62  93 127 158 200 250 308 375
#     4  12  21  37  63  85 126 168 198 244 296 358
#     4  12  25  41  62  90 123 164 209 254 303 358
#     4  12  22  40  63  88 122 164 203 250 306 365
#
# _framework density 20.611512999999999
#
# number of rings (size 3 to 8) (size 9 to 14) (size 15 to 20)
#    0.000    0.250    7.500    3.000    0.000    3.500 
#    0.000    0.000    0.000    1.500    0.000    0.875 
#    0.000    0.000    0.000    0.000    0.000    0.000 
#
# Total GULP energy -396654.472618 kJ/mol
# GULP energy per Si atom -12395.452269 kJ/mol
# Density = 2.056460 g / cm^3
# Si number density = 20.611513 Si / 1000 Ang^3
#
#
#
# Elastic Constant Matrix: (Units=GPa)
#
#
# Indices 1 2 3 4 5 6 
#
# 1 80.0958 38.3293 9.8550 0.0000 -18.0605 0.0000
# 2 38.3293 126.0106 12.5404 0.0000 -5.3059 0.0000
# 3 9.8550 12.5404 56.9987 0.0000 -9.5842 0.0000
# 4 0.0000 0.0000 0.0000 27.1738 0.0000 0.7962
# 5 -18.0605 -5.3059 -9.5842 0.0000 37.0583 0.0000
# 6 0.0000 0.0000 0.0000 0.7962 0.0000 26.0064
#
#
#
# Elastic Compliance Matrix: (Units=1/GPa)
#
#
# Indices 1 2 3 4 5 6 
#
# 1 0.016388 -0.004622 -0.000611 0.000000 0.007167 0.000000
# 2 -0.004622 0.009436 -0.001493 0.000000 -0.001288 0.000000
# 3 -0.000611 -0.001493 0.018706 0.000000 0.004326 0.000000
# 4 0.000000 0.000000 0.000000 0.036833 0.000000 -0.001128
# 5 0.007167 -0.001288 0.004326 0.000000 0.031412 0.000000
# 6 0.000000 0.000000 0.000000 -0.001128 0.000000 0.038487
#
#
# Mechanical properties :
#
#
# Convention : Reuss Voigt Hill
#
# Bulk Modulus (GPa) = 32.17903 42.72827 37.45365
# Shear Modulus (GPa) = 28.55915 31.53972 30.04944
#
# Velocity S-wave (km/s) = 3.72639 3.91602 3.82238
# Velocity P-wave (km/s) = 5.84472 6.42046 6.13934
#
# Compressibility (1/GPa) = 0.03107614
#
# Stress axis : x y z
#
# Youngs Moduli (GPa) = 61.01915 105.97458 53.45884
#
# Poissons Ratio (x) = 0.48985 0.03269
# Poissons Ratio (y) = 0.28205 0.07984
# Poissons Ratio (z) = 0.03731 0.15827
#
# Static dielectric constant tensor:
#      x y z
#    x 3.819370 0.000000 -0.158430 
#    y 0.000000 3.712440 0.000000 
#    z -0.158430 0.000000 4.041300 
# 
# 
# High freq. dielectric constant tensor:
#      x y z
#    x 1.790280 0.000000 -0.018130 
#    y 0.000000 1.788720 0.000000 
#    z -0.018130 0.000000 1.820750 
# 
# From -- ./inp_files/104646.got.cif
#   From: 2010.06.25/outbox.cif.g09.slc.cpg/sg12_53_cif.got.tgz:104646.got - 2010.06.28 00:19:55.
