data_PCOD8115759
_publ_section_title
;
Structure prediction by ZEFSAII (Michael W. Deem and Ramdas Pophale) SiO2 
 PCOD8115759
Probable space group: C 2/M
;
_chemical_formula_sum "Si O2"
_cell_formula_units_Z 40
_cell_length_a 17.560059
_cell_length_b 21.297176
_cell_length_c 9.310561
_cell_angle_alpha 90.000000
_cell_angle_beta 151.409810
_cell_angle_gamma 90.000000
_cell_volume 1666.262691
_symmetry_space_group_name_H-M "C 2/M"
_symmetry_group_IT_number 12
_symmetry_cell_setting 'monoclinic'
loop_
_space_group_symop_operation_xyz
x,y,z
-x,y,-z
-x,-y,-z
x,-y,z
1/2+x,1/2+y,z
1/2-x,1/2+y,-z
1/2-x,1/2-y,-z
1/2+x,1/2-y,z
loop_
_atom_site_type_symbol
_atom_site_label
_atom_site_fract_x
_atom_site_fract_y
_atom_site_fract_z
Si Si1 0.730989 0.167406 0.654328
Si Si2 0.347992 0.375832 0.339824
Si Si3 0.187350 0.431770 0.815688
Si Si4 0.851083 0.070057 0.649276
Si Si5 0.926134 0.713799 0.022605
O O1 0.752796 0.124748 0.829665
O O2 0.731457 0.122782 0.513435
O O3 0.881633 0.213984 0.913948
O O4 0.563974 0.206223 0.372139
O O5 0.500000 0.352153 0.500000
O O6 0.403844 0.412190 0.575172
O O7 0.236540 0.317543 0.195013
O O8 0.245248 0.424035 0.074703
O O9 0.247868 0.500000 0.859026
O O10 0.000000 0.430174 0.500000
O O11 0.773907 0.000000 0.521314
O O12 0.000000 0.071174 0.000000
O O13 0.000000 0.684374 0.000000
#
# Coordination Sequence:
#
# PCOD8115759 Si02
#       5
#     8   8   8   8   8
#     4  12  26  47  78 109 146 199 252 307 365 440
#     4  12  27  47  75 114 152 194 243 309 378 438
#     4  11  25  48  75 110 156 197 243 307 379 446
#     4  11  25  47  78 112 148 195 252 308 371 445
#     4  12  27  48  75 111 149 198 251 307 368 439
#
# _framework density 24.005821000000001
#
# number of rings (size 3 to 8) (size 9 to 14) (size 15 to 20)
#    0.000    0.400    4.000    3.600    5.600    4.800 
#    0.000    1.000    0.000    0.000    0.000    0.000 
#    0.000    0.000    0.000    0.000    0.000    0.000 
#
# Total GULP energy -247962.954306 kJ/mol
# GULP energy per Si atom -12398.147715 kJ/mol
# Density = 2.395118 g / cm^3
# Si number density = 24.005821 Si / 1000 Ang^3
#
#
#
# Elastic Constant Matrix: (Units=GPa)
#
#
# Indices 1 2 3 4 5 6 
#
# 1 142.1627 68.6025 59.2378 0.0000 -9.5112 0.0000
# 2 68.6025 155.1852 61.3315 0.0000 4.7792 0.0000
# 3 59.2378 61.3315 130.6050 0.0000 -12.9223 0.0000
# 4 0.0000 0.0000 0.0000 18.7445 0.0000 0.6759
# 5 -9.5112 4.7792 -12.9223 0.0000 44.9401 0.0000
# 6 0.0000 0.0000 0.0000 0.6759 0.0000 38.4248
#
#
#
# Elastic Compliance Matrix: (Units=1/GPa)
#
#
# Indices 1 2 3 4 5 6 
#
# 1 0.009907 -0.003339 -0.002761 0.000000 0.001658 0.000000
# 2 -0.003339 0.009210 -0.003065 0.000000 -0.002567 0.000000
# 3 -0.002761 -0.003065 0.010625 0.000000 0.002797 0.000000
# 4 0.000000 0.000000 0.000000 0.053383 0.000000 -0.000939
# 5 0.001658 -0.002567 0.002797 0.000000 0.023680 0.000000
# 6 0.000000 0.000000 0.000000 -0.000939 0.000000 0.026041
#
#
# Mechanical properties :
#
#
# Convention : Reuss Voigt Hill
#
# Bulk Modulus (GPa) = 87.62768 89.58848 88.60808
# Shear Modulus (GPa) = 32.26199 36.34064 34.30132
#
# Velocity S-wave (km/s) = 3.66993 3.89501 3.78415
# Velocity P-wave (km/s) = 7.38511 7.59135 7.48894
#
# Compressibility (1/GPa) = 0.01141192
#
# Stress axis : x y z
#
# Youngs Moduli (GPa) = 100.93654 108.57313 94.11830
#
# Poissons Ratio (x) = 0.36257 0.25989
# Poissons Ratio (y) = 0.33707 0.28843
# Poissons Ratio (z) = 0.27872 0.33273
#
# Static dielectric constant tensor:
#      x y z
#    x 4.986460 0.000000 -0.121910 
#    y 0.000000 4.587960 0.000000 
#    z -0.121910 0.000000 4.352980 
# 
# 
# High freq. dielectric constant tensor:
#      x y z
#    x 1.946990 0.000000 -0.004750 
#    y 0.000000 1.957200 0.000000 
#    z -0.004750 0.000000 1.964560 
# 
# From -- ./inp_files/79321.got.cif
#   From: 2010.06.25/outbox.cif.g09.slc.cpg/sg12_40_cif.got.tgz:79321.got - 2010.06.28 00:19:55.
