data_PCOD8115558
_publ_section_title
;
Structure prediction by ZEFSAII (Michael W. Deem and Ramdas Pophale) SiO2 
 PCOD8115558
Probable space group: C 2/M
;
_chemical_formula_sum "Si O2"
_cell_formula_units_Z 64
_cell_length_a 11.621388
_cell_length_b 26.297569
_cell_length_c 15.077855
_cell_angle_alpha 90.000000
_cell_angle_beta 40.145517
_cell_angle_gamma 90.000000
_cell_volume 2970.925657
_symmetry_space_group_name_H-M "C 2/M"
_symmetry_group_IT_number 12
_symmetry_cell_setting 'monoclinic'
loop_
_space_group_symop_operation_xyz
x,y,z
-x,y,-z
-x,-y,-z
x,-y,z
1/2+x,1/2+y,z
1/2-x,1/2+y,-z
1/2-x,1/2-y,-z
1/2+x,1/2-y,z
loop_
_atom_site_type_symbol
_atom_site_label
_atom_site_fract_x
_atom_site_fract_y
_atom_site_fract_z
Si Si1 0.730672 0.213067 0.126007
Si Si2 0.614567 0.058080 0.519382
Si Si3 0.344308 0.373719 0.659934
Si Si4 0.504492 0.884465 0.243221
Si Si5 0.504288 0.403984 0.745130
Si Si6 0.825867 0.244604 0.655967
Si Si7 0.137538 0.941721 0.990715
Si Si8 0.511187 0.294137 0.174416
O O1 0.581028 0.172050 0.187530
O O2 0.726782 0.215798 0.234550
O O3 0.682898 0.270279 0.122096
O O4 0.923360 0.199229 0.967584
O O5 0.500000 0.069648 0.500000
O O6 0.570809 0.101930 0.615809
O O7 0.821526 0.063562 0.376481
O O8 0.579043 0.000000 0.573622
O O9 0.500000 0.389384 0.500000
O O10 0.153235 0.391383 0.735584
O O11 0.377198 0.402109 0.733512
O O12 0.351037 0.313076 0.671771
O O13 0.662402 0.923328 0.135644
O O14 0.550447 0.347155 0.748576
O O15 0.409954 0.433278 0.879656
O O16 0.645227 0.253537 0.706962
O O17 0.000000 0.263403 0.500000
O O18 0.140487 0.000000 0.964484
O O19 0.000000 0.915592 0.000000
#
# Coordination Sequence:
#
# PCOD8115558 Si02
#       8
#     8   8   8   8   8   8   8   8
#     4  11  24  41  61  99 140 181 229 276 335 408
#     4  11  26  47  72 101 133 173 236 299 352 408
#     4  11  24  46  65 105 149 184 226 281 341 411
#     4  12  24  44  73 102 138 188 226 282 355 409
#     4  12  24  44  73 102 138 188 226 282 355 409
#     4  11  25  39  65  94 139 189 230 284 335 394
#     4  11  26  49  72 101 137 173 232 303 360 410
#     4  11  24  41  61  99 140 181 229 276 335 408
#
# _framework density 21.542107999999999
#
# number of rings (size 3 to 8) (size 9 to 14) (size 15 to 20)
#    0.000    0.750    5.000    1.875    5.250    3.000 
#    2.250    3.750    0.000    0.000    0.000    0.000 
#    0.000    0.000    0.000    0.000    0.000    0.000 
#
# Total GULP energy -396629.958393 kJ/mol
# GULP energy per Si atom -12394.686200 kJ/mol
# Density = 2.149308 g / cm^3
# Si number density = 21.542108 Si / 1000 Ang^3
#
#
#
# Elastic Constant Matrix: (Units=GPa)
#
#
# Indices 1 2 3 4 5 6 
#
# 1 128.9500 27.1006 62.2664 -0.0001 -4.5476 -0.0001
# 2 27.1006 65.7982 18.9274 0.0000 -3.8616 0.0000
# 3 62.2664 18.9274 151.7564 -0.0001 -12.6896 -0.0001
# 4 -0.0001 0.0000 -0.0001 33.7203 0.0001 -1.5712
# 5 -4.5476 -3.8616 -12.6896 0.0001 41.4684 0.0000
# 6 -0.0001 0.0000 -0.0001 -1.5712 0.0000 40.6693
#
#
#
# Elastic Compliance Matrix: (Units=1/GPa)
#
#
# Indices 1 2 3 4 5 6 
#
# 1 0.010260 -0.003140 -0.003847 0.000000 -0.000344 0.000000
# 2 -0.003140 0.016756 -0.000718 0.000000 0.000996 0.000000
# 3 -0.003847 -0.000718 0.008432 0.000000 0.002092 0.000000
# 4 0.000000 0.000000 0.000000 0.029709 0.000000 0.001148
# 5 -0.000344 0.000996 0.002092 0.000000 0.024810 0.000000
# 6 0.000000 0.000000 0.000000 0.001148 0.000000 0.024633
#
#
# Mechanical properties :
#
#
# Convention : Reuss Voigt Hill
#
# Bulk Modulus (GPa) = 49.90282 62.56594 56.23438
# Shear Modulus (GPa) = 36.57901 39.05228 37.81564
#
# Velocity S-wave (km/s) = 4.12518 4.26236 4.19433
# Velocity P-wave (km/s) = 6.77532 7.30275 7.04398
#
# Compressibility (1/GPa) = 0.02003895
#
# Stress axis : x y z
#
# Youngs Moduli (GPa) = 97.46351 59.67948 118.58913
#
# Poissons Ratio (x) = 0.18736 0.45622
# Poissons Ratio (y) = 0.30599 0.08520
# Poissons Ratio (z) = 0.37495 0.04287
#
# Static dielectric constant tensor:
#      x y z
#    x 3.906460 0.000000 -0.048080 
#    y 0.000000 3.702500 0.000000 
#    z -0.048080 0.000000 3.881900 
# 
# 
# High freq. dielectric constant tensor:
#      x y z
#    x 1.848930 0.000000 -0.004250 
#    y 0.000000 1.837500 0.000000 
#    z -0.004250 0.000000 1.858370 
# 
# From -- ./inp_files/209379.got.cif
#   From: 2010.06.25/outbox.cif.g09.slc.cpg/sg12_105_cif.got.tgz:209379.got - 2010.06.28 00:19:55.
