data_PCOD8115329
_publ_section_title
;
Structure prediction by ZEFSAII (Michael W. Deem and Ramdas Pophale) SiO2 
 PCOD8115329
Probable space group: C 2/M
;
_chemical_formula_sum "Si O2"
_cell_formula_units_Z 64
_cell_length_a 9.461370
_cell_length_b 28.326454
_cell_length_c 19.947446
_cell_angle_alpha 90.000000
_cell_angle_beta 36.538666
_cell_angle_gamma 90.000000
_cell_volume 3182.855580
_symmetry_space_group_name_H-M "C 2/M"
_symmetry_group_IT_number 12
_symmetry_cell_setting 'monoclinic'
loop_
_space_group_symop_operation_xyz
x,y,z
-x,y,-z
-x,-y,-z
x,-y,z
1/2+x,1/2+y,z
1/2-x,1/2+y,-z
1/2-x,1/2-y,-z
1/2+x,1/2-y,z
loop_
_atom_site_type_symbol
_atom_site_label
_atom_site_fract_x
_atom_site_fract_y
_atom_site_fract_z
Si Si1 0.629550 0.367207 0.617239
Si Si2 0.187267 0.446439 0.060539
Si Si3 0.289757 0.447852 0.175872
Si Si4 0.594061 0.120771 0.357136
Si Si5 0.408547 0.808722 0.754212
Si Si6 0.397083 0.139425 0.196291
Si Si7 0.240857 0.765415 0.578508
Si Si8 0.492625 0.232237 0.077022
O O1 0.714595 0.387541 0.656664
O O2 0.367697 0.382599 0.692824
O O3 0.584093 0.311723 0.644358
O O4 0.823977 0.381057 0.487294
O O5 0.111431 0.500000 0.065490
O O6 0.186406 0.446963 0.140980
O O7 0.017101 0.402576 0.106571
O O8 0.436554 0.431545 0.932423
O O9 0.280564 0.500000 0.209035
O O10 0.129883 0.418681 0.287696
O O11 0.633233 0.170539 0.304398
O O12 0.462565 0.850684 0.786965
O O13 0.640665 0.775252 0.665032
O O14 0.178249 0.777940 0.858517
O O15 0.400167 0.189786 0.158147
O O16 0.500000 0.781889 0.500000
O O17 0.250000 0.750000 0.500000
O O18 0.500000 0.211164 0.000000
O O19 0.750000 0.250000 0.000000
#
# Coordination Sequence:
#
# PCOD8115329 Si02
#       8
#     8   8   8   8   8   8   8   8
#     4  11  24  40  58  92 129 172 212 258 314 381
#     4   9  20  41  68  99 124 156 215 270 323 390
#     4   9  19  40  71  97 120 157 207 266 326 389
#     4  11  23  41  63  91 128 165 217 260 317 383
#     4  12  25  38  62  88 123 171 216 261 309 384
#     4  12  25  41  64  93 129 170 214 266 329 370
#     4  12  21  37  57  82 119 162 210 256 296 357
#     4  12  28  42  57  90 132 174 218 263 321 386
#
# _framework density 20.10773
#
# number of rings (size 3 to 8) (size 9 to 14) (size 15 to 20)
#    0.000    1.000    6.250    1.500    5.250    0.000 
#    0.000    2.500    0.000    3.375    0.000    0.000 
#    0.000    0.000    0.000    0.000    0.000    0.000 
#
# Total GULP energy -396556.596686 kJ/mol
# GULP energy per Si atom -12392.393646 kJ/mol
# Density = 2.006196 g / cm^3
# Si number density = 20.107730 Si / 1000 Ang^3
#
#
#
# Elastic Constant Matrix: (Units=GPa)
#
#
# Indices 1 2 3 4 5 6 
#
# 1 78.6596 11.3241 38.6305 0.0000 -9.7148 0.0000
# 2 11.3241 78.1550 37.1215 0.0000 -10.3654 0.0000
# 3 38.6305 37.1215 104.0880 -0.0002 -6.1711 0.0002
# 4 0.0000 0.0000 -0.0002 37.0874 0.0001 0.9038
# 5 -9.7148 -10.3654 -6.1711 0.0001 38.9494 -0.0001
# 6 0.0000 0.0000 0.0002 0.9038 -0.0001 14.9523
#
#
#
# Elastic Compliance Matrix: (Units=1/GPa)
#
#
# Indices 1 2 3 4 5 6 
#
# 1 0.015965 0.001017 -0.006093 0.000000 0.003287 0.000000
# 2 0.001017 0.015890 -0.005833 0.000000 0.003558 0.000000
# 3 -0.006093 -0.005833 0.013897 0.000000 -0.000870 0.000000
# 4 0.000000 0.000000 0.000000 0.027003 0.000000 -0.001632
# 5 0.003287 0.003558 -0.000870 0.000000 0.027303 0.000000
# 6 0.000000 0.000000 0.000000 -0.001632 0.000000 0.066978
#
#
# Mechanical properties :
#
#
# Convention : Reuss Voigt Hill
#
# Bulk Modulus (GPa) = 41.78250 48.33942 45.06096
# Shear Modulus (GPa) = 25.40216 29.78628 27.59422
#
# Velocity S-wave (km/s) = 3.55815 3.85299 3.70850
# Velocity P-wave (km/s) = 6.14044 6.62468 6.38715
#
# Compressibility (1/GPa) = 0.02393346
#
# Stress axis : x y z
#
# Youngs Moduli (GPa) = 62.63763 62.93100 71.95638
#
# Poissons Ratio (x) = -0.06398 0.43841
# Poissons Ratio (y) = -0.06368 0.41975
# Poissons Ratio (z) = 0.38164 0.36711
#
# Static dielectric constant tensor:
#      x y z
#    x 3.436460 0.000000 0.159150 
#    y 0.000000 3.789260 0.000000 
#    z 0.159150 0.000000 3.514100 
# 
# 
# High freq. dielectric constant tensor:
#      x y z
#    x 1.773870 0.000000 -0.000200 
#    y 0.000000 1.776070 0.000000 
#    z -0.000200 0.000000 1.793680 
# 
# From -- ./inp_files/260315.got.cif
#   From: 2010.06.25/outbox.cif.g09.slc.cpg/sg12_131_cif.got.tgz:260315.got - 2010.06.28 00:19:55.
