data_PCOD8115821
_publ_section_title
;
Structure prediction by ZEFSAII (Michael W. Deem and Ramdas Pophale) SiO2 
 PCOD8115821
Probable space group: C 2/M
;
_chemical_formula_sum "Si O2"
_cell_formula_units_Z 48
_cell_length_a 17.605170
_cell_length_b 15.662019
_cell_length_c 17.606159
_cell_angle_alpha 90.000000
_cell_angle_beta 28.630017
_cell_angle_gamma 90.000000
_cell_volume 2326.085532
_symmetry_space_group_name_H-M "C 2/M"
_symmetry_group_IT_number 12
_symmetry_cell_setting 'monoclinic'
loop_
_space_group_symop_operation_xyz
x,y,z
-x,y,-z
-x,-y,-z
x,-y,z
1/2+x,1/2+y,z
1/2-x,1/2+y,-z
1/2-x,1/2-y,-z
1/2+x,1/2-y,z
loop_
_atom_site_type_symbol
_atom_site_label
_atom_site_fract_x
_atom_site_fract_y
_atom_site_fract_z
Si Si1 0.271824 0.500000 0.422947
Si Si2 0.694082 0.000000 0.658426
Si Si3 0.306764 0.000000 0.172528
Si Si4 0.796531 0.345398 0.835235
Si Si5 0.438645 0.000000 0.637987
Si Si6 0.006274 0.149780 0.792504
Si Si7 0.996310 0.663000 0.800562
Si Si8 0.201042 0.842636 0.165574
O O1 0.301199 0.500000 0.489102
O O2 0.354025 0.582990 0.314290
O O3 0.086148 0.500000 0.567144
O O4 0.771575 0.000000 0.674348
O O5 0.595029 0.086538 0.747776
O O6 0.237233 0.084044 0.193933
O O7 0.500000 0.000000 0.000000
O O8 0.824452 0.417822 0.747936
O O9 0.949547 0.354599 0.755218
O O10 0.806877 0.250980 0.787362
O O11 0.633204 0.364039 0.023528
O O12 0.500000 0.000000 0.500000
O O13 0.081888 0.244808 0.733492
O O14 0.950616 0.135406 0.753615
O O15 0.835708 0.669860 0.986433
#
# Coordination Sequence:
#
# PCOD8115821 Si02
#       8
#     4   4   4   8   4   8   8   8
#     4  12  24  40  58  91 117 153 199 254 307 363
#     4  12  22  34  56  92 126 157 193 242 307 358
#     4  12  21  33  57  94 130 160 190 242 304 365
#     4   9  18  40  66  85 113 159 204 247 290 355
#     4  12  25  43  59  85 117 154 199 246 318 357
#     4   9  20  37  67  89 113 156 208 250 289 346
#     4   9  16  35  62  90 111 153 204 244 285 351
#     4   9  18  36  62  91 118 155 207 243 290 348
#
# _framework density 20.635527
#
# number of rings (size 3 to 8) (size 9 to 14) (size 15 to 20)
#    0.000    2.000    3.333    3.000    0.000    3.333 
#    3.000    3.333    0.000    0.000    0.000    0.000 
#    0.000    0.000    0.000    0.000    0.000    0.000 
#
# Total GULP energy -297339.142612 kJ/mol
# GULP energy per Si atom -12389.130942 kJ/mol
# Density = 2.058856 g / cm^3
# Si number density = 20.635527 Si / 1000 Ang^3
#
#
#
# Elastic Constant Matrix: (Units=GPa)
#
#
# Indices 1 2 3 4 5 6 
#
# 1 67.4633 49.5227 15.3266 -0.0103 15.8988 -0.0004
# 2 49.5227 187.8782 39.2452 -0.0217 1.8942 0.0019
# 3 15.3266 39.2452 54.9860 -0.0338 8.3395 0.0059
# 4 -0.0103 -0.0217 -0.0338 29.8046 0.0129 -31.4123
# 5 15.8988 1.8942 8.3395 0.0129 29.6573 -0.0019
# 6 -0.0004 0.0019 0.0059 -31.4123 -0.0019 93.4693
#
#
#
# Elastic Compliance Matrix: (Units=1/GPa)
#
#
# Indices 1 2 3 4 5 6 
#
# 1 0.021555 -0.005484 -0.000412 0.000012 -0.011089 0.000004
# 2 -0.005484 0.007673 -0.004512 -0.000004 0.003718 -0.000001
# 3 -0.000412 -0.004512 0.022400 0.000036 -0.005789 0.000011
# 4 0.000012 -0.000004 0.000036 0.051954 -0.000038 0.017460
# 5 -0.011089 0.003718 -0.005789 -0.000038 0.041054 -0.000012
# 6 0.000004 -0.000001 0.000011 0.017460 -0.000012 0.016567
#
#
# Mechanical properties :
#
#
# Convention : Reuss Voigt Hill
#
# Bulk Modulus (GPa) = 32.45495 57.61293 45.03394
# Shear Modulus (GPa) = 26.00244 44.33510 35.16877
#
# Velocity S-wave (km/s) = 3.55361 4.64020 4.13277
# Velocity P-wave (km/s) = 5.70959 7.52918 6.68161
#
# Compressibility (1/GPa) = 0.03081194
#
# Stress axis : x y z
#
# Youngs Moduli (GPa) = 46.39194 130.32603 44.64329
#
# Poissons Ratio (x) = 0.71469 0.01841
# Poissons Ratio (y) = 0.25441 0.20143
# Poissons Ratio (z) = 0.01913 0.58802
#
# Static dielectric constant tensor:
#      x y z
#    x 3.170840 -0.000060 0.221950 
#    y -0.000060 4.012500 0.000050 
#    z 0.221950 0.000050 3.368700 
# 
# 
# High freq. dielectric constant tensor:
#      x y z
#    x 1.770860 0.000000 0.006160 
#    y 0.000000 1.835670 0.000000 
#    z 0.006160 0.000000 1.785660 
# 
# From -- ./inp_files/278093.got.cif
#   From: 2010.06.25/outbox.cif.g09.slc.cpg/sg12_140_cif.got.tgz:278093.got - 2010.06.28 00:19:55.
