data_PCOD8115473
_publ_section_title
;
Structure prediction by ZEFSAII (Michael W. Deem and Ramdas Pophale) SiO2 
 PCOD8115473
Probable space group: C 2/M
;
_chemical_formula_sum "Si O2"
_cell_formula_units_Z 48
_cell_length_a 9.624303
_cell_length_b 24.900389
_cell_length_c 13.979013
_cell_angle_alpha 90.000000
_cell_angle_beta 141.143587
_cell_angle_gamma 90.000000
_cell_volume 2101.726768
_symmetry_space_group_name_H-M "C 2/M"
_symmetry_group_IT_number 12
_symmetry_cell_setting 'monoclinic'
loop_
_space_group_symop_operation_xyz
x,y,z
-x,y,-z
-x,-y,-z
x,-y,z
1/2+x,1/2+y,z
1/2-x,1/2+y,-z
1/2-x,1/2-y,-z
1/2+x,1/2-y,z
loop_
_atom_site_type_symbol
_atom_site_label
_atom_site_fract_x
_atom_site_fract_y
_atom_site_fract_z
Si Si1 0.968474 0.559494 0.872271
Si Si2 0.558287 0.404836 0.927892
Si Si3 0.400875 0.715933 0.849945
Si Si4 0.240232 0.438863 0.593925
Si Si5 0.471432 0.741415 0.677609
Si Si6 0.963476 0.869599 0.373666
O O1 0.943829 0.500000 0.812331
O O2 0.750854 0.593587 0.737369
O O3 0.000000 0.552093 0.000000
O O4 0.179479 0.589983 0.942847
O O5 0.495351 0.342856 0.886538
O O6 0.422589 0.437337 0.775700
O O7 0.500000 0.428933 0.000000
O O8 0.446932 0.750425 0.778764
O O9 0.137460 0.713668 0.725925
O O10 0.500000 0.743523 0.000000
O O11 0.217017 0.500000 0.545902
O O12 0.323832 0.403073 0.549969
O O13 0.000000 0.417242 0.500000
O O14 0.250000 0.750000 0.500000
O O15 0.569927 0.681797 0.712396
O O16 0.000000 0.848124 0.500000
#
# Coordination Sequence:
#
# PCOD8115473 Si02
#       6
#     8   8   8   8   8   8
#     4  11  23  44  70  96 135 183 233 287 346 412
#     4  11  25  44  71 102 139 183 233 285 354 417
#     4  11  25  45  72 103 139 184 235 290 351 419
#     4  11  25  45  70 101 141 185 232 291 353 418
#     4  12  26  46  71 104 141 186 235 290 355 423
#     4  12  27  45  69 102 143 184 238 291 351 418
#
# _framework density 22.838363000000001
#
# number of rings (size 3 to 8) (size 9 to 14) (size 15 to 20)
#    0.000    0.667    3.333    3.000    4.667    8.667 
#    0.000    0.000    0.000    0.000    0.000    0.000 
#    0.000    0.000    0.000    0.000    0.000    0.000 
#
# Total GULP energy -297631.652877 kJ/mol
# GULP energy per Si atom -12401.318870 kJ/mol
# Density = 2.278638 g / cm^3
# Si number density = 22.838363 Si / 1000 Ang^3
#
#
#
# Elastic Constant Matrix: (Units=GPa)
#
#
# Indices 1 2 3 4 5 6 
#
# 1 174.3199 40.4884 58.0011 0.0000 10.7106 0.0000
# 2 40.4884 87.0659 32.4783 0.0000 18.8406 0.0000
# 3 58.0011 32.4783 102.6615 0.0000 17.4589 0.0000
# 4 0.0000 0.0000 0.0000 28.3034 0.0000 8.9669
# 5 10.7106 18.8406 17.4589 0.0000 65.7632 0.0000
# 6 0.0000 0.0000 0.0000 8.9669 0.0000 36.7691
#
#
#
# Elastic Compliance Matrix: (Units=1/GPa)
#
#
# Indices 1 2 3 4 5 6 
#
# 1 0.007406 -0.002199 -0.003551 0.000000 0.000366 0.000000
# 2 -0.002199 0.014172 -0.002735 0.000000 -0.002976 0.000000
# 3 -0.003551 -0.002735 0.012966 0.000000 -0.002080 0.000000
# 4 0.000000 0.000000 0.000000 0.038290 0.000000 -0.009338
# 5 0.000366 -0.002976 -0.002080 0.000000 0.016551 0.000000
# 6 0.000000 0.000000 0.000000 -0.009338 0.000000 0.029474
#
#
# Mechanical properties :
#
#
# Convention : Reuss Voigt Hill
#
# Bulk Modulus (GPa) = 56.90037 69.55367 63.22702
# Shear Modulus (GPa) = 35.28875 41.70578 38.49727
#
# Velocity S-wave (km/s) = 3.93511 4.27796 4.11011
# Velocity P-wave (km/s) = 6.75390 7.41094 7.09004
#
# Compressibility (1/GPa) = 0.01757458
#
# Stress axis : x y z
#
# Youngs Moduli (GPa) = 135.02001 70.55972 77.12397
#
# Poissons Ratio (x) = 0.15515 0.27387
# Poissons Ratio (y) = 0.29688 0.21095
# Poissons Ratio (z) = 0.47947 0.19300
#
# Static dielectric constant tensor:
#      x y z
#    x 4.604400 0.000000 -0.057580 
#    y 0.000000 4.029840 0.000000 
#    z -0.057580 0.000000 4.046840 
# 
# 
# High freq. dielectric constant tensor:
#      x y z
#    x 1.924180 0.000000 0.004320 
#    y 0.000000 1.894970 0.000000 
#    z 0.004320 0.000000 1.902380 
# 
# From -- ./inp_files/200238.got.cif
#   From: 2010.06.25/outbox.cif.g09.slc.cpg/sg12_101_cif.got.tgz:200238.got - 2010.06.28 00:19:55.
