data_PCOD8115796
_publ_section_title
;
Structure prediction by ZEFSAII (Michael W. Deem and Ramdas Pophale) SiO2 
 PCOD8115796
Probable space group: C 2/M
;
_chemical_formula_sum "Si O2"
_cell_formula_units_Z 48
_cell_length_a 9.834582
_cell_length_b 24.892577
_cell_length_c 15.660441
_cell_angle_alpha 90.000000
_cell_angle_beta 34.432419
_cell_angle_gamma 90.000000
_cell_volume 2167.761511
_symmetry_space_group_name_H-M "C 2/M"
_symmetry_group_IT_number 12
_symmetry_cell_setting 'monoclinic'
loop_
_space_group_symop_operation_xyz
x,y,z
-x,y,-z
-x,-y,-z
x,-y,z
1/2+x,1/2+y,z
1/2-x,1/2+y,-z
1/2-x,1/2-y,-z
1/2+x,1/2-y,z
loop_
_atom_site_type_symbol
_atom_site_label
_atom_site_fract_x
_atom_site_fract_y
_atom_site_fract_z
Si Si1 0.067709 0.125899 0.060711
Si Si2 0.556031 0.612067 0.560478
Si Si3 0.141503 0.238545 0.810972
Si Si4 0.639758 0.784413 0.629472
Si Si5 0.726657 0.562476 0.642763
Si Si6 0.954730 0.353361 0.114313
O O1 0.035147 0.188187 0.100336
O O2 0.921732 0.092098 0.206567
O O3 0.356726 0.118265 0.918902
O O4 0.000000 0.108186 0.000000
O O5 0.500000 0.580754 0.500000
O O6 0.764922 0.654823 0.429726
O O7 0.627364 0.571768 0.598714
O O8 0.316786 0.642387 0.713994
O O9 0.353299 0.217767 0.764309
O O10 0.225626 0.256820 0.672891
O O11 0.998679 0.289566 0.922127
O O12 0.750000 0.750000 0.500000
O O13 0.713471 0.500000 0.671266
O O14 0.000000 0.583828 0.500000
O O15 0.000000 0.381892 0.000000
#
# Coordination Sequence:
#
# PCOD8115796 Si02
#       6
#     8   8   8   8   8   8
#     4  12  26  44  70 102 142 190 234 282 355 416
#     4  12  24  45  71 101 139 182 236 286 346 416
#     4  12  23  39  62  98 142 190 234 272 332 412
#     4  12  21  37  60  95 133 184 232 279 323 401
#     4  11  27  52  78 103 133 176 238 306 358 410
#     4  12  23  43  62 101 145 186 224 283 337 417
#
# _framework density 22.142657
#
# number of rings (size 3 to 8) (size 9 to 14) (size 15 to 20)
#    0.000    0.167    5.000    5.500    2.333    0.667 
#    0.000    1.667    0.000    0.000    0.000    0.000 
#    0.000    0.000    0.000    0.000    0.000    0.000 
#
# Total GULP energy -297453.907619 kJ/mol
# GULP energy per Si atom -12393.912817 kJ/mol
# Density = 2.209226 g / cm^3
# Si number density = 22.142657 Si / 1000 Ang^3
#
#
#
# Elastic Constant Matrix: (Units=GPa)
#
#
# Indices 1 2 3 4 5 6 
#
# 1 167.0511 28.4812 61.4286 0.0000 10.8375 0.0000
# 2 28.4812 43.5966 21.4466 -0.0004 -8.7648 0.0000
# 3 61.4286 21.4466 84.3073 -0.0003 3.6998 -0.0009
# 4 0.0000 -0.0004 -0.0003 16.0472 -0.0004 3.6137
# 5 10.8375 -8.7648 3.6998 -0.0004 53.1411 0.0002
# 6 0.0000 0.0000 -0.0009 3.6137 0.0002 20.5542
#
#
#
# Elastic Compliance Matrix: (Units=1/GPa)
#
#
# Indices 1 2 3 4 5 6 
#
# 1 0.008667 -0.003419 -0.005359 0.000000 -0.001958 0.000000
# 2 -0.003419 0.028850 -0.005103 0.000001 0.005811 0.000000
# 3 -0.005359 -0.005103 0.017105 0.000000 -0.000940 0.000001
# 4 0.000000 0.000001 0.000000 0.064885 0.000001 -0.011408
# 5 -0.001958 0.005811 -0.000940 0.000001 0.020241 0.000000
# 6 0.000000 0.000000 0.000001 -0.011408 0.000000 0.050658
#
#
# Mechanical properties :
#
#
# Convention : Reuss Voigt Hill
#
# Bulk Modulus (GPa) = 37.23010 57.51863 47.37436
# Shear Modulus (GPa) = 22.01465 30.18840 26.10153
#
# Velocity S-wave (km/s) = 3.15654 3.69638 3.43707
# Velocity P-wave (km/s) = 5.48956 6.65210 6.09859
#
# Compressibility (1/GPa) = 0.02685999
#
# Stress axis : x y z
#
# Youngs Moduli (GPa) = 115.38139 34.66229 58.46091
#
# Poissons Ratio (x) = 0.11852 0.31330
# Poissons Ratio (y) = 0.39453 0.29830
# Poissons Ratio (z) = 0.61835 0.17687
#
# Static dielectric constant tensor:
#      x y z
#    x 6.225860 0.000000 -0.606280 
#    y 0.000000 3.494800 0.000000 
#    z -0.606280 0.000000 4.341120 
# 
# 
# High freq. dielectric constant tensor:
#      x y z
#    x 1.902300 0.000000 0.005160 
#    y 0.000000 1.822020 0.000000 
#    z 0.005160 0.000000 1.890710 
# 
# From -- ./inp_files/200120.got.cif
#   From: 2010.06.25/outbox.cif.g09.slc.cpg/sg12_101_cif.got.tgz:200120.got - 2010.06.28 00:19:55.
