data_PCOD8115876
_publ_section_title
;
Structure prediction by ZEFSAII (Michael W. Deem and Ramdas Pophale) SiO2 
 PCOD8115876
Probable space group: C 2/M
;
_chemical_formula_sum "Si O2"
_cell_formula_units_Z 64
_cell_length_a 10.253783
_cell_length_b 14.919955
_cell_length_c 30.539560
_cell_angle_alpha 90.000000
_cell_angle_beta 133.185911
_cell_angle_gamma 90.000000
_cell_volume 3406.618571
_symmetry_space_group_name_H-M "C 2/M"
_symmetry_group_IT_number 12
_symmetry_cell_setting 'monoclinic'
loop_
_space_group_symop_operation_xyz
x,y,z
-x,y,-z
-x,-y,-z
x,-y,z
1/2+x,1/2+y,z
1/2-x,1/2+y,-z
1/2-x,1/2-y,-z
1/2+x,1/2-y,z
loop_
_atom_site_type_symbol
_atom_site_label
_atom_site_fract_x
_atom_site_fract_y
_atom_site_fract_z
Si Si1 0.960991 0.753799 0.232621
Si Si2 0.463130 0.602560 0.680573
Si Si3 0.528704 0.602859 0.935553
Si Si4 0.227746 0.396943 0.317152
Si Si5 0.210078 0.397302 0.926780
Si Si6 0.043892 0.242509 0.151669
Si Si7 0.801280 0.393560 0.454768
Si Si8 0.508522 0.393323 0.452981
O O1 0.000801 0.775953 0.191853
O O2 0.753103 0.741931 0.192325
O O3 0.038664 0.837471 0.276923
O O4 0.052635 0.662488 0.270255
O O5 0.441581 0.500000 0.690471
O O6 0.645558 0.615769 0.695639
O O7 0.295821 0.633132 0.612518
O O8 0.519567 0.500000 0.918331
O O9 0.349969 0.628871 0.920995
O O10 0.549107 0.664047 0.897645
O O11 0.700941 0.618760 0.005588
O O12 0.166065 0.500000 0.307188
O O13 0.332367 0.365717 0.385051
O O14 0.150062 0.500000 0.907843
O O15 0.033689 0.337820 0.881680
O O16 0.810872 0.500000 0.460832
O O17 0.687150 0.356509 0.469885
O O18 0.000000 0.351061 0.500000
O O19 0.500000 0.352510 0.500000
O O20 0.518056 0.500000 0.456679
#
# Coordination Sequence:
#
# PCOD8115876 Si02
#       8
#     8   8   8   8   8   8   8   8
#     4  12  24  38  57  83 116 153 195 236 271 330
#     4   9  19  38  59  78 110 153 190 230 284 342
#     4   9  19  38  63  90 118 147 186 233 278 329
#     4   9  19  38  60  78 108 154 193 229 280 343
#     4   9  19  38  64  89 115 152 189 223 277 344
#     4  12  23  38  59  87 118 150 189 236 279 322
#     4   8  14  28  52  78 103 136 179 227 283 342
#     4   8  14  28  52  79 103 133 180 233 281 332
#
# _framework density 18.786957999999998
#
# number of rings (size 3 to 8) (size 9 to 14) (size 15 to 20)
#    0.000    2.500    2.500    2.625    0.000    2.000 
#    2.250    0.625    0.000    4.500    0.000    0.000 
#    0.000    0.000    0.000    0.000    0.000    0.000 
#
# Total GULP energy -396796.680610 kJ/mol
# GULP energy per Si atom -12399.896269 kJ/mol
# Density = 1.874420 g / cm^3
# Si number density = 18.786958 Si / 1000 Ang^3
#
#
#
# Elastic Constant Matrix: (Units=GPa)
#
#
# Indices 1 2 3 4 5 6 
#
# 1 111.4776 48.6885 81.4364 0.0000 -5.8396 0.0000
# 2 48.6885 86.5160 66.0089 0.0000 -5.6707 0.0000
# 3 81.4364 66.0089 130.2584 0.0000 -6.3117 0.0000
# 4 0.0000 0.0000 0.0000 15.3994 0.0000 0.1738
# 5 -5.8396 -5.6707 -6.3117 0.0000 41.8130 0.0000
# 6 0.0000 0.0000 0.0000 0.1738 0.0000 22.8121
#
#
#
# Elastic Compliance Matrix: (Units=1/GPa)
#
#
# Indices 1 2 3 4 5 6 
#
# 1 0.016816 -0.002322 -0.009306 0.000000 0.000629 0.000000
# 2 -0.002322 0.019218 -0.008237 0.000000 0.001039 0.000000
# 3 -0.009306 -0.008237 0.017681 0.000000 0.000252 0.000000
# 4 0.000000 0.000000 0.000000 0.064943 0.000000 -0.000495
# 5 0.000629 0.001039 0.000252 0.000000 0.024183 0.000000
# 6 0.000000 0.000000 0.000000 -0.000495 0.000000 0.043840
#
#
# Mechanical properties :
#
#
# Convention : Reuss Voigt Hill
#
# Bulk Modulus (GPa) = 71.50256 80.05775 75.78016
# Shear Modulus (GPa) = 21.63839 24.81278 23.22558
#
# Velocity S-wave (km/s) = 3.39747 3.63815 3.51986
# Velocity P-wave (km/s) = 7.31660 7.76879 7.54609
#
# Compressibility (1/GPa) = 0.01398551
#
# Stress axis : x y z
#
# Youngs Moduli (GPa) = 59.46884 52.03559 56.55786
#
# Poissons Ratio (x) = 0.12083 0.52631
# Poissons Ratio (y) = 0.13809 0.46584
# Poissons Ratio (z) = 0.55340 0.42859
#
# Static dielectric constant tensor:
#      x y z
#    x 3.413210 0.000000 -0.026620 
#    y 0.000000 3.258220 0.000000 
#    z -0.026620 0.000000 3.606980 
# 
# 
# High freq. dielectric constant tensor:
#      x y z
#    x 1.714930 0.000000 -0.002190 
#    y 0.000000 1.718730 0.000000 
#    z -0.002190 0.000000 1.741210 
# 
# From -- ./inp_files/372610.got.cif
#   From: 2010.06.25/outbox.cif.g09.slc.cpg/sg12_187_cif.got.tgz:372610.got - 2010.06.28 00:19:55.
