data_PCOD8115897
_publ_section_title
;
Structure prediction by ZEFSAII (Michael W. Deem and Ramdas Pophale) SiO2 
 PCOD8115897
Probable space group: C 2/M
;
_chemical_formula_sum "Si O2"
_cell_formula_units_Z 36
_cell_length_a 17.412462
_cell_length_b 13.496318
_cell_length_c 15.029122
_cell_angle_alpha 90.000000
_cell_angle_beta 152.629348
_cell_angle_gamma 90.000000
_cell_volume 1623.775853
_symmetry_space_group_name_H-M "C 2/M"
_symmetry_group_IT_number 12
_symmetry_cell_setting 'monoclinic'
loop_
_space_group_symop_operation_xyz
x,y,z
-x,y,-z
-x,-y,-z
x,-y,z
1/2+x,1/2+y,z
1/2-x,1/2+y,-z
1/2-x,1/2-y,-z
1/2+x,1/2-y,z
loop_
_atom_site_type_symbol
_atom_site_label
_atom_site_fract_x
_atom_site_fract_y
_atom_site_fract_z
Si Si1 0.613236 0.000000 0.366530
Si Si2 0.567766 0.785460 0.330626
Si Si3 0.775538 0.500000 0.922591
Si Si4 0.070804 0.806201 0.974994
Si Si5 0.501837 0.500000 0.209567
Si Si6 0.618778 0.303962 0.704878
O O1 0.570913 0.102600 0.374930
O O2 0.814668 0.000000 0.551351
O O3 0.476542 0.000000 0.145588
O O4 0.750000 0.750000 0.500000
O O5 0.476112 0.783788 0.140757
O O6 0.485065 0.705943 0.311036
O O7 0.657213 0.500000 0.889085
O O8 0.729360 0.403084 0.818477
O O9 0.270350 0.795803 0.190078
O O10 0.008626 0.907491 0.867899
O O11 0.000000 0.790705 0.000000
O O12 0.500000 0.310493 0.500000
#
# Coordination Sequence:
#
# PCOD8115897 Si02
#       6
#     4   8   4   8   4   8
#     4  12  24  40  76 105 131 186 238 278 356 422
#     4  12  23  46  71  99 142 186 232 291 355 414
#     4  12  23  47  74 104 140 185 237 292 356 416
#     4  12  25  45  69 102 143 186 230 290 350 413
#     4  12  25  45  74 103 145 183 235 296 346 420
#     4  12  26  45  71 104 142 186 235 292 351 418
#
# _framework density 22.170548
#
# number of rings (size 3 to 8) (size 9 to 14) (size 15 to 20)
#    0.000    0.000    6.667    4.000    0.000    0.000 
#    0.000    5.556    0.000    0.000    0.000    0.000 
#    0.000    0.000    0.000    0.000    0.000    0.000 
#
# Total GULP energy -223001.822451 kJ/mol
# GULP energy per Si atom -12388.990136 kJ/mol
# Density = 2.212009 g / cm^3
# Si number density = 22.170548 Si / 1000 Ang^3
#
#
#
# Elastic Constant Matrix: (Units=GPa)
#
#
# Indices 1 2 3 4 5 6 
#
# 1 115.5690 11.9988 57.9097 0.0000 -9.0821 0.0000
# 2 11.9988 139.4143 56.8401 0.0002 -0.4946 0.0002
# 3 57.9097 56.8401 185.2743 -0.0001 4.2260 -0.0002
# 4 0.0000 0.0002 -0.0001 45.2087 0.0002 -2.5550
# 5 -9.0821 -0.4946 4.2260 0.0002 38.4575 0.0001
# 6 0.0000 0.0002 -0.0002 -2.5550 0.0001 26.5823
#
#
#
# Elastic Compliance Matrix: (Units=1/GPa)
#
#
# Indices 1 2 3 4 5 6 
#
# 1 0.010601 0.000544 -0.003547 0.000000 0.002900 0.000000
# 2 0.000544 0.008232 -0.002708 0.000000 0.000532 0.000000
# 3 -0.003547 -0.002708 0.007375 0.000000 -0.001683 0.000000
# 4 0.000000 0.000000 0.000000 0.022240 0.000000 0.002138
# 5 0.002900 0.000532 -0.001683 0.000000 0.026879 0.000000
# 6 0.000000 0.000000 0.000000 0.002138 0.000000 0.037825
#
#
# Mechanical properties :
#
#
# Convention : Reuss Voigt Hill
#
# Bulk Modulus (GPa) = 67.62414 77.08385 72.35400
# Shear Modulus (GPa) = 38.60930 42.95030 40.77980
#
# Velocity S-wave (km/s) = 4.17762 4.40622 4.29344
# Velocity P-wave (km/s) = 7.33744 7.79297 7.56863
#
# Compressibility (1/GPa) = 0.01478762
#
# Stress axis : x y z
#
# Youngs Moduli (GPa) = 94.32677 121.47962 135.59386
#
# Poissons Ratio (x) = -0.06607 0.48090
# Poissons Ratio (y) = -0.05130 0.36713
# Poissons Ratio (z) = 0.33454 0.32891
#
# Static dielectric constant tensor:
#      x y z
#    x 3.728850 0.000000 0.217870 
#    y 0.000000 4.569700 0.000000 
#    z 0.217870 0.000000 4.499060 
# 
# 
# High freq. dielectric constant tensor:
#      x y z
#    x 1.839990 0.000000 0.016040 
#    y 0.000000 1.894650 0.000000 
#    z 0.016040 0.000000 1.896860 
# 
# From -- ./inp_files/225516.got.cif
#   From: 2010.06.25/outbox.cif.g09.slc.cpg/sg12_113_cif.got.tgz:225516.got - 2010.06.28 00:19:55.
