data_PCOD8115665
_publ_section_title
;
Structure prediction by ZEFSAII (Michael W. Deem and Ramdas Pophale) SiO2 
 PCOD8115665
Probable space group: C 2/M
;
_chemical_formula_sum "Si O2"
_cell_formula_units_Z 52
_cell_length_a 24.247410
_cell_length_b 11.734737
_cell_length_c 11.429302
_cell_angle_alpha 90.000000
_cell_angle_beta 130.234454
_cell_angle_gamma 90.000000
_cell_volume 2482.647107
_symmetry_space_group_name_H-M "C 2/M"
_symmetry_group_IT_number 12
_symmetry_cell_setting 'monoclinic'
loop_
_space_group_symop_operation_xyz
x,y,z
-x,y,-z
-x,-y,-z
x,-y,z
1/2+x,1/2+y,z
1/2-x,1/2+y,-z
1/2-x,1/2-y,-z
1/2+x,1/2-y,z
loop_
_atom_site_type_symbol
_atom_site_label
_atom_site_fract_x
_atom_site_fract_y
_atom_site_fract_z
Si Si1 0.101007 0.500000 0.360590
Si Si2 0.378838 0.000000 0.873615
Si Si3 0.669214 0.785840 0.567079
Si Si4 0.076598 0.291027 0.664875
Si Si5 0.426180 0.632815 0.135914
Si Si6 0.055467 0.500000 0.790280
Si Si7 0.589506 0.366670 0.289591
Si Si8 0.835023 0.749571 0.819940
O O1 0.080276 0.500000 0.194987
O O2 0.146747 0.388709 0.452450
O O3 0.030618 0.500000 0.346140
O O4 0.330019 0.112813 0.816347
O O5 0.434541 0.000000 0.056768
O O6 0.640524 0.797264 0.659172
O O7 0.637436 0.670082 0.467069
O O8 0.754895 0.792516 0.686940
O O9 0.078182 0.170434 0.734410
O O10 0.090390 0.389358 0.779185
O O11 0.000000 0.310230 0.500000
O O12 0.409153 0.500000 0.103986
O O13 0.505738 0.662182 0.196831
O O14 0.365315 0.701542 0.982582
O O15 0.601528 0.500000 0.282992
O O16 0.611966 0.295191 0.207601
#
# Coordination Sequence:
#
# PCOD8115665 Si02
#       8
#     4   4   8   8   8   4   8   8
#     4  12  24  42  72 107 134 179 224 281 349 399
#     4  12  27  43  74 102 137 174 224 284 347 401
#     4  12  27  42  69 102 139 183 227 278 340 405
#     4  12  23  45  70  99 137 180 232 280 335 402
#     4  11  25  46  71 101 132 179 231 279 338 403
#     4  12  23  46  71 106 136 172 228 292 333 403
#     4  11  24  44  73  98 135 178 225 282 339 404
#     4  12  27  46  66 102 140 176 224 282 347 408
#
# _framework density 20.945385000000002
#
# number of rings (size 3 to 8) (size 9 to 14) (size 15 to 20)
#    0.000    0.308    6.154    2.308    3.231    4.000 
#    0.000    0.000    0.000    0.000    0.000    0.000 
#    0.000    0.000    0.000    0.000    0.000    0.000 
#
# Total GULP energy -322536.921097 kJ/mol
# GULP energy per Si atom -12405.266196 kJ/mol
# Density = 2.089771 g / cm^3
# Si number density = 20.945385 Si / 1000 Ang^3
#
#
#
# Elastic Constant Matrix: (Units=GPa)
#
#
# Indices 1 2 3 4 5 6 
#
# 1 47.3234 32.9074 37.8973 0.0000 -17.2156 0.0000
# 2 32.9074 119.7800 46.4481 0.0000 -11.2329 0.0000
# 3 37.8973 46.4481 106.8221 0.0000 -9.7354 0.0000
# 4 0.0000 0.0000 0.0000 35.5852 0.0000 -10.6522
# 5 -17.2156 -11.2329 -9.7354 0.0000 35.7224 0.0000
# 6 0.0000 0.0000 0.0000 -10.6522 0.0000 18.9062
#
#
#
# Elastic Compliance Matrix: (Units=1/GPa)
#
#
# Indices 1 2 3 4 5 6 
#
# 1 0.037679 -0.005244 -0.009827 0.000000 0.013831 0.000000
# 2 -0.005244 0.010915 -0.002875 0.000000 0.000122 0.000000
# 3 -0.009827 -0.002875 0.013930 0.000000 -0.001843 0.000000
# 4 0.000000 0.000000 0.000000 0.033803 0.000000 0.019045
# 5 0.013831 0.000122 -0.001843 0.000000 0.034195 0.000000
# 6 0.000000 0.000000 0.000000 0.019045 0.000000 0.063623
#
#
# Mechanical properties :
#
#
# Convention : Reuss Voigt Hill
#
# Bulk Modulus (GPa) = 37.54715 56.49235 47.01975
# Shear Modulus (GPa) = 20.92810 28.48758 24.70784
#
# Velocity S-wave (km/s) = 3.16440 3.69194 3.43830
# Velocity P-wave (km/s) = 5.59610 6.72337 6.18547
#
# Compressibility (1/GPa) = 0.02663318
#
# Stress axis : x y z
#
# Youngs Moduli (GPa) = 26.54023 91.61285 71.78994
#
# Poissons Ratio (x) = 0.48041 0.70545
# Poissons Ratio (y) = 0.13917 0.20638
# Poissons Ratio (z) = 0.26080 0.26337
#
# Static dielectric constant tensor:
#      x y z
#    x 3.714700 0.000000 -0.181750 
#    y 0.000000 3.953330 0.000000 
#    z -0.181750 0.000000 3.786580 
# 
# 
# High freq. dielectric constant tensor:
#      x y z
#    x 1.814070 0.000000 -0.013430 
#    y 0.000000 1.834220 0.000000 
#    z -0.013430 0.000000 1.826900 
# 
# From -- ./inp_files/175358.got.cif
#   From: 2010.06.25/outbox.cif.g09.slc.cpg/sg12_88_cif.got.tgz:175358.got - 2010.06.28 00:19:55.
