data_PCOD8115294
_publ_section_title
;
Structure prediction by ZEFSAII (Michael W. Deem and Ramdas Pophale) SiO2 
 PCOD8115294
Probable space group: C 2/M
;
_chemical_formula_sum "Si O2"
_cell_formula_units_Z 64
_cell_length_a 21.016378
_cell_length_b 23.319771
_cell_length_c 18.568771
_cell_angle_alpha 90.000000
_cell_angle_beta 160.277237
_cell_angle_gamma 90.000000
_cell_volume 3071.139488
_symmetry_space_group_name_H-M "C 2/M"
_symmetry_group_IT_number 12
_symmetry_cell_setting 'monoclinic'
loop_
_space_group_symop_operation_xyz
x,y,z
-x,y,-z
-x,-y,-z
x,-y,z
1/2+x,1/2+y,z
1/2-x,1/2+y,-z
1/2-x,1/2-y,-z
1/2+x,1/2-y,z
loop_
_atom_site_type_symbol
_atom_site_label
_atom_site_fract_x
_atom_site_fract_y
_atom_site_fract_z
Si Si1 0.865883 0.180950 0.964049
Si Si2 0.235620 0.116633 0.008276
Si Si3 0.408574 0.132912 0.830364
Si Si4 0.152246 0.067500 0.447467
Si Si5 0.385526 0.065443 0.556674
Si Si6 0.795436 0.305961 0.950808
Si Si7 0.580541 0.716584 0.506794
Si Si8 0.277912 0.165518 0.342370
O O1 0.847730 0.241198 0.986532
O O2 0.720035 0.171323 0.742691
O O3 0.828889 0.130269 0.980041
O O4 0.071702 0.174982 0.152593
O O5 0.322458 0.174176 0.062501
O O6 0.060652 0.090922 0.777173
O O7 0.399591 0.069188 0.187065
O O8 0.271924 0.089483 0.643279
O O9 0.287534 0.188807 0.723872
O O10 0.500000 0.105074 0.000000
O O11 0.582873 0.150661 0.966797
O O12 0.249445 0.086615 0.476073
O O13 0.148540 0.000000 0.450222
O O14 0.357597 0.105299 0.456325
O O15 0.340535 0.000000 0.486586
O O16 0.571184 0.316530 0.702906
O O17 0.500000 0.713844 0.500000
O O18 0.592939 0.782271 0.491522
#
# Coordination Sequence:
#
# PCOD8115294 Si02
#       8
#     8   8   8   8   8   8   8   8
#     4  11  23  40  65 100 138 174 213 276 331 398
#     4  12  24  43  68  97 128 174 229 269 331 400
#     4  12  23  41  68 100 134 167 218 267 332 406
#     4  11  25  46  66  93 133 173 221 281 332 385
#     4  11  25  46  69  93 129 180 231 280 330 385
#     4  12  23  39  63 101 135 175 209 266 332 404
#     4  12  22  38  68  96 136 174 206 266 332 396
#     4  11  23  42  66  97 138 176 221 271 336 386
#
# _framework density 20.839171
#
# number of rings (size 3 to 8) (size 9 to 14) (size 15 to 20)
#    0.000    0.500    7.500    1.500    0.000    0.250 
#    0.000    5.625    0.000    1.125    0.000    0.000 
#    0.000    0.000    0.000    0.000    0.000    0.000 
#
# Total GULP energy -396708.135499 kJ/mol
# GULP energy per Si atom -12397.129234 kJ/mol
# Density = 2.079174 g / cm^3
# Si number density = 20.839171 Si / 1000 Ang^3
#
#
#
# Elastic Constant Matrix: (Units=GPa)
#
#
# Indices 1 2 3 4 5 6 
#
# 1 90.4168 37.6604 25.1598 0.0000 -10.0599 -0.0001
# 2 37.6604 94.5071 36.5490 0.0005 -13.9515 0.0002
# 3 25.1598 36.5490 113.4662 -0.0005 -1.8647 -0.0009
# 4 0.0000 0.0005 -0.0005 31.8380 -0.0005 -2.8750
# 5 -10.0599 -13.9515 -1.8647 -0.0005 24.4654 -0.0004
# 6 -0.0001 0.0002 -0.0009 -2.8750 -0.0004 22.4505
#
#
#
# Elastic Compliance Matrix: (Units=1/GPa)
#
#
# Indices 1 2 3 4 5 6 
#
# 1 0.013659 -0.004397 -0.001563 0.000000 0.002990 0.000000
# 2 -0.004397 0.014671 -0.003648 0.000000 0.006280 0.000000
# 3 -0.001563 -0.003648 0.010303 0.000000 -0.001938 0.000000
# 4 0.000000 0.000000 0.000000 0.031776 0.000001 0.004069
# 5 0.002990 0.006280 -0.001938 0.000001 0.045537 0.000001
# 6 0.000000 0.000000 0.000000 0.004069 0.000001 0.045064
#
#
# Mechanical properties :
#
#
# Convention : Reuss Voigt Hill
#
# Bulk Modulus (GPa) = 51.50044 55.23650 53.36847
# Shear Modulus (GPa) = 26.78115 29.01884 27.90000
#
# Velocity S-wave (km/s) = 3.58877 3.73569 3.66296
# Velocity P-wave (km/s) = 6.47605 6.72092 6.59962
#
# Compressibility (1/GPa) = 0.01941731
#
# Stress axis : x y z
#
# Youngs Moduli (GPa) = 73.21179 68.16083 97.05995
#
# Poissons Ratio (x) = 0.29971 0.15173
# Poissons Ratio (y) = 0.32192 0.35403
# Poissons Ratio (z) = 0.11445 0.24862
#
# Static dielectric constant tensor:
#      x y z
#    x 3.965910 0.000000 0.126310 
#    y 0.000000 3.515540 0.000000 
#    z 0.126310 0.000000 4.476280 
# 
# 
# High freq. dielectric constant tensor:
#      x y z
#    x 1.825470 0.000000 0.013610 
#    y 0.000000 1.795190 0.000000 
#    z 0.013610 0.000000 1.831800 
# 
# From -- ./inp_files/286442.got.cif
#   From: 2010.06.25/outbox.cif.g09.slc.cpg/sg12_144_cif.got.tgz:286442.got - 2010.06.28 00:19:55.
