data_PCOD8115920
_publ_section_title
;
Structure prediction by ZEFSAII (Michael W. Deem and Ramdas Pophale) SiO2 
 PCOD8115920
Probable space group: C 2/M
;
_chemical_formula_sum "Si O2"
_cell_formula_units_Z 48
_cell_length_a 14.533750
_cell_length_b 26.478664
_cell_length_c 11.584718
_cell_angle_alpha 90.000000
_cell_angle_beta 150.067375
_cell_angle_gamma 90.000000
_cell_volume 2224.556676
_symmetry_space_group_name_H-M "C 2/M"
_symmetry_group_IT_number 12
_symmetry_cell_setting 'monoclinic'
loop_
_space_group_symop_operation_xyz
x,y,z
-x,y,-z
-x,-y,-z
x,-y,z
1/2+x,1/2+y,z
1/2-x,1/2+y,-z
1/2-x,1/2-y,-z
1/2+x,1/2-y,z
loop_
_atom_site_type_symbol
_atom_site_label
_atom_site_fract_x
_atom_site_fract_y
_atom_site_fract_z
Si Si1 0.252855 0.663166 0.466553
Si Si2 0.289872 0.714852 0.264915
Si Si3 0.761240 0.444679 0.878319
Si Si4 0.837885 0.943560 0.482505
Si Si5 0.858495 0.348565 0.098943
Si Si6 0.415973 0.684857 0.020836
O O1 0.231304 0.682393 0.312451
O O2 0.287338 0.602596 0.511993
O O3 0.418213 0.693109 0.707981
O O4 0.062411 0.675684 0.327247
O O5 0.500000 0.733604 0.500000
O O6 0.273842 0.679527 0.135597
O O7 0.154375 0.761572 0.101635
O O8 0.832554 0.500000 0.991311
O O9 0.550276 0.437279 0.682685
O O10 0.783700 0.437439 0.765464
O O11 0.885775 0.405887 0.085518
O O12 0.802731 0.000000 0.497624
O O13 0.755324 0.345762 0.110122
O O14 0.500000 0.655649 0.000000
#
# Coordination Sequence:
#
# PCOD8115920 Si02
#       6
#     8   8   8   8   8   8
#     4  12  25  43  68  96 136 169 212 269 325 390
#     4  12  25  44  69  95 131 167 214 269 332 386
#     4   9  17  33  62  99 134 164 205 259 324 393
#     4   9  17  34  63  99 135 167 200 258 330 390
#     4  12  24  42  66  97 132 174 208 264 329 384
#     4  12  29  46  64  91 127 175 229 266 317 377
#
# _framework density 21.577332999999999
#
# number of rings (size 3 to 8) (size 9 to 14) (size 15 to 20)
#    0.000    1.000    5.000    3.000    2.333    2.000 
#    0.000    1.667    0.000    2.000    0.000    2.333 
#    0.000    0.000    0.000    0.000    0.000    0.000 
#
# Total GULP energy -297563.193431 kJ/mol
# GULP energy per Si atom -12398.466393 kJ/mol
# Density = 2.152822 g / cm^3
# Si number density = 21.577333 Si / 1000 Ang^3
#
#
#
# Elastic Constant Matrix: (Units=GPa)
#
#
# Indices 1 2 3 4 5 6 
#
# 1 101.5315 12.1800 31.8444 0.0000 10.4137 0.0000
# 2 12.1800 96.1067 41.9751 0.0000 -5.1680 0.0000
# 3 31.8444 41.9751 95.3594 0.0000 21.8897 0.0000
# 4 0.0000 0.0000 0.0000 23.2378 0.0000 7.7695
# 5 10.4137 -5.1680 21.8897 0.0000 27.1331 0.0000
# 6 0.0000 0.0000 0.0000 7.7695 0.0000 9.0103
#
#
#
# Elastic Compliance Matrix: (Units=1/GPa)
#
#
# Indices 1 2 3 4 5 6 
#
# 1 0.011055 -0.000039 -0.003312 0.000000 -0.001578 0.000000
# 2 -0.000039 0.014767 -0.008758 0.000000 0.009893 0.000000
# 3 -0.003312 -0.008758 0.019071 0.000000 -0.015782 0.000000
# 4 0.000000 0.000000 0.000000 0.060466 0.000000 -0.052140
# 5 -0.001578 0.009893 -0.015782 0.000000 0.052078 0.000000
# 6 0.000000 0.000000 0.000000 -0.052140 0.000000 0.155944
#
#
# Mechanical properties :
#
#
# Convention : Reuss Voigt Hill
#
# Bulk Modulus (GPa) = 48.37095 51.66627 50.01861
# Shear Modulus (GPa) = 14.51421 25.67613 20.09517
#
# Velocity S-wave (km/s) = 2.59638 3.45332 3.05505
# Velocity P-wave (km/s) = 5.60842 6.31643 5.97292
#
# Compressibility (1/GPa) = 0.02067356
#
# Stress axis : x y z
#
# Youngs Moduli (GPa) = 90.46069 67.71748 52.43690
#
# Poissons Ratio (x) = 0.00267 0.17367
# Poissons Ratio (y) = 0.00356 0.45925
# Poissons Ratio (z) = 0.29960 0.59308
#
# Static dielectric constant tensor:
#      x y z
#    x 3.848770 0.000000 0.140490 
#    y 0.000000 4.042770 0.000000 
#    z 0.140490 0.000000 3.820810 
# 
# 
# High freq. dielectric constant tensor:
#      x y z
#    x 1.831430 0.000000 0.032540 
#    y 0.000000 1.840710 0.000000 
#    z 0.032540 0.000000 1.840260 
# 
# From -- ./inp_files/149838.got.cif
#   From: 2010.06.25/outbox.cif.g09.slc.cpg/sg12_75_cif.got.tgz:149838.got - 2010.06.28 00:19:55.
