data_PCOD8115547
_publ_section_title
;
Structure prediction by ZEFSAII (Michael W. Deem and Ramdas Pophale) SiO2 
 PCOD8115547
Probable space group: C 2/M
;
_chemical_formula_sum "Si O2"
_cell_formula_units_Z 56
_cell_length_a 11.665070
_cell_length_b 26.949507
_cell_length_c 11.843306
_cell_angle_alpha 90.000000
_cell_angle_beta 48.619141
_cell_angle_gamma 90.000000
_cell_volume 2793.602218
_symmetry_space_group_name_H-M "C 2/M"
_symmetry_group_IT_number 12
_symmetry_cell_setting 'monoclinic'
loop_
_space_group_symop_operation_xyz
x,y,z
-x,y,-z
-x,-y,-z
x,-y,z
1/2+x,1/2+y,z
1/2-x,1/2+y,-z
1/2-x,1/2-y,-z
1/2+x,1/2-y,z
loop_
_atom_site_type_symbol
_atom_site_label
_atom_site_fract_x
_atom_site_fract_y
_atom_site_fract_z
Si Si1 0.313972 0.807908 0.878652
Si Si2 0.629131 0.650172 0.827114
Si Si3 0.540243 0.944266 0.662940
Si Si4 0.739406 0.945341 0.313872
Si Si5 0.368854 0.847113 0.281631
Si Si6 0.804045 0.800772 0.812573
Si Si7 0.649381 0.298823 0.583776
O O1 0.288164 0.846157 0.793132
O O2 0.494587 0.807481 0.787183
O O3 0.249126 0.755334 0.873981
O O4 0.215051 0.826691 0.052054
O O5 0.621104 0.593829 0.786905
O O6 0.634973 0.690407 0.725007
O O7 0.500000 0.664630 0.000000
O O8 0.652144 0.933318 0.485997
O O9 0.369894 0.941534 0.724078
O O10 0.568528 0.903763 0.745250
O O11 0.569318 0.000000 0.692924
O O12 0.812956 0.000000 0.271385
O O13 0.301112 0.832860 0.203483
O O14 0.236485 0.842125 0.460876
O O15 0.975632 0.797148 0.650974
O O16 0.750000 0.250000 0.500000
#
# Coordination Sequence:
#
# PCOD8115547 Si02
#       7
#     8   8   8   8   8   8   8
#     4  11  24  40  62  88 123 166 208 249 308 372
#     4  12  23  38  63  87 127 162 200 256 318 371
#     4   9  18  35  62  93 119 154 207 265 316 363
#     4   9  18  35  60  91 123 153 201 262 317 370
#     4  12  22  39  66  90 122 166 207 261 306 368
#     4  11  25  42  59  87 127 166 209 248 308 377
#     4  12  24  41  60  92 123 163 207 257 304 367
#
# _framework density 20.045802999999999
#
# number of rings (size 3 to 8) (size 9 to 14) (size 15 to 20)
#    0.000    1.143    5.714    2.571    0.000    0.857 
#    0.000    0.000    0.000    5.143    0.000    0.000 
#    0.000    0.000    0.000    0.000    0.000    0.000 
#
# Total GULP energy -346945.730439 kJ/mol
# GULP energy per Si atom -12390.918944 kJ/mol
# Density = 2.000018 g / cm^3
# Si number density = 20.045803 Si / 1000 Ang^3
#
#
#
# Elastic Constant Matrix: (Units=GPa)
#
#
# Indices 1 2 3 4 5 6 
#
# 1 83.9836 41.3902 19.7044 0.0000 12.2395 0.0000
# 2 41.3902 118.3913 30.8476 0.0000 16.8244 0.0000
# 3 19.7044 30.8476 93.0367 0.0000 5.5867 0.0000
# 4 0.0000 0.0000 0.0000 26.5329 0.0000 2.0772
# 5 12.2395 16.8244 5.5867 0.0000 30.5989 0.0000
# 6 0.0000 0.0000 0.0000 2.0772 0.0000 29.8372
#
#
#
# Elastic Compliance Matrix: (Units=1/GPa)
#
#
# Indices 1 2 3 4 5 6 
#
# 1 0.014881 -0.004340 -0.001515 0.000000 -0.003289 0.000000
# 2 -0.004340 0.011191 -0.002554 0.000000 -0.003951 0.000000
# 3 -0.001515 -0.002554 0.011926 0.000000 -0.000167 0.000000
# 4 0.000000 0.000000 0.000000 0.037896 0.000000 -0.002638
# 5 -0.003289 -0.003951 -0.000167 0.000000 0.036199 0.000000
# 6 0.000000 0.000000 0.000000 -0.002638 0.000000 0.033699
#
#
# Mechanical properties :
#
#
# Convention : Reuss Voigt Hill
#
# Bulk Modulus (GPa) = 47.21591 53.25510 50.23550
# Shear Modulus (GPa) = 29.46891 30.95842 30.21367
#
# Velocity S-wave (km/s) = 3.83832 3.93413 3.88652
# Velocity P-wave (km/s) = 6.57638 6.87465 6.72717
#
# Compressibility (1/GPa) = 0.02117930
#
# Stress axis : x y z
#
# Youngs Moduli (GPa) = 67.19994 89.35881 83.84914
#
# Poissons Ratio (x) = 0.38784 0.12704
# Poissons Ratio (y) = 0.29167 0.21415
# Poissons Ratio (z) = 0.10181 0.22822
#
# Static dielectric constant tensor:
#      x y z
#    x 3.529970 0.000000 0.014660 
#    y 0.000000 3.606530 0.000000 
#    z 0.014660 0.000000 3.685830 
# 
# 
# High freq. dielectric constant tensor:
#      x y z
#    x 1.766030 0.000000 -0.000810 
#    y 0.000000 1.774090 0.000000 
#    z -0.000810 0.000000 1.781370 
# 
# From -- ./inp_files/136918.got.cif
#   From: 2010.06.25/outbox.cif.g09.slc.cpg/sg12_69_cif.got.tgz:136918.got - 2010.06.28 00:19:55.
