data_PCOD8115216
_publ_section_title
;
Structure prediction by ZEFSAII (Michael W. Deem and Ramdas Pophale) SiO2 
 PCOD8115216
Probable space group: C 2/M
;
_chemical_formula_sum "Si O2"
_cell_formula_units_Z 56
_cell_length_a 14.470516
_cell_length_b 8.497049
_cell_length_c 29.400212
_cell_angle_alpha 90.000000
_cell_angle_beta 126.509286
_cell_angle_gamma 90.000000
_cell_volume 2905.555885
_symmetry_space_group_name_H-M "C 2/M"
_symmetry_group_IT_number 12
_symmetry_cell_setting 'monoclinic'
loop_
_space_group_symop_operation_xyz
x,y,z
-x,y,-z
-x,-y,-z
x,-y,z
1/2+x,1/2+y,z
1/2-x,1/2+y,-z
1/2-x,1/2-y,-z
1/2+x,1/2-y,z
loop_
_atom_site_type_symbol
_atom_site_label
_atom_site_fract_x
_atom_site_fract_y
_atom_site_fract_z
Si Si1 0.214010 0.183373 0.441046
Si Si2 0.901401 0.182597 0.435671
Si Si3 0.089649 0.313383 0.063342
Si Si4 0.469231 0.817197 0.363152
Si Si5 0.208050 0.314607 0.765341
Si Si6 0.167988 0.313642 0.855469
Si Si7 0.550737 0.186001 0.153587
O O1 0.250000 0.250000 0.500000
O O2 0.278731 0.282068 0.421598
O O3 0.080058 0.207127 0.392901
O O4 0.245694 0.000000 0.447885
O O5 0.909221 0.291410 0.393896
O O6 0.000000 0.231638 0.500000
O O7 0.912080 0.000000 0.425275
O O8 0.094849 0.500000 0.064087
O O9 0.215420 0.248752 0.087258
O O10 0.049017 0.251572 0.101028
O O11 0.000000 0.248145 0.000000
O O12 0.384046 0.759298 0.298713
O O13 0.502376 0.000000 0.367122
O O14 0.224407 0.500000 0.769477
O O15 0.163961 0.256070 0.801829
O O16 0.330654 0.239267 0.788210
O O17 0.167380 0.500000 0.858025
O O18 0.057959 0.243812 0.850389
O O19 0.544241 0.000000 0.152732
#
# Coordination Sequence:
#
# PCOD8115216 Si02
#       7
#     8   8   8   8   8   8   8
#     4  12  24  39  60  85 113 146 182 223 274 332
#     4  11  23  39  60  84 110 143 182 223 272 329
#     4   9  18  32  49  75 111 145 181 226 272 319
#     4  11  23  39  59  84 114 146 182 228 281 339
#     4   9  20  37  55  78 107 138 176 224 273 320
#     4   9  18  34  54  76 105 141 181 224 268 319
#     4   9  18  33  54  77 104 144 185 223 271 323
#
# _framework density 19.273420999999999
#
# number of rings (size 3 to 8) (size 9 to 14) (size 15 to 20)
#    0.000    2.000    1.429    2.143    0.000    4.286 
#    0.000    1.429    0.000    0.000    0.000    0.000 
#    0.000    0.000    0.000    0.000    0.000    0.000 
#
# Total GULP energy -347275.695505 kJ/mol
# GULP energy per Si atom -12402.703411 kJ/mol
# Density = 1.922955 g / cm^3
# Si number density = 19.273421 Si / 1000 Ang^3
#
#
#
# Elastic Constant Matrix: (Units=GPa)
#
#
# Indices 1 2 3 4 5 6 
#
# 1 152.4583 11.4285 62.0387 0.0000 15.2877 0.0000
# 2 11.4285 31.0900 22.4109 0.0000 2.1104 0.0000
# 3 62.0387 22.4109 148.8855 0.0000 14.4788 0.0000
# 4 0.0000 0.0000 0.0000 27.6780 0.0000 6.1272
# 5 15.2877 2.1104 14.4788 0.0000 23.7974 0.0000
# 6 0.0000 0.0000 0.0000 6.1272 0.0000 27.9471
#
#
#
# Elastic Compliance Matrix: (Units=1/GPa)
#
#
# Indices 1 2 3 4 5 6 
#
# 1 0.008155 -0.000623 -0.002976 0.000000 -0.003373 0.000000
# 2 -0.000623 0.036127 -0.005214 0.000000 0.000369 0.000000
# 3 -0.002976 -0.005214 0.009046 0.000000 -0.003129 0.000000
# 4 0.000000 0.000000 0.000000 0.037973 0.000000 -0.008325
# 5 -0.003373 0.000369 -0.003129 0.000000 0.046059 0.000000
# 6 0.000000 0.000000 0.000000 -0.008325 0.000000 0.037607
#
#
# Mechanical properties :
#
#
# Convention : Reuss Voigt Hill
#
# Bulk Modulus (GPa) = 28.01066 58.24334 43.12700
# Shear Modulus (GPa) = 24.45037 31.65489 28.05263
#
# Velocity S-wave (km/s) = 3.56561 4.05706 3.81925
# Velocity P-wave (km/s) = 5.61394 7.22713 6.47100
#
# Compressibility (1/GPa) = 0.03570069
#
# Stress axis : x y z
#
# Youngs Moduli (GPa) = 122.62036 27.67988 110.54663
#
# Poissons Ratio (x) = 0.01726 0.32903
# Poissons Ratio (y) = 0.07644 0.57641
# Poissons Ratio (z) = 0.36496 0.14433
#
# Static dielectric constant tensor:
#      x y z
#    x 3.749300 0.000000 -0.059570 
#    y 0.000000 3.410000 0.000000 
#    z -0.059570 0.000000 3.690370 
# 
# 
# High freq. dielectric constant tensor:
#      x y z
#    x 1.757680 0.000000 0.003240 
#    y 0.000000 1.742240 0.000000 
#    z 0.003240 0.000000 1.747740 
# 
# From -- ./inp_files/375121.got.cif
#   From: 2010.06.25/outbox.cif.g09.slc.cpg/sg12_188_cif.got.tgz:375121.got - 2010.06.28 00:19:55.
