data_PCOD8115451
_publ_section_title
;
Structure prediction by ZEFSAII (Michael W. Deem and Ramdas Pophale) SiO2 
 PCOD8115451
Probable space group: C 2/M
;
_chemical_formula_sum "Si O2"
_cell_formula_units_Z 36
_cell_length_a 20.135933
_cell_length_b 10.006172
_cell_length_c 12.653423
_cell_angle_alpha 90.000000
_cell_angle_beta 141.159372
_cell_angle_gamma 90.000000
_cell_volume 1598.908167
_symmetry_space_group_name_H-M "C 2/M"
_symmetry_group_IT_number 12
_symmetry_cell_setting 'monoclinic'
loop_
_space_group_symop_operation_xyz
x,y,z
-x,y,-z
-x,-y,-z
x,-y,z
1/2+x,1/2+y,z
1/2-x,1/2+y,-z
1/2-x,1/2-y,-z
1/2+x,1/2-y,z
loop_
_atom_site_type_symbol
_atom_site_label
_atom_site_fract_x
_atom_site_fract_y
_atom_site_fract_z
Si Si1 0.287246 0.500000 0.963029
Si Si2 0.435687 0.000000 0.527140
Si Si3 0.988378 0.000000 0.859378
Si Si4 0.000562 0.500000 0.166658
Si Si5 0.277393 0.784266 0.273933
Si Si6 0.746178 0.000000 0.158459
Si Si7 0.642785 0.746745 0.300097
O O1 0.236130 0.365890 0.851258
O O2 0.407722 0.500000 0.080698
O O3 0.268738 0.500000 0.063227
O O4 0.500000 0.000000 0.500000
O O5 0.368184 0.137590 0.452106
O O6 0.512883 0.000000 0.723028
O O7 0.925317 0.873033 0.738987
O O8 0.000000 0.000000 0.000000
O O9 0.069573 0.376474 0.212011
O O10 0.880475 0.500000 0.973440
O O11 0.303428 0.629819 0.279870
O O12 0.171178 0.784741 0.212868
O O13 0.750000 0.750000 0.500000
#
# Coordination Sequence:
#
# PCOD8115451 Si02
#       7
#     4   4   4   4   8   4   8
#     4  11  23  43  70  95 134 179 227 271 331 404
#     4  11  24  46  71  92 134 192 227 260 345 416
#     4  12  23  42  72  94 127 181 227 271 338 401
#     4  12  25  42  69 104 134 180 222 279 337 406
#     4  11  23  45  69  96 139 177 218 286 332 398
#     4  12  27  43  68 106 138 170 231 284 331 392
#     4  12  24  43  69 101 136 171 226 281 339 393
#
# _framework density 22.515364999999999
#
# number of rings (size 3 to 8) (size 9 to 14) (size 15 to 20)
#    0.000    0.444    4.444    5.333    0.000    2.667 
#    0.000    0.556    0.000    0.000    0.000    0.000 
#    0.000    0.000    0.000    0.000    0.000    0.000 
#
# Total GULP energy -223172.453443 kJ/mol
# GULP energy per Si atom -12398.469636 kJ/mol
# Density = 2.246412 g / cm^3
# Si number density = 22.515365 Si / 1000 Ang^3
#
#
#
# Elastic Constant Matrix: (Units=GPa)
#
#
# Indices 1 2 3 4 5 6 
#
# 1 85.7671 13.4285 -10.0135 0.0000 5.5751 0.0000
# 2 13.4285 194.0808 29.5605 0.0000 11.5279 0.0000
# 3 -10.0135 29.5605 65.5036 0.0000 9.5927 0.0000
# 4 0.0000 0.0000 0.0000 24.6390 0.0000 -1.4467
# 5 5.5751 11.5279 9.5927 0.0000 31.1781 0.0000
# 6 0.0000 0.0000 0.0000 -1.4467 0.0000 33.5253
#
#
#
# Elastic Compliance Matrix: (Units=1/GPa)
#
#
# Indices 1 2 3 4 5 6 
#
# 1 0.012331 -0.001119 0.002778 0.000000 -0.002646 0.000000
# 2 -0.001119 0.005688 -0.002575 0.000000 -0.001111 0.000000
# 3 0.002778 -0.002575 0.017578 0.000000 -0.004953 0.000000
# 4 0.000000 0.000000 0.000000 0.040689 0.000000 0.001756
# 5 -0.002646 -0.001111 -0.004953 0.000000 0.034481 0.000000
# 6 0.000000 0.000000 0.000000 0.001756 0.000000 0.029904
#
#
# Mechanical properties :
#
#
# Convention : Reuss Voigt Hill
#
# Bulk Modulus (GPa) = 29.61759 45.70027 37.65893
# Shear Modulus (GPa) = 32.51809 38.69356 35.60582
#
# Velocity S-wave (km/s) = 3.80447 4.15003 3.98100
# Velocity P-wave (km/s) = 5.69926 6.58066 6.15575
#
# Compressibility (1/GPa) = 0.03376372
#
# Stress axis : x y z
#
# Youngs Moduli (GPa) = 81.09667 175.80414 56.88775
#
# Poissons Ratio (x) = 0.19674 -0.15801
# Poissons Ratio (y) = 0.09075 0.14651
# Poissons Ratio (z) = -0.22525 0.45276
#
# Static dielectric constant tensor:
#      x y z
#    x 4.441840 0.000000 -0.036380 
#    y 0.000000 4.299760 0.000000 
#    z -0.036380 0.000000 4.024080 
# 
# 
# High freq. dielectric constant tensor:
#      x y z
#    x 1.897680 0.000000 -0.000640 
#    y 0.000000 1.904620 0.000000 
#    z -0.000640 0.000000 1.874250 
# 
# From -- ./inp_files/230833.got.cif
#   From: 2010.06.25/outbox.cif.g09.slc.cpg/sg12_116_cif.got.tgz:230833.got - 2010.06.28 00:19:55.
