data_PCOD8115695
_publ_section_title
;
Structure prediction by ZEFSAII (Michael W. Deem and Ramdas Pophale) SiO2 
 PCOD8115695
Probable space group: C 2/M
;
_chemical_formula_sum "Si O2"
_cell_formula_units_Z 32
_cell_length_a 7.364510
_cell_length_b 22.466689
_cell_length_c 9.385455
_cell_angle_alpha 90.000000
_cell_angle_beta 64.457372
_cell_angle_gamma 90.000000
_cell_volume 1401.110039
_symmetry_space_group_name_H-M "C 2/M"
_symmetry_group_IT_number 12
_symmetry_cell_setting 'monoclinic'
loop_
_space_group_symop_operation_xyz
x,y,z
-x,y,-z
-x,-y,-z
x,-y,z
1/2+x,1/2+y,z
1/2-x,1/2+y,-z
1/2-x,1/2-y,-z
1/2+x,1/2-y,z
loop_
_atom_site_type_symbol
_atom_site_label
_atom_site_fract_x
_atom_site_fract_y
_atom_site_fract_z
Si Si1 0.236690 0.335917 0.711581
Si Si2 0.979230 0.122998 0.168859
Si Si3 0.118788 0.707428 0.323100
Si Si4 0.723778 0.066185 0.480212
O O1 0.296105 0.363764 0.845000
O O2 0.376509 0.277664 0.649833
O O3 0.289554 0.385084 0.574417
O O4 0.005477 0.313830 0.775715
O O5 0.842988 0.182448 0.230055
O O6 0.872086 0.071103 0.294464
O O7 0.000000 0.101860 0.000000
O O8 0.000000 0.679874 0.500000
O O9 0.500000 0.076290 0.500000
O O10 0.747188 0.000000 0.538153
#
# Coordination Sequence:
#
# PCOD8115695 Si02
#       4
#     8   8   8   8
#     4  12  23  42  73  97 134 179 225 272 330 392
#     4  12  26  41  64 102 141 178 214 270 339 401
#     4  12  22  40  66 101 134 174 221 275 323 396
#     4  11  24  47  74  98 128 174 234 281 322 392
#
# _framework density 22.839036
#
# number of rings (size 3 to 8) (size 9 to 14) (size 15 to 20)
#    0.000    0.250    7.500    3.000    0.000    4.500 
#    0.000    0.000    0.000    3.000    0.000    0.000 
#    0.000    0.000    0.000    0.000    0.000    0.000 
#
# Total GULP energy -198260.220151 kJ/mol
# GULP energy per Si atom -12391.263759 kJ/mol
# Density = 2.278705 g / cm^3
# Si number density = 22.839036 Si / 1000 Ang^3
#
#
#
# Elastic Constant Matrix: (Units=GPa)
#
#
# Indices 1 2 3 4 5 6 
#
# 1 157.0728 42.8515 30.8860 0.0000 30.4812 0.0000
# 2 42.8515 146.8997 26.9216 0.0000 12.6185 0.0000
# 3 30.8860 26.9216 75.4115 0.0000 21.3392 0.0000
# 4 0.0000 0.0000 0.0000 6.6847 0.0000 7.8092
# 5 30.4812 12.6185 21.3392 0.0000 30.1846 0.0000
# 6 0.0000 0.0000 0.0000 7.8092 0.0000 12.0037
#
#
#
# Elastic Compliance Matrix: (Units=1/GPa)
#
#
# Indices 1 2 3 4 5 6 
#
# 1 0.008377 -0.001680 -0.000795 0.000000 -0.007195 0.000000
# 2 -0.001680 0.007676 -0.002031 0.000000 -0.000077 0.000000
# 3 -0.000795 -0.002031 0.017306 0.000000 -0.010582 0.000000
# 4 0.000000 0.000000 0.000000 0.623292 0.000000 -0.405489
# 5 -0.007195 -0.000077 -0.010582 0.000000 0.047909 0.000000
# 6 0.000000 0.000000 0.000000 -0.405489 0.000000 0.347103
#
#
# Mechanical properties :
#
#
# Convention : Reuss Voigt Hill
#
# Bulk Modulus (GPa) = 41.07163 64.52246 52.79705
# Shear Modulus (GPa) = 4.67818 28.35629 16.51724
#
# Velocity S-wave (km/s) = 1.43275 3.52742 2.69216
# Velocity P-wave (km/s) = 4.55622 6.70093 5.72982
#
# Compressibility (1/GPa) = 0.02434771
#
# Stress axis : x y z
#
# Youngs Moduli (GPa) = 119.36784 130.27364 57.78444
#
# Poissons Ratio (x) = 0.21885 0.04596
# Poissons Ratio (y) = 0.20053 0.11733
# Poissons Ratio (z) = 0.09494 0.26452
#
# Static dielectric constant tensor:
#      x y z
#    x 4.473540 0.000000 0.294610 
#    y 0.000000 4.130810 0.000000 
#    z 0.294610 0.000000 3.578540 
# 
# 
# High freq. dielectric constant tensor:
#      x y z
#    x 1.929250 0.000000 0.015520 
#    y 0.000000 1.901240 0.000000 
#    z 0.015520 0.000000 1.846890 
# 
# From -- ./inp_files/38697.got.cif
#   From: 2010.06.25/outbox.cif.g09.slc.cpg/sg12_20_cif.got.tgz:38697.got - 2010.06.28 00:19:55.
