data_PCOD8115099
_publ_section_title
;
Structure prediction by ZEFSAII (Michael W. Deem and Ramdas Pophale) SiO2 
 PCOD8115099
Probable space group: C 2/M
;
_chemical_formula_sum "Si O2"
_cell_formula_units_Z 44
_cell_length_a 16.872158
_cell_length_b 23.231062
_cell_length_c 6.469499
_cell_angle_alpha 90.000000
_cell_angle_beta 54.186850
_cell_angle_gamma 90.000000
_cell_volume 2056.333120
_symmetry_space_group_name_H-M "C 2/M"
_symmetry_group_IT_number 12
_symmetry_cell_setting 'monoclinic'
loop_
_space_group_symop_operation_xyz
x,y,z
-x,y,-z
-x,-y,-z
x,-y,z
1/2+x,1/2+y,z
1/2-x,1/2+y,-z
1/2-x,1/2-y,-z
1/2+x,1/2-y,z
loop_
_atom_site_type_symbol
_atom_site_label
_atom_site_fract_x
_atom_site_fract_y
_atom_site_fract_z
Si Si1 0.566676 0.000000 0.704130
Si Si2 0.390672 0.500000 0.081018
Si Si3 0.713937 0.287736 0.241729
Si Si4 0.587491 0.117228 0.489712
Si Si5 0.397468 0.217761 0.254136
Si Si6 0.242246 0.000000 0.339881
Si Si7 0.285934 0.406508 0.952998
O O1 0.545834 0.945661 0.595461
O O2 0.676917 0.000000 0.608707
O O3 0.500000 0.000000 0.000000
O O4 0.350768 0.500000 0.373449
O O5 0.360363 0.442734 0.990872
O O6 0.500000 0.500000 0.000000
O O7 0.628890 0.259547 0.512472
O O8 0.812472 0.289582 0.220738
O O9 0.750000 0.250000 0.000000
O O10 0.670451 0.348403 0.218415
O O11 0.500000 0.148973 0.500000
O O12 0.595618 0.151970 0.687062
O O13 0.691593 0.114799 0.220196
O O14 0.500000 0.239790 0.000000
O O15 0.248382 0.055320 0.185893
#
# Coordination Sequence:
#
# PCOD8115099 Si02
#       7
#     4   4   8   8   8   4   8
#     4  12  21  34  59 104 137 172 218 260 336 417
#     4  11  26  48  73  96 138 183 240 302 359 406
#     4  11  24  45  71  98 143 182 239 291 350 417
#     4  12  22  39  66 100 142 179 222 276 345 429
#     4  11  25  43  69 102 140 188 228 287 353 417
#     4  11  22  43  69  96 138 173 221 291 343 410
#     4  11  23  43  71 100 134 184 230 292 354 417
#
# _framework density 21.397311999999999
#
# number of rings (size 3 to 8) (size 9 to 14) (size 15 to 20)
#    0.000    0.727    3.636    4.636    0.000    1.455 
#    0.000    5.455    0.000    0.000    0.000    0.000 
#    0.000    0.000    0.000    0.000    0.000    0.000 
#
# Total GULP energy -272540.325049 kJ/mol
# GULP energy per Si atom -12388.196593 kJ/mol
# Density = 2.134861 g / cm^3
# Si number density = 21.397312 Si / 1000 Ang^3
#
#
#
# Elastic Constant Matrix: (Units=GPa)
#
#
# Indices 1 2 3 4 5 6 
#
# 1 122.0739 29.6566 44.2410 0.0000 -1.8076 0.0000
# 2 29.6566 136.1840 46.2330 0.0000 8.0267 0.0000
# 3 44.2410 46.2330 140.0418 0.0000 -9.7582 0.0000
# 4 0.0000 0.0000 0.0000 -18.9722 0.0000 -88.2602
# 5 -1.8076 8.0267 -9.7582 0.0000 42.7856 0.0000
# 6 0.0000 0.0000 0.0000 -88.2602 0.0000 -134.8742
#
#
#
# Elastic Compliance Matrix: (Units=1/GPa)
#
#
# Indices 1 2 3 4 5 6 
#
# 1 0.009414 -0.001174 -0.002584 0.000000 0.000029 0.000000
# 2 -0.001174 0.008627 -0.002635 0.000000 -0.002269 0.000000
# 3 -0.002584 -0.002635 0.008997 0.000000 0.002437 0.000000
# 4 0.000000 0.000000 0.000000 0.025784 0.000000 -0.016873
# 5 0.000029 -0.002269 0.002437 0.000000 0.024355 0.000000
# 6 0.000000 0.000000 0.000000 -0.016873 0.000000 0.003627
#
#
# Mechanical properties :
#
#
# Convention : Reuss Voigt Hill
#
# Bulk Modulus (GPa) = 70.17437 70.95122 70.56280
# Shear Modulus (GPa) = 50.84309 -3.66753 23.58778
#
# Velocity S-wave (km/s) = 4.87986 -1.31062 3.32380
# Velocity P-wave (km/s) = 8.03852 5.56243 6.91225
#
# Compressibility (1/GPa) = 0.01425022
#
# Stress axis : x y z
#
# Youngs Moduli (GPa) = 106.22386 115.91331 111.14872
#
# Poissons Ratio (x) = 0.13613 0.28724
# Poissons Ratio (y) = 0.12475 0.29290
# Poissons Ratio (z) = 0.27452 0.30546
#
# Static dielectric constant tensor:
#      x y z
#    x 3.731100 0.000000 0.187630 
#    y 0.000000 3.765070 0.000000 
#    z 0.187630 0.000000 4.213680 
# 
# 
# High freq. dielectric constant tensor:
#      x y z
#    x 1.841390 0.000000 0.015890 
#    y 0.000000 1.845170 0.000000 
#    z 0.015890 0.000000 1.858840 
# 
# From -- ./inp_files/16848.got.cif
#   From: 2010.06.25/outbox.cif.g09.slc.cpg/sg12_9_cif.got.tgz:16848.got - 2010.06.28 00:19:55.
