data_PCOD8115971
_publ_section_title
;
Structure prediction by ZEFSAII (Michael W. Deem and Ramdas Pophale) SiO2 
 PCOD8115971
Probable space group: C 2/M
;
_chemical_formula_sum "Si O2"
_cell_formula_units_Z 56
_cell_length_a 32.919818
_cell_length_b 9.182454
_cell_length_c 11.521926
_cell_angle_alpha 90.000000
_cell_angle_beta 99.227529
_cell_angle_gamma 90.000000
_cell_volume 3437.831034
_symmetry_space_group_name_H-M "C 2/M"
_symmetry_group_IT_number 12
_symmetry_cell_setting 'monoclinic'
loop_
_space_group_symop_operation_xyz
x,y,z
-x,y,-z
-x,-y,-z
x,-y,z
1/2+x,1/2+y,z
1/2-x,1/2+y,-z
1/2-x,1/2-y,-z
1/2+x,1/2-y,z
loop_
_atom_site_type_symbol
_atom_site_label
_atom_site_fract_x
_atom_site_fract_y
_atom_site_fract_z
Si Si1 0.876378 0.169400 0.979000
Si Si2 0.461447 0.326464 0.909416
Si Si3 0.718987 0.835620 0.831407
Si Si4 0.061056 0.827097 0.589203
Si Si5 0.360810 0.669790 0.238889
Si Si6 0.796902 0.664419 0.903097
Si Si7 0.522324 0.326814 0.338451
O O1 0.876549 0.198361 0.116114
O O2 0.869678 0.000000 0.948159
O O3 0.919372 0.228551 0.948423
O O4 0.840091 0.256639 0.898323
O O5 0.462650 0.500000 0.909934
O O6 0.464051 0.263582 0.779681
O O7 0.500000 0.264925 0.000000
O O8 0.680736 0.756947 0.751720
O O9 0.760777 0.749885 0.819147
O O10 0.722591 0.000000 0.786110
O O11 0.712311 0.834040 0.965298
O O12 0.104179 0.767946 0.658635
O O13 0.054901 0.777378 0.452588
O O14 0.023066 0.767598 0.649242
O O15 0.061211 0.000000 0.599014
O O16 0.351623 0.500000 0.254592
O O17 0.798844 0.500000 0.856368
O O18 0.520872 0.500000 0.332586
#
# Coordination Sequence:
#
# PCOD8115971 Si02
#       7
#     8   8   8   8   8   8   8
#     4   9  16  24  36  56  81 107 133 162 196 233
#     4   9  15  22  34  54  80 108 136 165 196 230
#     4   9  16  25  38  57  80 104 130 161 197 236
#     4   8  13  21  34  53  78 105 132 166 201 230
#     4   9  15  23  36  56  81 106 132 161 196 236
#     4   9  16  26  39  55  78 107 134 159 192 237
#     4   8  13  21  33  52  78 106 136 167 198 229
#
# _framework density 16.289339999999999
#
# number of rings (size 3 to 8) (size 9 to 14) (size 15 to 20)
#    0.000    3.286    0.000    2.571    0.000    6.857 
#    0.000    0.000    0.000    0.429    0.000    5.000 
#    0.000    0.000    0.000    0.000    0.000    0.000 
#
# Total GULP energy -347061.954201 kJ/mol
# GULP energy per Si atom -12395.069793 kJ/mol
# Density = 1.625227 g / cm^3
# Si number density = 16.289340 Si / 1000 Ang^3
#
#
#
# Elastic Constant Matrix: (Units=GPa)
#
#
# Indices 1 2 3 4 5 6 
#
# 1 162.4756 52.2975 61.0543 0.0000 27.2082 0.0000
# 2 52.2975 57.7163 24.3517 0.0000 10.7056 0.0000
# 3 61.0543 24.3517 78.0457 0.0000 14.2718 0.0000
# 4 0.0000 0.0000 0.0000 5.8414 0.0000 3.3739
# 5 27.2082 10.7056 14.2718 0.0000 26.7388 0.0000
# 6 0.0000 0.0000 0.0000 3.3739 0.0000 19.4927
#
#
#
# Elastic Compliance Matrix: (Units=1/GPa)
#
#
# Indices 1 2 3 4 5 6 
#
# 1 0.011548 -0.006927 -0.005797 0.000000 -0.005883 0.000000
# 2 -0.006927 0.024774 -0.001980 0.000000 -0.001814 0.000000
# 3 -0.005797 -0.001980 0.018553 0.000000 -0.003211 0.000000
# 4 0.000000 0.000000 0.000000 0.190207 0.000000 -0.032922
# 5 -0.005883 -0.001814 -0.003211 0.000000 0.045826 0.000000
# 6 0.000000 0.000000 0.000000 -0.032922 0.000000 0.056999
#
#
# Mechanical properties :
#
#
# Convention : Reuss Voigt Hill
#
# Bulk Modulus (GPa) = 39.26371 63.73829 51.50100
# Shear Modulus (GPa) = 12.96000 21.11684 17.03842
#
# Velocity S-wave (km/s) = 2.82372 3.60440 3.23768
# Velocity P-wave (km/s) = 5.89809 7.51905 6.75735
#
# Compressibility (1/GPa) = 0.02546881
#
# Stress axis : x y z
#
# Youngs Moduli (GPa) = 86.59727 40.36458 53.90091
#
# Poissons Ratio (x) = 0.27959 0.31244
# Poissons Ratio (y) = 0.59982 0.10671
# Poissons Ratio (z) = 0.50197 0.07991
#
# Static dielectric constant tensor:
#      x y z
#    x 3.263690 0.000000 0.179890 
#    y 0.000000 2.748950 0.000000 
#    z 0.179890 0.000000 2.957600 
# 
# 
# High freq. dielectric constant tensor:
#      x y z
#    x 1.634390 0.000000 0.019300 
#    y 0.000000 1.585260 0.000000 
#    z 0.019300 0.000000 1.588130 
# 
# From -- ./inp_files/173937.got.cif
#   From: 2010.06.25/outbox.cif.g09.slc.cpg/sg12_87_cif.got.tgz:173937.got - 2010.06.28 00:19:55.
