data_PCOD8115447
_publ_section_title
;
Structure prediction by ZEFSAII (Michael W. Deem and Ramdas Pophale) SiO2 
 PCOD8115447
Probable space group: C 2/M
;
_chemical_formula_sum "Si O2"
_cell_formula_units_Z 48
_cell_length_a 26.964141
_cell_length_b 8.293172
_cell_length_c 16.805916
_cell_angle_alpha 90.000000
_cell_angle_beta 143.731076
_cell_angle_gamma 90.000000
_cell_volume 2223.207392
_symmetry_space_group_name_H-M "C 2/M"
_symmetry_group_IT_number 12
_symmetry_cell_setting 'monoclinic'
loop_
_space_group_symop_operation_xyz
x,y,z
-x,y,-z
-x,-y,-z
x,-y,z
1/2+x,1/2+y,z
1/2-x,1/2+y,-z
1/2-x,1/2-y,-z
1/2+x,1/2-y,z
loop_
_atom_site_type_symbol
_atom_site_label
_atom_site_fract_x
_atom_site_fract_y
_atom_site_fract_z
Si Si1 0.628724 0.313861 0.040476
Si Si2 0.231174 0.813842 0.888732
Si Si3 0.454494 0.185642 0.764478
Si Si4 0.148720 0.813435 0.507563
Si Si5 0.406356 0.186572 0.399092
Si Si6 0.829477 0.813329 0.727941
O O1 0.655135 0.500000 0.065378
O O2 0.687043 0.207185 0.059735
O O3 0.641628 0.256134 0.147540
O O4 0.532457 0.292115 0.893124
O O5 0.152237 0.715086 0.752853
O O6 0.206289 0.000000 0.860358
O O7 0.250000 0.750000 0.000000
O O8 0.428284 0.244544 0.643064
O O9 0.378258 0.207708 0.726795
O O10 0.481451 0.000000 0.795888
O O11 0.128416 0.793081 0.573908
O O12 0.231020 0.714804 0.589700
O O13 0.163631 0.000000 0.507537
O O14 0.500000 0.242851 0.500000
O O15 0.403966 0.000000 0.421161
O O16 0.850631 0.000000 0.740803
#
# Coordination Sequence:
#
# PCOD8115447 Si02
#       6
#     8   8   8   8   8   8
#     4  11  24  44  69  97 134 174 220 274 332 391
#     4  12  26  45  71 100 135 174 221 271 328 391
#     4  12  26  42  65  97 136 176 224 273 327 391
#     4  12  25  43  68  97 134 174 223 273 330 393
#     4  11  25  46  71  99 134 172 218 272 332 392
#     4  11  23  43  69  96 133 174 221 273 333 392
#
# _framework density 21.590429
#
# number of rings (size 3 to 8) (size 9 to 14) (size 15 to 20)
#    0.000    0.500    1.667    7.000    2.333    5.333 
#    0.000    0.000    0.000    0.000    0.000    0.000 
#    0.000    0.000    0.000    0.000    0.000    0.000 
#
# Total GULP energy -297863.863598 kJ/mol
# GULP energy per Si atom -12410.994317 kJ/mol
# Density = 2.154129 g / cm^3
# Si number density = 21.590429 Si / 1000 Ang^3
#
#
#
# Elastic Constant Matrix: (Units=GPa)
#
#
# Indices 1 2 3 4 5 6 
#
# 1 88.9326 14.9167 36.1361 0.0000 -0.7990 0.0000
# 2 14.9167 73.5047 10.6706 0.0000 -7.3030 0.0000
# 3 36.1361 10.6706 122.8410 0.0000 -4.1998 0.0000
# 4 0.0000 0.0000 0.0000 29.1653 0.0000 1.4319
# 5 -0.7990 -7.3030 -4.1998 0.0000 44.4730 0.0000
# 6 0.0000 0.0000 0.0000 1.4319 0.0000 36.3101
#
#
#
# Elastic Compliance Matrix: (Units=1/GPa)
#
#
# Indices 1 2 3 4 5 6 
#
# 1 0.013100 -0.002171 -0.003681 0.000000 -0.000469 0.000000
# 2 -0.002171 0.014347 -0.000530 0.000000 0.002267 0.000000
# 3 -0.003681 -0.000530 0.009294 0.000000 0.000725 0.000000
# 4 0.000000 0.000000 0.000000 0.034354 0.000000 -0.001355
# 5 -0.000469 0.002267 0.000725 0.000000 0.022918 0.000000
# 6 0.000000 0.000000 0.000000 -0.001355 0.000000 0.027594
#
#
# Mechanical properties :
#
#
# Convention : Reuss Voigt Hill
#
# Bulk Modulus (GPa) = 41.70549 45.41389 43.55969
# Shear Modulus (GPa) = 35.12125 36.89333 36.00729
#
# Velocity S-wave (km/s) = 4.03762 4.13823 4.08823
# Velocity P-wave (km/s) = 6.41054 6.62670 6.51952
#
# Compressibility (1/GPa) = 0.02397766
#
# Stress axis : x y z
#
# Youngs Moduli (GPa) = 76.33529 69.69967 107.59278
#
# Poissons Ratio (x) = 0.15129 0.39606
# Poissons Ratio (y) = 0.16570 0.05705
# Poissons Ratio (z) = 0.28100 0.03696
#
# Static dielectric constant tensor:
#      x y z
#    x 3.857890 0.000000 -0.076830 
#    y 0.000000 3.852080 0.000000 
#    z -0.076830 0.000000 3.996210 
# 
# 
# High freq. dielectric constant tensor:
#      x y z
#    x 1.850750 0.000000 -0.004160 
#    y 0.000000 1.855500 0.000000 
#    z -0.004160 0.000000 1.865100 
# 
# From -- ./inp_files/295893.got.cif
#   From: 2010.06.25/outbox.cif.g09.slc.cpg/sg12_148_cif.got.tgz:295893.got - 2010.06.28 00:19:55.
