data_PCOD8115132
_publ_section_title
;
Structure prediction by ZEFSAII (Michael W. Deem and Ramdas Pophale) SiO2 
 PCOD8115132
Probable space group: C 2/M
;
_chemical_formula_sum "Si O2"
_cell_formula_units_Z 28
_cell_length_a 17.362322
_cell_length_b 14.070169
_cell_length_c 9.468393
_cell_angle_alpha 90.000000
_cell_angle_beta 31.995912
_cell_angle_gamma 90.000000
_cell_volume 1225.585209
_symmetry_space_group_name_H-M "C 2/M"
_symmetry_group_IT_number 12
_symmetry_cell_setting 'monoclinic'
loop_
_space_group_symop_operation_xyz
x,y,z
-x,y,-z
-x,-y,-z
x,-y,z
1/2+x,1/2+y,z
1/2-x,1/2+y,-z
1/2-x,1/2-y,-z
1/2+x,1/2-y,z
loop_
_atom_site_type_symbol
_atom_site_label
_atom_site_fract_x
_atom_site_fract_y
_atom_site_fract_z
Si Si1 0.766842 0.500000 0.635785
Si Si2 0.632605 0.500000 0.148366
Si Si3 0.812508 0.000000 0.546931
Si Si4 0.047760 0.330040 0.571526
Si Si5 0.252265 0.841853 0.165284
O O1 0.663007 0.500000 0.659030
O O2 0.865141 0.405966 0.471567
O O3 0.671704 0.500000 0.922947
O O4 0.457717 0.500000 0.419313
O O5 0.692486 0.404292 0.127124
O O6 0.722985 0.092892 0.734999
O O7 0.141363 0.239438 0.381932
O O8 0.000000 0.381667 0.500000
O O9 0.906210 0.296106 0.880036
#
# Coordination Sequence:
#
# PCOD8115132 Si02
#       5
#     4   4   4   8   8
#     4  12  26  42  70  97 146 174 226 270 346 396
#     4  11  22  47  69 101 133 181 223 285 324 406
#     4  11  26  46  65 102 136 187 215 280 335 408
#     4  12  24  43  71 105 130 178 224 286 327 402
#     4  11  25  44  76  97 136 172 235 274 338 391
#
# _framework density 22.846229000000001
#
# number of rings (size 3 to 8) (size 9 to 14) (size 15 to 20)
#    0.000    0.571    2.857    6.857    4.000    3.429 
#    0.000    0.000    0.000    0.000    0.000    0.000 
#    0.000    0.000    0.000    0.000    0.000    0.000 
#
# Total GULP energy -173603.344493 kJ/mol
# GULP energy per Si atom -12400.238892 kJ/mol
# Density = 2.279423 g / cm^3
# Si number density = 22.846229 Si / 1000 Ang^3
#
#
#
# Elastic Constant Matrix: (Units=GPa)
#
#
# Indices 1 2 3 4 5 6 
#
# 1 81.7332 36.6318 6.0783 0.0000 22.4000 0.0002
# 2 36.6318 135.5896 60.5488 0.0000 0.2481 0.0001
# 3 6.0783 60.5488 166.9141 -0.0001 3.0780 0.0002
# 4 0.0000 0.0000 -0.0001 37.6726 0.0000 -14.0244
# 5 22.4000 0.2481 3.0780 0.0000 39.1886 -0.0001
# 6 0.0002 0.0001 0.0002 -14.0244 -0.0001 83.3458
#
#
#
# Elastic Compliance Matrix: (Units=1/GPa)
#
#
# Indices 1 2 3 4 5 6 
#
# 1 0.017217 -0.005292 0.001476 0.000000 -0.009923 0.000000
# 2 -0.005292 0.010429 -0.003650 0.000000 0.003246 0.000000
# 3 0.001476 -0.003650 0.007287 0.000000 -0.001393 0.000000
# 4 0.000000 0.000000 0.000000 0.028318 0.000000 0.004765
# 5 -0.009923 0.003246 -0.001393 0.000000 0.031279 0.000000
# 6 0.000000 0.000000 0.000000 0.004765 0.000000 0.012800
#
#
# Mechanical properties :
#
#
# Convention : Reuss Voigt Hill
#
# Bulk Modulus (GPa) = 50.00124 65.63941 57.82033
# Shear Modulus (GPa) = 38.78067 50.77326 44.77697
#
# Velocity S-wave (km/s) = 4.12450 4.71934 4.43191
# Velocity P-wave (km/s) = 6.67948 7.64785 7.18001
#
# Compressibility (1/GPa) = 0.01999950
#
# Stress axis : x y z
#
# Youngs Moduli (GPa) = 58.08309 95.88505 137.22644
#
# Poissons Ratio (x) = 0.50745 -0.20252
# Poissons Ratio (y) = 0.30739 0.50092
# Poissons Ratio (z) = -0.08572 0.35001
#
# Static dielectric constant tensor:
#      x y z
#    x 3.908890 0.000000 0.057210 
#    y 0.000000 4.056120 0.000000 
#    z 0.057210 0.000000 4.364790 
# 
# 
# High freq. dielectric constant tensor:
#      x y z
#    x 1.878250 0.000000 0.009260 
#    y 0.000000 1.902980 0.000000 
#    z 0.009260 0.000000 1.925520 
# 
# From -- ./inp_files/45501.got.cif
#   From: 2010.06.25/outbox.cif.g09.slc.cpg/sg12_23_cif.got.tgz:45501.got - 2010.06.28 00:19:55.
