data_PCOD8115148
_publ_section_title
;
Structure prediction by ZEFSAII (Michael W. Deem and Ramdas Pophale) SiO2 
 PCOD8115148
Probable space group: C 2/M
;
_chemical_formula_sum "Si O2"
_cell_formula_units_Z 48
_cell_length_a 14.289705
_cell_length_b 9.394505
_cell_length_c 19.042329
_cell_angle_alpha 90.000000
_cell_angle_beta 90.443738
_cell_angle_gamma 90.000000
_cell_volume 2556.255176
_symmetry_space_group_name_H-M "C 2/M"
_symmetry_group_IT_number 12
_symmetry_cell_setting 'monoclinic'
loop_
_space_group_symop_operation_xyz
x,y,z
-x,y,-z
-x,-y,-z
x,-y,z
1/2+x,1/2+y,z
1/2-x,1/2+y,-z
1/2-x,1/2-y,-z
1/2+x,1/2-y,z
loop_
_atom_site_type_symbol
_atom_site_label
_atom_site_fract_x
_atom_site_fract_y
_atom_site_fract_z
Si Si1 0.001165 0.834248 0.612302
Si Si2 0.130090 0.838970 0.856486
Si Si3 0.846127 0.165356 0.500327
Si Si4 0.001642 0.664427 0.755211
Si Si5 0.347552 0.161555 0.862352
Si Si6 0.344267 0.335781 0.989247
O O1 0.908655 0.792758 0.567966
O O2 0.094535 0.798704 0.568906
O O3 0.003312 0.742077 0.681621
O O4 0.998929 0.000000 0.632004
O O5 0.078206 0.726910 0.808065
O O6 0.239454 0.802444 0.849574
O O7 0.110061 0.000000 0.830415
O O8 0.096850 0.823776 0.937932
O O9 0.750000 0.250000 0.500000
O O10 0.820925 0.000000 0.502345
O O11 0.025520 0.500000 0.743026
O O12 0.899839 0.685976 0.789087
O O13 0.394186 0.264059 0.922038
O O14 0.359674 0.000000 0.889111
O O15 0.322494 0.500000 0.972219
O O16 0.250000 0.250000 0.000000
#
# Coordination Sequence:
#
# PCOD8115148 Si02
#       6
#     8   8   8   8   8   8
#     4   9  20  39  57  78 113 147 173 208 259 318
#     4   9  19  36  54  73 103 142 179 219 272 327
#     4   9  19  37  62  87 109 139 176 212 256 310
#     4  11  23  36  53  80 110 141 180 223 263 307
#     4   9  20  37  53  73 105 142 179 222 272 320
#     4   9  17  31  53  77 101 134 179 227 272 319
#
# _framework density 18.777467000000001
#
# number of rings (size 3 to 8) (size 9 to 14) (size 15 to 20)
#    0.000    2.667    0.000    3.000    0.000    8.000 
#    0.000   10.000    0.000    0.000    0.000    0.000 
#    0.000    0.000    0.000    0.000    0.000    0.000 
#
# Total GULP energy -297522.294951 kJ/mol
# GULP energy per Si atom -12396.762290 kJ/mol
# Density = 1.873473 g / cm^3
# Si number density = 18.777467 Si / 1000 Ang^3
#
#
#
# Elastic Constant Matrix: (Units=GPa)
#
#
# Indices 1 2 3 4 5 6 
#
# 1 8.0861 -6.2875 -40.4690 0.0000 10.1825 0.0000
# 2 -6.2875 75.0569 22.0837 0.0000 8.9470 0.0000
# 3 -40.4690 22.0837 50.7079 0.0000 9.6689 0.0000
# 4 0.0000 0.0000 0.0000 40.6128 0.0000 -0.1816
# 5 10.1825 8.9470 9.6689 0.0000 18.1902 0.0000
# 6 0.0000 0.0000 0.0000 -0.1816 0.0000 31.8571
#
#
#
# Elastic Compliance Matrix: (Units=1/GPa)
#
#
# Indices 1 2 3 4 5 6 
#
# 1 -0.022522 0.002162 -0.023499 0.000000 0.024035 0.000000
# 2 0.002162 0.015401 -0.003679 0.000000 -0.006830 0.000000
# 3 -0.023499 -0.003679 -0.000316 0.000000 0.015132 0.000000
# 4 0.000000 0.000000 0.000000 0.024623 0.000000 0.000140
# 5 0.024035 -0.006830 0.015132 0.000000 0.036837 0.000000
# 6 0.000000 0.000000 0.000000 0.000140 0.000000 0.031391
#
#
# Mechanical properties :
#
#
# Convention : Reuss Voigt Hill
#
# Bulk Modulus (GPa) = -17.40071 9.38949 -4.00561
# Shear Modulus (GPa) = 42.99628 28.70025 35.84827
#
# Velocity S-wave (km/s) = 4.79036 3.91377 4.37408
# Velocity P-wave (km/s) = 4.61625 5.04328 4.83448
#
# Compressibility (1/GPa) = -0.05746890
#
# Stress axis : x y z
#
# Youngs Moduli (GPa) = -44.40094 64.93067 -3161.95219
#
# Poissons Ratio (x) = -0.14040 -74.30259
# Poissons Ratio (y) = 0.09601 -11.63356
# Poissons Ratio (z) = -1.04338 0.23889
#
# Static dielectric constant tensor:
#      x y z
#    x 3.395160 0.000000 -0.129390 
#    y 0.000000 3.561370 0.000000 
#    z -0.129390 0.000000 3.638840 
# 
# 
# High freq. dielectric constant tensor:
#      x y z
#    x 1.721910 0.000000 -0.005920 
#    y 0.000000 1.734020 0.000000 
#    z -0.005920 0.000000 1.730170 
# 
# From -- ./inp_files/267650.got.cif
#   From: 2010.06.25/outbox.cif.g09.slc.cpg/sg12_134_cif.got.tgz:267650.got - 2010.06.28 00:19:55.
