data_PCOD8115387
_publ_section_title
;
Structure prediction by ZEFSAII (Michael W. Deem and Ramdas Pophale) SiO2 
 PCOD8115387
Probable space group: C 2/M
;
_chemical_formula_sum "Si O2"
_cell_formula_units_Z 64
_cell_length_a 11.417883
_cell_length_b 25.433910
_cell_length_c 10.182603
_cell_angle_alpha 90.000000
_cell_angle_beta 108.829130
_cell_angle_gamma 90.000000
_cell_volume 2798.797005
_symmetry_space_group_name_H-M "C 2/M"
_symmetry_group_IT_number 12
_symmetry_cell_setting 'monoclinic'
loop_
_space_group_symop_operation_xyz
x,y,z
-x,y,-z
-x,-y,-z
x,-y,z
1/2+x,1/2+y,z
1/2-x,1/2+y,-z
1/2-x,1/2-y,-z
1/2+x,1/2-y,z
loop_
_atom_site_type_symbol
_atom_site_label
_atom_site_fract_x
_atom_site_fract_y
_atom_site_fract_z
Si Si1 0.355268 0.193047 0.283975
Si Si2 0.637358 0.339999 0.034274
Si Si3 0.859609 0.598021 0.452905
Si Si4 0.180984 0.441546 0.279112
Si Si5 0.352348 0.439807 0.801484
Si Si6 0.554549 0.586054 0.656266
Si Si7 0.324568 0.689664 0.248027
Si Si8 0.557600 0.156793 0.157553
O O1 0.221026 0.190292 0.169025
O O2 0.353042 0.161248 0.421169
O O3 0.385254 0.254590 0.307952
O O4 0.458483 0.164077 0.235541
O O5 0.640242 0.402858 0.066493
O O6 0.500000 0.317085 0.000000
O O7 0.685336 0.325867 0.908484
O O8 0.801744 0.586195 0.573046
O O9 0.781169 0.567207 0.314650
O O10 0.000000 0.577002 0.500000
O O11 0.124869 0.500000 0.268820
O O12 0.317777 0.444270 0.265048
O O13 0.089862 0.405533 0.159077
O O14 0.369187 0.500000 0.852194
O O15 0.459647 0.422701 0.739898
O O16 0.500000 0.564254 0.500000
O O17 0.586016 0.647770 0.650314
O O18 0.181973 0.688029 0.243476
O O19 0.500000 0.176596 0.000000
#
# Coordination Sequence:
#
# PCOD8115387 Si02
#       8
#     8   8   8   8   8   8   8   8
#     4  11  25  42  67  95 128 171 211 272 327 381
#     4  11  23  42  64  97 131 161 222 265 313 392
#     4  11  23  43  63  96 131 163 220 269 313 394
#     4  11  24  43  69  94 129 176 216 268 326 380
#     4  11  24  41  68  97 131 173 212 271 328 375
#     4  11  23  43  63  97 131 167 222 264 316 399
#     4  11  25  42  67  93 128 175 209 268 328 379
#     4  11  24  44  64  96 131 167 225 264 317 397
#
# _framework density 22.866968
#
# number of rings (size 3 to 8) (size 9 to 14) (size 15 to 20)
#    0.000    1.000    5.000    1.125    1.750    2.500 
#    0.000    1.875    0.000    0.000    0.000    0.000 
#    0.000    0.000    0.000    0.000    0.000    0.000 
#
# Total GULP energy -396811.670823 kJ/mol
# GULP energy per Si atom -12400.364713 kJ/mol
# Density = 2.281492 g / cm^3
# Si number density = 22.866968 Si / 1000 Ang^3
#
#
#
# Elastic Constant Matrix: (Units=GPa)
#
#
# Indices 1 2 3 4 5 6 
#
# 1 120.8331 33.1079 13.9484 0.0000 18.1821 0.0000
# 2 33.1079 145.0625 -2.6995 0.0000 -4.8214 0.0000
# 3 13.9484 -2.6995 30.4196 0.0000 2.1449 0.0000
# 4 0.0000 0.0000 0.0000 21.0924 0.0000 -3.0533
# 5 18.1821 -4.8214 2.1449 0.0000 31.3654 0.0000
# 6 0.0000 0.0000 0.0000 -3.0533 0.0000 13.1260
#
#
#
# Elastic Compliance Matrix: (Units=1/GPa)
#
#
# Indices 1 2 3 4 5 6 
#
# 1 0.010469 -0.002680 -0.004604 0.000000 -0.006166 0.000000
# 2 -0.002680 0.007624 0.001722 0.000000 0.002608 0.000000
# 3 -0.004604 0.001722 0.035100 0.000000 0.000533 0.000000
# 4 0.000000 0.000000 0.000000 0.049062 0.000000 0.011413
# 5 -0.006166 0.002608 0.000533 0.000000 0.035821 0.000000
# 6 0.000000 0.000000 0.000000 0.011413 0.000000 0.078839
#
#
# Mechanical properties :
#
#
# Convention : Reuss Voigt Hill
#
# Bulk Modulus (GPa) = 23.77057 42.78098 33.27578
# Shear Modulus (GPa) = 20.65575 29.91400 25.28487
#
# Velocity S-wave (km/s) = 3.00876 3.62079 3.32887
# Velocity P-wave (km/s) = 4.74214 6.01909 5.41836
#
# Compressibility (1/GPa) = 0.04206883
#
# Stress axis : x y z
#
# Youngs Moduli (GPa) = 95.51569 131.16517 28.49029
#
# Poissons Ratio (x) = 0.35153 0.13116
# Poissons Ratio (y) = 0.25599 -0.04905
# Poissons Ratio (z) = 0.43972 -0.22581
#
# Static dielectric constant tensor:
#      x y z
#    x 4.240910 0.000000 0.121820 
#    y 0.000000 4.073120 0.000000 
#    z 0.121820 0.000000 3.972860 
# 
# 
# High freq. dielectric constant tensor:
#      x y z
#    x 1.917450 0.000000 0.010450 
#    y 0.000000 1.895400 0.000000 
#    z 0.010450 0.000000 1.888610 
# 
# From -- ./inp_files/136003.got.cif
#   From: 2010.06.25/outbox.cif.g09.slc.cpg/sg12_69_cif.got.tgz:136003.got - 2010.06.28 00:19:55.
