data_PCOD8115896
_publ_section_title
;
Structure prediction by ZEFSAII (Michael W. Deem and Ramdas Pophale) SiO2 
 PCOD8115896
Probable space group: C 2/M
;
_chemical_formula_sum "Si O2"
_cell_formula_units_Z 32
_cell_length_a 16.466257
_cell_length_b 9.977320
_cell_length_c 9.392157
_cell_angle_alpha 90.000000
_cell_angle_beta 105.559219
_cell_angle_gamma 90.000000
_cell_volume 1486.482901
_symmetry_space_group_name_H-M "C 2/M"
_symmetry_group_IT_number 12
_symmetry_cell_setting 'monoclinic'
loop_
_space_group_symop_operation_xyz
x,y,z
-x,y,-z
-x,-y,-z
x,-y,z
1/2+x,1/2+y,z
1/2-x,1/2+y,-z
1/2-x,1/2-y,-z
1/2+x,1/2-y,z
loop_
_atom_site_type_symbol
_atom_site_label
_atom_site_fract_x
_atom_site_fract_y
_atom_site_fract_z
Si Si1 0.182083 0.500000 0.513203
Si Si2 0.339170 0.000000 0.161383
Si Si3 0.049648 0.252388 0.883298
Si Si4 0.650484 0.500000 0.579099
Si Si5 0.566302 0.760620 0.426977
Si Si6 0.163315 0.000000 0.916099
O O1 0.184222 0.500000 0.684054
O O2 0.276104 0.500000 0.501382
O O3 0.139471 0.366791 0.428546
O O4 0.393795 0.871111 0.150387
O O5 0.253383 0.000000 0.032952
O O6 0.976996 0.211709 0.738018
O O7 0.110402 0.127851 0.942709
O O8 0.000000 0.298709 0.000000
O O9 0.596473 0.632394 0.529464
O O10 0.681766 0.500000 0.756240
O O11 0.500000 0.835487 0.500000
#
# Coordination Sequence:
#
# PCOD8115896 Si02
#       6
#     4   4   8   4   8   4
#     4  12  26  43  70 100 131 175 218 272 331 385
#     4  12  26  46  66  98 139 172 215 273 330 392
#     4  12  27  44  70  98 131 178 220 269 328 388
#     4  12  26  43  70 100 131 175 218 272 331 385
#     4  12  23  46  70  94 133 172 226 274 318 384
#     4  12  26  46  66  98 139 172 215 273 330 392
#
# _framework density 21.527324
#
# number of rings (size 3 to 8) (size 9 to 14) (size 15 to 20)
#    0.000    0.000    5.000    4.500    7.000    0.000 
#    0.000    0.000    0.000    0.000    0.000    0.000 
#    0.000    0.000    0.000    0.000    0.000    0.000 
#
# Total GULP energy -198503.549521 kJ/mol
# GULP energy per Si atom -12406.471845 kJ/mol
# Density = 2.147833 g / cm^3
# Si number density = 21.527324 Si / 1000 Ang^3
#
#
#
# Elastic Constant Matrix: (Units=GPa)
#
#
# Indices 1 2 3 4 5 6 
#
# 1 113.8935 24.8678 62.4758 0.0000 -8.9777 0.0000
# 2 24.8678 115.9571 13.2728 0.0000 15.1827 0.0000
# 3 62.4758 13.2728 122.6413 0.0000 9.4431 0.0000
# 4 0.0000 0.0000 0.0000 63.9947 0.0000 -30.7341
# 5 -8.9777 15.1827 9.4431 0.0000 46.2807 0.0000
# 6 0.0000 0.0000 0.0000 -30.7341 0.0000 52.4020
#
#
#
# Elastic Compliance Matrix: (Units=1/GPa)
#
#
# Indices 1 2 3 4 5 6 
#
# 1 0.013635 -0.002773 -0.007030 0.000000 0.004989 0.000000
# 2 -0.002773 0.009645 0.000664 0.000000 -0.003837 0.000000
# 3 -0.007030 0.000664 0.011973 0.000000 -0.004025 0.000000
# 4 0.000000 0.000000 0.000000 0.021754 0.000000 0.012759
# 5 0.004989 -0.003837 -0.004025 0.000000 0.024655 0.000000
# 6 0.000000 0.000000 0.000000 0.012759 0.000000 0.026566
#
#
# Mechanical properties :
#
#
# Convention : Reuss Voigt Hill
#
# Bulk Modulus (GPa) = 58.90703 61.52497 60.21600
# Shear Modulus (GPa) = 37.83169 49.32717 43.57943
#
# Velocity S-wave (km/s) = 4.19666 4.79202 4.50419
# Velocity P-wave (km/s) = 7.13483 7.69805 7.42179
#
# Compressibility (1/GPa) = 0.01697590
#
# Stress axis : x y z
#
# Youngs Moduli (GPa) = 73.34015 103.68130 83.52051
#
# Poissons Ratio (x) = 0.28748 0.58715
# Poissons Ratio (y) = 0.20335 -0.05547
# Poissons Ratio (z) = 0.51558 -0.06886
#
# Static dielectric constant tensor:
#      x y z
#    x 3.955700 0.000000 0.040140 
#    y 0.000000 3.610710 0.000000 
#    z 0.040140 0.000000 4.012330 
# 
# 
# High freq. dielectric constant tensor:
#      x y z
#    x 1.859260 0.000000 0.002160 
#    y 0.000000 1.856700 0.000000 
#    z 0.002160 0.000000 1.856540 
# 
# From -- ./inp_files/57043.got.cif
#   From: 2010.06.25/outbox.cif.g09.slc.cpg/sg12_29_cif.got.tgz:57043.got - 2010.06.28 00:19:55.
