data_PCOD8115344
_publ_section_title
;
Structure prediction by ZEFSAII (Michael W. Deem and Ramdas Pophale) SiO2 
 PCOD8115344
Probable space group: C 2/M
;
_chemical_formula_sum "Si O2"
_cell_formula_units_Z 48
_cell_length_a 14.102358
_cell_length_b 19.570933
_cell_length_c 12.920159
_cell_angle_alpha 90.000000
_cell_angle_beta 138.091569
_cell_angle_gamma 90.000000
_cell_volume 2381.825408
_symmetry_space_group_name_H-M "C 2/M"
_symmetry_group_IT_number 12
_symmetry_cell_setting 'monoclinic'
loop_
_space_group_symop_operation_xyz
x,y,z
-x,y,-z
-x,-y,-z
x,-y,z
1/2+x,1/2+y,z
1/2-x,1/2+y,-z
1/2-x,1/2-y,-z
1/2+x,1/2-y,z
loop_
_atom_site_type_symbol
_atom_site_label
_atom_site_fract_x
_atom_site_fract_y
_atom_site_fract_z
Si Si1 0.689922 0.077114 0.797886
Si Si2 0.457986 0.164475 0.700670
Si Si3 0.766910 0.137064 0.652799
Si Si4 0.153495 0.785509 0.833237
Si Si5 0.865252 0.273453 0.822918
Si Si6 0.059125 0.923697 0.852940
O O1 0.588736 0.111820 0.800986
O O2 0.673621 0.116839 0.676670
O O3 0.639576 0.000000 0.741108
O O4 0.852077 0.082718 0.968438
O O5 0.331160 0.137372 0.527140
O O6 0.512327 0.239399 0.707496
O O7 0.404609 0.164659 0.776807
O O8 0.833328 0.211204 0.720986
O O9 0.892384 0.082195 0.741169
O O10 0.233293 0.790069 0.788725
O O11 0.110181 0.863579 0.818757
O O12 0.250000 0.750000 0.000000
O O13 0.000000 0.252695 0.000000
O O14 0.086037 0.000000 0.827263
#
# Coordination Sequence:
#
# PCOD8115344 Si02
#       6
#     8   8   8   8   8   8
#     4  11  23  41  65  94 130 171 213 259 326 397
#     4  12  25  40  61  99 128 167 210 270 327 379
#     4  12  23  38  62  97 131 160 211 269 337 374
#     4  12  21  41  68  94 129 171 222 269 313 382
#     4  12  22  38  66  92 125 165 217 270 315 378
#     4  11  23  41  66  95 130 172 217 262 320 392
#
# _framework density 20.152611
#
# number of rings (size 3 to 8) (size 9 to 14) (size 15 to 20)
#    0.000    0.333    6.667    3.000    0.000    3.333 
#    0.000    0.833    0.000    4.000    0.000    0.000 
#    0.000    0.000    0.000    0.000    0.000    0.000 
#
# Total GULP energy -297645.979962 kJ/mol
# GULP energy per Si atom -12401.915832 kJ/mol
# Density = 2.010674 g / cm^3
# Si number density = 20.152611 Si / 1000 Ang^3
#
#
#
# Elastic Constant Matrix: (Units=GPa)
#
#
# Indices 1 2 3 4 5 6 
#
# 1 134.2201 35.9985 36.7233 0.0000 -8.8585 0.0000
# 2 35.9985 109.7174 27.7383 0.0000 5.1474 0.0000
# 3 36.7233 27.7383 95.6251 0.0000 9.9715 0.0000
# 4 0.0000 0.0000 0.0000 20.2921 0.0000 -1.2368
# 5 -8.8585 5.1474 9.9715 0.0000 19.3790 0.0000
# 6 0.0000 0.0000 0.0000 -1.2368 0.0000 30.7944
#
#
#
# Elastic Compliance Matrix: (Units=1/GPa)
#
#
# Indices 1 2 3 4 5 6 
#
# 1 0.009597 -0.002547 -0.003672 0.000000 0.006953 0.000000
# 2 -0.002547 0.010538 -0.001760 0.000000 -0.003058 0.000000
# 3 -0.003672 -0.001760 0.013213 0.000000 -0.008010 0.000000
# 4 0.000000 0.000000 0.000000 0.049401 0.000000 0.001984
# 5 0.006953 -0.003058 -0.008010 0.000000 0.059714 0.000000
# 6 0.000000 0.000000 0.000000 0.001984 0.000000 0.032553
#
#
# Mechanical properties :
#
#
# Convention : Reuss Voigt Hill
#
# Bulk Modulus (GPa) = 57.49905 60.05363 58.77634
# Shear Modulus (GPa) = 25.41017 30.03327 27.72172
#
# Velocity S-wave (km/s) = 3.55475 3.86462 3.71292
# Velocity P-wave (km/s) = 6.74107 7.05534 6.90000
#
# Compressibility (1/GPa) = 0.01739159
#
# Stress axis : x y z
#
# Youngs Moduli (GPa) = 104.19926 94.89187 75.68066
#
# Poissons Ratio (x) = 0.24166 0.27789
# Poissons Ratio (y) = 0.26536 0.13320
# Poissons Ratio (z) = 0.38261 0.16701
#
# Static dielectric constant tensor:
#      x y z
#    x 3.777430 0.000000 0.140390 
#    y 0.000000 3.739220 0.000000 
#    z 0.140390 0.000000 3.555190 
# 
# 
# High freq. dielectric constant tensor:
#      x y z
#    x 1.789120 0.000000 0.014920 
#    y 0.000000 1.779740 0.000000 
#    z 0.014920 0.000000 1.778780 
# 
# From -- ./inp_files/63322.got.cif
#   From: 2010.06.25/outbox.cif.g09.slc.cpg/sg12_32_cif.got.tgz:63322.got - 2010.06.28 00:19:55.
