data_PCOD8115503
_publ_section_title
;
Structure prediction by ZEFSAII (Michael W. Deem and Ramdas Pophale) SiO2 
 PCOD8115503
Probable space group: C 2/M
;
_chemical_formula_sum "Si O2"
_cell_formula_units_Z 56
_cell_length_a 16.823000
_cell_length_b 18.459793
_cell_length_c 8.648207
_cell_angle_alpha 90.000000
_cell_angle_beta 93.550214
_cell_angle_gamma 90.000000
_cell_volume 2680.538800
_symmetry_space_group_name_H-M "C 2/M"
_symmetry_group_IT_number 12
_symmetry_cell_setting 'monoclinic'
loop_
_space_group_symop_operation_xyz
x,y,z
-x,y,-z
-x,-y,-z
x,-y,z
1/2+x,1/2+y,z
1/2-x,1/2+y,-z
1/2-x,1/2-y,-z
1/2+x,1/2-y,z
loop_
_atom_site_type_symbol
_atom_site_label
_atom_site_fract_x
_atom_site_fract_y
_atom_site_fract_z
Si Si1 0.476140 0.765055 0.660826
Si Si2 0.688099 0.299429 0.398816
Si Si3 0.725847 0.324692 0.065783
Si Si4 0.631136 0.079645 0.004861
Si Si5 0.995086 0.418243 0.757026
Si Si6 0.437886 0.347091 0.115896
Si Si7 0.411712 0.417154 0.428396
O O1 0.500000 0.728468 0.500000
O O2 0.382769 0.750962 0.675039
O O3 0.493973 0.850956 0.639756
O O4 0.528916 0.728007 0.803234
O O5 0.750000 0.250000 0.500000
O O6 0.732418 0.330592 0.252838
O O7 0.653631 0.365150 0.498417
O O8 0.750000 0.250000 0.000000
O O9 0.786535 0.379630 0.995879
O O10 0.637264 0.336376 0.000127
O O11 0.571510 0.108203 0.128952
O O12 0.657083 0.000000 0.055777
O O13 0.582961 0.079578 0.839011
O O14 0.976739 0.500000 0.687038
O O15 0.415403 0.404213 0.245243
O O16 0.500000 0.379933 0.000000
O O17 0.500000 0.402164 0.500000
O O18 0.385447 0.500000 0.456899
#
# Coordination Sequence:
#
# PCOD8115503 Si02
#       7
#     8   8   8   8   8   8   8
#     4  12  23  41  67  91 128 174 221 272 330 404
#     4  12  25  44  64  99 138 176 219 277 342 403
#     4  12  24  37  66 100 129 169 225 280 325 390
#     4   9  20  39  61  91 130 164 204 263 331 387
#     4   9  20  39  64  93 127 169 212 262 329 400
#     4  12  23  42  66 100 132 168 232 283 338 394
#     4  11  23  46  71  94 133 182 227 274 342 414
#
# _framework density 20.891323
#
# number of rings (size 3 to 8) (size 9 to 14) (size 15 to 20)
#    0.000    1.000    4.286    3.429    4.000    1.714 
#    0.000    2.143    0.000    0.000    0.000    0.000 
#    0.000    0.000    0.000    0.000    0.000    0.000 
#
# Total GULP energy -346989.635902 kJ/mol
# GULP energy per Si atom -12392.486996 kJ/mol
# Density = 2.084377 g / cm^3
# Si number density = 20.891323 Si / 1000 Ang^3
#
#
#
# Elastic Constant Matrix: (Units=GPa)
#
#
# Indices 1 2 3 4 5 6 
#
# 1 127.9963 40.3343 34.9423 0.0000 4.4373 0.0000
# 2 40.3343 115.3339 28.8590 0.0000 1.2277 0.0000
# 3 34.9423 28.8590 112.8302 0.0000 -6.7013 0.0000
# 4 0.0000 0.0000 0.0000 26.1630 0.0000 2.4932
# 5 4.4373 1.2277 -6.7013 0.0000 33.5567 0.0000
# 6 0.0000 0.0000 0.0000 2.4932 0.0000 30.5361
#
#
#
# Elastic Compliance Matrix: (Units=1/GPa)
#
#
# Indices 1 2 3 4 5 6 
#
# 1 0.009339 -0.002673 -0.002304 0.000000 -0.001597 0.000000
# 2 -0.002673 0.010051 -0.001765 0.000000 -0.000367 0.000000
# 3 -0.002304 -0.001765 0.010170 0.000000 0.002400 0.000000
# 4 0.000000 0.000000 0.000000 0.038522 0.000000 -0.003145
# 5 -0.001597 -0.000367 0.002400 0.000000 0.030504 0.000000
# 6 0.000000 0.000000 0.000000 -0.003145 0.000000 0.033005
#
#
# Mechanical properties :
#
#
# Convention : Reuss Voigt Hill
#
# Bulk Modulus (GPa) = 62.19645 62.71461 62.45553
# Shear Modulus (GPa) = 33.23759 34.85281 34.04520
#
# Velocity S-wave (km/s) = 3.99303 4.08890 4.04125
# Velocity P-wave (km/s) = 7.14809 7.23718 7.19277
#
# Compressibility (1/GPa) = 0.01607809
#
# Stress axis : x y z
#
# Youngs Moduli (GPa) = 107.07601 99.49608 98.32666
#
# Poissons Ratio (x) = 0.26592 0.22650
# Poissons Ratio (y) = 0.28618 0.17352
# Poissons Ratio (z) = 0.24665 0.17559
#
# Static dielectric constant tensor:
#      x y z
#    x 3.822020 0.000000 -0.302380 
#    y 0.000000 3.745410 0.000000 
#    z -0.302380 0.000000 4.145250 
# 
# 
# High freq. dielectric constant tensor:
#      x y z
#    x 1.820650 0.000000 -0.006580 
#    y 0.000000 1.819660 0.000000 
#    z -0.006580 0.000000 1.816190 
# 
# From -- ./inp_files/64074.got.cif
#   From: 2010.06.25/outbox.cif.g09.slc.cpg/sg12_33_cif.got.tgz:64074.got - 2010.06.28 00:19:55.
