data_PCOD8115956
_publ_section_title
;
Structure prediction by ZEFSAII (Michael W. Deem and Ramdas Pophale) SiO2 
 PCOD8115956
Probable space group: C 2/M
;
_chemical_formula_sum "Si O2"
_cell_formula_units_Z 64
_cell_length_a 33.801222
_cell_length_b 13.946107
_cell_length_c 10.412909
_cell_angle_alpha 90.000000
_cell_angle_beta 101.991677
_cell_angle_gamma 90.000000
_cell_volume 4801.481570
_symmetry_space_group_name_H-M "C 2/M"
_symmetry_group_IT_number 12
_symmetry_cell_setting 'monoclinic'
loop_
_space_group_symop_operation_xyz
x,y,z
-x,y,-z
-x,-y,-z
x,-y,z
1/2+x,1/2+y,z
1/2-x,1/2+y,-z
1/2-x,1/2-y,-z
1/2+x,1/2-y,z
loop_
_atom_site_type_symbol
_atom_site_label
_atom_site_fract_x
_atom_site_fract_y
_atom_site_fract_z
Si Si1 0.184982 0.708845 0.318669
Si Si2 0.472878 0.114062 0.366207
Si Si3 0.612074 0.110865 0.590723
Si Si4 0.692186 0.209003 0.627764
Si Si5 0.604765 0.111031 0.285249
Si Si6 0.482974 0.885855 0.854955
Si Si7 0.735463 0.394162 0.646824
Si Si8 0.728256 0.605890 0.337188
O O1 0.187551 0.701844 0.472784
O O2 0.140859 0.672784 0.245311
O O3 0.219687 0.640570 0.282298
O O4 0.192769 0.818461 0.277318
O O5 0.500000 0.156737 0.500000
O O6 0.426298 0.145610 0.352044
O O7 0.489445 0.154697 0.242376
O O8 0.476013 0.000000 0.372171
O O9 0.650483 0.173409 0.663537
O O10 0.601355 0.127304 0.434889
O O11 0.622463 0.000000 0.622886
O O12 0.702068 0.318583 0.676813
O O13 0.729283 0.140666 0.695546
O O14 0.563274 0.147612 0.193525
O O15 0.613143 0.000000 0.260042
O O16 0.484806 0.000000 0.854789
O O17 0.500000 0.844072 0.000000
O O18 0.727116 0.500000 0.699284
O O19 0.733121 0.397040 0.492558
O O20 0.717304 0.500000 0.276349
#
# Coordination Sequence:
#
# PCOD8115956 Si02
#       8
#     8   8   8   8   8   8   8   8
#     4   8  13  18  26  41  59  84 115 138 158 195
#     4   9  14  22  33  46  64  87 114 140 167 199
#     4   9  14  19  30  45  63  86 112 140 163 191
#     4   8  13  18  25  41  61  84 114 137 159 196
#     4   9  14  20  30  44  63  86 112 139 164 194
#     4   9  16  24  33  46  66  91 114 137 169 205
#     4   8  12  18  26  37  59  88 112 135 164 196
#     4   8  12  18  26  37  60  88 109 134 169 199
#
# _framework density 13.329219
#
# number of rings (size 3 to 8) (size 9 to 14) (size 15 to 20)
#    0.000    3.500    1.250    2.250    0.000    3.000 
#    0.000    0.000    0.000    0.000    0.000    0.000 
#    0.000    6.000    0.000    3.125    0.000    1.750 
#
# Total GULP energy -396487.250741 kJ/mol
# GULP energy per Si atom -12390.226586 kJ/mol
# Density = 1.329888 g / cm^3
# Si number density = 13.329219 Si / 1000 Ang^3
#
#
#
# Elastic Constant Matrix: (Units=GPa)
#
#
# Indices 1 2 3 4 5 6 
#
# 1 130.0922 52.6686 36.2138 0.0000 10.0599 0.0000
# 2 52.6686 81.7656 15.3046 0.0000 5.7258 0.0000
# 3 36.2138 15.3046 35.2854 0.0000 0.2413 0.0000
# 4 0.0000 0.0000 0.0000 3.1468 0.0000 2.4954
# 5 10.0599 5.7258 0.2413 0.0000 10.0196 0.0000
# 6 0.0000 0.0000 0.0000 2.4954 0.0000 19.2113
#
#
#
# Elastic Compliance Matrix: (Units=1/GPa)
#
#
# Indices 1 2 3 4 5 6 
#
# 1 0.014375 -0.006282 -0.011956 0.000000 -0.010554 0.000000
# 2 -0.006282 0.016640 -0.000748 0.000000 -0.003183 0.000000
# 3 -0.011956 -0.000748 0.040857 0.000000 0.011447 0.000000
# 4 0.000000 0.000000 0.000000 0.354280 0.000000 -0.046019
# 5 -0.010554 -0.003183 0.011447 0.000000 0.111945 0.000000
# 6 0.000000 0.000000 0.000000 -0.046019 0.000000 0.058030
#
#
# Mechanical properties :
#
#
# Convention : Reuss Voigt Hill
#
# Bulk Modulus (GPa) = 29.49922 50.61300 40.05611
# Shear Modulus (GPa) = 7.74717 16.00597 11.87657
#
# Velocity S-wave (km/s) = 2.41346 3.46904 2.98823
# Velocity P-wave (km/s) = 5.47226 7.35524 6.48249
#
# Compressibility (1/GPa) = 0.03389920
#
# Stress axis : x y z
#
# Youngs Moduli (GPa) = 69.56732 60.09732 24.47577
#
# Poissons Ratio (x) = 0.37755 0.29263
# Poissons Ratio (y) = 0.43704 0.01830
# Poissons Ratio (z) = 0.83173 0.04494
#
# Static dielectric constant tensor:
#      x y z
#    x 2.850680 0.000000 0.059320 
#    y 0.000000 2.650910 0.000000 
#    z 0.059320 0.000000 2.267820 
# 
# 
# High freq. dielectric constant tensor:
#      x y z
#    x 1.513340 0.000000 0.007550 
#    y 0.000000 1.473960 0.000000 
#    z 0.007550 0.000000 1.448960 
# 
# From -- ./inp_files/188905.got.cif
#   From: 2010.06.25/outbox.cif.g09.slc.cpg/sg12_95_cif.got.tgz:188905.got - 2010.06.28 00:19:55.
