data_PCOD8115968
_publ_section_title
;
Structure prediction by ZEFSAII (Michael W. Deem and Ramdas Pophale) SiO2 
 PCOD8115968
Probable space group: C 2/M
;
_chemical_formula_sum "Si O2"
_cell_formula_units_Z 64
_cell_length_a 25.194598
_cell_length_b 9.436415
_cell_length_c 22.224586
_cell_angle_alpha 90.000000
_cell_angle_beta 53.584225
_cell_angle_gamma 90.000000
_cell_volume 4252.051775
_symmetry_space_group_name_H-M "C 2/M"
_symmetry_group_IT_number 12
_symmetry_cell_setting 'monoclinic'
loop_
_space_group_symop_operation_xyz
x,y,z
-x,y,-z
-x,-y,-z
x,-y,z
1/2+x,1/2+y,z
1/2-x,1/2+y,-z
1/2-x,1/2-y,-z
1/2+x,1/2-y,z
loop_
_atom_site_type_symbol
_atom_site_label
_atom_site_fract_x
_atom_site_fract_y
_atom_site_fract_z
Si Si1 0.145693 0.664024 0.916863
Si Si2 0.479995 0.161773 0.644461
Si Si3 0.625403 0.336915 0.354183
Si Si4 0.951975 0.160339 0.088800
Si Si5 0.052085 0.334952 0.090855
Si Si6 0.070394 0.656667 0.486134
Si Si7 0.595489 0.837166 0.191764
Si Si8 0.204154 0.836330 0.188970
O O1 0.139272 0.500000 0.902041
O O2 0.114834 0.758603 0.884463
O O3 0.221257 0.709955 0.874308
O O4 0.109725 0.692745 0.004123
O O5 0.433218 0.276590 0.646187
O O6 0.554181 0.189992 0.568081
O O7 0.470971 0.179435 0.722392
O O8 0.459506 0.000000 0.639587
O O9 0.612647 0.500000 0.376320
O O10 0.625349 0.259473 0.419487
O O11 0.690763 0.311808 0.269689
O O12 0.987053 0.244514 0.119301
O O13 0.935447 0.000000 0.120321
O O14 0.000000 0.160532 0.000000
O O15 0.031994 0.500000 0.106398
O O16 0.078374 0.279672 0.137275
O O17 0.099942 0.500000 0.459643
O O18 0.000000 0.671508 0.500000
O O19 0.656969 0.753596 0.177814
O O20 0.617753 0.000000 0.173097
O O21 0.191924 0.000000 0.180875
#
# Coordination Sequence:
#
# PCOD8115968 Si02
#       8
#     8   8   8   8   8   8   8   8
#     4   9  17  30  45  59  79 107 136 165 198 238
#     4   8  14  24  35  48  71 101 129 158 191 227
#     4   9  15  22  33  50  72  98 129 162 192 225
#     4   9  17  29  45  64  81  97 125 168 211 242
#     4   9  17  29  45  62  79 104 136 166 198 236
#     4   8  13  21  33  48  67  95 128 158 191 228
#     4   9  17  28  41  58  81 109 139 166 192 230
#     4   9  18  29  39  55  82 113 138 162 197 235
#
# _framework density 15.051556
#
# number of rings (size 3 to 8) (size 9 to 14) (size 15 to 20)
#    0.000    3.250    0.000    1.500    0.000    5.750 
#    0.000    0.000    0.000    0.000    0.000    0.000 
#    0.000    1.000    0.000    2.000    0.000    5.000 
#
# Total GULP energy -396446.616073 kJ/mol
# GULP energy per Si atom -12388.956752 kJ/mol
# Density = 1.501730 g / cm^3
# Si number density = 15.051556 Si / 1000 Ang^3
#
#
#
# Elastic Constant Matrix: (Units=GPa)
#
#
# Indices 1 2 3 4 5 6 
#
# 1 79.4002 45.5452 49.9644 0.0000 6.5748 0.0007
# 2 45.5452 78.9658 44.9059 0.0021 4.5735 -0.0005
# 3 49.9644 44.9059 88.5245 -0.0007 9.9672 -0.0009
# 4 0.0000 0.0021 -0.0007 20.1940 0.0011 0.0959
# 5 6.5748 4.5735 9.9672 0.0011 2.3382 -0.0015
# 6 0.0007 -0.0005 -0.0009 0.0959 -0.0015 17.8252
#
#
#
# Elastic Compliance Matrix: (Units=1/GPa)
#
#
# Indices 1 2 3 4 5 6 
#
# 1 0.023311 -0.008566 -0.006380 0.000002 -0.021597 -0.000003
# 2 -0.008566 0.021007 -0.007513 -0.000003 0.015023 0.000002
# 3 -0.006380 -0.007513 0.028909 0.000007 -0.090595 -0.000006
# 4 0.000002 -0.000003 0.000007 0.049521 -0.000051 -0.000266
# 5 -0.021597 0.015023 -0.090595 -0.000051 0.845206 0.000067
# 6 -0.000003 0.000002 -0.000006 -0.000266 0.000067 0.056102
#
#
# Mechanical properties :
#
#
# Convention : Reuss Voigt Hill
#
# Bulk Modulus (GPa) = 35.32515 58.63572 46.98043
# Shear Modulus (GPa) = 4.63646 15.16982 9.90314
#
# Velocity S-wave (km/s) = 1.75701 3.17812 2.56783
# Velocity P-wave (km/s) = 5.25704 7.24627 6.33028
#
# Compressibility (1/GPa) = 0.02830844
#
# Stress axis : x y z
#
# Youngs Moduli (GPa) = 42.89743 47.60402 34.59183
#
# Poissons Ratio (x) = 0.40779 0.22070
# Poissons Ratio (y) = 0.36747 0.25988
# Poissons Ratio (z) = 0.27369 0.35763
#
# Static dielectric constant tensor:
#      x y z
#    x 2.529220 0.000000 0.108050 
#    y 0.000000 3.007150 0.000000 
#    z 0.108050 0.000000 3.349130 
# 
# 
# High freq. dielectric constant tensor:
#      x y z
#    x 1.518060 0.000000 0.008220 
#    y 0.000000 1.583760 0.000000 
#    z 0.008220 0.000000 1.579840 
# 
# From -- ./inp_files/326587.got.cif
#   From: 2010.06.25/outbox.cif.g09.slc.cpg/sg12_164_cif.got.tgz:326587.got - 2010.06.28 00:19:55.
