data_PCOD8115353
_publ_section_title
;
Structure prediction by ZEFSAII (Michael W. Deem and Ramdas Pophale) SiO2 
 PCOD8115353
Probable space group: C 2/M
;
_chemical_formula_sum "Si O2"
_cell_formula_units_Z 48
_cell_length_a 29.140254
_cell_length_b 8.594924
_cell_length_c 18.382346
_cell_angle_alpha 90.000000
_cell_angle_beta 149.956678
_cell_angle_gamma 90.000000
_cell_volume 2305.019377
_symmetry_space_group_name_H-M "C 2/M"
_symmetry_group_IT_number 12
_symmetry_cell_setting 'monoclinic'
loop_
_space_group_symop_operation_xyz
x,y,z
-x,y,-z
-x,-y,-z
x,-y,z
1/2+x,1/2+y,z
1/2-x,1/2+y,-z
1/2-x,1/2-y,-z
1/2+x,1/2-y,z
loop_
_atom_site_type_symbol
_atom_site_label
_atom_site_fract_x
_atom_site_fract_y
_atom_site_fract_z
Si Si1 0.794329 0.182593 0.340654
Si Si2 0.140657 0.176412 0.035402
Si Si3 0.486302 0.817523 0.564599
Si Si4 0.152089 0.177790 0.880132
Si Si5 0.286109 0.679749 0.623320
Si Si6 0.027345 0.329647 0.119697
O O1 0.738601 0.265609 0.199460
O O2 0.756149 0.229246 0.366852
O O3 0.900592 0.227078 0.481065
O O4 0.782456 0.000000 0.314920
O O5 0.127240 0.000000 0.044001
O O6 0.134482 0.188432 0.941062
O O7 0.060351 0.282854 0.954714
O O8 0.500000 0.766407 0.500000
O O9 0.576442 0.775535 0.733457
O O10 0.467056 0.000000 0.544313
O O11 0.149365 0.000000 0.849098
O O12 0.250000 0.250000 0.000000
O O13 0.260287 0.500000 0.595335
O O14 0.250000 0.750000 0.500000
O O15 0.395157 0.699228 0.768463
O O16 0.061420 0.500000 0.194426
O O17 0.000000 0.346053 0.000000
#
# Coordination Sequence:
#
# PCOD8115353 Si02
#       6
#     8   8   8   8   8   8
#     4  12  25  43  67  97 132 171 219 268 325 391
#     4  11  24  42  66  96 131 171 218 269 324 386
#     4  11  25  45  69  97 131 171 216 267 327 391
#     4  11  25  44  68  99 132 168 215 267 323 389
#     4  12  26  44  67  94 132 175 219 270 325 385
#     4  11  23  41  66  97 131 170 220 268 320 385
#
# _framework density 20.824120000000001
#
# number of rings (size 3 to 8) (size 9 to 14) (size 15 to 20)
#    0.000    0.667    1.667    6.000    2.333    8.667 
#    0.000    0.000    0.000    0.000    0.000    0.000 
#    0.000    0.000    0.000    0.000    0.000    0.000 
#
# Total GULP energy -297732.320302 kJ/mol
# GULP energy per Si atom -12405.513346 kJ/mol
# Density = 2.077672 g / cm^3
# Si number density = 20.824120 Si / 1000 Ang^3
#
#
#
# Elastic Constant Matrix: (Units=GPa)
#
#
# Indices 1 2 3 4 5 6 
#
# 1 83.5325 36.1887 43.3690 0.0000 10.3189 0.0000
# 2 36.1887 111.2223 25.7126 0.0000 -10.5427 0.0000
# 3 43.3690 25.7126 125.3139 0.0000 -0.1051 0.0000
# 4 0.0000 0.0000 0.0000 41.1127 0.0000 1.7116
# 5 10.3189 -10.5427 -0.1051 0.0000 39.6603 0.0000
# 6 0.0000 0.0000 0.0000 1.7116 0.0000 36.9450
#
#
#
# Elastic Compliance Matrix: (Units=1/GPa)
#
#
# Indices 1 2 3 4 5 6 
#
# 1 0.017521 -0.005102 -0.005022 0.000000 -0.005928 0.000000
# 2 -0.005102 0.011180 -0.000525 0.000000 0.004298 0.000000
# 3 -0.005022 -0.000525 0.009827 0.000000 0.001193 0.000000
# 4 0.000000 0.000000 0.000000 0.024370 0.000000 -0.001129
# 5 -0.005928 0.004298 0.001193 0.000000 0.027902 0.000000
# 6 0.000000 0.000000 0.000000 -0.001129 0.000000 0.027120
#
#
# Mechanical properties :
#
#
# Convention : Reuss Voigt Hill
#
# Bulk Modulus (GPa) = 58.03607 58.95658 58.49633
# Shear Modulus (GPa) = 34.49219 37.86350 36.17784
#
# Velocity S-wave (km/s) = 4.07425 4.26872 4.17262
# Velocity P-wave (km/s) = 7.07551 7.25735 7.16701
#
# Compressibility (1/GPa) = 0.01723066
#
# Stress axis : x y z
#
# Youngs Moduli (GPa) = 57.07321 89.44783 101.76434
#
# Poissons Ratio (x) = 0.45635 0.51106
# Poissons Ratio (y) = 0.29118 0.05339
# Poissons Ratio (z) = 0.28662 0.04693
#
# Static dielectric constant tensor:
#      x y z
#    x 3.742760 0.000000 -0.044070 
#    y 0.000000 4.639320 0.000000 
#    z -0.044070 0.000000 3.798450 
# 
# 
# High freq. dielectric constant tensor:
#      x y z
#    x 1.827460 0.000000 0.000890 
#    y 0.000000 1.833850 0.000000 
#    z 0.000890 0.000000 1.827410 
# 
# From -- ./inp_files/295898.got.cif
#   From: 2010.06.25/outbox.cif.g09.slc.cpg/sg12_148_cif.got.tgz:295898.got - 2010.06.28 00:19:55.
