data_PCOD8115237
_publ_section_title
;
Structure prediction by ZEFSAII (Michael W. Deem and Ramdas Pophale) SiO2 
 PCOD8115237
Probable space group: C 2/M
;
_chemical_formula_sum "Si O2"
_cell_formula_units_Z 40
_cell_length_a 13.329492
_cell_length_b 16.929083
_cell_length_c 8.823424
_cell_angle_alpha 90.000000
_cell_angle_beta 67.979374
_cell_angle_gamma 90.000000
_cell_volume 1845.809357
_symmetry_space_group_name_H-M "C 2/M"
_symmetry_group_IT_number 12
_symmetry_cell_setting 'monoclinic'
loop_
_space_group_symop_operation_xyz
x,y,z
-x,y,-z
-x,-y,-z
x,-y,z
1/2+x,1/2+y,z
1/2-x,1/2+y,-z
1/2-x,1/2-y,-z
1/2+x,1/2-y,z
loop_
_atom_site_type_symbol
_atom_site_label
_atom_site_fract_x
_atom_site_fract_y
_atom_site_fract_z
Si Si1 0.705155 0.408928 0.237638
Si Si2 0.100586 0.337200 0.043363
Si Si3 0.797838 0.833947 0.437498
Si Si4 0.392461 0.091745 0.638200
Si Si5 0.475052 0.664468 0.848652
O O1 0.741401 0.500000 0.203848
O O2 0.688513 0.387621 0.422128
O O3 0.593465 0.397540 0.209950
O O4 0.793187 0.350178 0.117088
O O5 0.104543 0.393180 0.185720
O O6 0.091922 0.245839 0.096108
O O7 0.000000 0.364568 0.000000
O O8 0.750000 0.750000 0.500000
O O9 0.718124 0.874218 0.363957
O O10 0.913537 0.818884 0.298551
O O11 0.500000 0.129918 0.500000
O O12 0.391455 0.000000 0.604259
O O13 0.500000 0.628019 0.000000
#
# Coordination Sequence:
#
# PCOD8115237 Si02
#       5
#     8   8   8   8   8
#     4  12  26  43  67  99 134 171 214 269 330 387
#     4  11  23  43  67  94 128 170 220 267 318 383
#     4  12  24  42  67  94 129 173 219 267 319 384
#     4  11  23  39  62  94 131 169 212 265 325 386
#     4  11  24  43  67  94 129 171 219 267 317 385
#
# _framework density 21.670712000000002
#
# number of rings (size 3 to 8) (size 9 to 14) (size 15 to 20)
#    0.000    0.600    0.000    9.600    0.000    6.000 
#    0.000    0.000    0.000    0.000    0.000    0.000 
#    0.000    0.000    0.000    0.000    0.000    0.000 
#
# Total GULP energy -248131.718794 kJ/mol
# GULP energy per Si atom -12406.585940 kJ/mol
# Density = 2.162139 g / cm^3
# Si number density = 21.670712 Si / 1000 Ang^3
#
#
#
# Elastic Constant Matrix: (Units=GPa)
#
#
# Indices 1 2 3 4 5 6 
#
# 1 124.1716 35.5842 52.5467 0.0000 17.5621 0.0000
# 2 35.5842 93.2822 29.8995 0.0000 9.2575 0.0000
# 3 52.5467 29.8995 132.4637 0.0000 2.8316 0.0000
# 4 0.0000 0.0000 0.0000 18.1316 0.0000 -16.6918
# 5 17.5621 9.2575 2.8316 0.0000 41.5546 0.0000
# 6 0.0000 0.0000 0.0000 -16.6918 0.0000 5.3770
#
#
#
# Elastic Compliance Matrix: (Units=1/GPa)
#
#
# Indices 1 2 3 4 5 6 
#
# 1 0.010876 -0.002606 -0.003645 0.000000 -0.003767 0.000000
# 2 -0.002606 0.012425 -0.001738 0.000000 -0.001548 0.000000
# 3 -0.003645 -0.001738 0.009360 0.000000 0.001290 0.000000
# 4 0.000000 0.000000 0.000000 -0.029687 0.000000 -0.092158
# 5 -0.003767 -0.001548 0.001290 0.000000 0.025914 0.000000
# 6 0.000000 0.000000 0.000000 -0.092158 0.000000 -0.100108
#
#
# Mechanical properties :
#
#
# Convention : Reuss Voigt Hill
#
# Bulk Modulus (GPa) = 59.94498 65.10869 62.52684
# Shear Modulus (GPa) = -100.64174 28.47180 -36.08497
#
# Velocity S-wave (km/s) = -6.82218 3.62862 -4.08505
# Velocity P-wave (km/s) = 5.85956 6.90403 2.58178
#
# Compressibility (1/GPa) = 0.01668196
#
# Stress axis : x y z
#
# Youngs Moduli (GPa) = 91.94732 80.48295 106.83810
#
# Poissons Ratio (x) = 0.20977 0.38947
# Poissons Ratio (y) = 0.23965 0.18563
# Poissons Ratio (z) = 0.33519 0.13984
#
# Static dielectric constant tensor:
#      x y z
#    x 4.048630 0.000000 0.051420 
#    y 0.000000 3.585260 0.000000 
#    z 0.051420 0.000000 4.251670 
# 
# 
# High freq. dielectric constant tensor:
#      x y z
#    x 1.870450 0.000000 0.003430 
#    y 0.000000 1.845230 0.000000 
#    z 0.003430 0.000000 1.870490 
# 
# From -- ./inp_files/46953.got.cif
#   From: 2010.06.25/outbox.cif.g09.slc.cpg/sg12_24_cif.got.tgz:46953.got - 2010.06.28 00:19:55.
