data_PCOD8115043
_publ_section_title
;
Structure prediction by ZEFSAII (Michael W. Deem and Ramdas Pophale) SiO2 
 PCOD8115043
Probable space group: C 2/M
;
_chemical_formula_sum "Si O2"
_cell_formula_units_Z 40
_cell_length_a 11.578161
_cell_length_b 28.535802
_cell_length_c 5.316160
_cell_angle_alpha 90.000000
_cell_angle_beta 72.273726
_cell_angle_gamma 90.000000
_cell_volume 1673.026069
_symmetry_space_group_name_H-M "C 2/M"
_symmetry_group_IT_number 12
_symmetry_cell_setting 'monoclinic'
loop_
_space_group_symop_operation_xyz
x,y,z
-x,y,-z
-x,-y,-z
x,-y,z
1/2+x,1/2+y,z
1/2-x,1/2+y,-z
1/2-x,1/2-y,-z
1/2+x,1/2-y,z
loop_
_atom_site_type_symbol
_atom_site_label
_atom_site_fract_x
_atom_site_fract_y
_atom_site_fract_z
Si Si1 0.000000 0.420953 0.000000
Si Si2 0.735963 0.174276 0.446958
Si Si3 0.932169 0.898981 0.294753
Si Si4 0.159791 0.000000 0.684479
Si Si5 0.855501 0.741461 0.130361
Si Si6 0.500000 0.863007 0.500000
Si Si7 0.689047 0.000000 0.915245
O O1 0.035139 0.392315 0.725683
O O2 0.112950 0.452975 0.003825
O O3 0.799603 0.123826 0.403555
O O4 0.833078 0.214949 0.332086
O O5 0.673792 0.189327 0.750887
O O6 0.617158 0.168925 0.344154
O O7 0.000000 0.882358 0.500000
O O8 0.924744 0.954887 0.291023
O O9 0.000000 0.880144 0.000000
O O10 0.260092 0.000000 0.401007
O O11 0.211185 0.000000 0.932876
O O12 0.750000 0.750000 0.000000
O O13 0.000000 0.744162 0.000000
#
# Coordination Sequence:
#
# PCOD8115043 Si02
#       7
#     4   8   8   4   8   4   4
#     4  11  24  40  68 102 152 186 264 296 384 447
#     4  11  27  44  73 108 147 192 254 310 385 461
#     4  12  27  46  74 108 148 202 252 313 377 452
#     4  12  24  46  70 103 152 194 257 309 378 447
#     4  11  26  48  77 108 152 198 256 320 389 467
#     4  12  26  45  70 110 142 198 236 321 374 460
#     4  11  22  41  68 103 140 205 240 321 366 443
#
# _framework density 23.908774000000001
#
# number of rings (size 3 to 8) (size 9 to 14) (size 15 to 20)
#    0.000    0.600    0.000    7.200    9.800    3.200 
#    0.000    0.000    0.000    0.000    0.000    0.000 
#    0.000    0.000    0.000    0.000    0.000    0.000 
#
# Total GULP energy -247789.116920 kJ/mol
# GULP energy per Si atom -12389.455846 kJ/mol
# Density = 2.385436 g / cm^3
# Si number density = 23.908774 Si / 1000 Ang^3
#
#
#
# Elastic Constant Matrix: (Units=GPa)
#
#
# Indices 1 2 3 4 5 6 
#
# 1 178.0506 43.7639 60.8363 0.0000 -15.4558 0.0000
# 2 43.7639 99.2991 36.4751 0.0000 -15.1410 0.0000
# 3 60.8363 36.4751 129.2828 0.0000 -3.1649 0.0000
# 4 0.0000 0.0000 0.0000 14.2907 0.0000 5.4181
# 5 -15.4558 -15.1410 -3.1649 0.0000 46.9860 0.0000
# 6 0.0000 0.0000 0.0000 5.4181 0.0000 -0.2565
#
#
#
# Elastic Compliance Matrix: (Units=1/GPa)
#
#
# Indices 1 2 3 4 5 6 
#
# 1 0.007176 -0.001895 -0.002804 0.000000 0.001561 0.000000
# 2 -0.001895 0.012309 -0.002504 0.000000 0.003175 0.000000
# 3 -0.002804 -0.002504 0.009734 0.000000 -0.001073 0.000000
# 4 0.000000 0.000000 0.000000 0.007767 0.000000 0.164083
# 5 0.001561 0.003175 -0.001073 0.000000 0.022747 0.000000
# 6 0.000000 0.000000 0.000000 0.164083 0.000000 -0.432786
#
#
# Mechanical properties :
#
#
# Convention : Reuss Voigt Hill
#
# Bulk Modulus (GPa) = 67.49801 76.53147 72.01474
# Shear Modulus (GPa) = -14.13587 29.90787 7.88600
#
# Velocity S-wave (km/s) = -2.43418 3.54067 1.81811
# Velocity P-wave (km/s) = 4.51580 6.98530 5.88162
#
# Compressibility (1/GPa) = 0.01481525
#
# Stress axis : x y z
#
# Youngs Moduli (GPa) = 139.36165 81.23946 102.72765
#
# Poissons Ratio (x) = 0.15391 0.28803
# Poissons Ratio (y) = 0.26402 0.25719
# Poissons Ratio (z) = 0.39075 0.20340
#
# Static dielectric constant tensor:
#      x y z
#    x 4.163310 0.000000 0.011200 
#    y 0.000000 4.717860 0.000000 
#    z 0.011200 0.000000 4.345410 
# 
# 
# High freq. dielectric constant tensor:
#      x y z
#    x 1.963580 0.000000 -0.009290 
#    y 0.000000 1.961420 0.000000 
#    z -0.009290 0.000000 1.951010 
# 
# From -- ./inp_files/8389.got.cif
#   From: 2010.06.25/outbox.cif.g09.slc.cpg/sg12_5_cif.got.tgz:8389.got - 2010.06.28 00:19:55.
