data_PCOD8115134
_publ_section_title
;
Structure prediction by ZEFSAII (Michael W. Deem and Ramdas Pophale) SiO2 
 PCOD8115134
Probable space group: C 2/M
;
_chemical_formula_sum "Si O2"
_cell_formula_units_Z 32
_cell_length_a 10.913936
_cell_length_b 14.334574
_cell_length_c 11.115808
_cell_angle_alpha 90.000000
_cell_angle_beta 125.672808
_cell_angle_gamma 90.000000
_cell_volume 1412.719577
_symmetry_space_group_name_H-M "C 2/M"
_symmetry_group_IT_number 12
_symmetry_cell_setting 'monoclinic'
loop_
_space_group_symop_operation_xyz
x,y,z
-x,y,-z
-x,-y,-z
x,-y,z
1/2+x,1/2+y,z
1/2-x,1/2+y,-z
1/2-x,1/2-y,-z
1/2+x,1/2-y,z
loop_
_atom_site_type_symbol
_atom_site_label
_atom_site_fract_x
_atom_site_fract_y
_atom_site_fract_z
Si Si1 0.974170 0.666234 0.679765
Si Si2 0.099430 0.500000 0.211644
Si Si3 0.701168 0.102899 0.629312
Si Si4 0.478761 0.342111 0.126814
Si Si5 0.249682 0.500000 0.059880
O O1 0.876663 0.595100 0.702753
O O2 0.861128 0.681801 0.499955
O O3 0.129650 0.622633 0.719222
O O4 0.026562 0.753522 0.788695
O O5 0.238781 0.500000 0.197813
O O6 0.925814 0.500000 0.071608
O O7 0.879096 0.099278 0.746983
O O8 0.650130 0.000000 0.554873
O O9 0.331504 0.406684 0.058040
O O10 0.500000 0.310783 0.000000
#
# Coordination Sequence:
#
# PCOD8115134 Si02
#       5
#     8   4   8   8   4
#     4  11  24  44  70 104 134 182 227 279 341 401
#     4  11  24  44  69  97 144 172 230 279 346 405
#     4  11  22  47  74  97 138 184 231 276 333 411
#     4  12  27  44  71 102 139 179 231 283 341 402
#     4  11  27  45  65 102 138 185 223 286 341 404
#
# _framework density 22.651346
#
# number of rings (size 3 to 8) (size 9 to 14) (size 15 to 20)
#    0.000    0.750    3.750    3.375    7.000    2.000 
#    0.000    1.250    0.000    0.000    0.000    0.000 
#    0.000    0.000    0.000    0.000    0.000    0.000 
#
# Total GULP energy -198242.475317 kJ/mol
# GULP energy per Si atom -12390.154707 kJ/mol
# Density = 2.259979 g / cm^3
# Si number density = 22.651346 Si / 1000 Ang^3
#
#
#
# Elastic Constant Matrix: (Units=GPa)
#
#
# Indices 1 2 3 4 5 6 
#
# 1 123.3951 32.2017 36.4200 0.0000 -15.2673 0.0000
# 2 32.2017 120.6385 38.5999 0.0000 -26.3730 0.0000
# 3 36.4200 38.5999 86.6920 0.0000 -6.4250 0.0000
# 4 0.0000 0.0000 0.0000 27.2218 0.0000 7.2740
# 5 -15.2673 -26.3730 -6.4250 0.0000 45.1314 0.0000
# 6 0.0000 0.0000 0.0000 7.2740 0.0000 59.6891
#
#
#
# Elastic Compliance Matrix: (Units=1/GPa)
#
#
# Indices 1 2 3 4 5 6 
#
# 1 0.009653 -0.000993 -0.003451 0.000000 0.002194 0.000000
# 2 -0.000993 0.011082 -0.004106 0.000000 0.005556 0.000000
# 3 -0.003451 -0.004106 0.014704 0.000000 -0.001473 0.000000
# 4 0.000000 0.000000 0.000000 0.037972 0.000000 -0.004627
# 5 0.002194 0.005556 -0.001473 0.000000 0.025937 0.000000
# 6 0.000000 0.000000 0.000000 -0.004627 0.000000 0.017317
#
#
# Mechanical properties :
#
#
# Convention : Reuss Voigt Hill
#
# Bulk Modulus (GPa) = 54.52330 60.57430 57.54880
# Shear Modulus (GPa) = 35.74574 41.30873 38.52723
#
# Velocity S-wave (km/s) = 3.97682 4.27509 4.12865
# Velocity P-wave (km/s) = 6.72382 7.15322 6.94184
#
# Compressibility (1/GPa) = 0.01834078
#
# Stress axis : x y z
#
# Youngs Moduli (GPa) = 103.59391 90.23253 68.01070
#
# Poissons Ratio (x) = 0.08960 0.23468
# Poissons Ratio (y) = 0.10287 0.27922
# Poissons Ratio (z) = 0.35746 0.37046
#
# Static dielectric constant tensor:
#      x y z
#    x 4.350610 0.000000 -0.248940 
#    y 0.000000 3.894520 0.000000 
#    z -0.248940 0.000000 4.103240 
# 
# 
# High freq. dielectric constant tensor:
#      x y z
#    x 1.902960 0.000000 -0.006650 
#    y 0.000000 1.879420 0.000000 
#    z -0.006650 0.000000 1.904010 
# 
# From -- ./inp_files/129503.got.cif
#   From: 2010.06.25/outbox.cif.g09.slc.cpg/sg12_65_cif.got.tgz:129503.got - 2010.06.28 00:19:55.
