data_PCOD8115668
_publ_section_title
;
Structure prediction by ZEFSAII (Michael W. Deem and Ramdas Pophale) SiO2 
 PCOD8115668
Probable space group: C 2/M
;
_chemical_formula_sum "Si O2"
_cell_formula_units_Z 24
_cell_length_a 11.248673
_cell_length_b 15.580668
_cell_length_c 5.158578
_cell_angle_alpha 90.000000
_cell_angle_beta 75.525553
_cell_angle_gamma 90.000000
_cell_volume 875.404961
_symmetry_space_group_name_H-M "C 2/M"
_symmetry_group_IT_number 12
_symmetry_cell_setting 'monoclinic'
loop_
_space_group_symop_operation_xyz
x,y,z
-x,y,-z
-x,-y,-z
x,-y,z
1/2+x,1/2+y,z
1/2-x,1/2+y,-z
1/2-x,1/2-y,-z
1/2+x,1/2-y,z
loop_
_atom_site_type_symbol
_atom_site_label
_atom_site_fract_x
_atom_site_fract_y
_atom_site_fract_z
Si Si1 0.840697 0.398874 0.002434
Si Si2 0.376133 0.801578 0.467971
Si Si3 0.071625 0.096725 0.196352
O O1 0.861042 0.500000 0.025234
O O2 0.859935 0.373795 0.695285
O O3 0.920546 0.350485 0.181297
O O4 0.705456 0.363013 0.159053
O O5 0.500000 0.746631 0.500000
O O6 0.250000 0.750000 0.500000
O O7 0.000000 0.096682 0.500000
O O8 0.096402 0.000000 0.084218
O O9 0.000000 0.145566 0.000000
#
# Coordination Sequence:
#
# PCOD8115668 Si02
#       3
#     8   8   8
#     4  11  24  44  74 110 143 183 244 310 365 424
#     4  12  28  49  73 104 147 197 242 293 364 441
#     4   9  17  31  55  93 138 177 217 274 345 413
#
# _framework density 27.415883000000001
#
# number of rings (size 3 to 8) (size 9 to 14) (size 15 to 20)
#    0.000    1.333    0.000    5.000    0.000   13.333 
#    0.000    0.000    0.000    1.000    0.000    0.000 
#    0.000    0.000    0.000    0.000    0.000    0.000 
#
# Total GULP energy -148695.921605 kJ/mol
# GULP energy per Si atom -12391.326800 kJ/mol
# Density = 2.735348 g / cm^3
# Si number density = 27.415883 Si / 1000 Ang^3
#
#
#
# Elastic Constant Matrix: (Units=GPa)
#
#
# Indices 1 2 3 4 5 6 
#
# 1 171.2932 34.5164 46.3513 0.0000 21.3779 0.0000
# 2 34.5164 95.5140 27.0268 0.0000 33.2534 0.0000
# 3 46.3513 27.0268 193.1629 0.0000 24.7871 0.0000
# 4 0.0000 0.0000 0.0000 23.9878 0.0000 11.3516
# 5 21.3779 33.2534 24.7871 0.0000 52.9206 0.0000
# 6 0.0000 0.0000 0.0000 11.3516 0.0000 28.5973
#
#
#
# Elastic Compliance Matrix: (Units=1/GPa)
#
#
# Indices 1 2 3 4 5 6 
#
# 1 0.006640 -0.001688 -0.001222 0.000000 -0.001049 0.000000
# 2 -0.001688 0.013962 -0.000543 0.000000 -0.007837 0.000000
# 3 -0.001222 -0.000543 0.005787 0.000000 -0.001876 0.000000
# 4 0.000000 0.000000 0.000000 0.051330 0.000000 -0.020375
# 5 -0.001049 -0.007837 -0.001876 0.000000 0.025123 0.000000
# 6 0.000000 0.000000 0.000000 -0.020375 0.000000 0.043056
#
#
# Mechanical properties :
#
#
# Convention : Reuss Voigt Hill
#
# Bulk Modulus (GPa) = 51.33115 75.08432 63.20774
# Shear Modulus (GPa) = 31.38760 44.57285 37.98023
#
# Velocity S-wave (km/s) = 3.38726 4.03650 3.72605
# Velocity P-wave (km/s) = 5.83625 7.01221 6.45108
#
# Compressibility (1/GPa) = 0.01948135
#
# Stress axis : x y z
#
# Youngs Moduli (GPa) = 150.60572 71.62393 172.80278
#
# Poissons Ratio (x) = 0.12093 0.21125
# Poissons Ratio (y) = 0.25429 0.09378
# Poissons Ratio (z) = 0.18411 0.03887
#
# Static dielectric constant tensor:
#      x y z
#    x 6.009490 0.000000 0.274860 
#    y 0.000000 5.100770 0.000000 
#    z 0.274860 0.000000 5.071920 
# 
# 
# High freq. dielectric constant tensor:
#      x y z
#    x 2.145180 0.000000 0.005300 
#    y 0.000000 2.092840 0.000000 
#    z 0.005300 0.000000 2.126460 
# 
# From -- ./inp_files/5474.got.cif
#   From: 2010.06.25/outbox.cif.g09.slc.cpg/sg12_3_cif.got.tgz:5474.got - 2010.06.28 00:19:55.
