data_PCOD8115430
_publ_section_title
;
Structure prediction by ZEFSAII (Michael W. Deem and Ramdas Pophale) SiO2 
 PCOD8115430
Probable space group: C 2/M
;
_chemical_formula_sum "Si O2"
_cell_formula_units_Z 56
_cell_length_a 9.357877
_cell_length_b 22.390582
_cell_length_c 16.242131
_cell_angle_alpha 90.000000
_cell_angle_beta 53.417554
_cell_angle_gamma 90.000000
_cell_volume 2732.758957
_symmetry_space_group_name_H-M "C 2/M"
_symmetry_group_IT_number 12
_symmetry_cell_setting 'monoclinic'
loop_
_space_group_symop_operation_xyz
x,y,z
-x,y,-z
-x,-y,-z
x,-y,z
1/2+x,1/2+y,z
1/2-x,1/2+y,-z
1/2-x,1/2-y,-z
1/2+x,1/2-y,z
loop_
_atom_site_type_symbol
_atom_site_label
_atom_site_fract_x
_atom_site_fract_y
_atom_site_fract_z
Si Si1 0.611845 0.379278 0.302544
Si Si2 0.151289 0.569724 0.637679
Si Si3 0.545456 0.263302 0.575566
Si Si4 0.738998 0.566350 0.585800
Si Si5 0.845959 0.355031 0.694291
Si Si6 0.816838 0.684193 0.099385
Si Si7 0.524557 0.306394 0.898171
O O1 0.709138 0.398733 0.351381
O O2 0.494762 0.319156 0.352190
O O3 0.472954 0.430801 0.325583
O O4 0.750865 0.368043 0.181973
O O5 0.131147 0.500000 0.665763
O O6 0.222730 0.581668 0.521779
O O7 0.963443 0.603405 0.714239
O O8 0.500000 0.281811 0.500000
O O9 0.750000 0.250000 0.500000
O O10 0.434687 0.208900 0.651086
O O11 0.806058 0.500000 0.585690
O O12 0.842374 0.612829 0.607128
O O13 0.650264 0.350082 0.801768
O O14 0.667199 0.699525 0.081349
O O15 0.872592 0.743239 0.131305
O O16 0.000000 0.658061 0.000000
O O17 0.500000 0.331160 0.000000
#
# Coordination Sequence:
#
# PCOD8115430 Si02
#       7
#     8   8   8   8   8   8   8
#     4  12  23  40  65  94 130 170 214 266 327 384
#     4  11  25  41  64  94 129 179 225 265 309 378
#     4  12  24  36  57  92 135 166 199 253 326 386
#     4  11  23  43  64  90 128 175 227 264 306 379
#     4  12  23  40  66  93 132 170 216 264 328 384
#     4  11  24  42  67  96 130 169 213 263 326 397
#     4  11  24  42  66  97 130 169 213 263 326 396
#
# _framework density 20.492111999999999
#
# number of rings (size 3 to 8) (size 9 to 14) (size 15 to 20)
#    0.000    0.571    2.857    7.714    4.000    2.286 
#    0.000    0.000    0.000    5.143    0.000    0.000 
#    0.000    0.000    0.000    0.000    0.000    0.000 
#
# Total GULP energy -347204.439283 kJ/mol
# GULP energy per Si atom -12400.158546 kJ/mol
# Density = 2.044547 g / cm^3
# Si number density = 20.492112 Si / 1000 Ang^3
#
#
#
# Elastic Constant Matrix: (Units=GPa)
#
#
# Indices 1 2 3 4 5 6 
#
# 1 111.8700 21.3927 10.1811 0.0000 -13.2188 0.0000
# 2 21.3927 77.1973 30.2097 0.0000 -2.5954 0.0000
# 3 10.1811 30.2097 87.9127 0.0000 -15.7426 0.0000
# 4 0.0000 0.0000 0.0000 34.0705 0.0000 -12.6227
# 5 -13.2188 -2.5954 -15.7426 0.0000 37.4859 0.0000
# 6 0.0000 0.0000 0.0000 -12.6227 0.0000 36.2655
#
#
#
# Elastic Compliance Matrix: (Units=1/GPa)
#
#
# Indices 1 2 3 4 5 6 
#
# 1 0.009840 -0.002781 0.000436 0.000000 0.003460 0.000000
# 2 -0.002781 0.015804 -0.005502 0.000000 -0.002197 0.000000
# 3 0.000436 -0.005502 0.014246 0.000000 0.005755 0.000000
# 4 0.000000 0.000000 0.000000 0.033696 0.000000 0.011728
# 5 0.003460 -0.002197 0.005755 0.000000 0.030162 0.000000
# 6 0.000000 0.000000 0.000000 0.011728 0.000000 0.031657
#
#
# Mechanical properties :
#
#
# Convention : Reuss Voigt Hill
#
# Bulk Modulus (GPa) = 41.33115 44.50522 42.91819
# Shear Modulus (GPa) = 31.41420 35.91082 33.66251
#
# Velocity S-wave (km/s) = 3.91959 4.19074 4.05743
# Velocity P-wave (km/s) = 6.37945 6.72173 6.55283
#
# Compressibility (1/GPa) = 0.02419482
#
# Stress axis : x y z
#
# Youngs Moduli (GPa) = 101.62622 63.27607 70.19627
#
# Poissons Ratio (x) = 0.17597 -0.03059
# Poissons Ratio (y) = 0.28262 0.38623
# Poissons Ratio (z) = -0.04428 0.34815
#
# Static dielectric constant tensor:
#      x y z
#    x 4.043690 0.000000 -0.163160 
#    y 0.000000 3.681970 0.000000 
#    z -0.163160 0.000000 3.767680 
# 
# 
# High freq. dielectric constant tensor:
#      x y z
#    x 1.827550 0.000000 -0.007880 
#    y 0.000000 1.786580 0.000000 
#    z -0.007880 0.000000 1.793520 
# 
# From -- ./inp_files/198792.got.cif
#   From: 2010.06.25/outbox.cif.g09.slc.cpg/sg12_100_cif.got.tgz:198792.got - 2010.06.28 00:19:55.
