data_PCOD8115620
_publ_section_title
;
Structure prediction by ZEFSAII (Michael W. Deem and Ramdas Pophale) SiO2 
 PCOD8115620
Probable space group: C 2/M
;
_chemical_formula_sum "Si O2"
_cell_formula_units_Z 40
_cell_length_a 28.291444
_cell_length_b 12.535584
_cell_length_c 6.721668
_cell_angle_alpha 90.000000
_cell_angle_beta 123.014691
_cell_angle_gamma 90.000000
_cell_volume 1998.921827
_symmetry_space_group_name_H-M "C 2/M"
_symmetry_group_IT_number 12
_symmetry_cell_setting 'monoclinic'
loop_
_space_group_symop_operation_xyz
x,y,z
-x,y,-z
-x,-y,-z
x,-y,z
1/2+x,1/2+y,z
1/2-x,1/2+y,-z
1/2-x,1/2-y,-z
1/2+x,1/2-y,z
loop_
_atom_site_type_symbol
_atom_site_label
_atom_site_fract_x
_atom_site_fract_y
_atom_site_fract_z
Si Si1 0.196752 0.177916 0.824528
Si Si2 0.661636 0.500000 0.054443
Si Si3 0.937877 0.500000 0.773630
Si Si4 0.500000 0.680302 0.500000
Si Si5 0.360964 0.000000 0.979337
Si Si6 0.268744 0.500000 0.392266
Si Si7 0.970379 0.000000 0.143019
Si Si8 0.599662 0.828581 0.621682
O O1 0.148126 0.256542 0.636894
O O2 0.210496 0.105438 0.669096
O O3 0.250000 0.250000 0.000000
O O4 0.173678 0.106370 0.954243
O O5 0.707439 0.500000 0.332419
O O6 0.598105 0.500000 0.999453
O O7 0.897682 0.500000 0.867892
O O8 0.928359 0.396323 0.617575
O O9 0.000000 0.500000 0.000000
O O10 0.495344 0.606198 0.297302
O O11 0.553908 0.754391 0.617143
O O12 0.298140 0.000000 0.754577
O O13 0.372915 0.897156 0.139843
O O14 0.000000 0.000000 0.000000
#
# Coordination Sequence:
#
# PCOD8115620 Si02
#       8
#     8   4   4   4   4   4   4   8
#     4  11  24  45  67  96 134 176 219 266 335 394
#     4  11  26  44  67  99 139 171 221 282 324 388
#     4  11  26  44  67  99 129 167 223 275 324 388
#     4  11  24  45  66  90 128 175 214 269 322 390
#     4  11  24  43  65  99 130 166 220 272 329 389
#     4  11  26  40  66  99 135 170 218 274 323 393
#     4  11  26  42  65  99 131 167 222 269 326 389
#     4  11  24  44  69  91 131 174 214 270 331 390
#
# _framework density 20.010788000000002
#
# number of rings (size 3 to 8) (size 9 to 14) (size 15 to 20)
#    0.000    1.000    4.000    1.200    5.600    6.400 
#    0.000    0.000    0.000    0.000    0.000    0.000 
#    0.000    0.000    0.000    0.000    0.000    0.000 
#
# Total GULP energy -248030.717865 kJ/mol
# GULP energy per Si atom -12401.535893 kJ/mol
# Density = 1.996524 g / cm^3
# Si number density = 20.010788 Si / 1000 Ang^3
#
#
#
# Elastic Constant Matrix: (Units=GPa)
#
#
# Indices 1 2 3 4 5 6 
#
# 1 142.5683 54.4873 52.1620 0.0000 3.7922 0.0000
# 2 54.4873 130.9966 50.0898 0.0000 5.4400 0.0000
# 3 52.1620 50.0898 134.9907 0.0000 3.5914 0.0000
# 4 0.0000 0.0000 0.0000 -3.7017 0.0000 9.4113
# 5 3.7922 5.4400 3.5914 0.0000 41.7606 0.0000
# 6 0.0000 0.0000 0.0000 9.4113 0.0000 48.8444
#
#
#
# Elastic Compliance Matrix: (Units=1/GPa)
#
#
# Indices 1 2 3 4 5 6 
#
# 1 0.008976 -0.002797 -0.002424 0.000000 -0.000242 0.000000
# 2 -0.002797 0.009799 -0.002534 0.000000 -0.000805 0.000000
# 3 -0.002424 -0.002534 0.009292 0.000000 -0.000249 0.000000
# 4 0.000000 0.000000 0.000000 -0.181323 0.000000 0.034937
# 5 -0.000242 -0.000805 -0.000249 0.000000 0.024094 0.000000
# 6 0.000000 0.000000 0.000000 0.034937 0.000000 0.013742
#
#
# Mechanical properties :
#
#
# Convention : Reuss Voigt Hill
#
# Bulk Modulus (GPa) = 79.63557 80.22598 79.93078
# Shear Modulus (GPa) = -52.23395 34.16844 -9.03276
#
# Velocity S-wave (km/s) = -5.11464 4.13667 -2.12691
# Velocity P-wave (km/s) = 2.23681 7.93691 5.83086
#
# Compressibility (1/GPa) = 0.01255720
#
# Stress axis : x y z
#
# Youngs Moduli (GPa) = 111.40207 102.04684 107.62301
#
# Poissons Ratio (x) = 0.28538 0.26093
# Poissons Ratio (y) = 0.31155 0.27273
# Poissons Ratio (z) = 0.27009 0.25860
#
# Static dielectric constant tensor:
#      x y z
#    x 3.619160 0.000000 -0.049770 
#    y 0.000000 3.896670 0.000000 
#    z -0.049770 0.000000 3.401640 
# 
# 
# High freq. dielectric constant tensor:
#      x y z
#    x 1.800950 0.000000 0.009060 
#    y 0.000000 1.804000 0.000000 
#    z 0.009060 0.000000 1.781500 
# 
# From -- ./inp_files/30956.got.cif
#   From: 2010.06.25/outbox.cif.g09.slc.cpg/sg12_16_cif.got.tgz:30956.got - 2010.06.28 00:19:55.
