data_PCOD8115944
_publ_section_title
;
Structure prediction by ZEFSAII (Michael W. Deem and Ramdas Pophale) SiO2 
 PCOD8115944
Probable space group: C 2/M
;
_chemical_formula_sum "Si O2"
_cell_formula_units_Z 48
_cell_length_a 24.794484
_cell_length_b 8.974220
_cell_length_c 11.242397
_cell_angle_alpha 90.000000
_cell_angle_beta 108.137957
_cell_angle_gamma 90.000000
_cell_volume 2377.255548
_symmetry_space_group_name_H-M "C 2/M"
_symmetry_group_IT_number 12
_symmetry_cell_setting 'monoclinic'
loop_
_space_group_symop_operation_xyz
x,y,z
-x,y,-z
-x,-y,-z
x,-y,z
1/2+x,1/2+y,z
1/2-x,1/2+y,-z
1/2-x,1/2-y,-z
1/2+x,1/2-y,z
loop_
_atom_site_type_symbol
_atom_site_label
_atom_site_fract_x
_atom_site_fract_y
_atom_site_fract_z
Si Si1 0.716946 0.170386 0.873763
Si Si2 0.379611 0.326108 0.087746
Si Si3 0.088642 0.176731 0.497425
Si Si4 0.324103 0.328336 0.806197
Si Si5 0.024723 0.173869 0.685686
Si Si6 0.810953 0.676504 0.558766
O O1 0.656114 0.251208 0.828410
O O2 0.756040 0.185156 0.783246
O O3 0.706967 0.000000 0.900609
O O4 0.750000 0.250000 0.000000
O O5 0.365895 0.500000 0.083596
O O6 0.445541 0.290061 0.165907
O O7 0.361857 0.268909 0.944235
O O8 0.063688 0.235943 0.605283
O O9 0.146504 0.266342 0.513901
O O10 0.040839 0.225834 0.365450
O O11 0.101696 0.000000 0.502977
O O12 0.339917 0.500000 0.788749
O O13 0.338070 0.225787 0.703595
O O14 0.023652 0.000000 0.660624
O O15 0.804718 0.500000 0.547280
O O16 0.750000 0.750000 0.500000
#
# Coordination Sequence:
#
# PCOD8115944 Si02
#       6
#     8   8   8   8   8   8
#     4   9  17  29  47  74 108 143 179 223 270 320
#     4   9  17  31  54  84 113 143 183 227 274 328
#     4   9  18  37  61  86 115 146 185 228 271 328
#     4   9  19  35  52  76 112 147 186 230 272 328
#     4   8  16  33  61  90 114 144 182 225 275 330
#     4  12  26  41  58  79 109 148 190 231 280 337
#
# _framework density 20.191351999999998
#
# number of rings (size 3 to 8) (size 9 to 14) (size 15 to 20)
#    0.000    2.667    0.000    4.000    2.333    3.333 
#    0.000    3.333    0.000    5.000    0.000    0.000 
#    0.000    0.000    0.000    0.000    0.000    0.000 
#
# Total GULP energy -297327.277220 kJ/mol
# GULP energy per Si atom -12388.636551 kJ/mol
# Density = 2.014540 g / cm^3
# Si number density = 20.191352 Si / 1000 Ang^3
#
#
#
# Elastic Constant Matrix: (Units=GPa)
#
#
# Indices 1 2 3 4 5 6 
#
# 1 92.5266 28.9078 25.9817 0.0000 12.2441 0.0000
# 2 28.9078 74.7583 19.0436 0.0000 0.4560 0.0000
# 3 25.9817 19.0436 74.0881 0.0000 15.9754 0.0000
# 4 0.0000 0.0000 0.0000 20.1963 0.0000 -5.6893
# 5 12.2441 0.4560 15.9754 0.0000 31.4223 0.0000
# 6 0.0000 0.0000 0.0000 -5.6893 0.0000 27.6633
#
#
#
# Elastic Compliance Matrix: (Units=1/GPa)
#
#
# Indices 1 2 3 4 5 6 
#
# 1 0.013486 -0.004489 -0.002759 0.000000 -0.003787 0.000000
# 2 -0.004489 0.015906 -0.003192 0.000000 0.003141 0.000000
# 3 -0.002759 -0.003192 0.016896 0.000000 -0.007469 0.000000
# 4 0.000000 0.000000 0.000000 0.052559 0.000000 0.010809
# 5 -0.003787 0.003141 -0.007469 0.000000 0.037052 0.000000
# 6 0.000000 0.000000 0.000000 0.010809 0.000000 0.038372
#
#
# Mechanical properties :
#
#
# Convention : Reuss Voigt Hill
#
# Bulk Modulus (GPa) = 39.35607 43.24880 41.30243
# Shear Modulus (GPa) = 24.55562 27.01903 25.78733
#
# Velocity S-wave (km/s) = 3.49111 3.66204 3.57760
# Velocity P-wave (km/s) = 5.98200 6.27269 6.12907
#
# Compressibility (1/GPa) = 0.02540904
#
# Stress axis : x y z
#
# Youngs Moduli (GPa) = 74.15078 62.86901 59.18646
#
# Poissons Ratio (x) = 0.28221 0.16329
# Poissons Ratio (y) = 0.33286 0.18890
# Poissons Ratio (z) = 0.20458 0.20065
#
# Static dielectric constant tensor:
#      x y z
#    x 3.975020 0.000000 0.198220 
#    y 0.000000 3.614820 0.000000 
#    z 0.198220 0.000000 3.729370 
# 
# 
# High freq. dielectric constant tensor:
#      x y z
#    x 1.775810 0.000000 0.017270 
#    y 0.000000 1.758110 0.000000 
#    z 0.017270 0.000000 1.788160 
# 
# From -- ./inp_files/173082.got.cif
#   From: 2010.06.25/outbox.cif.g09.slc.cpg/sg12_87_cif.got.tgz:173082.got - 2010.06.28 00:19:55.
