data_PCOD8115985
_publ_section_title
;
Structure prediction by ZEFSAII (Michael W. Deem and Ramdas Pophale) SiO2 
 PCOD8115985
Probable space group: C 2/M
;
_chemical_formula_sum "Si O2"
_cell_formula_units_Z 56
_cell_length_a 28.926777
_cell_length_b 9.229268
_cell_length_c 29.132334
_cell_angle_alpha 90.000000
_cell_angle_beta 28.209547
_cell_angle_gamma 90.000000
_cell_volume 3676.427355
_symmetry_space_group_name_H-M "C 2/M"
_symmetry_group_IT_number 12
_symmetry_cell_setting 'monoclinic'
loop_
_space_group_symop_operation_xyz
x,y,z
-x,y,-z
-x,-y,-z
x,-y,z
1/2+x,1/2+y,z
1/2-x,1/2+y,-z
1/2-x,1/2-y,-z
1/2+x,1/2-y,z
loop_
_atom_site_type_symbol
_atom_site_label
_atom_site_fract_x
_atom_site_fract_y
_atom_site_fract_z
Si Si1 0.707694 0.666554 0.782350
Si Si2 0.625037 0.332132 0.699562
Si Si3 0.346351 0.828249 0.511660
Si Si4 0.408354 0.836577 0.046465
Si Si5 0.525504 0.666415 0.874993
Si Si6 0.850858 0.830187 0.421043
Si Si7 0.901358 0.327886 0.563795
O O1 0.719614 0.500000 0.786631
O O2 0.682621 0.755913 0.850163
O O3 0.624317 0.683893 0.817407
O O4 0.807791 0.730962 0.673613
O O5 0.633906 0.500000 0.704350
O O6 0.734562 0.270195 0.610580
O O7 0.548742 0.268563 0.803706
O O8 0.586477 0.308114 0.680981
O O9 0.400981 0.745734 0.421474
O O10 0.397922 0.779749 0.513647
O O11 0.352682 0.000000 0.497617
O O12 0.376882 0.000000 0.062881
O O13 0.500000 0.830313 0.000000
O O14 0.437022 0.758371 0.973886
O O15 0.490802 0.500000 0.904394
O O16 0.750000 0.750000 0.500000
O O17 0.833418 0.000000 0.445540
O O18 0.899076 0.500000 0.568112
O O19 0.000000 0.264398 0.500000
#
# Coordination Sequence:
#
# PCOD8115985 Si02
#       7
#     8   8   8   8   8   8   8
#     4   9  15  25  41  56  73 102 137 167 196 233
#     4   8  13  22  37  55  76 102 131 161 191 229
#     4   9  15  26  40  55  79 107 135 168 203 236
#     4   9  17  26  35  52  78 103 127 159 198 238
#     4   9  14  23  39  56  74 101 134 161 189 232
#     4   9  16  25  38  56  78 105 135 164 197 239
#     4   9  16  26  43  64  81 103 141 182 208 228
#
# _framework density 15.232177999999999
#
# number of rings (size 3 to 8) (size 9 to 14) (size 15 to 20)
#    0.000    3.143    1.429    1.714    0.000    1.714 
#    0.000    4.286    0.000    1.714    0.000    0.000 
#    0.000    1.143    0.000    2.286    0.000    3.143 
#
# Total GULP energy -346939.822489 kJ/mol
# GULP energy per Si atom -12390.707946 kJ/mol
# Density = 1.519751 g / cm^3
# Si number density = 15.232178 Si / 1000 Ang^3
#
#
#
# Elastic Constant Matrix: (Units=GPa)
#
#
# Indices 1 2 3 4 5 6 
#
# 1 87.5006 33.4002 54.3706 0.0108 27.5737 -0.0157
# 2 33.4002 64.6980 41.7446 0.0028 18.5793 -0.0063
# 3 54.3706 41.7446 88.0375 0.0052 32.3492 -0.0162
# 4 0.0108 0.0028 0.0052 14.1519 -0.0071 7.9066
# 5 27.5737 18.5793 32.3492 -0.0071 30.3222 0.0112
# 6 -0.0157 -0.0063 -0.0162 7.9066 0.0112 15.8178
#
#
#
# Elastic Compliance Matrix: (Units=1/GPa)
#
#
# Indices 1 2 3 4 5 6 
#
# 1 0.020039 -0.002841 -0.008179 -0.000034 -0.007757 0.000033
# 2 -0.002841 0.022958 -0.008079 -0.000001 -0.002865 0.000001
# 3 -0.008179 -0.008079 0.025805 -0.000033 -0.015142 0.000042
# 4 -0.000034 -0.000001 -0.000033 0.098042 0.000108 -0.049007
# 5 -0.007757 -0.002865 -0.015142 0.000108 0.057943 -0.000119
# 6 0.000033 0.000001 0.000042 -0.049007 -0.000119 0.087716
#
#
# Mechanical properties :
#
#
# Convention : Reuss Voigt Hill
#
# Bulk Modulus (GPa) = 32.67402 55.47412 44.07407
# Shear Modulus (GPa) = 13.85420 19.43978 16.64699
#
# Velocity S-wave (km/s) = 3.01912 3.57631 3.30946
# Velocity P-wave (km/s) = 5.80092 7.31789 6.60311
#
# Compressibility (1/GPa) = 0.03060535
#
# Stress axis : x y z
#
# Youngs Moduli (GPa) = 49.90211 43.55700 38.75277
#
# Poissons Ratio (x) = 0.12373 0.31695
# Poissons Ratio (y) = 0.14175 0.31309
# Poissons Ratio (z) = 0.40814 0.35190
#
# Static dielectric constant tensor:
#      x y z
#    x 2.959030 -0.000010 0.452800 
#    y -0.000010 2.821340 0.000010 
#    z 0.452800 0.000010 3.013910 
# 
# 
# High freq. dielectric constant tensor:
#      x y z
#    x 1.549670 0.000000 0.044790 
#    y 0.000000 1.563070 0.000000 
#    z 0.044790 0.000000 1.565740 
# 
# From -- ./inp_files/247915.got.cif
#   From: 2010.06.25/outbox.cif.g09.slc.cpg/sg12_124_cif.got.tgz:247915.got - 2010.06.28 00:19:55.
