data_PCOD8115725
_publ_section_title
;
Structure prediction by ZEFSAII (Michael W. Deem and Ramdas Pophale) SiO2 
 PCOD8115725
Probable space group: C 2/M
;
_chemical_formula_sum "Si O2"
_cell_formula_units_Z 44
_cell_length_a 16.486764
_cell_length_b 12.849041
_cell_length_c 27.953896
_cell_angle_alpha 90.000000
_cell_angle_beta 159.860028
_cell_angle_gamma 90.000000
_cell_volume 2038.938498
_symmetry_space_group_name_H-M "C 2/M"
_symmetry_group_IT_number 12
_symmetry_cell_setting 'monoclinic'
loop_
_space_group_symop_operation_xyz
x,y,z
-x,y,-z
-x,-y,-z
x,-y,z
1/2+x,1/2+y,z
1/2-x,1/2+y,-z
1/2-x,1/2-y,-z
1/2+x,1/2-y,z
loop_
_atom_site_type_symbol
_atom_site_label
_atom_site_fract_x
_atom_site_fract_y
_atom_site_fract_z
Si Si1 0.338336 0.224464 0.151119
Si Si2 0.774658 0.500000 0.566342
Si Si3 0.261142 0.883216 0.391840
Si Si4 0.646833 0.779218 0.149453
Si Si5 0.526425 0.000000 0.228962
Si Si6 0.759541 0.500000 0.757817
Si Si7 0.433176 0.834910 0.588256
O O1 0.564147 0.298932 0.268387
O O2 0.247286 0.245592 0.153837
O O3 0.382582 0.104206 0.162376
O O4 0.129383 0.255064 0.998629
O O5 0.517601 0.500000 0.402353
O O6 0.933109 0.404749 0.635724
O O7 0.753224 0.500000 0.612065
O O8 0.500000 0.843509 0.500000
O O9 0.328231 0.893567 0.484623
O O10 0.185858 0.000000 0.333093
O O11 0.804555 0.713473 0.275087
O O12 0.673215 0.901477 0.173123
O O13 0.607266 0.000000 0.219129
O O14 0.250000 0.750000 0.500000
#
# Coordination Sequence:
#
# PCOD8115725 Si02
#       7
#     8   4   8   8   4   4   8
#     4  11  26  46  73 100 146 185 236 292 350 423
#     4  12  21  41  72  97 135 180 233 287 337 414
#     4  11  25  44  69 105 142 185 231 292 356 416
#     4  11  26  45  71 103 135 188 237 290 348 422
#     4  12  27  46  65 109 146 183 227 296 363 420
#     4  12  27  43  71 107 137 183 240 296 354 409
#     4  12  21  41  67  97 133 177 231 283 338 413
#
# _framework density 21.579857000000001
#
# number of rings (size 3 to 8) (size 9 to 14) (size 15 to 20)
#    0.000    0.545    6.364    0.273    5.091    3.636 
#    0.000    0.000    0.000    0.000    0.000    0.000 
#    0.000    0.000    0.000    0.000    0.000    0.000 
#
# Total GULP energy -272611.445123 kJ/mol
# GULP energy per Si atom -12391.429324 kJ/mol
# Density = 2.153074 g / cm^3
# Si number density = 21.579857 Si / 1000 Ang^3
#
#
#
# Elastic Constant Matrix: (Units=GPa)
#
#
# Indices 1 2 3 4 5 6 
#
# 1 85.7430 37.3299 22.4488 -0.0098 13.6964 -0.0010
# 2 37.3299 184.9207 81.3431 -0.0072 14.3519 0.0003
# 3 22.4488 81.3431 168.0240 -0.0092 14.6230 -0.0037
# 4 -0.0098 -0.0072 -0.0092 25.3090 -0.0143 6.8661
# 5 13.6964 14.3519 14.6230 -0.0143 24.9912 0.0000
# 6 -0.0010 0.0003 -0.0037 6.8661 0.0000 26.7801
#
#
#
# Elastic Compliance Matrix: (Units=1/GPa)
#
#
# Indices 1 2 3 4 5 6 
#
# 1 0.013646 -0.002177 -0.000239 0.000001 -0.006088 0.000000
# 2 -0.002177 0.007325 -0.003154 0.000000 -0.001168 0.000000
# 3 -0.000239 -0.003154 0.007735 0.000000 -0.002584 0.000001
# 4 0.000001 0.000000 0.000000 0.042465 0.000024 -0.010888
# 5 -0.006088 -0.001168 -0.002584 0.000024 0.045534 -0.000007
# 6 0.000000 0.000000 0.000001 -0.010888 -0.000007 0.040133
#
#
# Mechanical properties :
#
#
# Convention : Reuss Voigt Hill
#
# Bulk Modulus (GPa) = 56.92795 80.10348 68.51572
# Shear Modulus (GPa) = 28.76329 35.25378 32.00853
#
# Velocity S-wave (km/s) = 3.65482 4.04622 3.85549
# Velocity P-wave (km/s) = 6.65189 7.68305 7.18599
#
# Compressibility (1/GPa) = 0.01756606
#
# Stress axis : x y z
#
# Youngs Moduli (GPa) = 73.28308 136.51749 129.28047
#
# Poissons Ratio (x) = 0.29717 0.03095
# Poissons Ratio (y) = 0.15952 0.40771
# Poissons Ratio (z) = 0.01755 0.43053
#
# Static dielectric constant tensor:
#      x y z
#    x 3.466110 -0.000220 0.174050 
#    y -0.000220 3.883210 0.000130 
#    z 0.174050 0.000130 4.092250 
# 
# 
# High freq. dielectric constant tensor:
#      x y z
#    x 1.835600 0.000000 -0.002800 
#    y 0.000000 1.865980 0.000000 
#    z -0.002800 0.000000 1.854590 
# 
# From -- ./inp_files/154146.got.cif
#   From: 2010.06.25/outbox.cif.g09.slc.cpg/sg12_78_cif.got.tgz:154146.got - 2010.06.28 00:19:55.
