data_PCOD8115437
_publ_section_title
;
Structure prediction by ZEFSAII (Michael W. Deem and Ramdas Pophale) SiO2 
 PCOD8115437
Probable space group: C 2/M
;
_chemical_formula_sum "Si O2"
_cell_formula_units_Z 48
_cell_length_a 11.812340
_cell_length_b 26.698895
_cell_length_c 14.729536
_cell_angle_alpha 90.000000
_cell_angle_beta 150.182412
_cell_angle_gamma 90.000000
_cell_volume 2309.854504
_symmetry_space_group_name_H-M "C 2/M"
_symmetry_group_IT_number 12
_symmetry_cell_setting 'monoclinic'
loop_
_space_group_symop_operation_xyz
x,y,z
-x,y,-z
-x,-y,-z
x,-y,z
1/2+x,1/2+y,z
1/2-x,1/2+y,-z
1/2-x,1/2-y,-z
1/2+x,1/2-y,z
loop_
_atom_site_type_symbol
_atom_site_label
_atom_site_fract_x
_atom_site_fract_y
_atom_site_fract_z
Si Si1 0.379590 0.500000 0.669227
Si Si2 0.248723 0.000000 0.796598
Si Si3 0.608211 0.265326 0.811907
Si Si4 0.757408 0.000000 0.791406
Si Si5 0.582852 0.916845 0.390364
Si Si6 0.751122 0.899539 0.311291
Si Si7 0.888185 0.308175 0.516760
Si Si8 0.000000 0.669998 0.000000
O O1 0.642516 0.500000 0.824991
O O2 0.284217 0.500000 0.702976
O O3 0.299761 0.449227 0.566855
O O4 0.189026 0.951588 0.695957
O O5 0.500000 0.000000 0.000000
O O6 0.381965 0.297141 0.677704
O O7 0.518665 0.218153 0.691368
O O8 0.750000 0.250000 0.000000
O O9 0.781768 0.297141 0.873038
O O10 0.639852 0.949431 0.743363
O O11 0.000000 0.000000 0.000000
O O12 0.603656 0.905825 0.298970
O O13 0.575740 0.867026 0.445125
O O14 0.582555 0.864484 0.138765
O O15 0.000000 0.873687 0.500000
O O16 0.000000 0.290753 0.500000
#
# Coordination Sequence:
#
# PCOD8115437 Si02
#       8
#     4   4   8   4   8   8   8   4
#     4  11  23  43  68  90 138 176 219 271 326 398
#     4  12  24  39  66 100 136 172 217 274 327 396
#     4  11  25  46  69 101 136 175 224 286 341 403
#     4  11  26  43  63  99 133 178 223 279 328 393
#     4  11  23  45  68  93 132 180 224 267 333 404
#     4  12  24  43  67 101 136 179 220 272 337 399
#     4  11  24  45  72  98 134 179 226 278 340 404
#     4  12  26  43  68 102 136 171 226 282 338 400
#
# _framework density 20.780529000000001
#
# number of rings (size 3 to 8) (size 9 to 14) (size 15 to 20)
#    0.000    0.667    2.500    6.250    2.333    3.333 
#   10.500    0.000    0.000    0.000    0.000    0.000 
#    0.000    0.000    0.000    0.000    0.000    0.000 
#
# Total GULP energy -297501.588365 kJ/mol
# GULP energy per Si atom -12395.899515 kJ/mol
# Density = 2.073323 g / cm^3
# Si number density = 20.780529 Si / 1000 Ang^3
#
#
#
# Elastic Constant Matrix: (Units=GPa)
#
#
# Indices 1 2 3 4 5 6 
#
# 1 162.4249 35.5598 62.5706 0.0002 7.7188 -0.0001
# 2 35.5598 116.7698 53.5856 0.0001 4.5450 0.0000
# 3 62.5706 53.5856 157.2644 0.0002 10.2411 -0.0002
# 4 0.0002 0.0001 0.0002 20.9401 0.0001 -30.9079
# 5 7.7188 4.5450 10.2411 0.0001 46.4723 -0.0001
# 6 -0.0001 0.0000 -0.0002 -30.9079 -0.0001 43.3018
#
#
#
# Elastic Compliance Matrix: (Units=1/GPa)
#
#
# Indices 1 2 3 4 5 6 
#
# 1 0.007396 -0.001063 -0.002544 0.000001 -0.000564 0.000000
# 2 -0.001063 0.010306 -0.003079 0.000000 -0.000153 0.000000
# 3 -0.002544 -0.003079 0.008495 0.000000 -0.001148 0.000000
# 4 0.000001 0.000000 0.000000 -0.891833 0.000001 -0.636572
# 5 -0.000564 -0.000153 -0.001148 0.000001 0.021880 0.000001
# 6 0.000000 0.000000 0.000000 -0.636572 0.000001 -0.431278
#
#
# Mechanical properties :
#
#
# Convention : Reuss Voigt Hill
#
# Bulk Modulus (GPa) = 77.96726 82.21012 80.08869
# Shear Modulus (GPa) = -3.97650 41.12573 18.57461
#
# Velocity S-wave (km/s) = -1.38482 4.45348 2.99297
# Velocity P-wave (km/s) = 5.91979 8.12968 7.11110
#
# Compressibility (1/GPa) = 0.01282590
#
# Stress axis : x y z
#
# Youngs Moduli (GPa) = 135.20543 97.02689 117.72119
#
# Poissons Ratio (x) = 0.10315 0.29945
# Poissons Ratio (y) = 0.14373 0.36245
# Poissons Ratio (z) = 0.34393 0.29873
#
# Static dielectric constant tensor:
#      x y z
#    x 3.651120 0.000000 0.290200 
#    y 0.000000 3.828460 0.000000 
#    z 0.290200 0.000000 3.605800 
# 
# 
# High freq. dielectric constant tensor:
#      x y z
#    x 1.835710 0.000000 0.003950 
#    y 0.000000 1.818770 0.000000 
#    z 0.003950 0.000000 1.824360 
# 
# From -- ./inp_files/209524.got.cif
#   From: 2010.06.25/outbox.cif.g09.slc.cpg/sg12_105_cif.got.tgz:209524.got - 2010.06.28 00:19:55.
