data_PCOD8115658
_publ_section_title
;
Structure prediction by ZEFSAII (Michael W. Deem and Ramdas Pophale) SiO2 
 PCOD8115658
Probable space group: C 2/M
;
_chemical_formula_sum "Si O2"
_cell_formula_units_Z 40
_cell_length_a 23.738118
_cell_length_b 8.381762
_cell_length_c 16.849111
_cell_angle_alpha 90.000000
_cell_angle_beta 33.220104
_cell_angle_gamma 90.000000
_cell_volume 1836.646826
_symmetry_space_group_name_H-M "C 2/M"
_symmetry_group_IT_number 12
_symmetry_cell_setting 'monoclinic'
loop_
_space_group_symop_operation_xyz
x,y,z
-x,y,-z
-x,-y,-z
x,-y,z
1/2+x,1/2+y,z
1/2-x,1/2+y,-z
1/2-x,1/2-y,-z
1/2+x,1/2-y,z
loop_
_atom_site_type_symbol
_atom_site_label
_atom_site_fract_x
_atom_site_fract_y
_atom_site_fract_z
Si Si1 0.695480 0.184443 0.642486
Si Si2 0.863365 0.315799 0.875738
Si Si3 0.404521 0.684043 0.665646
Si Si4 0.474220 0.316944 0.893847
Si Si5 0.223821 0.815548 0.777500
O O1 0.750000 0.250000 0.500000
O O2 0.573040 0.205116 0.783710
O O3 0.741296 0.274154 0.664971
O O4 0.722560 0.000000 0.618979
O O5 0.863479 0.500000 0.901491
O O6 0.918060 0.293894 0.726841
O O7 0.921021 0.210335 0.872374
O O8 0.750000 0.250000 0.000000
O O9 0.500000 0.734061 0.500000
O O10 0.408570 0.500000 0.686552
O O11 0.298217 0.712489 0.744981
O O12 0.510768 0.500000 0.857036
O O13 0.393876 0.276527 0.059005
O O14 0.249052 0.000000 0.762868
#
# Coordination Sequence:
#
# PCOD8115658 Si02
#       5
#     8   8   8   8   8
#     4  12  27  46  69  97 132 173 220 274 330 389
#     4  12  24  41  67  99 135 174 220 271 325 389
#     4  11  25  43  66  97 136 177 220 271 328 389
#     4  11  24  44  70  99 133 172 219 271 327 393
#     4  11  24  44  70  98 132 173 220 271 327 392
#
# _framework density 21.778818000000001
#
# number of rings (size 3 to 8) (size 9 to 14) (size 15 to 20)
#    0.000    0.600    2.000    6.000    2.800    6.400 
#    0.000    0.000    0.000    0.000    0.000    0.000 
#    0.000    0.000    0.000    0.000    0.000    0.000 
#
# Total GULP energy -248156.334252 kJ/mol
# GULP energy per Si atom -12407.816713 kJ/mol
# Density = 2.172925 g / cm^3
# Si number density = 21.778818 Si / 1000 Ang^3
#
#
#
# Elastic Constant Matrix: (Units=GPa)
#
#
# Indices 1 2 3 4 5 6 
#
# 1 79.4706 1.2247 7.8426 0.0041 24.5446 -0.0003
# 2 1.2247 74.6628 38.0872 0.0215 6.8209 -0.0031
# 3 7.8426 38.0872 96.1103 0.0195 21.7270 -0.0035
# 4 0.0041 0.0215 0.0195 36.6139 -0.0080 0.7026
# 5 24.5446 6.8209 21.7270 -0.0080 41.6042 0.0000
# 6 -0.0003 -0.0031 -0.0035 0.7026 0.0000 36.3268
#
#
#
# Elastic Compliance Matrix: (Units=1/GPa)
#
#
# Indices 1 2 3 4 5 6 
#
# 1 0.015459 0.000201 0.000826 -0.000004 -0.009584 0.000000
# 2 0.000201 0.016814 -0.006837 -0.000006 0.000695 0.000001
# 3 0.000826 -0.006837 0.014631 -0.000005 -0.007007 0.000001
# 4 -0.000004 -0.000006 -0.000005 0.027322 0.000012 -0.000528
# 5 -0.009584 0.000695 -0.007007 0.000012 0.033235 -0.000001
# 6 0.000000 0.000001 0.000001 -0.000528 -0.000001 0.027538
#
#
# Mechanical properties :
#
#
# Convention : Reuss Voigt Hill
#
# Bulk Modulus (GPa) = 28.34237 38.28363 33.31300
# Shear Modulus (GPa) = 31.56940 36.44827 34.00883
#
# Velocity S-wave (km/s) = 3.81142 4.09536 3.95594
# Velocity P-wave (km/s) = 5.69309 6.32291 6.01624
#
# Compressibility (1/GPa) = 0.03528287
#
# Stress axis : x y z
#
# Youngs Moduli (GPa) = 64.68839 59.47290 68.34961
#
# Poissons Ratio (x) = -0.01195 -0.05643
# Poissons Ratio (y) = -0.01299 0.46730
# Poissons Ratio (z) = -0.05340 0.40661
#
# Static dielectric constant tensor:
#      x y z
#    x 4.259920 -0.000010 0.322550 
#    y -0.000010 3.859170 0.000000 
#    z 0.322550 0.000000 4.204230 
# 
# 
# High freq. dielectric constant tensor:
#      x y z
#    x 1.866040 0.000000 0.009700 
#    y 0.000000 1.863140 0.000000 
#    z 0.009700 0.000000 1.864880 
# 
# From -- ./inp_files/288592.got.cif
#   From: 2010.06.25/outbox.cif.g09.slc.cpg/sg12_145_cif.got.tgz:288592.got - 2010.06.28 00:19:55.
