data_PCOD8115468
_publ_section_title
;
Structure prediction by ZEFSAII (Michael W. Deem and Ramdas Pophale) SiO2 
 PCOD8115468
Probable space group: C 2/M
;
_chemical_formula_sum "Si O2"
_cell_formula_units_Z 48
_cell_length_a 8.529174
_cell_length_b 30.542977
_cell_length_c 16.060118
_cell_angle_alpha 90.000000
_cell_angle_beta 148.848856
_cell_angle_gamma 90.000000
_cell_volume 2164.249929
_symmetry_space_group_name_H-M "C 2/M"
_symmetry_group_IT_number 12
_symmetry_cell_setting 'monoclinic'
loop_
_space_group_symop_operation_xyz
x,y,z
-x,y,-z
-x,-y,-z
x,-y,z
1/2+x,1/2+y,z
1/2-x,1/2+y,-z
1/2-x,1/2-y,-z
1/2+x,1/2-y,z
loop_
_atom_site_type_symbol
_atom_site_label
_atom_site_fract_x
_atom_site_fract_y
_atom_site_fract_z
Si Si1 0.799080 0.635660 0.835544
Si Si2 0.227015 0.786054 0.180205
Si Si3 0.349588 0.123712 0.173298
Si Si4 0.012687 0.049038 0.277893
Si Si5 0.993436 0.549006 0.357697
Si Si6 0.359776 0.709093 0.674634
O O1 0.746833 0.584929 0.834507
O O2 0.491835 0.664377 0.693804
O O3 0.982100 0.637576 0.833797
O O4 0.000000 0.656879 0.000000
O O5 0.377971 0.833956 0.244631
O O6 0.491492 0.750111 0.304890
O O7 0.049374 0.785438 0.186969
O O8 0.000000 0.778116 0.000000
O O9 0.516645 0.082875 0.292300
O O10 0.000000 0.110973 0.000000
O O11 0.188325 0.056552 0.271361
O O12 0.225740 0.055930 0.454048
O O13 0.873736 0.000000 0.216348
O O14 0.998438 0.500000 0.322280
O O15 0.000000 0.708547 0.500000
#
# Coordination Sequence:
#
# PCOD8115468 Si02
#       6
#     8   8   8   8   8   8
#     4  12  25  42  66  95 130 174 217 265 325 386
#     4  11  23  44  68  93 134 176 218 267 324 390
#     4  11  24  41  64  95 129 174 219 266 319 384
#     4   9  20  39  65  94 127 170 214 263 323 386
#     4   9  19  39  65  93 130 170 212 265 325 382
#     4  12  26  44  69 101 133 171 218 272 325 392
#
# _framework density 22.178585999999999
#
# number of rings (size 3 to 8) (size 9 to 14) (size 15 to 20)
#    0.000    1.333    0.000    7.500    4.667    2.000 
#    0.000    1.667    0.000    0.000    0.000    0.000 
#    0.000    0.000    0.000    0.000    0.000    0.000 
#
# Total GULP energy -297644.790884 kJ/mol
# GULP energy per Si atom -12401.866287 kJ/mol
# Density = 2.212811 g / cm^3
# Si number density = 22.178586 Si / 1000 Ang^3
#
#
#
# Elastic Constant Matrix: (Units=GPa)
#
#
# Indices 1 2 3 4 5 6 
#
# 1 124.1458 36.7240 26.3779 0.0000 -4.4043 0.0000
# 2 36.7240 143.2733 32.1349 0.0000 3.3973 0.0000
# 3 26.3779 32.1349 69.0290 0.0000 7.2367 0.0000
# 4 0.0000 0.0000 0.0000 30.4685 0.0000 -2.4478
# 5 -4.4043 3.3973 7.2367 0.0000 31.8564 0.0000
# 6 0.0000 0.0000 0.0000 -2.4478 0.0000 30.2487
#
#
#
# Elastic Compliance Matrix: (Units=1/GPa)
#
#
# Indices 1 2 3 4 5 6 
#
# 1 0.009280 -0.001768 -0.002948 0.000000 0.002141 0.000000
# 2 -0.001768 0.008130 -0.003066 0.000000 -0.000415 0.000000
# 3 -0.002948 -0.003066 0.017464 0.000000 -0.004048 0.000000
# 4 0.000000 0.000000 0.000000 0.033036 0.000000 0.002673
# 5 0.002141 -0.000415 -0.004048 0.000000 0.032651 0.000000
# 6 0.000000 0.000000 0.000000 0.002673 0.000000 0.033276
#
#
# Mechanical properties :
#
#
# Convention : Reuss Voigt Hill
#
# Bulk Modulus (GPa) = 51.78098 58.54687 55.16393
# Shear Modulus (GPa) = 32.08465 34.59547 33.34006
#
# Velocity S-wave (km/s) = 3.80761 3.95379 3.88139
# Velocity P-wave (km/s) = 6.53670 6.87739 6.70921
#
# Compressibility (1/GPa) = 0.01931211
#
# Stress axis : x y z
#
# Youngs Moduli (GPa) = 107.75380 122.99532 57.25902
#
# Poissons Ratio (x) = 0.21751 0.16877
# Poissons Ratio (y) = 0.19056 0.17553
# Poissons Ratio (z) = 0.31761 0.37706
#
# Static dielectric constant tensor:
#      x y z
#    x 3.979380 0.000000 -0.043680 
#    y 0.000000 4.130000 0.000000 
#    z -0.043680 0.000000 3.697110 
# 
# 
# High freq. dielectric constant tensor:
#      x y z
#    x 1.876230 0.000000 -0.002410 
#    y 0.000000 1.889140 0.000000 
#    z -0.002410 0.000000 1.858490 
# 
# From -- ./inp_files/260422.got.cif
#   From: 2010.06.25/outbox.cif.g09.slc.cpg/sg12_131_cif.got.tgz:260422.got - 2010.06.28 00:19:55.
