data_PCOD8115357
_publ_section_title
;
Structure prediction by ZEFSAII (Michael W. Deem and Ramdas Pophale) SiO2 
 PCOD8115357
Probable space group: C 2/M
;
_chemical_formula_sum "Si O2"
_cell_formula_units_Z 40
_cell_length_a 19.057608
_cell_length_b 8.419329
_cell_length_c 11.853924
_cell_angle_alpha 90.000000
_cell_angle_beta 103.842585
_cell_angle_gamma 90.000000
_cell_volume 1846.749038
_symmetry_space_group_name_H-M "C 2/M"
_symmetry_group_IT_number 12
_symmetry_cell_setting 'monoclinic'
loop_
_space_group_symop_operation_xyz
x,y,z
-x,y,-z
-x,-y,-z
x,-y,z
1/2+x,1/2+y,z
1/2-x,1/2+y,-z
1/2-x,1/2-y,-z
1/2+x,1/2-y,z
loop_
_atom_site_type_symbol
_atom_site_label
_atom_site_fract_x
_atom_site_fract_y
_atom_site_fract_z
Si Si1 0.829740 0.685940 0.524350
Si Si2 0.113027 0.184771 0.224292
Si Si3 0.459982 0.183679 0.163297
Si Si4 0.322098 0.188047 0.969114
Si Si5 0.564909 0.316754 0.607261
O O1 0.831303 0.500000 0.500916
O O2 0.750000 0.750000 0.500000
O O3 0.873697 0.721618 0.654947
O O4 0.861831 0.777390 0.429380
O O5 0.171017 0.239234 0.153278
O O6 0.031369 0.221076 0.152425
O O7 0.122927 0.000000 0.252772
O O8 0.441741 0.206901 0.286789
O O9 0.474767 0.000000 0.143577
O O10 0.391564 0.246304 0.066311
O O11 0.318196 0.000000 0.959107
O O12 0.250000 0.250000 0.000000
O O13 0.500000 0.272918 0.500000
O O14 0.563005 0.500000 0.644330
#
# Coordination Sequence:
#
# PCOD8115357 Si02
#       5
#     8   8   8   8   8
#     4  12  26  44  68  97 135 176 218 269 328 389
#     4  12  25  44  69  98 132 172 222 270 327 394
#     4  11  24  43  69  98 131 173 221 272 327 390
#     4  11  26  46  68  97 132 171 220 274 332 392
#     4  11  23  41  67 100 135 171 217 267 322 391
#
# _framework density 21.659683999999999
#
# number of rings (size 3 to 8) (size 9 to 14) (size 15 to 20)
#    0.000    0.600    2.000    6.000    2.800    6.400 
#    0.000    0.000    0.000    0.000    0.000    0.000 
#    0.000    0.000    0.000    0.000    0.000    0.000 
#
# Total GULP energy -248163.084650 kJ/mol
# GULP energy per Si atom -12408.154233 kJ/mol
# Density = 2.161039 g / cm^3
# Si number density = 21.659684 Si / 1000 Ang^3
#
#
#
# Elastic Constant Matrix: (Units=GPa)
#
#
# Indices 1 2 3 4 5 6 
#
# 1 129.5948 8.9745 21.8825 0.0000 -15.3444 0.0000
# 2 8.9745 55.9249 19.1364 0.0000 6.9900 0.0000
# 3 21.8825 19.1364 66.3268 0.0000 -15.1310 0.0000
# 4 0.0000 0.0000 0.0000 31.1450 0.0000 -2.3414
# 5 -15.3444 6.9900 -15.1310 0.0000 45.3037 0.0000
# 6 0.0000 0.0000 0.0000 -2.3414 0.0000 41.4839
#
#
#
# Elastic Compliance Matrix: (Units=1/GPa)
#
#
# Indices 1 2 3 4 5 6 
#
# 1 0.008391 -0.000970 -0.001955 0.000000 0.002339 0.000000
# 2 -0.000970 0.021244 -0.007179 0.000000 -0.006004 0.000000
# 3 -0.001955 -0.007179 0.019371 0.000000 0.006915 0.000000
# 4 0.000000 0.000000 0.000000 0.032245 0.000000 0.001820
# 5 0.002339 -0.006004 0.006915 0.000000 0.026101 0.000000
# 6 0.000000 0.000000 0.000000 0.001820 0.000000 0.024208
#
#
# Mechanical properties :
#
#
# Convention : Reuss Voigt Hill
#
# Bulk Modulus (GPa) = 34.72509 39.09257 36.90883
# Shear Modulus (GPa) = 30.98556 37.04340 34.01448
#
# Velocity S-wave (km/s) = 3.78638 4.14000 3.96713
# Velocity P-wave (km/s) = 5.93149 6.39848 6.16940
#
# Compressibility (1/GPa) = 0.02879762
#
# Stress axis : x y z
#
# Youngs Moduli (GPa) = 119.18237 47.07289 51.62469
#
# Poissons Ratio (x) = 0.04565 0.10092
# Poissons Ratio (y) = 0.11559 0.37061
# Poissons Ratio (z) = 0.23299 0.33793
#
# Static dielectric constant tensor:
#      x y z
#    x 4.059180 0.000000 -0.007260 
#    y 0.000000 3.893880 0.000000 
#    z -0.007260 0.000000 4.076750 
# 
# 
# High freq. dielectric constant tensor:
#      x y z
#    x 1.866610 0.000000 -0.008290 
#    y 0.000000 1.858850 0.000000 
#    z -0.008290 0.000000 1.857430 
# 
# From -- ./inp_files/151964.got.cif
#   From: 2010.06.25/outbox.cif.g09.slc.cpg/sg12_76_cif.got.tgz:151964.got - 2010.06.28 00:19:55.
