data_PCOD8115999
_publ_section_title
;
Structure prediction by ZEFSAII (Michael W. Deem and Ramdas Pophale) SiO2 
 PCOD8115999
Probable space group: C 2/M
;
_chemical_formula_sum "Si O2"
_cell_formula_units_Z 64
_cell_length_a 19.084770
_cell_length_b 9.446159
_cell_length_c 20.276793
_cell_angle_alpha 90.000000
_cell_angle_beta 91.317211
_cell_angle_gamma 90.000000
_cell_volume 3654.489106
_symmetry_space_group_name_H-M "C 2/M"
_symmetry_group_IT_number 12
_symmetry_cell_setting 'monoclinic'
loop_
_space_group_symop_operation_xyz
x,y,z
-x,y,-z
-x,-y,-z
x,-y,z
1/2+x,1/2+y,z
1/2-x,1/2+y,-z
1/2-x,1/2-y,-z
1/2+x,1/2-y,z
loop_
_atom_site_type_symbol
_atom_site_label
_atom_site_fract_x
_atom_site_fract_y
_atom_site_fract_z
Si Si1 0.120136 0.167017 0.748381
Si Si2 0.582915 0.840991 0.012809
Si Si3 0.636292 0.665649 0.390918
Si Si4 0.600549 0.343170 0.894194
Si Si5 0.679073 0.164503 0.506628
Si Si6 0.793259 0.659620 0.349354
Si Si7 0.564264 0.342118 0.131979
Si Si8 0.535441 0.668222 0.273315
O O1 0.133447 0.206775 0.825259
O O2 0.180552 0.237133 0.706679
O O3 0.044072 0.225932 0.723565
O O4 0.124061 0.000000 0.738047
O O5 0.621891 0.764850 0.952503
O O6 0.611921 0.000000 0.018313
O O7 0.500000 0.840185 0.000000
O O8 0.602669 0.760594 0.080958
O O9 0.627355 0.500000 0.407843
O O10 0.623236 0.758563 0.457069
O O11 0.712833 0.697141 0.363291
O O12 0.579154 0.719888 0.337197
O O13 0.628210 0.500000 0.913392
O O14 0.517505 0.350184 0.885270
O O15 0.750000 0.250000 0.500000
O O16 0.658824 0.176231 0.583501
O O17 0.688973 0.000000 0.486788
O O18 0.798494 0.500000 0.322775
O O19 0.596708 0.500000 0.126165
O O20 0.573133 0.279903 0.206421
O O21 0.532947 0.500000 0.268966
#
# Coordination Sequence:
#
# PCOD8115999 Si02
#       8
#     8   8   8   8   8   8   8   8
#     4   9  17  29  46  66  88 116 149 183 216 256
#     4   9  15  21  32  54  82 110 140 173 210 253
#     4   9  17  31  50  69  89 114 147 184 218 258
#     4   8  14  24  37  55  79 108 142 176 211 250
#     4   9  17  30  47  67  89 114 147 183 219 258
#     4   9  18  30  45  66  90 115 141 175 221 266
#     4   8  13  23  39  56  78 109 141 175 213 251
#     4   8  15  29  47  66  88 116 150 183 216 256
#
# _framework density 17.512708
#
# number of rings (size 3 to 8) (size 9 to 14) (size 15 to 20)
#    0.000    3.375    0.000    3.000    0.000    4.500 
#    0.000    3.750    0.000    3.750    0.000    0.875 
#    0.000    0.000    0.000    0.000    0.000    0.000 
#
# Total GULP energy -396546.125581 kJ/mol
# GULP energy per Si atom -12392.066424 kJ/mol
# Density = 1.747285 g / cm^3
# Si number density = 17.512708 Si / 1000 Ang^3
#
#
#
# Elastic Constant Matrix: (Units=GPa)
#
#
# Indices 1 2 3 4 5 6 
#
# 1 13.9445 2.1710 -3.2860 0.0000 -4.7837 0.0000
# 2 2.1710 70.4252 26.1668 0.0000 -11.3428 0.0000
# 3 -3.2860 26.1668 47.5813 0.0000 -18.1303 0.0000
# 4 0.0000 0.0000 0.0000 31.3514 0.0000 -4.4003
# 5 -4.7837 -11.3428 -18.1303 0.0000 16.7509 0.0000
# 6 0.0000 0.0000 0.0000 -4.4003 0.0000 12.3446
#
#
#
# Elastic Compliance Matrix: (Units=1/GPa)
#
#
# Indices 1 2 3 4 5 6 
#
# 1 0.101625 -0.005708 0.033600 0.000000 0.061524 0.000000
# 2 -0.005708 0.018228 -0.010784 0.000000 -0.000959 0.000000
# 3 0.033600 -0.010784 0.051297 0.000000 0.057815 0.000000
# 4 0.000000 0.000000 0.000000 0.033576 0.000000 0.011968
# 5 0.061524 -0.000959 0.057815 0.000000 0.139194 0.000000
# 6 0.000000 0.000000 0.000000 0.011968 0.000000 0.085273
#
#
# Mechanical properties :
#
#
# Convention : Reuss Voigt Hill
#
# Bulk Modulus (GPa) = 4.86932 20.22830 12.54881
# Shear Modulus (GPa) = 10.78906 19.21600 15.00253
#
# Velocity S-wave (km/s) = 2.48477 3.31609 2.93006
# Velocity P-wave (km/s) = 3.31943 5.12227 4.31603
#
# Compressibility (1/GPa) = 0.20536765
#
# Stress axis : x y z
#
# Youngs Moduli (GPa) = 9.84006 54.86150 19.49425
#
# Poissons Ratio (x) = 0.31315 -0.65502
# Poissons Ratio (y) = 0.05617 0.21022
# Poissons Ratio (z) = -0.33063 0.59161
#
# Static dielectric constant tensor:
#      x y z
#    x 2.803530 0.000000 0.233100 
#    y 0.000000 3.287870 0.000000 
#    z 0.233100 0.000000 3.706250 
# 
# 
# High freq. dielectric constant tensor:
#      x y z
#    x 1.613230 0.000000 0.006600 
#    y 0.000000 1.666080 0.000000 
#    z 0.006600 0.000000 1.689690 
# 
# From -- ./inp_files/319087.got.cif
#   From: 2010.06.25/outbox.cif.g09.slc.cpg/sg12_160_cif.got.tgz:319087.got - 2010.06.28 00:19:55.
