data_PCOD8115363
_publ_section_title
;
Structure prediction by ZEFSAII (Michael W. Deem and Ramdas Pophale) SiO2 
 PCOD8115363
Probable space group: C 2/M
;
_chemical_formula_sum "Si O2"
_cell_formula_units_Z 40
_cell_length_a 25.206799
_cell_length_b 8.638646
_cell_length_c 19.155881
_cell_angle_alpha 90.000000
_cell_angle_beta 28.775869
_cell_angle_gamma 90.000000
_cell_volume 2007.972053
_symmetry_space_group_name_H-M "C 2/M"
_symmetry_group_IT_number 12
_symmetry_cell_setting 'monoclinic'
loop_
_space_group_symop_operation_xyz
x,y,z
-x,y,-z
-x,-y,-z
x,-y,z
1/2+x,1/2+y,z
1/2-x,1/2+y,-z
1/2-x,1/2-y,-z
1/2+x,1/2-y,z
loop_
_atom_site_type_symbol
_atom_site_label
_atom_site_fract_x
_atom_site_fract_y
_atom_site_fract_z
Si Si1 0.024394 0.821992 0.308943
Si Si2 0.441008 0.817287 0.880039
Si Si3 0.577184 0.317177 0.846664
Si Si4 0.790677 0.682667 0.806873
Si Si5 0.795916 0.177744 0.650559
O O1 0.022189 0.736754 0.238159
O O2 0.110495 0.740119 0.259783
O O3 0.904385 0.806531 0.479760
O O4 0.059268 0.000000 0.258894
O O5 0.531870 0.757558 0.828835
O O6 0.435605 0.000000 0.889135
O O7 0.322274 0.751765 0.035295
O O8 0.581074 0.500000 0.833093
O O9 0.698619 0.253044 0.718519
O O10 0.500000 0.268052 0.000000
O O11 0.781619 0.500000 0.821316
O O12 0.814091 0.731602 0.701063
O O13 0.767973 0.000000 0.700057
#
# Coordination Sequence:
#
# PCOD8115363 Si02
#       5
#     8   8   8   8   8
#     4  11  25  44  64  93 132 168 210 261 316 374
#     4  12  25  42  67  95 127 168 213 261 315 374
#     4  11  23  41  67  96 126 164 210 261 313 374
#     4  12  24  41  66  95 129 169 213 260 313 374
#     4  11  24  42  67  96 127 168 212 260 314 373
#
# _framework density 19.920596
#
# number of rings (size 3 to 8) (size 9 to 14) (size 15 to 20)
#    0.000    0.600    2.000    6.600    0.000    7.200 
#    0.000    0.000    0.000    0.000    0.000    0.000 
#    0.000    0.000    0.000    0.000    0.000    0.000 
#
# Total GULP energy -248155.916545 kJ/mol
# GULP energy per Si atom -12407.795827 kJ/mol
# Density = 1.987526 g / cm^3
# Si number density = 19.920596 Si / 1000 Ang^3
#
#
#
# Elastic Constant Matrix: (Units=GPa)
#
#
# Indices 1 2 3 4 5 6 
#
# 1 212.5756 79.6547 57.6236 -0.0046 3.8757 -0.0015
# 2 79.6547 172.7607 60.9671 -0.0006 6.0219 0.0010
# 3 57.6236 60.9671 99.7731 0.0012 -5.5060 0.0011
# 4 -0.0046 -0.0006 0.0012 48.2372 -0.0014 -5.0155
# 5 3.8757 6.0219 -5.5060 -0.0014 56.9867 -0.0008
# 6 -0.0015 0.0010 0.0011 -5.0155 -0.0008 33.0878
#
#
#
# Elastic Compliance Matrix: (Units=1/GPa)
#
#
# Indices 1 2 3 4 5 6 
#
# 1 0.006081 -0.001965 -0.002336 0.000001 -0.000432 0.000001
# 2 -0.001965 0.008100 -0.003875 0.000000 -0.001097 0.000000
# 3 -0.002336 -0.003875 0.013845 -0.000001 0.001906 -0.000001
# 4 0.000001 0.000000 -0.000001 0.021063 0.000000 0.003193
# 5 -0.000432 -0.001097 0.001906 0.000000 0.017877 0.000000
# 6 0.000001 0.000000 -0.000001 0.003193 0.000000 0.030707
#
#
# Mechanical properties :
#
#
# Convention : Reuss Voigt Hill
#
# Bulk Modulus (GPa) = 85.65294 97.95558 91.80426
# Shear Modulus (GPa) = 42.40295 46.78659 44.59477
#
# Velocity S-wave (km/s) = 4.61868 4.85155 4.73655
# Velocity P-wave (km/s) = 8.45774 8.98127 8.72343
#
# Compressibility (1/GPa) = 0.01167502
#
# Stress axis : x y z
#
# Youngs Moduli (GPa) = 164.43643 123.45558 72.22846
#
# Poissons Ratio (x) = 0.24255 0.16869
# Poissons Ratio (y) = 0.32306 0.27992
# Poissons Ratio (z) = 0.38405 0.47845
#
# Static dielectric constant tensor:
#      x y z
#    x 3.828140 0.000020 0.001770 
#    y 0.000020 3.763120 0.000000 
#    z 0.001770 0.000000 3.712890 
# 
# 
# High freq. dielectric constant tensor:
#      x y z
#    x 1.797530 0.000000 -0.002620 
#    y 0.000000 1.800700 0.000000 
#    z -0.002620 0.000000 1.787060 
# 
# From -- ./inp_files/151936.got.cif
#   From: 2010.06.25/outbox.cif.g09.slc.cpg/sg12_76_cif.got.tgz:151936.got - 2010.06.28 00:19:55.
