data_PCOD8115406
_publ_section_title
;
Structure prediction by ZEFSAII (Michael W. Deem and Ramdas Pophale) SiO2 
 PCOD8115406
Probable space group: C 2/M
;
_chemical_formula_sum "Si O2"
_cell_formula_units_Z 48
_cell_length_a 8.940865
_cell_length_b 16.624931
_cell_length_c 25.443904
_cell_angle_alpha 90.000000
_cell_angle_beta 37.818876
_cell_angle_gamma 90.000000
_cell_volume 2319.007475
_symmetry_space_group_name_H-M "C 2/M"
_symmetry_group_IT_number 12
_symmetry_cell_setting 'monoclinic'
loop_
_space_group_symop_operation_xyz
x,y,z
-x,y,-z
-x,-y,-z
x,-y,z
1/2+x,1/2+y,z
1/2-x,1/2+y,-z
1/2-x,1/2-y,-z
1/2+x,1/2-y,z
loop_
_atom_site_type_symbol
_atom_site_label
_atom_site_fract_x
_atom_site_fract_y
_atom_site_fract_z
Si Si1 0.937694 0.854029 0.682779
Si Si2 0.740599 0.813057 0.232782
Si Si3 0.138341 0.834872 0.517186
Si Si4 0.591055 0.093210 0.169624
Si Si5 0.857723 0.590037 0.637140
Si Si6 0.239340 0.739525 0.063280
O O1 0.921366 0.766972 0.715370
O O2 0.697567 0.905501 0.762868
O O3 0.948334 0.854054 0.616289
O O4 0.186242 0.893199 0.634673
O O5 0.643366 0.866331 0.211675
O O6 0.728034 0.858291 0.290519
O O7 0.024240 0.791426 0.148055
O O8 0.250000 0.750000 0.500000
O O9 0.359083 0.897925 0.455591
O O10 0.000000 0.834533 0.500000
O O11 0.727373 0.146824 0.087472
O O12 0.680718 0.000000 0.143218
O O13 0.822375 0.500000 0.665337
O O14 0.500000 0.779667 0.000000
O O15 0.250000 0.750000 0.000000
#
# Coordination Sequence:
#
# PCOD8115406 Si02
#       6
#     8   8   8   8   8   8
#     4  11  23  42  68  95 132 177 222 266 322 396
#     4  11  23  42  69  94 130 176 220 266 322 398
#     4  12  25  42  68  96 129 178 229 271 321 390
#     4  11  24  42  67  98 134 171 213 271 331 383
#     4  12  26  42  66 101 136 171 218 280 332 379
#     4  11  23  44  69  98 126 169 217 265 318 398
#
# _framework density 20.698509999999999
#
# number of rings (size 3 to 8) (size 9 to 14) (size 15 to 20)
#    0.000    0.667    3.333    5.500    2.333    2.667 
#    0.000    0.000    0.000    2.500    0.000    0.000 
#    0.000    0.000    0.000    0.000    0.000    0.000 
#
# Total GULP energy -297472.187037 kJ/mol
# GULP energy per Si atom -12394.674460 kJ/mol
# Density = 2.065140 g / cm^3
# Si number density = 20.698510 Si / 1000 Ang^3
#
#
#
# Elastic Constant Matrix: (Units=GPa)
#
#
# Indices 1 2 3 4 5 6 
#
# 1 114.8946 9.2425 24.1188 0.0151 -7.1482 0.0236
# 2 9.2425 90.9434 13.7755 0.0404 -2.2032 0.0176
# 3 24.1188 13.7755 106.4790 0.0549 -0.8748 0.0690
# 4 0.0151 0.0404 0.0549 14.3070 0.0033 -3.9881
# 5 -7.1482 -2.2032 -0.8748 0.0033 49.3347 -0.0233
# 6 0.0236 0.0176 0.0690 -3.9881 -0.0233 14.6235
#
#
#
# Elastic Compliance Matrix: (Units=1/GPa)
#
#
# Indices 1 2 3 4 5 6 
#
# 1 0.009253 -0.000605 -0.002007 -0.000002 0.001278 -0.000003
# 2 -0.000605 0.011266 -0.001317 -0.000030 0.000392 -0.000014
# 3 -0.002007 -0.001317 0.010015 -0.000048 -0.000172 -0.000056
# 4 -0.000002 -0.000030 -0.000048 0.075647 0.000002 0.020631
# 5 0.001278 0.000392 -0.000172 0.000002 0.020469 0.000031
# 6 -0.000003 -0.000014 -0.000056 0.020631 0.000031 0.074010
#
#
# Mechanical properties :
#
#
# Convention : Reuss Voigt Hill
#
# Bulk Modulus (GPa) = 44.10075 45.17676 44.63875
# Shear Modulus (GPa) = 23.13972 33.33172 28.23572
#
# Velocity S-wave (km/s) = 3.34719 4.01726 3.69744
# Velocity P-wave (km/s) = 6.02418 6.58721 6.31198
#
# Compressibility (1/GPa) = 0.02267535
#
# Stress axis : x y z
#
# Youngs Moduli (GPa) = 108.07086 88.75946 99.84805
#
# Poissons Ratio (x) = 0.05374 0.20041
# Poissons Ratio (y) = 0.06543 0.13152
# Poissons Ratio (z) = 0.21691 0.11691
#
# Static dielectric constant tensor:
#      x y z
#    x 6.263670 0.005460 -2.517540 
#    y 0.005460 4.087500 -0.006050 
#    z -2.517540 -0.006050 6.977820 
# 
# 
# High freq. dielectric constant tensor:
#      x y z
#    x 1.826730 0.000000 -0.001450 
#    y 0.000000 1.797270 0.000000 
#    z -0.001450 0.000000 1.824150 
# 
# From -- ./inp_files/256726.got.cif
#   From: 2010.06.25/outbox.cif.g09.slc.cpg/sg12_129_cif.got.tgz:256726.got - 2010.06.28 00:19:55.
