data_PCOD8115153
_publ_section_title
;
Structure prediction by ZEFSAII (Michael W. Deem and Ramdas Pophale) SiO2 
 PCOD8115153
Probable space group: C 2/M
;
_chemical_formula_sum "Si O2"
_cell_formula_units_Z 44
_cell_length_a 9.445081
_cell_length_b 17.542623
_cell_length_c 17.438617
_cell_angle_alpha 90.000000
_cell_angle_beta 45.600512
_cell_angle_gamma 90.000000
_cell_volume 2064.437235
_symmetry_space_group_name_H-M "C 2/M"
_symmetry_group_IT_number 12
_symmetry_cell_setting 'monoclinic'
loop_
_space_group_symop_operation_xyz
x,y,z
-x,y,-z
-x,-y,-z
x,-y,z
1/2+x,1/2+y,z
1/2-x,1/2+y,-z
1/2-x,1/2-y,-z
1/2+x,1/2-y,z
loop_
_atom_site_type_symbol
_atom_site_label
_atom_site_fract_x
_atom_site_fract_y
_atom_site_fract_z
Si Si1 0.020240 0.500000 0.644869
Si Si2 0.673287 0.874850 0.383030
Si Si3 0.500000 0.377199 0.000000
Si Si4 0.334845 0.000000 0.878529
Si Si5 0.370608 0.500000 0.410925
Si Si6 0.551494 0.280830 0.826825
Si Si7 0.691330 0.159849 0.878438
Si Si8 0.761587 0.500000 0.196481
O O1 0.257448 0.500000 0.535846
O O2 0.923646 0.425561 0.645824
O O3 0.971882 0.500000 0.751896
O O4 0.500000 0.836353 0.500000
O O5 0.795484 0.809819 0.294582
O O6 0.810328 0.925365 0.385837
O O7 0.303406 0.426663 0.060201
O O8 0.458929 0.328149 0.090714
O O9 0.502761 0.000000 0.879802
O O10 0.611109 0.500000 0.327140
O O11 0.624301 0.195919 0.821876
O O12 0.336818 0.281758 0.867905
O O13 0.792883 0.076887 0.829872
O O14 0.500000 0.146804 0.000000
#
# Coordination Sequence:
#
# PCOD8115153 Si02
#       8
#     4   8   4   4   4   8   8   4
#     4   9  17  33  64  94 126 165 222 264 315 384
#     4   9  18  37  67  94 121 167 222 264 318 388
#     4  11  24  40  64  95 134 174 218 261 330 388
#     4  11  23  36  62 101 132 170 219 270 318 389
#     4   9  18  37  63  93 122 173 214 266 320 389
#     4  12  24  43  68  94 131 172 218 271 326 387
#     4  12  27  43  67  94 136 173 217 262 332 390
#     4  12  25  42  65  94 137 169 216 268 328 387
#
# _framework density 21.313313999999998
#
# number of rings (size 3 to 8) (size 9 to 14) (size 15 to 20)
#    0.000    1.273    4.545    3.000    2.545    1.818 
#    0.000    0.909    4.000    0.000    0.000    0.000 
#    0.000    0.000    0.000    0.000    0.000    0.000 
#
# Total GULP energy -272684.209023 kJ/mol
# GULP energy per Si atom -12394.736774 kJ/mol
# Density = 2.126480 g / cm^3
# Si number density = 21.313314 Si / 1000 Ang^3
#
#
#
# Elastic Constant Matrix: (Units=GPa)
#
#
# Indices 1 2 3 4 5 6 
#
# 1 73.0829 14.0817 12.4890 0.0025 -13.0259 -0.0056
# 2 14.0817 87.7377 30.2643 0.0031 2.3920 -0.0026
# 3 12.4890 30.2643 147.0864 0.0023 -10.6506 0.0006
# 4 0.0025 0.0031 0.0023 -1.3213 -0.0017 -5.3870
# 5 -13.0259 2.3920 -10.6506 -0.0017 38.6849 0.0019
# 6 -0.0056 -0.0026 0.0006 -5.3870 0.0019 19.6638
#
#
#
# Elastic Compliance Matrix: (Units=1/GPa)
#
#
# Indices 1 2 3 4 5 6 
#
# 1 0.015136 -0.002426 -0.000414 0.000001 0.005133 0.000004
# 2 -0.002426 0.012741 -0.002583 0.000008 -0.002316 0.000004
# 3 -0.000414 -0.002583 0.007517 0.000003 0.002090 0.000000
# 4 0.000001 0.000008 0.000003 -0.357513 -0.000010 -0.097943
# 5 0.005133 -0.002316 0.002090 -0.000010 0.028297 -0.000004
# 6 0.000004 0.000004 0.000000 -0.097943 -0.000004 0.024023
#
#
# Mechanical properties :
#
#
# Convention : Reuss Voigt Hill
#
# Bulk Modulus (GPa) = 40.73935 46.84189 43.79062
# Shear Modulus (GPa) = -19.93862 28.14362 4.10250
#
# Velocity S-wave (km/s) = -3.06191 3.63777 1.38890
# Velocity P-wave (km/s) = 2.57984 6.29841 4.81277
#
# Compressibility (1/GPa) = 0.02454629
#
# Stress axis : x y z
#
# Youngs Moduli (GPa) = 66.06679 78.48522 133.03606
#
# Poissons Ratio (x) = 0.19043 0.05512
# Poissons Ratio (y) = 0.16030 0.34367
# Poissons Ratio (z) = 0.02737 0.20275
#
# Static dielectric constant tensor:
#      x y z
#    x 3.841800 0.000000 -0.153010 
#    y 0.000000 3.838080 0.000000 
#    z -0.153010 0.000000 4.109950 
# 
# 
# High freq. dielectric constant tensor:
#      x y z
#    x 1.821680 0.000000 -0.016060 
#    y 0.000000 1.820900 0.000000 
#    z -0.016060 0.000000 1.856270 
# 
# From -- ./inp_files/197312.got.cif
#   From: 2010.06.25/outbox.cif.g09.slc.cpg/sg12_99_cif.got.tgz:197312.got - 2010.06.28 00:19:55.
