data_PCOD8115603
_publ_section_title
;
Structure prediction by ZEFSAII (Michael W. Deem and Ramdas Pophale) SiO2 
 PCOD8115603
Probable space group: C 2/M
;
_chemical_formula_sum "Si O2"
_cell_formula_units_Z 48
_cell_length_a 28.844888
_cell_length_b 8.599026
_cell_length_c 15.999074
_cell_angle_alpha 90.000000
_cell_angle_beta 35.486082
_cell_angle_gamma 90.000000
_cell_volume 2303.663620
_symmetry_space_group_name_H-M "C 2/M"
_symmetry_group_IT_number 12
_symmetry_cell_setting 'monoclinic'
loop_
_space_group_symop_operation_xyz
x,y,z
-x,y,-z
-x,-y,-z
x,-y,z
1/2+x,1/2+y,z
1/2-x,1/2+y,-z
1/2-x,1/2-y,-z
1/2+x,1/2-y,z
loop_
_atom_site_type_symbol
_atom_site_label
_atom_site_fract_x
_atom_site_fract_y
_atom_site_fract_z
Si Si1 0.166246 0.179710 0.101931
Si Si2 0.669740 0.183914 0.577335
Si Si3 0.191257 0.818760 0.365970
Si Si4 0.009572 0.824597 0.887730
Si Si5 0.356495 0.820783 0.039178
Si Si6 0.406485 0.827507 0.638598
O O1 0.104135 0.259620 0.253993
O O2 0.166760 0.000000 0.120763
O O3 0.250000 0.250000 0.000000
O O4 0.144444 0.209841 0.038828
O O5 0.750000 0.250000 0.500000
O O6 0.666352 0.221535 0.483853
O O7 0.594947 0.259078 0.734511
O O8 0.667095 0.000000 0.594266
O O9 0.282680 0.777709 0.208074
O O10 0.132457 0.778486 0.375903
O O11 0.182083 0.000000 0.400313
O O12 0.999669 0.000000 0.866355
O O13 0.000000 0.828744 0.000000
O O14 0.940545 0.709200 0.959090
O O15 0.350098 0.000000 0.020739
O O16 0.500000 0.835556 0.500000
O O17 0.368694 0.000000 0.685533
#
# Coordination Sequence:
#
# PCOD8115603 Si02
#       6
#     8   8   8   8   8   8
#     4  12  24  41  66  95 131 174 222 273 325 386
#     4  12  26  45  70  98 134 173 216 268 326 390
#     4  11  24  43  68  97 132 173 220 269 327 390
#     4  11  25  45  70 100 132 169 216 268 326 388
#     4  11  24  42  67  98 132 171 218 269 327 389
#     4  11  25  43  65  94 133 175 221 272 328 389
#
# _framework density 20.836376999999999
#
# number of rings (size 3 to 8) (size 9 to 14) (size 15 to 20)
#    0.000    0.667    1.667    6.000    2.333    7.333 
#    0.000    0.000    0.000    0.000    0.000    0.000 
#    0.000    0.000    0.000    0.000    0.000    0.000 
#
# Total GULP energy -297676.820304 kJ/mol
# GULP energy per Si atom -12403.200846 kJ/mol
# Density = 2.078895 g / cm^3
# Si number density = 20.836377 Si / 1000 Ang^3
#
#
#
# Elastic Constant Matrix: (Units=GPa)
#
#
# Indices 1 2 3 4 5 6 
#
# 1 80.0620 17.7251 40.6400 -0.0061 -10.8172 0.0030
# 2 17.7251 106.5504 65.0332 -0.0183 -5.1819 0.0102
# 3 40.6400 65.0332 140.5585 -0.0098 3.8855 0.0061
# 4 -0.0061 -0.0183 -0.0098 21.4943 0.0036 6.9936
# 5 -10.8172 -5.1819 3.8855 0.0036 36.0746 -0.0014
# 6 0.0030 0.0102 0.0061 6.9936 -0.0014 36.6276
#
#
#
# Elastic Compliance Matrix: (Units=1/GPa)
#
#
# Indices 1 2 3 4 5 6 
#
# 1 0.015578 0.000704 -0.004977 0.000002 0.005308 -0.000001
# 2 0.000704 0.013346 -0.006457 0.000010 0.002824 -0.000004
# 3 -0.004977 -0.006457 0.011642 -0.000001 -0.003674 0.000000
# 4 0.000002 0.000010 -0.000001 0.049606 -0.000003 -0.009472
# 5 0.005308 0.002824 -0.003674 -0.000003 0.030113 0.000001
# 6 -0.000001 -0.000004 0.000000 -0.009472 0.000001 0.029110
#
#
# Mechanical properties :
#
#
# Convention : Reuss Voigt Hill
#
# Bulk Modulus (GPa) = 52.33361 63.77415 58.05388
# Shear Modulus (GPa) = 28.21300 32.42414 30.31857
#
# Velocity S-wave (km/s) = 3.68370 3.94906 3.81869
# Velocity P-wave (km/s) = 6.57753 7.17405 6.88226
#
# Compressibility (1/GPa) = 0.01910818
#
# Stress axis : x y z
#
# Youngs Moduli (GPa) = 64.19409 74.92747 85.89387
#
# Poissons Ratio (x) = -0.05276 0.42746
# Poissons Ratio (y) = -0.04521 0.55459
# Poissons Ratio (z) = 0.31947 0.48378
#
# Static dielectric constant tensor:
#      x y z
#    x 3.589790 -0.000010 -0.032500 
#    y -0.000010 4.204030 -0.000020 
#    z -0.032500 -0.000020 3.918570 
# 
# 
# High freq. dielectric constant tensor:
#      x y z
#    x 1.821500 0.000000 0.001090 
#    y 0.000000 1.834290 0.000000 
#    z 0.001090 0.000000 1.833300 
# 
# From -- ./inp_files/244605.got.cif
#   From: 2010.06.25/outbox.cif.g09.slc.cpg/sg12_123_cif.got.tgz:244605.got - 2010.06.28 00:19:55.
