data_PCOD8115173
_publ_section_title
;
Structure prediction by ZEFSAII (Michael W. Deem and Ramdas Pophale) SiO2 
 PCOD8115173
Probable space group: C 2/M
;
_chemical_formula_sum "Si O2"
_cell_formula_units_Z 40
_cell_length_a 15.021030
_cell_length_b 10.430109
_cell_length_c 13.703883
_cell_angle_alpha 90.000000
_cell_angle_beta 116.082429
_cell_angle_gamma 90.000000
_cell_volume 1928.355484
_symmetry_space_group_name_H-M "C 2/M"
_symmetry_group_IT_number 12
_symmetry_cell_setting 'monoclinic'
loop_
_space_group_symop_operation_xyz
x,y,z
-x,y,-z
-x,-y,-z
x,-y,z
1/2+x,1/2+y,z
1/2-x,1/2+y,-z
1/2-x,1/2-y,-z
1/2+x,1/2-y,z
loop_
_atom_site_type_symbol
_atom_site_label
_atom_site_fract_x
_atom_site_fract_y
_atom_site_fract_z
Si Si1 0.647331 0.848664 0.633927
Si Si2 0.456396 0.854685 0.825814
Si Si3 0.624004 0.358352 0.926372
Si Si4 0.435570 0.850760 0.601279
Si Si5 0.721568 0.231201 0.145687
O O1 0.547309 0.800063 0.639223
O O2 0.640820 0.796850 0.517857
O O3 0.739720 0.787664 0.733952
O O4 0.661418 0.000000 0.646511
O O5 0.542859 0.753435 0.887254
O O6 0.404206 0.819134 0.696920
O O7 0.375277 0.851408 0.872421
O O8 0.500491 0.000000 0.842551
O O9 0.574273 0.500000 0.904766
O O10 0.694830 0.354644 0.865786
O O11 0.690529 0.343135 0.055574
O O12 0.439191 0.000000 0.581251
#
# Coordination Sequence:
#
# PCOD8115173 Si02
#       5
#     8   8   8   8   8
#     4   9  16  32  59  89 118 155 198 241 292 356
#     4  11  23  41  64  90 120 158 200 245 297 355
#     4  11  25  42  59  87 125 161 199 247 298 352
#     4   8  16  32  58  88 118 153 196 241 291 354
#     4  11  23  37  62  89 119 157 200 248 299 352
#
# _framework density 20.743064
#
# number of rings (size 3 to 8) (size 9 to 14) (size 15 to 20)
#    0.000    2.000    2.000    3.000    0.000    8.000 
#    0.000    0.000    0.000    3.600    0.000    0.000 
#    0.000    0.000    0.000    0.000    0.000    0.000 
#
# Total GULP energy -247828.844651 kJ/mol
# GULP energy per Si atom -12391.442233 kJ/mol
# Density = 2.069585 g / cm^3
# Si number density = 20.743064 Si / 1000 Ang^3
#
#
#
# Elastic Constant Matrix: (Units=GPa)
#
#
# Indices 1 2 3 4 5 6 
#
# 1 97.8519 31.5464 28.0007 0.0000 -4.4584 0.0000
# 2 31.5464 101.5192 48.9012 0.0000 9.3728 0.0000
# 3 28.0007 48.9012 127.4770 0.0000 0.5533 0.0000
# 4 0.0000 0.0000 0.0000 21.4777 0.0000 4.2600
# 5 -4.4584 9.3728 0.5533 0.0000 27.7237 0.0000
# 6 0.0000 0.0000 0.0000 4.2600 0.0000 19.8223
#
#
#
# Elastic Compliance Matrix: (Units=1/GPa)
#
#
# Indices 1 2 3 4 5 6 
#
# 1 0.011807 -0.003305 -0.001339 0.000000 0.003043 0.000000
# 2 -0.003305 0.013467 -0.004418 0.000000 -0.004996 0.000000
# 3 -0.001339 -0.004418 0.009829 0.000000 0.001082 0.000000
# 4 0.000000 0.000000 0.000000 0.048633 0.000000 -0.010452
# 5 0.003043 -0.004996 0.001082 0.000000 0.038227 0.000000
# 6 0.000000 0.000000 0.000000 -0.010452 0.000000 0.052694
#
#
# Mechanical properties :
#
#
# Convention : Reuss Voigt Hill
#
# Bulk Modulus (GPa) = 58.89868 60.41608 59.65738
# Shear Modulus (GPa) = 25.19647 28.36472 26.78060
#
# Velocity S-wave (km/s) = 3.48903 3.70189 3.59703
# Velocity P-wave (km/s) = 6.68484 6.88921 6.78779
#
# Compressibility (1/GPa) = 0.01697831
#
# Stress axis : x y z
#
# Youngs Moduli (GPa) = 84.69749 74.25611 101.74115
#
# Poissons Ratio (x) = 0.24541 0.13621
# Poissons Ratio (y) = 0.27991 0.44953
# Poissons Ratio (z) = 0.11339 0.32809
#
# Static dielectric constant tensor:
#      x y z
#    x 3.577320 0.000000 -0.191820 
#    y 0.000000 3.288110 0.000000 
#    z -0.191820 0.000000 4.129660 
# 
# 
# High freq. dielectric constant tensor:
#      x y z
#    x 1.798490 0.000000 -0.015070 
#    y 0.000000 1.772350 0.000000 
#    z -0.015070 0.000000 1.833750 
# 
# From -- ./inp_files/212097.got.cif
#   From: 2010.06.25/outbox.cif.g09.slc.cpg/sg12_107_cif.got.tgz:212097.got - 2010.06.28 00:19:55.
