data_PCOD8115126
_publ_section_title
;
Structure prediction by ZEFSAII (Michael W. Deem and Ramdas Pophale) SiO2 
 PCOD8115126
Probable space group: C 2/M
;
_chemical_formula_sum "Si O2"
_cell_formula_units_Z 32
_cell_length_a 9.514817
_cell_length_b 22.266055
_cell_length_c 11.992025
_cell_angle_alpha 90.000000
_cell_angle_beta 35.218944
_cell_angle_gamma 90.000000
_cell_volume 1465.170101
_symmetry_space_group_name_H-M "C 2/M"
_symmetry_group_IT_number 12
_symmetry_cell_setting 'monoclinic'
loop_
_space_group_symop_operation_xyz
x,y,z
-x,y,-z
-x,-y,-z
x,-y,z
1/2+x,1/2+y,z
1/2-x,1/2+y,-z
1/2-x,1/2-y,-z
1/2+x,1/2-y,z
loop_
_atom_site_type_symbol
_atom_site_label
_atom_site_fract_x
_atom_site_fract_y
_atom_site_fract_z
Si Si1 0.243467 0.263474 0.634049
Si Si2 0.151046 0.868013 0.733849
Si Si3 0.579580 0.131171 0.073738
Si Si4 0.501307 0.930607 0.659274
O O1 0.500000 0.294843 0.500000
O O2 0.250000 0.250000 0.500000
O O3 0.222866 0.200647 0.713138
O O4 0.020417 0.304991 0.817856
O O5 0.238896 0.907056 0.783453
O O6 0.286015 0.892516 0.536437
O O7 0.868086 0.870775 0.893238
O O8 0.479402 0.079261 0.220560
O O9 0.500000 0.116919 0.000000
O O10 0.533984 0.000000 0.608645
#
# Coordination Sequence:
#
# PCOD8115126 Si02
#       4
#     8   8   8   8
#     4  12  22  42  70 100 142 183 222 282 356 414
#     4  11  22  45  72 102 136 179 237 291 340 399
#     4  12  27  41  68 106 145 181 225 280 355 427
#     4  11  25  47  74 100 135 188 242 290 331 395
#
# _framework density 21.840465999999999
#
# number of rings (size 3 to 8) (size 9 to 14) (size 15 to 20)
#    0.000    0.500    5.000    4.500    0.000    5.500 
#    0.000    1.250    0.000    0.000    0.000    0.000 
#    0.000    0.000    0.000    0.000    0.000    0.000 
#
# Total GULP energy -198412.498496 kJ/mol
# GULP energy per Si atom -12400.781156 kJ/mol
# Density = 2.179076 g / cm^3
# Si number density = 21.840466 Si / 1000 Ang^3
#
#
#
# Elastic Constant Matrix: (Units=GPa)
#
#
# Indices 1 2 3 4 5 6 
#
# 1 147.5902 33.8799 84.9157 0.0000 13.7614 0.0000
# 2 33.8799 113.7409 46.5687 0.0000 -14.6076 0.0000
# 3 84.9157 46.5687 121.2639 0.0000 -13.9354 0.0000
# 4 0.0000 0.0000 0.0000 13.7419 0.0000 -1.1400
# 5 13.7614 -14.6076 -13.9354 0.0000 51.1107 0.0000
# 6 0.0000 0.0000 0.0000 -1.1400 0.0000 28.9982
#
#
#
# Elastic Compliance Matrix: (Units=1/GPa)
#
#
# Indices 1 2 3 4 5 6 
#
# 1 0.013053 -0.000786 -0.009568 0.000000 -0.006348 0.000000
# 2 -0.000786 0.010671 -0.003276 0.000000 0.002368 0.000000
# 3 -0.009568 -0.003276 0.016923 0.000000 0.006254 0.000000
# 4 0.000000 0.000000 0.000000 0.073008 0.000000 0.002870
# 5 -0.006348 0.002368 0.006254 0.000000 0.023656 0.000000
# 6 0.000000 0.000000 0.000000 0.002870 0.000000 0.034598
#
#
# Mechanical properties :
#
#
# Convention : Reuss Voigt Hill
#
# Bulk Modulus (GPa) = 74.69183 79.25818 76.97501
# Shear Modulus (GPa) = 24.55426 33.25221 28.90324
#
# Velocity S-wave (km/s) = 3.35663 3.90616 3.64178
# Velocity P-wave (km/s) = 7.02109 7.53077 7.28039
#
# Compressibility (1/GPa) = 0.01338834
#
# Stress axis : x y z
#
# Youngs Moduli (GPa) = 76.61324 93.70935 59.09123
#
# Poissons Ratio (x) = 0.07364 0.56537
# Poissons Ratio (y) = 0.06021 0.19356
# Poissons Ratio (z) = 0.73302 0.30695
#
# Static dielectric constant tensor:
#      x y z
#    x 4.017690 0.000000 0.070230 
#    y 0.000000 3.952400 0.000000 
#    z 0.070230 0.000000 4.094170 
# 
# 
# High freq. dielectric constant tensor:
#      x y z
#    x 1.864180 0.000000 0.002030 
#    y 0.000000 1.848820 0.000000 
#    z 0.002030 0.000000 1.872080 
# 
# From -- ./inp_files/121551.got.cif
#   From: 2010.06.25/outbox.cif.g09.slc.cpg/sg12_61_cif.got.tgz:121551.got - 2010.06.28 00:19:55.
