data_PCOD8115760
_publ_section_title
;
Structure prediction by ZEFSAII (Michael W. Deem and Ramdas Pophale) SiO2 
 PCOD8115760
Probable space group: C 2/M
;
_chemical_formula_sum "Si O2"
_cell_formula_units_Z 28
_cell_length_a 17.545910
_cell_length_b 14.134255
_cell_length_c 7.931508
_cell_angle_alpha 90.000000
_cell_angle_beta 145.314852
_cell_angle_gamma 90.000000
_cell_volume 1119.354175
_symmetry_space_group_name_H-M "C 2/M"
_symmetry_group_IT_number 12
_symmetry_cell_setting 'monoclinic'
loop_
_space_group_symop_operation_xyz
x,y,z
-x,y,-z
-x,-y,-z
x,-y,z
1/2+x,1/2+y,z
1/2-x,1/2+y,-z
1/2-x,1/2-y,-z
1/2+x,1/2-y,z
loop_
_atom_site_type_symbol
_atom_site_label
_atom_site_fract_x
_atom_site_fract_y
_atom_site_fract_z
Si Si1 0.015164 0.198277 0.834017
Si Si2 0.428862 0.500000 0.551617
Si Si3 0.190238 0.662418 0.684254
Si Si4 0.158322 0.500000 0.891978
Si Si5 0.589834 0.000000 0.323829
O O1 0.975578 0.089370 0.744252
O O2 0.926645 0.260262 0.544407
O O3 0.168319 0.215931 0.057097
O O4 0.000000 0.231189 0.000000
O O5 0.500000 0.500000 0.500000
O O6 0.267807 0.500000 0.241176
O O7 0.179925 0.597283 0.830122
O O8 0.181226 0.593611 0.502528
O O9 0.007872 0.500000 0.689515
O O10 0.500000 0.000000 0.000000
#
# Coordination Sequence:
#
# PCOD8115760 Si02
#       5
#     8   4   8   4   4
#     4  12  27  46  73 105 146 188 241 291 351 413
#     4  12  25  46  71 105 142 186 237 296 352 420
#     4  11  25  48  70 106 143 187 238 290 352 422
#     4  11  26  49  71 105 143 187 236 289 360 422
#     4  11  26  47  75 103 143 186 235 293 357 422
#
# _framework density 25.014424999999999
#
# number of rings (size 3 to 8) (size 9 to 14) (size 15 to 20)
#    0.000    0.571    2.857    4.714    8.000    3.429 
#    0.000    0.000    0.000    0.000    0.000    0.000 
#    0.000    0.000    0.000    0.000    0.000    0.000 
#
# Total GULP energy -173657.979493 kJ/mol
# GULP energy per Si atom -12404.141392 kJ/mol
# Density = 2.495749 g / cm^3
# Si number density = 25.014425 Si / 1000 Ang^3
#
#
#
# Elastic Constant Matrix: (Units=GPa)
#
#
# Indices 1 2 3 4 5 6 
#
# 1 84.4721 14.2178 28.2775 0.0000 15.2519 0.0000
# 2 14.2178 129.5119 55.7064 0.0000 13.0291 0.0000
# 3 28.2775 55.7064 173.1290 0.0000 31.8287 0.0000
# 4 0.0000 0.0000 0.0000 60.1931 0.0000 5.9749
# 5 15.2519 13.0291 31.8287 0.0000 54.2187 0.0000
# 6 0.0000 0.0000 0.0000 5.9749 0.0000 15.3156
#
#
#
# Elastic Compliance Matrix: (Units=1/GPa)
#
#
# Indices 1 2 3 4 5 6 
#
# 1 0.012890 -0.000525 -0.001449 0.000000 -0.002649 0.000000
# 2 -0.000525 0.008996 -0.002734 0.000000 -0.000409 0.000000
# 3 -0.001449 -0.002734 0.007507 0.000000 -0.003342 0.000000
# 4 0.000000 0.000000 0.000000 0.017282 0.000000 -0.006742
# 5 -0.002649 -0.000409 -0.003342 0.000000 0.021249 0.000000
# 6 0.000000 0.000000 0.000000 -0.006742 0.000000 0.067923
#
#
# Mechanical properties :
#
#
# Convention : Reuss Voigt Hill
#
# Bulk Modulus (GPa) = 50.05850 64.83515 57.44682
# Shear Modulus (GPa) = 32.91144 45.20623 39.05884
#
# Velocity S-wave (km/s) = 3.63119 4.25574 3.95581
# Velocity P-wave (km/s) = 6.13482 7.07981 6.62419
#
# Compressibility (1/GPa) = 0.01997663
#
# Stress axis : x y z
#
# Youngs Moduli (GPa) = 77.57887 111.16200 133.21341
#
# Poissons Ratio (x) = 0.05838 0.19308
# Poissons Ratio (y) = 0.04074 0.36414
# Poissons Ratio (z) = 0.11244 0.30386
#
# Static dielectric constant tensor:
#      x y z
#    x 4.351900 0.000000 0.132290 
#    y 0.000000 4.645730 0.000000 
#    z 0.132290 0.000000 4.910530 
# 
# 
# High freq. dielectric constant tensor:
#      x y z
#    x 1.971890 0.000000 0.002800 
#    y 0.000000 2.005360 0.000000 
#    z 0.002800 0.000000 2.030770 
# 
# From -- ./inp_files/86218.got.cif
#   From: 2010.06.25/outbox.cif.g09.slc.cpg/sg12_44_cif.got.tgz:86218.got - 2010.06.28 00:19:55.
