data_PCOD8115436
_publ_section_title
;
Structure prediction by ZEFSAII (Michael W. Deem and Ramdas Pophale) SiO2 
 PCOD8115436
Probable space group: C 2/M
;
_chemical_formula_sum "Si O2"
_cell_formula_units_Z 56
_cell_length_a 17.161290
_cell_length_b 27.012338
_cell_length_c 8.751442
_cell_angle_alpha 90.000000
_cell_angle_beta 39.395270
_cell_angle_gamma 90.000000
_cell_volume 2574.764126
_symmetry_space_group_name_H-M "C 2/M"
_symmetry_group_IT_number 12
_symmetry_cell_setting 'monoclinic'
loop_
_space_group_symop_operation_xyz
x,y,z
-x,y,-z
-x,-y,-z
x,-y,z
1/2+x,1/2+y,z
1/2-x,1/2+y,-z
1/2-x,1/2-y,-z
1/2+x,1/2-y,z
loop_
_atom_site_type_symbol
_atom_site_label
_atom_site_fract_x
_atom_site_fract_y
_atom_site_fract_z
Si Si1 0.786578 0.263543 0.613532
Si Si2 0.620593 0.356873 0.912485
Si Si3 0.998013 0.666825 0.330221
Si Si4 0.262923 0.158160 0.203235
Si Si5 0.579284 0.000000 0.623601
Si Si6 0.187870 0.500000 0.118737
Si Si7 0.616524 0.413842 0.232942
Si Si8 0.827990 0.599561 0.407037
O O1 0.750000 0.250000 0.500000
O O2 0.696826 0.305618 0.822919
O O3 0.792969 0.211650 0.685460
O O4 0.926040 0.282444 0.407270
O O5 0.699819 0.394653 0.690191
O O6 0.500000 0.342891 0.000000
O O7 0.584696 0.385789 0.122287
O O8 0.000000 0.650125 0.500000
O O9 0.938829 0.622354 0.331078
O O10 0.136716 0.671910 0.072620
O O11 0.154930 0.127055 0.295586
O O12 0.319780 0.127732 0.258402
O O13 0.627966 0.956847 0.662280
O O14 0.647457 0.000000 0.356659
O O15 0.431556 0.000000 0.813355
O O16 0.272535 0.452285 0.959120
O O17 0.500000 0.438606 0.500000
#
# Coordination Sequence:
#
# PCOD8115436 Si02
#       8
#     8   8   8   8   4   4   8   8
#     4  11  25  42  67 101 139 186 234 286 349 407
#     4  11  24  44  70  98 139 186 233 283 342 417
#     4  11  25  42  67  98 141 180 232 288 345 414
#     4  12  25  44  71 102 139 186 231 287 350 407
#     4  11  24  43  79 105 134 175 238 290 356 411
#     4  11  25  47  73 105 138 185 225 290 357 419
#     4  12  27  47  72 104 145 184 231 286 351 423
#     4  11  23  43  68 104 133 173 234 289 350 407
#
# _framework density 21.749563999999999
#
# number of rings (size 3 to 8) (size 9 to 14) (size 15 to 20)
#    0.000    0.714    4.286    4.071    4.000    3.429 
#    0.000    5.000    0.000    0.000    0.000    0.000 
#    0.000    0.000    0.000    0.000    0.000    0.000 
#
# Total GULP energy -346986.680847 kJ/mol
# GULP energy per Si atom -12392.381459 kJ/mol
# Density = 2.170006 g / cm^3
# Si number density = 21.749564 Si / 1000 Ang^3
#
#
#
# Elastic Constant Matrix: (Units=GPa)
#
#
# Indices 1 2 3 4 5 6 
#
# 1 78.3442 31.6419 12.7997 0.0000 2.9879 0.0000
# 2 31.6419 150.1052 29.9900 0.0000 -1.7011 0.0000
# 3 12.7997 29.9900 109.9162 0.0000 -2.0366 0.0000
# 4 0.0000 0.0000 0.0000 47.8351 0.0000 50.0135
# 5 2.9879 -1.7011 -2.0366 0.0000 38.5508 0.0000
# 6 0.0000 0.0000 0.0000 50.0135 0.0000 164.7539
#
#
#
# Elastic Compliance Matrix: (Units=1/GPa)
#
#
# Indices 1 2 3 4 5 6 
#
# 1 0.014092 -0.002805 -0.000899 0.000000 -0.001264 0.000000
# 2 -0.002805 0.007606 -0.001740 0.000000 0.000461 0.000000
# 3 -0.000899 -0.001740 0.009687 0.000000 0.000505 0.000000
# 4 0.000000 0.000000 0.000000 0.030625 0.000000 -0.009297
# 5 -0.001264 0.000461 0.000505 0.000000 0.026085 0.000000
# 6 0.000000 0.000000 0.000000 -0.009297 0.000000 0.008892
#
#
# Mechanical properties :
#
#
# Convention : Reuss Voigt Hill
#
# Bulk Modulus (GPa) = 48.78936 54.13652 51.46294
# Shear Modulus (GPa) = 43.58893 67.82356 55.70624
#
# Velocity S-wave (km/s) = 4.48161 5.59031 5.06638
# Velocity P-wave (km/s) = 7.01860 8.16172 7.61165
#
# Compressibility (1/GPa) = 0.02049627
#
# Stress axis : x y z
#
# Youngs Moduli (GPa) = 70.96081 131.47105 103.23479
#
# Poissons Ratio (x) = 0.36882 0.09281
# Poissons Ratio (y) = 0.19907 0.17964
# Poissons Ratio (z) = 0.06380 0.22877
#
# Static dielectric constant tensor:
#      x y z
#    x 3.928760 0.000000 0.001300 
#    y 0.000000 5.260650 0.000000 
#    z 0.001300 0.000000 4.097530 
# 
# 
# High freq. dielectric constant tensor:
#      x y z
#    x 1.860710 0.000000 -0.001980 
#    y 0.000000 1.861700 0.000000 
#    z -0.001980 0.000000 1.865930 
# 
# From -- ./inp_files/80064.got.cif
#   From: 2010.06.25/outbox.cif.g09.slc.cpg/sg12_41_cif.got.tgz:80064.got - 2010.06.28 00:19:55.
