data_PCOD8115726
_publ_section_title
;
Structure prediction by ZEFSAII (Michael W. Deem and Ramdas Pophale) SiO2 
 PCOD8115726
Probable space group: C 2/M
;
_chemical_formula_sum "Si O2"
_cell_formula_units_Z 48
_cell_length_a 10.866653
_cell_length_b 18.591381
_cell_length_c 20.789334
_cell_angle_alpha 90.000000
_cell_angle_beta 30.977940
_cell_angle_gamma 90.000000
_cell_volume 2161.767355
_symmetry_space_group_name_H-M "C 2/M"
_symmetry_group_IT_number 12
_symmetry_cell_setting 'monoclinic'
loop_
_space_group_symop_operation_xyz
x,y,z
-x,y,-z
-x,-y,-z
x,-y,z
1/2+x,1/2+y,z
1/2-x,1/2+y,-z
1/2-x,1/2-y,-z
1/2+x,1/2-y,z
loop_
_atom_site_type_symbol
_atom_site_label
_atom_site_fract_x
_atom_site_fract_y
_atom_site_fract_z
Si Si1 0.902743 0.806786 0.472257
Si Si2 0.656539 0.681831 0.233667
Si Si3 0.172374 0.667820 0.025991
Si Si4 0.272703 0.830272 0.861086
Si Si5 0.989316 0.582025 0.659065
Si Si6 0.445792 0.583999 0.228935
O O1 0.750000 0.750000 0.500000
O O2 0.739115 0.876906 0.551648
O O3 0.000000 0.783453 0.500000
O O4 0.126995 0.819906 0.324348
O O5 0.598874 0.759646 0.227513
O O6 0.481118 0.622159 0.281805
O O7 0.929340 0.661582 0.094019
O O8 0.108841 0.641512 0.126254
O O9 0.250000 0.750000 0.000000
O O10 0.381351 0.622193 0.900035
O O11 0.304972 0.895447 0.797575
O O12 0.000000 0.812246 0.000000
O O13 0.060512 0.500000 0.635701
O O14 0.834031 0.594476 0.663684
O O15 0.512760 0.500000 0.202961
#
# Coordination Sequence:
#
# PCOD8115726 Si02
#       6
#     8   8   8   8   8   8
#     4  12  29  49  78 108 142 188 242 303 360 426
#     4  12  25  41  71 102 144 184 242 300 361 426
#     4  12  22  39  65 105 146 184 236 295 358 432
#     4  12  21  38  69 102 136 183 234 295 356 423
#     4  11  26  47  71 103 146 190 243 296 355 432
#     4  11  25  44  69 105 146 193 239 296 364 433
#
# _framework density 22.204053999999999
#
# number of rings (size 3 to 8) (size 9 to 14) (size 15 to 20)
#    0.000    0.333    6.667    1.500    2.333    3.333 
#    0.000    3.333    0.000    0.000    0.000    0.000 
#    0.000    0.000    0.000    0.000    0.000    0.000 
#
# Total GULP energy -297444.902515 kJ/mol
# GULP energy per Si atom -12393.537605 kJ/mol
# Density = 2.215352 g / cm^3
# Si number density = 22.204054 Si / 1000 Ang^3
#
#
#
# Elastic Constant Matrix: (Units=GPa)
#
#
# Indices 1 2 3 4 5 6 
#
# 1 130.5838 39.3912 29.7917 -0.0179 11.5061 0.0324
# 2 39.3912 94.8670 20.1666 0.0658 -7.1668 -0.0170
# 3 29.7917 20.1666 81.0244 0.0713 8.3648 0.0648
# 4 -0.0179 0.0658 0.0713 32.6951 0.1013 -3.4505
# 5 11.5061 -7.1668 8.3648 0.1013 46.5567 -0.0362
# 6 0.0324 -0.0170 0.0648 -3.4505 -0.0362 31.4490
#
#
#
# Elastic Compliance Matrix: (Units=1/GPa)
#
#
# Indices 1 2 3 4 5 6 
#
# 1 0.009508 -0.003640 -0.002333 0.000025 -0.002491 -0.000007
# 2 -0.003640 0.012760 -0.002174 -0.000031 0.003255 0.000015
# 3 -0.002333 -0.002174 0.013975 -0.000024 -0.002269 -0.000033
# 4 0.000025 -0.000031 -0.000024 0.030944 -0.000071 0.003395
# 5 -0.002491 0.003255 -0.002269 -0.000071 0.023004 0.000028
# 6 -0.000007 0.000015 -0.000033 0.003395 0.000028 0.032170
#
#
# Mechanical properties :
#
#
# Convention : Reuss Voigt Hill
#
# Bulk Modulus (GPa) = 50.12454 53.90823 52.01639
# Shear Modulus (GPa) = 34.41061 36.61521 35.51291
#
# Velocity S-wave (km/s) = 3.94095 4.06523 4.00357
# Velocity P-wave (km/s) = 6.58268 6.80927 6.69693
#
# Compressibility (1/GPa) = 0.01995031
#
# Stress axis : x y z
#
# Youngs Moduli (GPa) = 105.17824 78.36686 71.55664
#
# Poissons Ratio (x) = 0.28527 0.16692
# Poissons Ratio (y) = 0.38286 0.15553
# Poissons Ratio (z) = 0.24535 0.17033
#
# Static dielectric constant tensor:
#      x y z
#    x 4.902800 -0.000040 0.193310 
#    y -0.000040 3.869880 0.000840 
#    z 0.193310 0.000840 4.234180 
# 
# 
# High freq. dielectric constant tensor:
#      x y z
#    x 1.892770 0.000000 0.001660 
#    y 0.000000 1.852710 0.000020 
#    z 0.001660 0.000020 1.878250 
# 
# From -- ./inp_files/336390.got.cif
#   From: 2010.06.25/outbox.cif.g09.slc.cpg/sg12_169_cif.got.tgz:336390.got - 2010.06.28 00:19:55.
