data_PCOD8115084
_publ_section_title
;
Structure prediction by ZEFSAII (Michael W. Deem and Ramdas Pophale) SiO2 
 PCOD8115084
Probable space group: C 2/M
;
_chemical_formula_sum "Si O2"
_cell_formula_units_Z 44
_cell_length_a 16.920791
_cell_length_b 13.656343
_cell_length_c 22.416886
_cell_angle_alpha 90.000000
_cell_angle_beta 157.336026
_cell_angle_gamma 90.000000
_cell_volume 1995.990922
_symmetry_space_group_name_H-M "C 2/M"
_symmetry_group_IT_number 12
_symmetry_cell_setting 'monoclinic'
loop_
_space_group_symop_operation_xyz
x,y,z
-x,y,-z
-x,-y,-z
x,-y,z
1/2+x,1/2+y,z
1/2-x,1/2+y,-z
1/2-x,1/2-y,-z
1/2+x,1/2-y,z
loop_
_atom_site_type_symbol
_atom_site_label
_atom_site_fract_x
_atom_site_fract_y
_atom_site_fract_z
Si Si1 0.340481 0.500000 0.477367
Si Si2 0.327744 0.700273 0.929404
Si Si3 0.995175 0.000000 0.710816
Si Si4 0.421357 0.208056 0.796258
Si Si5 0.920561 0.787421 0.664629
Si Si6 0.611582 0.000000 0.941169
Si Si7 0.141494 0.500000 0.831556
Si Si8 0.500000 0.658777 0.500000
O O1 0.497665 0.500000 0.641285
O O2 0.388498 0.596567 0.473435
O O3 0.106752 0.500000 0.338494
O O4 0.228361 0.592990 0.856684
O O5 0.144581 0.777805 0.789787
O O6 0.500000 0.715499 0.000000
O O7 0.427449 0.718469 0.064173
O O8 0.879197 0.901426 0.652388
O O9 0.229111 0.000000 0.894422
O O10 0.435697 0.223719 0.735188
O O11 0.185606 0.226601 0.653843
O O12 0.469506 0.095458 0.846111
O O13 0.750000 0.750000 0.500000
O O14 0.730968 0.000000 0.961075
#
# Coordination Sequence:
#
# PCOD8115084 Si02
#       8
#     4   8   4   8   8   4   4   4
#     4  11  23  43  70  99 137 181 234 291 354 425
#     4  12  27  44  70 107 141 188 240 297 360 427
#     4  12  25  40  70 107 135 177 243 295 349 421
#     4  12  25  44  71 104 145 187 233 297 366 430
#     4  12  26  47  74 104 144 193 243 293 361 437
#     4  12  21  43  74  99 134 186 234 289 352 436
#     4  12  22  49  73  93 140 194 244 278 353 447
#     4  11  22  42  70 101 136 186 234 289 366 423
#
# _framework density 22.044188999999999
#
# number of rings (size 3 to 8) (size 9 to 14) (size 15 to 20)
#    0.000    0.182    5.455    4.636    5.091    0.000 
#    0.000    1.818    0.000    1.091    0.000    0.000 
#    0.000    0.000    0.000    0.000    0.000    0.000 
#
# Total GULP energy -272769.103085 kJ/mol
# GULP energy per Si atom -12398.595595 kJ/mol
# Density = 2.199402 g / cm^3
# Si number density = 22.044189 Si / 1000 Ang^3
#
#
#
# Elastic Constant Matrix: (Units=GPa)
#
#
# Indices 1 2 3 4 5 6 
#
# 1 94.0636 18.5026 64.7130 0.0026 0.4587 -0.0035
# 2 18.5026 128.0296 54.7879 0.0085 4.4319 0.0277
# 3 64.7130 54.7879 193.9200 0.0742 -7.6682 0.0527
# 4 0.0026 0.0085 0.0742 28.5345 0.0153 14.1935
# 5 0.4587 4.4319 -7.6682 0.0153 47.6404 0.0066
# 6 -0.0035 0.0277 0.0527 14.1935 0.0066 -32.2762
#
#
#
# Elastic Compliance Matrix: (Units=1/GPa)
#
#
# Indices 1 2 3 4 5 6 
#
# 1 0.013836 0.000025 -0.004659 0.000013 -0.000885 -0.000004
# 2 0.000025 0.008958 -0.002589 0.000003 -0.001250 0.000004
# 3 -0.004659 -0.002589 0.007502 -0.000020 0.001493 0.000002
# 4 0.000013 0.000003 -0.000020 0.028755 -0.000015 0.012645
# 5 -0.000885 -0.001250 0.001493 -0.000015 0.021356 -0.000001
# 6 -0.000004 0.000004 0.000002 0.012645 -0.000001 -0.025422
#
#
# Mechanical properties :
#
#
# Convention : Reuss Voigt Hill
#
# Bulk Modulus (GPa) = 63.09097 76.89112 69.99105
# Shear Modulus (GPa) = 66.92101 27.31372 47.11736
#
# Velocity S-wave (km/s) = 5.51576 3.52382 4.62822
# Velocity P-wave (km/s) = 8.32149 7.17723 7.77045
#
# Compressibility (1/GPa) = 0.01585013
#
# Stress axis : x y z
#
# Youngs Moduli (GPa) = 72.27549 111.63014 133.29710
#
# Poissons Ratio (x) = -0.00279 0.62107
# Poissons Ratio (y) = -0.00180 0.34507
# Poissons Ratio (z) = 0.33675 0.28898
#
# Static dielectric constant tensor:
#      x y z
#    x 3.753060 -0.000020 -0.076870 
#    y -0.000020 4.111290 -0.000110 
#    z -0.076870 -0.000110 4.392720 
# 
# 
# High freq. dielectric constant tensor:
#      x y z
#    x 1.841580 0.000000 -0.007270 
#    y 0.000000 1.869850 -0.000010 
#    z -0.007270 -0.000010 1.892800 
# 
# From -- ./inp_files/344174.got.cif
#   From: 2010.06.25/outbox.cif.g09.slc.cpg/sg12_173_cif.got.tgz:344174.got - 2010.06.28 00:19:55.
