data_PCOD8115664
_publ_section_title
;
Structure prediction by ZEFSAII (Michael W. Deem and Ramdas Pophale) SiO2 
 PCOD8115664
Probable space group: C 2/M
;
_chemical_formula_sum "Si O2"
_cell_formula_units_Z 48
_cell_length_a 11.379795
_cell_length_b 21.741179
_cell_length_c 11.663977
_cell_angle_alpha 90.000000
_cell_angle_beta 130.034822
_cell_angle_gamma 90.000000
_cell_volume 2209.512880
_symmetry_space_group_name_H-M "C 2/M"
_symmetry_group_IT_number 12
_symmetry_cell_setting 'monoclinic'
loop_
_space_group_symop_operation_xyz
x,y,z
-x,y,-z
-x,-y,-z
x,-y,z
1/2+x,1/2+y,z
1/2-x,1/2+y,-z
1/2-x,1/2-y,-z
1/2+x,1/2-y,z
loop_
_atom_site_type_symbol
_atom_site_label
_atom_site_fract_x
_atom_site_fract_y
_atom_site_fract_z
Si Si1 0.824688 0.069818 0.548035
Si Si2 0.158371 0.374165 0.651330
Si Si3 0.622905 0.373772 0.816709
Si Si4 0.076639 0.779923 0.170584
Si Si5 0.628279 0.928833 0.877775
Si Si6 0.658072 0.853800 0.251528
O O1 0.740569 0.079269 0.615987
O O2 0.761542 0.117897 0.416516
O O3 0.005674 0.081239 0.677798
O O4 0.798508 0.000000 0.489087
O O5 0.265749 0.316743 0.748880
O O6 0.119429 0.413292 0.738747
O O7 0.000000 0.348180 0.500000
O O8 0.537271 0.315382 0.816215
O O9 0.749904 0.350150 0.808723
O O10 0.704315 0.411453 0.969452
O O11 0.111966 0.715651 0.255660
O O12 0.000000 0.768044 0.000000
O O13 0.495574 0.893167 0.862988
O O14 0.596453 0.000000 0.876511
#
# Coordination Sequence:
#
# PCOD8115664 Si02
#       6
#     8   8   8   8   8   8
#     4  11  25  45  69 101 142 185 232 282 344 413
#     4  11  24  44  73 103 134 185 233 290 346 397
#     4  11  26  45  70 104 136 186 229 284 352 409
#     4  11  25  47  73 100 140 179 240 286 341 409
#     4  12  25  44  71 105 140 182 235 286 347 410
#     4  12  27  42  70 103 139 190 222 286 351 410
#
# _framework density 21.724245
#
# number of rings (size 3 to 8) (size 9 to 14) (size 15 to 20)
#    0.000    0.667    3.333    3.500    2.333   10.000 
#    0.000    2.500    0.000    0.000    0.000    0.000 
#    0.000    0.000    0.000    0.000    0.000    0.000 
#
# Total GULP energy -297788.205753 kJ/mol
# GULP energy per Si atom -12407.841906 kJ/mol
# Density = 2.167480 g / cm^3
# Si number density = 21.724245 Si / 1000 Ang^3
#
#
#
# Elastic Constant Matrix: (Units=GPa)
#
#
# Indices 1 2 3 4 5 6 
#
# 1 121.3964 50.7566 26.1823 0.0000 4.9771 0.0000
# 2 50.7566 170.9020 48.7916 0.0000 7.1727 0.0000
# 3 26.1823 48.7916 135.1080 0.0000 17.5103 0.0000
# 4 0.0000 0.0000 0.0000 33.3778 0.0000 1.4839
# 5 4.9771 7.1727 17.5103 0.0000 41.3166 0.0000
# 6 0.0000 0.0000 0.0000 1.4839 0.0000 22.0079
#
#
#
# Elastic Compliance Matrix: (Units=1/GPa)
#
#
# Indices 1 2 3 4 5 6 
#
# 1 0.009510 -0.002561 -0.000875 0.000000 -0.000330 0.000000
# 2 -0.002561 0.007214 -0.002102 0.000000 -0.000053 0.000000
# 3 -0.000875 -0.002102 0.008750 0.000000 -0.003238 0.000000
# 4 0.000000 0.000000 0.000000 0.030050 0.000000 -0.002026
# 5 -0.000330 -0.000053 -0.003238 0.000000 0.025625 0.000000
# 6 0.000000 0.000000 0.000000 -0.002026 0.000000 0.045575
#
#
# Mechanical properties :
#
#
# Convention : Reuss Voigt Hill
#
# Bulk Modulus (GPa) = 69.45470 75.42973 72.44222
# Shear Modulus (GPa) = 35.06309 39.45219 37.25764
#
# Velocity S-wave (km/s) = 4.02183 4.26613 4.14578
# Velocity P-wave (km/s) = 7.32170 7.68527 7.50568
#
# Compressibility (1/GPa) = 0.01439787
#
# Stress axis : x y z
#
# Youngs Moduli (GPa) = 105.14701 138.61535 114.28657
#
# Poissons Ratio (x) = 0.35496 0.10006
# Poissons Ratio (y) = 0.26925 0.24025
# Poissons Ratio (z) = 0.09205 0.29139
#
# Static dielectric constant tensor:
#      x y z
#    x 4.015880 0.000000 0.190340 
#    y 0.000000 3.795560 0.000000 
#    z 0.190340 0.000000 4.130970 
# 
# 
# High freq. dielectric constant tensor:
#      x y z
#    x 1.865590 0.000000 0.008040 
#    y 0.000000 1.852370 0.000000 
#    z 0.008040 0.000000 1.870730 
# 
# From -- ./inp_files/133712.got.cif
#   From: 2010.06.25/outbox.cif.g09.slc.cpg/sg12_67_cif.got.tgz:133712.got - 2010.06.28 00:19:55.
