data_PCOD8115723
_publ_section_title
;
Structure prediction by ZEFSAII (Michael W. Deem and Ramdas Pophale) SiO2 
 PCOD8115723
Probable space group: C 2/M
;
_chemical_formula_sum "Si O2"
_cell_formula_units_Z 48
_cell_length_a 13.384049
_cell_length_b 19.212470
_cell_length_c 8.445954
_cell_angle_alpha 90.000000
_cell_angle_beta 91.130638
_cell_angle_gamma 90.000000
_cell_volume 2171.375175
_symmetry_space_group_name_H-M "C 2/M"
_symmetry_group_IT_number 12
_symmetry_cell_setting 'monoclinic'
loop_
_space_group_symop_operation_xyz
x,y,z
-x,y,-z
-x,-y,-z
x,-y,z
1/2+x,1/2+y,z
1/2-x,1/2+y,-z
1/2-x,1/2-y,-z
1/2+x,1/2-y,z
loop_
_atom_site_type_symbol
_atom_site_label
_atom_site_fract_x
_atom_site_fract_y
_atom_site_fract_z
Si Si1 0.922908 0.419653 0.639283
Si Si2 0.403327 0.664184 0.669124
Si Si3 0.551323 0.419209 0.842010
Si Si4 0.007796 0.704155 0.817551
Si Si5 0.215993 0.854798 0.648208
Si Si6 0.267058 0.221442 0.173898
O O1 0.932432 0.500000 0.692256
O O2 0.806701 0.404203 0.590865
O O3 0.000000 0.403187 0.500000
O O4 0.952043 0.369166 0.785662
O O5 0.472550 0.597087 0.700273
O O6 0.466921 0.734591 0.703910
O O7 0.365943 0.658547 0.489104
O O8 0.310210 0.659929 0.788515
O O9 0.571166 0.500000 0.860289
O O10 0.658067 0.384704 0.801612
O O11 0.500000 0.388132 0.000000
O O12 0.123958 0.693105 0.784715
O O13 0.000000 0.726169 0.000000
O O14 0.263433 0.781817 0.702431
O O15 0.250000 0.250000 0.000000
#
# Coordination Sequence:
#
# PCOD8115723 Si02
#       6
#     8   8   8   8   8   8
#     4  11  26  46  68  97 139 182 227 280 336 405
#     4  12  24  40  66 102 135 175 224 282 336 405
#     4  11  25  44  67  97 136 180 226 280 343 410
#     4  12  24  42  68 100 136 177 229 284 337 405
#     4  12  24  42  70  99 136 177 225 281 339 405
#     4  12  23  40  65 100 136 173 223 281 339 400
#
# _framework density 22.105806999999999
#
# number of rings (size 3 to 8) (size 9 to 14) (size 15 to 20)
#    0.000    0.333    5.000    4.000    2.333    2.333 
#    0.000    0.833    0.000    0.000    0.000    0.000 
#    0.000    0.000    0.000    0.000    0.000    0.000 
#
# Total GULP energy -297567.960229 kJ/mol
# GULP energy per Si atom -12398.665010 kJ/mol
# Density = 2.205549 g / cm^3
# Si number density = 22.105807 Si / 1000 Ang^3
#
#
#
# Elastic Constant Matrix: (Units=GPa)
#
#
# Indices 1 2 3 4 5 6 
#
# 1 151.4764 19.2391 22.7250 0.0000 -11.9351 0.0000
# 2 19.2391 69.2055 17.3376 0.0000 7.6143 0.0000
# 3 22.7250 17.3376 96.0683 0.0000 0.2282 0.0000
# 4 0.0000 0.0000 0.0000 25.7844 0.0000 -0.5830
# 5 -11.9351 7.6143 0.2282 0.0000 44.3122 0.0000
# 6 0.0000 0.0000 0.0000 -0.5830 0.0000 34.3132
#
#
#
# Elastic Compliance Matrix: (Units=1/GPa)
#
#
# Indices 1 2 3 4 5 6 
#
# 1 0.007231 -0.001918 -0.001370 0.000000 0.002284 0.000000
# 2 -0.001918 0.015945 -0.002416 0.000000 -0.003244 0.000000
# 3 -0.001370 -0.002416 0.011169 0.000000 -0.000011 0.000000
# 4 0.000000 0.000000 0.000000 0.038798 0.000000 0.000659
# 5 0.002284 -0.003244 -0.000011 0.000000 0.023740 0.000000
# 6 0.000000 0.000000 0.000000 0.000659 0.000000 0.029155
#
#
# Mechanical properties :
#
#
# Convention : Reuss Voigt Hill
#
# Bulk Modulus (GPa) = 43.59765 48.37262 45.98513
# Shear Modulus (GPa) = 34.46091 38.04519 36.25305
#
# Velocity S-wave (km/s) = 3.95258 4.15305 4.05406
# Velocity P-wave (km/s) = 6.37147 6.70276 6.53921
#
# Compressibility (1/GPa) = 0.02293702
#
# Stress axis : x y z
#
# Youngs Moduli (GPa) = 138.29725 62.71451 89.53081
#
# Poissons Ratio (x) = 0.12031 0.12263
# Poissons Ratio (y) = 0.26530 0.21632
# Poissons Ratio (z) = 0.18942 0.15153
#
# Static dielectric constant tensor:
#      x y z
#    x 4.451890 0.000000 -0.126870 
#    y 0.000000 3.786010 0.000000 
#    z -0.126870 0.000000 3.977790 
# 
# 
# High freq. dielectric constant tensor:
#      x y z
#    x 1.902430 0.000000 -0.005770 
#    y 0.000000 1.848530 0.000000 
#    z -0.005770 0.000000 1.865130 
# 
# From -- ./inp_files/50792.got.cif
#   From: 2010.06.25/outbox.cif.g09.slc.cpg/sg12_26_cif.got.tgz:50792.got - 2010.06.28 00:19:55.
