data_PCOD8115291
_publ_section_title
;
Structure prediction by ZEFSAII (Michael W. Deem and Ramdas Pophale) SiO2 
 PCOD8115291
Probable space group: C 2/M
;
_chemical_formula_sum "Si O2"
_cell_formula_units_Z 64
_cell_length_a 17.919603
_cell_length_b 15.015183
_cell_length_c 11.837863
_cell_angle_alpha 90.000000
_cell_angle_beta 90.000887
_cell_angle_gamma 90.000000
_cell_volume 3185.167846
_symmetry_space_group_name_H-M "C 2/M"
_symmetry_group_IT_number 12
_symmetry_cell_setting 'monoclinic'
loop_
_space_group_symop_operation_xyz
x,y,z
-x,y,-z
-x,-y,-z
x,-y,z
1/2+x,1/2+y,z
1/2-x,1/2+y,-z
1/2-x,1/2-y,-z
1/2+x,1/2-y,z
loop_
_atom_site_type_symbol
_atom_site_label
_atom_site_fract_x
_atom_site_fract_y
_atom_site_fract_z
Si Si1 0.688443 0.897412 0.762408
Si Si2 0.188273 0.397399 0.237259
Si Si3 0.859800 0.900761 0.757962
Si Si4 0.415342 0.764398 0.629450
Si Si5 0.677195 0.812344 0.999846
Si Si6 0.415160 0.764382 0.370827
Si Si7 0.859622 0.900760 0.242217
Si Si8 0.912433 0.854750 0.000130
O O1 0.774091 0.876293 0.733644
O O2 0.673356 0.875395 0.892223
O O3 0.637959 0.838369 0.681492
O O4 0.668739 0.000000 0.740353
O O5 0.168668 0.500000 0.259371
O O6 0.137678 0.338411 0.318070
O O7 0.273889 0.376123 0.266065
O O8 0.173207 0.375448 0.107416
O O9 0.910333 0.829780 0.693476
O O10 0.878254 0.000000 0.713157
O O11 0.874789 0.899400 0.891522
O O12 0.391915 0.749659 0.500177
O O13 0.500100 0.798344 0.640059
O O14 0.603673 0.750706 0.999732
O O15 0.750000 0.750000 0.000000
O O16 0.410083 0.670175 0.306900
O O17 0.874931 0.899545 0.108743
O O18 0.877856 0.000000 0.287221
O O19 0.000000 0.872754 0.000000
#
# Coordination Sequence:
#
# PCOD8115291 Si02
#       8
#     8   8   8   8   8   8   8   8
#     4  11  23  40  65  95 126 163 209 258 309 369
#     4  11  23  40  65  95 126 163 209 258 309 369
#     4  11  23  40  64  95 127 163 207 257 313 376
#     4  11  25  44  64  88 123 167 212 262 320 376
#     4  12  19  37  65  92 128 167 200 249 306 368
#     4  11  25  44  64  88 123 167 212 262 320 376
#     4  11  23  40  64  95 127 163 207 257 313 376
#     4  12  23  36  61  95 131 166 199 242 306 377
#
# _framework density 20.093133000000002
#
# number of rings (size 3 to 8) (size 9 to 14) (size 15 to 20)
#    0.000    0.750    5.000    2.250    0.000    8.000 
#    0.000    5.000    0.000    2.250    0.000    0.000 
#    0.000    0.000    0.000    0.000    0.000    0.000 
#
# Total GULP energy -396954.693234 kJ/mol
# GULP energy per Si atom -12404.834164 kJ/mol
# Density = 2.004740 g / cm^3
# Si number density = 20.093133 Si / 1000 Ang^3
#
#
#
# Elastic Constant Matrix: (Units=GPa)
#
#
# Indices 1 2 3 4 5 6 
#
# 1 107.3209 55.2070 43.3966 0.0000 -0.2760 0.0000
# 2 55.2070 110.5310 43.7805 0.0000 -0.1698 0.0000
# 3 43.3966 43.7805 128.1519 0.0000 -0.2110 0.0000
# 4 0.0000 0.0000 0.0000 1.3951 0.0000 0.0569
# 5 -0.2760 -0.1698 -0.2110 0.0000 29.4496 0.0000
# 6 0.0000 0.0000 0.0000 0.0569 0.0000 11.0792
#
#
#
# Elastic Compliance Matrix: (Units=1/GPa)
#
#
# Indices 1 2 3 4 5 6 
#
# 1 0.013234 -0.005591 -0.002571 0.000000 0.000073 0.000000
# 2 -0.005591 0.012826 -0.002488 0.000000 0.000004 0.000000
# 3 -0.002571 -0.002488 0.009524 0.000000 0.000030 0.000000
# 4 0.000000 0.000000 0.000000 0.716957 0.000000 -0.003680
# 5 0.000073 0.000004 0.000030 0.000000 0.033957 0.000000
# 6 0.000000 0.000000 0.000000 -0.003680 0.000000 0.090278
#
#
# Mechanical properties :
#
#
# Convention : Reuss Voigt Hill
#
# Bulk Modulus (GPa) = 70.01793 70.08577 70.05185
# Shear Modulus (GPa) = 5.53809 21.95943 13.74876
#
# Velocity S-wave (km/s) = 1.66199 3.30946 2.61866
# Velocity P-wave (km/s) = 6.21331 7.03986 6.63946
#
# Compressibility (1/GPa) = 0.01428206
#
# Stress axis : x y z
#
# Youngs Moduli (GPa) = 75.56275 77.96939 104.99806
#
# Poissons Ratio (x) = 0.43596 0.26997
# Poissons Ratio (y) = 0.42251 0.26125
# Poissons Ratio (z) = 0.19428 0.19400
#
# Static dielectric constant tensor:
#      x y z
#    x 3.704210 0.000000 0.000370 
#    y 0.000000 3.743470 0.000000 
#    z 0.000370 0.000000 3.650780 
# 
# 
# High freq. dielectric constant tensor:
#      x y z
#    x 1.787430 0.000000 0.000000 
#    y 0.000000 1.792760 0.000000 
#    z 0.000000 0.000000 1.783560 
# 
# From -- ./inp_files/156618.got.cif
#   From: 2010.06.25/outbox.cif.g09.slc.cpg/sg12_79_cif.got.tgz:156618.got - 2010.06.28 00:19:55.
