data_PCOD8115172
_publ_section_title
;
Structure prediction by ZEFSAII (Michael W. Deem and Ramdas Pophale) SiO2 
 PCOD8115172
Probable space group: C 2/M
;
_chemical_formula_sum "Si O2"
_cell_formula_units_Z 64
_cell_length_a 14.648777
_cell_length_b 19.177247
_cell_length_c 14.377932
_cell_angle_alpha 90.000000
_cell_angle_beta 129.816904
_cell_angle_gamma 90.000000
_cell_volume 3102.407120
_symmetry_space_group_name_H-M "C 2/M"
_symmetry_group_IT_number 12
_symmetry_cell_setting 'monoclinic'
loop_
_space_group_symop_operation_xyz
x,y,z
-x,y,-z
-x,-y,-z
x,-y,z
1/2+x,1/2+y,z
1/2-x,1/2+y,-z
1/2-x,1/2-y,-z
1/2+x,1/2-y,z
loop_
_atom_site_type_symbol
_atom_site_label
_atom_site_fract_x
_atom_site_fract_y
_atom_site_fract_z
Si Si1 0.793741 0.252913 0.135242
Si Si2 0.181744 0.099197 0.816816
Si Si3 0.899692 0.799527 0.861282
Si Si4 0.468614 0.811848 0.756004
Si Si5 0.751369 0.833086 0.487805
Si Si6 0.068182 0.424078 0.953528
Si Si7 0.363526 0.575412 0.415722
Si Si8 0.579336 0.582067 0.264113
O O1 0.780395 0.178192 0.171854
O O2 0.720401 0.303829 0.155576
O O3 0.932671 0.268100 0.233478
O O4 0.750000 0.250000 0.000000
O O5 0.188780 0.065188 0.720610
O O6 0.051189 0.087635 0.775453
O O7 0.288874 0.066439 0.946140
O O8 0.896970 0.741043 0.777842
O O9 0.923889 0.876957 0.835842
O O10 0.000000 0.778068 0.000000
O O11 0.387474 0.848296 0.623493
O O12 0.539957 0.872263 0.852933
O O13 0.750000 0.750000 0.500000
O O14 0.810659 0.857273 0.430628
O O15 0.815226 0.878215 0.609760
O O16 0.014865 0.500000 0.894593
O O17 0.000000 0.395105 0.000000
O O18 0.500000 0.592865 0.500000
O O19 0.342555 0.500000 0.453942
O O20 0.611293 0.500000 0.271657
#
# Coordination Sequence:
#
# PCOD8115172 Si02
#       8
#     8   8   8   8   8   8   8   8
#     4  12  22  41  69 100 136 174 223 288 340 408
#     4  12  21  41  68 100 136 177 228 287 348 408
#     4  12  23  43  70 103 137 177 229 286 348 411
#     4  12  24  43  67 101 134 179 226 276 345 409
#     4  12  24  44  65  97 138 181 230 279 336 411
#     4  11  23  37  59  95 136 175 216 271 346 419
#     4  11  23  39  65 101 137 173 224 288 346 396
#     4  12  26  45  70 101 141 184 233 288 342 408
#
# _framework density 20.629142999999999
#
# number of rings (size 3 to 8) (size 9 to 14) (size 15 to 20)
#    0.000    0.250    6.250    4.125    0.000    2.250 
#    0.000    1.250    0.000    0.750    0.000    0.000 
#    0.000    0.000    0.000    0.000    0.000    0.000 
#
# Total GULP energy -396442.826441 kJ/mol
# GULP energy per Si atom -12388.838326 kJ/mol
# Density = 2.058219 g / cm^3
# Si number density = 20.629143 Si / 1000 Ang^3
#
#
#
# Elastic Constant Matrix: (Units=GPa)
#
#
# Indices 1 2 3 4 5 6 
#
# 1 106.7772 37.6297 27.1671 0.0000 1.5858 0.0000
# 2 37.6297 127.9602 27.5541 0.0000 0.6241 0.0000
# 3 27.1671 27.5541 99.6411 0.0000 22.4951 0.0000
# 4 0.0000 0.0000 0.0000 33.1382 0.0000 7.0001
# 5 1.5858 0.6241 22.4951 0.0000 30.6244 0.0000
# 6 0.0000 0.0000 0.0000 7.0001 0.0000 31.5970
#
#
#
# Elastic Compliance Matrix: (Units=1/GPa)
#
#
# Indices 1 2 3 4 5 6 
#
# 1 0.010936 -0.002674 -0.002550 0.000000 0.001361 0.000000
# 2 -0.002674 0.009049 -0.002113 0.000000 0.001507 0.000000
# 3 -0.002550 -0.002113 0.013518 0.000000 -0.009754 0.000000
# 4 0.000000 0.000000 0.000000 0.031658 0.000000 -0.007014
# 5 0.001361 0.001507 -0.009754 0.000000 0.039718 0.000000
# 6 0.000000 0.000000 0.000000 -0.007014 0.000000 0.033202
#
#
# Mechanical properties :
#
#
# Convention : Reuss Voigt Hill
#
# Bulk Modulus (GPa) = 53.10873 57.67558 55.39216
# Shear Modulus (GPa) = 31.44048 35.20710 33.32379
#
# Velocity S-wave (km/s) = 3.90818 4.13567 4.02353
# Velocity P-wave (km/s) = 6.79453 7.12909 6.96382
#
# Compressibility (1/GPa) = 0.01882930
#
# Stress axis : x y z
#
# Youngs Moduli (GPa) = 91.44124 110.51042 73.97665
#
# Poissons Ratio (x) = 0.29546 0.18861
# Poissons Ratio (y) = 0.24448 0.15635
# Poissons Ratio (z) = 0.23314 0.23356
#
# Static dielectric constant tensor:
#      x y z
#    x 3.776050 0.000000 0.253930 
#    y 0.000000 3.980760 0.000000 
#    z 0.253930 0.000000 4.141480 
# 
# 
# High freq. dielectric constant tensor:
#      x y z
#    x 1.787930 0.000000 0.017030 
#    y 0.000000 1.818340 0.000000 
#    z 0.017030 0.000000 1.814250 
# 
# From -- ./inp_files/216837.got.cif
#   From: 2010.06.25/outbox.cif.g09.slc.cpg/sg12_109_cif.got.tgz:216837.got - 2010.06.28 00:19:55.
