data_PCOD8115554
_publ_section_title
;
Structure prediction by ZEFSAII (Michael W. Deem and Ramdas Pophale) SiO2 
 PCOD8115554
Probable space group: C 2/M
;
_chemical_formula_sum "Si O2"
_cell_formula_units_Z 56
_cell_length_a 9.655100
_cell_length_b 27.494122
_cell_length_c 22.526172
_cell_angle_alpha 90.000000
_cell_angle_beta 150.262979
_cell_angle_gamma 90.000000
_cell_volume 2966.081355
_symmetry_space_group_name_H-M "C 2/M"
_symmetry_group_IT_number 12
_symmetry_cell_setting 'monoclinic'
loop_
_space_group_symop_operation_xyz
x,y,z
-x,y,-z
-x,-y,-z
x,-y,z
1/2+x,1/2+y,z
1/2-x,1/2+y,-z
1/2-x,1/2-y,-z
1/2+x,1/2-y,z
loop_
_atom_site_type_symbol
_atom_site_label
_atom_site_fract_x
_atom_site_fract_y
_atom_site_fract_z
Si Si1 0.383177 0.445751 0.363451
Si Si2 0.253738 0.649249 0.735684
Si Si3 0.730487 0.811221 0.133651
Si Si4 0.558195 0.945480 0.364420
Si Si5 0.324724 0.799132 0.495416
Si Si6 0.737350 0.848704 0.258188
Si Si7 0.241063 0.802637 0.138294
O O1 0.336052 0.500000 0.320212
O O2 0.209778 0.438233 0.358562
O O3 0.711497 0.437210 0.498378
O O4 0.270169 0.406985 0.273834
O O5 0.500459 0.656569 0.780825
O O6 0.347642 0.677461 0.830381
O O7 0.198907 0.592042 0.726346
O O8 0.976810 0.669922 0.602558
O O9 0.599420 0.832102 0.145261
O O10 0.805940 0.754466 0.167158
O O11 0.500000 0.820695 0.000000
O O12 0.433903 0.000000 0.323249
O O13 0.500000 0.791103 0.500000
O O14 0.250000 0.750000 0.500000
O O15 0.040088 0.825393 0.373652
O O16 0.531202 0.829434 0.232220
O O17 0.000000 0.813508 0.000000
#
# Coordination Sequence:
#
# PCOD8115554 Si02
#       7
#     8   8   8   8   8   8   8
#     4   9  18  35  59  88 118 151 192 237 295 364
#     4  12  22  38  62  88 123 153 197 252 299 351
#     4  11  24  41  58  81 120 167 203 240 286 354
#     4   9  18  35  59  88 118 151 192 237 295 364
#     4  12  26  38  57  90 129 163 194 241 307 366
#     4  12  22  38  62  88 123 153 197 252 299 351
#     4  11  24  41  62  87 116 165 215 242 282 352
#
# _framework density 18.880130999999999
#
# number of rings (size 3 to 8) (size 9 to 14) (size 15 to 20)
#    0.000    1.143    4.286    4.286    2.000    2.286 
#    0.000    0.714    0.000    7.714    0.000    0.000 
#    0.000    0.000    0.000    0.000    0.000    0.000 
#
# Total GULP energy -347191.389312 kJ/mol
# GULP energy per Si atom -12399.692475 kJ/mol
# Density = 1.883716 g / cm^3
# Si number density = 18.880131 Si / 1000 Ang^3
#
#
#
# Elastic Constant Matrix: (Units=GPa)
#
#
# Indices 1 2 3 4 5 6 
#
# 1 54.8676 24.5212 17.3840 -0.0140 -6.1987 -0.0051
# 2 24.5212 143.4540 46.9782 -0.0103 -4.1267 -0.0034
# 3 17.3840 46.9782 61.9330 -0.0014 -10.8152 -0.0033
# 4 -0.0140 -0.0103 -0.0014 17.6379 -0.0129 -2.2941
# 5 -6.1987 -4.1267 -10.8152 -0.0129 35.7174 -0.0063
# 6 -0.0051 -0.0034 -0.0033 -2.2941 -0.0063 22.6288
#
#
#
# Elastic Compliance Matrix: (Units=1/GPa)
#
#
# Indices 1 2 3 4 5 6 
#
# 1 0.020655 -0.002255 -0.003703 0.000017 0.002203 0.000006
# 2 -0.002255 0.009563 -0.006859 0.000002 -0.001363 0.000000
# 3 -0.003703 -0.006859 0.023374 0.000000 0.005643 0.000003
# 4 0.000017 0.000002 0.000000 0.057454 0.000025 0.005825
# 5 0.002203 -0.001363 0.005643 0.000025 0.029931 0.000012
# 6 0.000006 0.000000 0.000003 0.005825 0.000012 0.044782
#
#
# Mechanical properties :
#
#
# Convention : Reuss Voigt Hill
#
# Bulk Modulus (GPa) = 35.76631 48.66905 42.21768
# Shear Modulus (GPa) = 22.65386 26.62157 24.63771
#
# Velocity S-wave (km/s) = 3.46768 3.75911 3.61633
# Velocity P-wave (km/s) = 5.91761 6.68394 6.31242
#
# Compressibility (1/GPa) = 0.02795927
#
# Stress axis : x y z
#
# Youngs Moduli (GPa) = 48.41336 104.56588 42.78232
#
# Poissons Ratio (x) = 0.23577 0.15841
# Poissons Ratio (y) = 0.10916 0.29346
# Poissons Ratio (z) = 0.17926 0.71725
#
# Static dielectric constant tensor:
#      x y z
#    x 3.548030 0.000000 -0.098040 
#    y 0.000000 3.566200 0.000000 
#    z -0.098040 0.000000 3.476830 
# 
# 
# High freq. dielectric constant tensor:
#      x y z
#    x 1.732620 0.000000 -0.002760 
#    y 0.000000 1.733620 0.000000 
#    z -0.002760 0.000000 1.726290 
# 
# From -- ./inp_files/185139.got.cif
#   From: 2010.06.25/outbox.cif.g09.slc.cpg/sg12_93_cif.got.tgz:185139.got - 2010.06.28 00:19:55.
