data_PCOD8115673
_publ_section_title
;
Structure prediction by ZEFSAII (Michael W. Deem and Ramdas Pophale) SiO2 
 PCOD8115673
Probable space group: C 2/M
;
_chemical_formula_sum "Si O2"
_cell_formula_units_Z 44
_cell_length_a 10.060955
_cell_length_b 28.399877
_cell_length_c 8.109357
_cell_angle_alpha 90.000000
_cell_angle_beta 60.306229
_cell_angle_gamma 90.000000
_cell_volume 2012.818405
_symmetry_space_group_name_H-M "C 2/M"
_symmetry_group_IT_number 12
_symmetry_cell_setting 'monoclinic'
loop_
_space_group_symop_operation_xyz
x,y,z
-x,y,-z
-x,-y,-z
x,-y,z
1/2+x,1/2+y,z
1/2-x,1/2+y,-z
1/2-x,1/2-y,-z
1/2+x,1/2-y,z
loop_
_atom_site_type_symbol
_atom_site_label
_atom_site_fract_x
_atom_site_fract_y
_atom_site_fract_z
Si Si1 0.131702 0.052778 0.638834
Si Si2 0.581749 0.728149 0.617174
Si Si3 0.500000 0.884425 0.000000
Si Si4 0.784573 0.947584 0.784335
Si Si5 0.450610 0.823866 0.723217
Si Si6 0.855972 0.857529 0.189432
O O1 0.214099 0.053164 0.413273
O O2 0.213875 0.094146 0.691392
O O3 0.952713 0.067257 0.742558
O O4 0.150361 0.000000 0.704301
O O5 0.500000 0.712695 0.500000
O O6 0.750000 0.750000 0.500000
O O7 0.478548 0.769759 0.758357
O O8 0.586444 0.680567 0.715357
O O9 0.652548 0.914647 0.939392
O O10 0.534857 0.854778 0.811537
O O11 0.747155 0.000000 0.870143
O O12 0.500000 0.833198 0.500000
O O13 0.270828 0.833893 0.848517
O O14 0.000000 0.874385 0.000000
#
# Coordination Sequence:
#
# PCOD8115673 Si02
#       6
#     8   8   4   8   8   8
#     4   9  20  40  64  91 132 178 219 270 334 402
#     4  11  24  45  69  92 131 182 222 273 336 401
#     4  12  23  38  72  94 134 178 215 282 354 378
#     4   9  19  37  62  97 129 169 229 273 323 409
#     4  11  25  46  63  98 137 175 225 278 330 417
#     4  12  25  41  65 101 136 167 231 284 334 403
#
# _framework density 21.859895999999999
#
# number of rings (size 3 to 8) (size 9 to 14) (size 15 to 20)
#    0.000    1.455    3.636    3.545    3.818    2.545 
#    0.000    1.818    0.000    4.909    0.000    0.000 
#    0.000    0.000    0.000    0.000    0.000    0.000 
#
# Total GULP energy -272643.798777 kJ/mol
# GULP energy per Si atom -12392.899944 kJ/mol
# Density = 2.181014 g / cm^3
# Si number density = 21.859896 Si / 1000 Ang^3
#
#
#
# Elastic Constant Matrix: (Units=GPa)
#
#
# Indices 1 2 3 4 5 6 
#
# 1 75.4269 30.5535 4.4349 0.0000 4.8358 0.0000
# 2 30.5535 157.6927 33.2346 0.0000 10.8384 0.0000
# 3 4.4349 33.2346 57.5224 0.0000 5.0701 0.0000
# 4 0.0000 0.0000 0.0000 27.7104 0.0000 -7.8810
# 5 4.8358 10.8384 5.0701 0.0000 29.8769 0.0000
# 6 0.0000 0.0000 0.0000 -7.8810 0.0000 21.3861
#
#
#
# Elastic Compliance Matrix: (Units=1/GPa)
#
#
# Indices 1 2 3 4 5 6 
#
# 1 0.014462 -0.002842 0.000652 0.000000 -0.001421 0.000000
# 2 -0.002842 0.007892 -0.004191 0.000000 -0.001692 0.000000
# 3 0.000652 -0.004191 0.019929 0.000000 -0.001967 0.000000
# 4 0.000000 0.000000 0.000000 0.040313 0.000000 0.014856
# 5 -0.001421 -0.001692 -0.001967 0.000000 0.034648 0.000000
# 6 0.000000 0.000000 0.000000 0.014856 0.000000 0.052234
#
#
# Mechanical properties :
#
#
# Convention : Reuss Voigt Hill
#
# Bulk Modulus (GPa) = 33.87463 47.45422 40.66442
# Shear Modulus (GPa) = 26.03091 30.62262 28.32676
#
# Velocity S-wave (km/s) = 3.45455 3.74686 3.60367
# Velocity P-wave (km/s) = 5.60730 6.36193 5.99650
#
# Compressibility (1/GPa) = 0.02952062
#
# Stress axis : x y z
#
# Youngs Moduli (GPa) = 69.14796 126.71572 50.17746
#
# Poissons Ratio (x) = 0.36010 -0.03272
# Poissons Ratio (y) = 0.19651 0.21031
# Poissons Ratio (z) = -0.04509 0.53111
#
# Static dielectric constant tensor:
#      x y z
#    x 3.537680 0.000000 -0.459300 
#    y 0.000000 4.191200 0.000000 
#    z -0.459300 0.000000 3.249490 
# 
# 
# High freq. dielectric constant tensor:
#      x y z
#    x 1.854030 0.000000 -0.003040 
#    y 0.000000 1.877230 0.000000 
#    z -0.003040 0.000000 1.841400 
# 
# From -- ./inp_files/42094.got.cif
#   From: 2010.06.25/outbox.cif.g09.slc.cpg/sg12_22_cif.got.tgz:42094.got - 2010.06.28 00:19:55.
