data_PCOD8115114
_publ_section_title
;
Structure prediction by ZEFSAII (Michael W. Deem and Ramdas Pophale) SiO2 
 PCOD8115114
Probable space group: C 2/M
;
_chemical_formula_sum "Si O2"
_cell_formula_units_Z 32
_cell_length_a 14.776599
_cell_length_b 14.239007
_cell_length_c 14.183376
_cell_angle_alpha 90.000000
_cell_angle_beta 29.215049
_cell_angle_gamma 90.000000
_cell_volume 1456.574679
_symmetry_space_group_name_H-M "C 2/M"
_symmetry_group_IT_number 12
_symmetry_cell_setting 'monoclinic'
loop_
_space_group_symop_operation_xyz
x,y,z
-x,y,-z
-x,-y,-z
x,-y,z
1/2+x,1/2+y,z
1/2-x,1/2+y,-z
1/2-x,1/2-y,-z
1/2+x,1/2-y,z
loop_
_atom_site_type_symbol
_atom_site_label
_atom_site_fract_x
_atom_site_fract_y
_atom_site_fract_z
Si Si1 0.235420 0.799200 0.869445
Si Si2 0.637175 0.395803 0.770213
Si Si3 0.124492 0.658814 0.607884
Si Si4 0.080258 0.397900 0.030108
O O1 0.231290 0.826378 0.762128
O O2 0.422790 0.830424 0.746454
O O3 0.061506 0.851221 0.077341
O O4 0.225181 0.687702 0.900322
O O5 0.610965 0.500000 0.837309
O O6 0.763329 0.409167 0.563548
O O7 0.250000 0.750000 0.500000
O O8 0.092248 0.616661 0.740849
O O9 0.174422 0.500000 0.966626
O O10 0.000000 0.400332 0.000000
#
# Coordination Sequence:
#
# PCOD8115114 Si02
#       4
#     8   8   8   8
#     4  11  22  44  67  95 136 168 210 274 332 384
#     4  11  24  42  70 102 129 165 220 277 333 389
#     4  12  24  42  67  96 133 173 216 267 328 388
#     4  11  23  42  66  92 127 175 219 260 316 386
#
# _framework density 21.969349999999999
#
# number of rings (size 3 to 8) (size 9 to 14) (size 15 to 20)
#    0.000    0.750    5.000    3.750    0.000    5.000 
#    0.000    1.250    0.000    4.500    0.000    0.000 
#    0.000    0.000    0.000    0.000    0.000    0.000 
#
# Total GULP energy -198266.304977 kJ/mol
# GULP energy per Si atom -12391.644061 kJ/mol
# Density = 2.191935 g / cm^3
# Si number density = 21.969350 Si / 1000 Ang^3
#
#
#
# Elastic Constant Matrix: (Units=GPa)
#
#
# Indices 1 2 3 4 5 6 
#
# 1 91.6415 25.9566 82.9207 0.0094 0.8077 0.0267
# 2 25.9566 156.4701 43.3345 0.0013 1.7703 0.0232
# 3 82.9207 43.3345 134.9718 0.0096 17.2213 0.0318
# 4 0.0094 0.0013 0.0096 145.2444 -0.0155 99.0991
# 5 0.8077 1.7703 17.2213 -0.0155 52.9563 -0.0190
# 6 0.0267 0.0232 0.0318 99.0991 -0.0190 70.4793
#
#
#
# Elastic Compliance Matrix: (Units=1/GPa)
#
#
# Indices 1 2 3 4 5 6 
#
# 1 0.025771 0.000252 -0.016549 0.000016 0.004980 -0.000024
# 2 0.000252 0.007031 -0.002485 0.000023 0.000569 -0.000033
# 3 -0.016549 -0.002485 0.019124 0.000033 -0.005884 -0.000049
# 4 0.000016 0.000023 0.000033 0.169382 -0.000048 -0.238164
# 5 0.004980 0.000569 -0.005884 -0.000048 0.020702 0.000073
# 6 -0.000024 -0.000033 -0.000049 -0.238164 0.000073 0.349065
#
#
# Mechanical properties :
#
#
# Convention : Reuss Voigt Hill
#
# Bulk Modulus (GPa) = 69.62463 76.38967 73.00715
# Shear Modulus (GPa) = 7.89359 69.12745 38.51052
#
# Velocity S-wave (km/s) = 1.89758 5.61549 4.19133
# Velocity P-wave (km/s) = 6.04662 8.76878 7.53170
#
# Compressibility (1/GPa) = 0.01436273
#
# Stress axis : x y z
#
# Youngs Moduli (GPa) = 38.80377 142.22877 52.28997
#
# Poissons Ratio (x) = -0.03580 0.86533
# Poissons Ratio (y) = -0.00977 0.12992
# Poissons Ratio (z) = 0.64215 0.35339
#
# Static dielectric constant tensor:
#      x y z
#    x 3.995570 -0.000030 0.432210 
#    y -0.000030 4.782390 0.000030 
#    z 0.432210 0.000030 4.260440 
# 
# 
# High freq. dielectric constant tensor:
#      x y z
#    x 1.859100 0.000000 0.025700 
#    y 0.000000 1.877580 0.000000 
#    z 0.025700 0.000000 1.864280 
# 
# From -- ./inp_files/214528.got.cif
#   From: 2010.06.25/outbox.cif.g09.slc.cpg/sg12_108_cif.got.tgz:214528.got - 2010.06.28 00:19:55.
