data_PCOD8115085
_publ_section_title
;
Structure prediction by ZEFSAII (Michael W. Deem and Ramdas Pophale) SiO2 
 PCOD8115085
Probable space group: C 2/M
;
_chemical_formula_sum "Si O2"
_cell_formula_units_Z 64
_cell_length_a 32.830854
_cell_length_b 16.360305
_cell_length_c 12.771172
_cell_angle_alpha 90.000000
_cell_angle_beta 26.356100
_cell_angle_gamma 90.000000
_cell_volume 3045.349711
_symmetry_space_group_name_H-M "C 2/M"
_symmetry_group_IT_number 12
_symmetry_cell_setting 'monoclinic'
loop_
_space_group_symop_operation_xyz
x,y,z
-x,y,-z
-x,-y,-z
x,-y,z
1/2+x,1/2+y,z
1/2-x,1/2+y,-z
1/2-x,1/2-y,-z
1/2+x,1/2-y,z
loop_
_atom_site_type_symbol
_atom_site_label
_atom_site_fract_x
_atom_site_fract_y
_atom_site_fract_z
Si Si1 0.202246 0.687171 0.188249
Si Si2 0.392003 0.906352 0.237969
Si Si3 0.017080 0.593901 0.582730
Si Si4 0.494266 0.403984 0.337727
Si Si5 0.530204 0.312798 0.818083
Si Si6 0.629338 0.593286 0.195969
Si Si7 0.788763 0.730680 0.599581
Si Si8 0.602259 0.817464 0.974266
O O1 0.101160 0.656224 0.398471
O O2 0.208380 0.730695 0.283420
O O3 0.250000 0.750000 0.000000
O O4 0.262697 0.604881 0.051556
O O5 0.324336 0.854669 0.468863
O O6 0.363877 0.888040 0.182779
O O7 0.372377 0.000000 0.311590
O O8 0.500000 0.885564 0.000000
O O9 0.032777 0.500000 0.588715
O O10 0.000000 0.588258 0.500000
O O11 0.933785 0.637629 0.837291
O O12 0.489676 0.500000 0.339509
O O13 0.486611 0.375166 0.237012
O O14 0.413984 0.367262 0.598152
O O15 0.586968 0.372329 0.183705
O O16 0.637141 0.299692 0.597903
O O17 0.500000 0.348326 0.000000
O O18 0.478712 0.229984 0.900699
O O19 0.600831 0.500000 0.265867
O O20 0.686969 0.755774 0.797575
#
# Coordination Sequence:
#
# PCOD8115085 Si02
#       8
#     8   8   8   8   8   8   8   8
#     4  12  23  39  62  99 127 165 216 267 333 401
#     4  11  22  42  70  99 130 172 224 274 331 394
#     4  11  25  44  66  97 135 174 217 277 340 397
#     4   9  20  39  62  89 126 172 215 261 323 392
#     4  12  23  41  63  93 132 171 217 273 333 388
#     4   9  19  38  63  90 123 167 214 267 323 385
#     4  12  24  41  65  98 129 171 219 272 333 389
#     4  12  23  44  67  93 132 176 218 276 330 396
#
# _framework density 21.015647999999999
#
# number of rings (size 3 to 8) (size 9 to 14) (size 15 to 20)
#    0.000    1.000    3.750    4.125    0.000    2.250 
#    0.000    3.125    0.000    0.000    0.000    0.000 
#    0.000    0.000    0.000    0.000    0.000    0.000 
#
# Total GULP energy -396433.648436 kJ/mol
# GULP energy per Si atom -12388.551514 kJ/mol
# Density = 2.096782 g / cm^3
# Si number density = 21.015648 Si / 1000 Ang^3
#
#
#
# Elastic Constant Matrix: (Units=GPa)
#
#
# Indices 1 2 3 4 5 6 
#
# 1 142.0159 56.3858 58.3965 0.0000 38.6308 0.0000
# 2 56.3858 100.0891 58.6209 0.0000 12.9036 0.0000
# 3 58.3965 58.6209 123.9304 0.0000 12.0157 0.0000
# 4 0.0000 0.0000 0.0000 33.5519 0.0000 2.4982
# 5 38.6308 12.9036 12.0157 0.0000 53.0368 0.0000
# 6 0.0000 0.0000 0.0000 2.4982 0.0000 41.1451
#
#
#
# Elastic Compliance Matrix: (Units=1/GPa)
#
#
# Indices 1 2 3 4 5 6 
#
# 1 0.011716 -0.003969 -0.002975 0.000000 -0.006894 0.000000
# 2 -0.003969 0.015359 -0.005432 0.000000 0.000385 0.000000
# 3 -0.002975 -0.005432 0.011965 0.000000 0.000778 0.000000
# 4 0.000000 0.000000 0.000000 0.029940 0.000000 -0.001818
# 5 -0.006894 0.000385 0.000778 0.000000 0.023606 0.000000
# 6 0.000000 0.000000 0.000000 -0.001818 0.000000 0.024415
#
#
# Mechanical properties :
#
#
# Convention : Reuss Voigt Hill
#
# Bulk Modulus (GPa) = 69.98981 79.20467 74.59724
# Shear Modulus (GPa) = 34.12619 38.38890 36.25755
#
# Velocity S-wave (km/s) = 4.03407 4.27861 4.15814
# Velocity P-wave (km/s) = 7.42120 7.88536 7.65680
#
# Compressibility (1/GPa) = 0.01428779
#
# Stress axis : x y z
#
# Youngs Moduli (GPa) = 85.35464 65.10824 83.57869
#
# Poissons Ratio (x) = 0.25843 0.24862
# Poissons Ratio (y) = 0.33879 0.45401
# Poissons Ratio (z) = 0.25390 0.35367
#
# Static dielectric constant tensor:
#      x y z
#    x 3.845470 0.000000 0.238310 
#    y 0.000000 3.889090 0.000000 
#    z 0.238310 0.000000 4.026510 
# 
# 
# High freq. dielectric constant tensor:
#      x y z
#    x 1.830770 0.000000 0.012450 
#    y 0.000000 1.812470 0.000000 
#    z 0.012450 0.000000 1.834910 
# 
# From -- ./inp_files/190038.got.cif
#   From: 2010.06.25/outbox.cif.g09.slc.cpg/sg12_96_cif.got.tgz:190038.got - 2010.06.28 00:19:55.
