data_PCOD8115031
_publ_section_title
;
Structure prediction by ZEFSAII (Michael W. Deem and Ramdas Pophale) SiO2 
 PCOD8115031
Probable space group: C 2/M
;
_chemical_formula_sum "Si O2"
_cell_formula_units_Z 52
_cell_length_a 17.998634
_cell_length_b 21.363034
_cell_length_c 9.805077
_cell_angle_alpha 90.000000
_cell_angle_beta 139.161243
_cell_angle_gamma 90.000000
_cell_volume 2465.394469
_symmetry_space_group_name_H-M "C 2/M"
_symmetry_group_IT_number 12
_symmetry_cell_setting 'monoclinic'
loop_
_space_group_symop_operation_xyz
x,y,z
-x,y,-z
-x,-y,-z
x,-y,z
1/2+x,1/2+y,z
1/2-x,1/2+y,-z
1/2-x,1/2-y,-z
1/2+x,1/2-y,z
loop_
_atom_site_type_symbol
_atom_site_label
_atom_site_fract_x
_atom_site_fract_y
_atom_site_fract_z
Si Si1 0.512742 0.151584 0.325027
Si Si2 0.175412 0.852134 0.613677
Si Si3 0.199873 0.571306 0.007713
Si Si4 0.704018 0.072281 0.703652
Si Si5 0.379401 0.357045 0.758435
Si Si6 0.000000 0.758905 0.500000
Si Si7 0.121994 0.715872 0.234258
O O1 0.412490 0.111922 0.117973
O O2 0.583843 0.108305 0.528530
O O3 0.458448 0.213163 0.320575
O O4 0.606786 0.174092 0.347355
O O5 0.115291 0.879564 0.392837
O O6 0.101690 0.801227 0.589819
O O7 0.296105 0.820106 0.753501
O O8 0.198762 0.909055 0.749826
O O9 0.166843 0.500000 0.991230
O O10 0.245516 0.580168 0.916910
O O11 0.797010 0.099702 0.730981
O O12 0.684384 0.000000 0.637843
O O13 0.329871 0.286171 0.672292
O O14 0.500000 0.360024 0.000000
O O15 0.000000 0.725990 0.000000
#
# Coordination Sequence:
#
# PCOD8115031 Si02
#       7
#     8   8   8   8   8   4   8
#     4  12  21  43  69 103 137 170 220 280 346 404
#     4  12  25  43  67  99 143 172 228 276 339 404
#     4  11  26  44  67 101 138 179 222 277 338 399
#     4  11  24  43  68  96 132 181 228 272 331 400
#     4  11  25  42  66  94 134 177 224 277 329 402
#     4  12  26  38  68 108 136 182 220 274 348 394
#     4  11  22  41  66 104 136 171 212 283 350 406
#
# _framework density 21.09196
#
# number of rings (size 3 to 8) (size 9 to 14) (size 15 to 20)
#    0.000    0.615    6.154    1.846    2.154    2.769 
#    0.000    1.154    0.000    0.000    0.000    0.000 
#    0.000    0.000    0.000    0.000    0.000    0.000 
#
# Total GULP energy -322436.590177 kJ/mol
# GULP energy per Si atom -12401.407315 kJ/mol
# Density = 2.104395 g / cm^3
# Si number density = 21.091960 Si / 1000 Ang^3
#
#
#
# Elastic Constant Matrix: (Units=GPa)
#
#
# Indices 1 2 3 4 5 6 
#
# 1 130.7534 69.3068 38.2848 0.0000 -10.2458 0.0000
# 2 69.3068 121.2101 60.5400 0.0000 -7.2154 0.0000
# 3 38.2848 60.5400 128.1980 0.0000 -17.6954 0.0000
# 4 0.0000 0.0000 0.0000 2.2500 0.0000 -11.2624
# 5 -10.2458 -7.2154 -17.6954 0.0000 26.0245 0.0000
# 6 0.0000 0.0000 0.0000 -11.2624 0.0000 24.4780
#
#
#
# Elastic Compliance Matrix: (Units=1/GPa)
#
#
# Indices 1 2 3 4 5 6 
#
# 1 0.011153 -0.006201 -0.000037 0.000000 0.002647 0.000000
# 2 -0.006201 0.014251 -0.005153 0.000000 -0.001994 0.000000
# 3 -0.000037 -0.005153 0.011086 0.000000 0.006095 0.000000
# 4 0.000000 0.000000 0.000000 -0.341071 0.000000 -0.156929
# 5 0.002647 -0.001994 0.006095 0.000000 0.043059 0.000000
# 6 0.000000 0.000000 0.000000 -0.156929 0.000000 -0.031351
#
#
# Mechanical properties :
#
#
# Convention : Reuss Voigt Hill
#
# Bulk Modulus (GPa) = 72.95213 79.60274 76.27744
# Shear Modulus (GPa) = -18.83093 24.68582 2.92744
#
# Velocity S-wave (km/s) = -2.99122 3.42481 1.17939
# Velocity P-wave (km/s) = 4.76790 7.31176 6.17230
#
# Compressibility (1/GPa) = 0.01370762
#
# Stress axis : x y z
#
# Youngs Moduli (GPa) = 89.66001 70.16982 90.20127
#
# Poissons Ratio (x) = 0.43515 0.00334
# Poissons Ratio (y) = 0.55601 0.46483
# Poissons Ratio (z) = 0.00332 0.36160
#
# Static dielectric constant tensor:
#      x y z
#    x 3.871790 0.000000 -0.193210 
#    y 0.000000 3.865220 0.000000 
#    z -0.193210 0.000000 3.960230 
# 
# 
# High freq. dielectric constant tensor:
#      x y z
#    x 1.831040 0.000000 -0.007390 
#    y 0.000000 1.823670 0.000000 
#    z -0.007390 0.000000 1.833760 
# 
# From -- ./inp_files/78082.got.cif
#   From: 2010.06.25/outbox.cif.g09.slc.cpg/sg12_40_cif.got.tgz:78082.got - 2010.06.28 00:19:55.
