data_PCOD8115103
_publ_section_title
;
Structure prediction by ZEFSAII (Michael W. Deem and Ramdas Pophale) SiO2 
 PCOD8115103
Probable space group: C 2/M
;
_chemical_formula_sum "Si O2"
_cell_formula_units_Z 40
_cell_length_a 18.132639
_cell_length_b 17.974424
_cell_length_c 8.628582
_cell_angle_alpha 90.000000
_cell_angle_beta 43.928101
_cell_angle_gamma 90.000000
_cell_volume 1951.019651
_symmetry_space_group_name_H-M "C 2/M"
_symmetry_group_IT_number 12
_symmetry_cell_setting 'monoclinic'
loop_
_space_group_symop_operation_xyz
x,y,z
-x,y,-z
-x,-y,-z
x,-y,z
1/2+x,1/2+y,z
1/2-x,1/2+y,-z
1/2-x,1/2-y,-z
1/2+x,1/2-y,z
loop_
_atom_site_type_symbol
_atom_site_label
_atom_site_fract_x
_atom_site_fract_y
_atom_site_fract_z
Si Si1 0.530977 0.159021 0.676927
Si Si2 0.427681 0.000000 0.260144
Si Si3 0.677302 0.184361 0.176854
Si Si4 0.996131 0.000000 0.323812
Si Si5 0.190108 0.000000 0.605943
Si Si6 0.500000 0.258048 0.000000
Si Si7 0.134999 0.115885 0.943769
O O1 0.601808 0.200816 0.439529
O O2 0.404029 0.159358 0.834092
O O3 0.558679 0.204043 0.790132
O O4 0.558231 0.072096 0.652961
O O5 0.310104 0.000000 0.369442
O O6 0.500000 0.000000 0.000000
O O7 0.760285 0.121841 0.107907
O O8 0.750000 0.250000 0.000000
O O9 0.000000 0.000000 0.500000
O O10 0.874292 0.000000 0.456115
O O11 0.049116 0.925922 0.177275
O O12 0.161751 0.927463 0.747432
O O13 0.587397 0.305455 0.961439
#
# Coordination Sequence:
#
# PCOD8115103 Si02
#       7
#     8   4   8   4   4   4   8
#     4  11  26  43  69 100 138 183 230 286 340 407
#     4  12  25  45  68  99 135 177 241 272 333 418
#     4  11  24  44  67 101 136 178 226 281 347 405
#     4  11  25  42  67 107 130 169 229 279 339 400
#     4  11  22  46  71  98 131 184 220 278 338 404
#     4  12  22  44  70 100 136 176 232 286 338 408
#     4  11  22  43  71  95 135 180 220 277 348 407
#
# _framework density 20.502099999999999
#
# number of rings (size 3 to 8) (size 9 to 14) (size 15 to 20)
#    0.000    0.800    7.000    0.600    0.000    7.200 
#    3.600    0.000    0.000    0.000    0.000    0.000 
#    0.000    0.000    0.000    0.000    0.000    0.000 
#
# Total GULP energy -247935.306252 kJ/mol
# GULP energy per Si atom -12396.765313 kJ/mol
# Density = 2.045544 g / cm^3
# Si number density = 20.502100 Si / 1000 Ang^3
#
#
#
# Elastic Constant Matrix: (Units=GPa)
#
#
# Indices 1 2 3 4 5 6 
#
# 1 157.1345 53.7338 66.0445 0.0000 -16.8541 0.0000
# 2 53.7338 121.6621 50.2404 0.0000 2.7371 0.0000
# 3 66.0445 50.2404 130.5517 0.0000 -2.1699 0.0000
# 4 0.0000 0.0000 0.0000 -24.6921 0.0000 -22.8442
# 5 -16.8541 2.7371 -2.1699 0.0000 45.4862 0.0000
# 6 0.0000 0.0000 0.0000 -22.8442 0.0000 25.4392
#
#
#
# Elastic Compliance Matrix: (Units=1/GPa)
#
#
# Indices 1 2 3 4 5 6 
#
# 1 0.009116 -0.002640 -0.003540 0.000000 0.003368 0.000000
# 2 -0.002640 0.010564 -0.002759 0.000000 -0.001746 0.000000
# 3 -0.003540 -0.002759 0.010501 0.000000 -0.000645 0.000000
# 4 0.000000 0.000000 0.000000 -0.022121 0.000000 -0.019864
# 5 0.003368 -0.001746 -0.000645 0.000000 0.023307 0.000000
# 6 0.000000 0.000000 0.000000 -0.019864 0.000000 0.021471
#
#
# Mechanical properties :
#
#
# Convention : Reuss Voigt Hill
#
# Bulk Modulus (GPa) = 81.27324 83.26508 82.26916
# Shear Modulus (GPa) = 66.82999 25.20195 46.01597
#
# Velocity S-wave (km/s) = 5.71554 3.50985 4.74270
# Velocity P-wave (km/s) = 9.12601 7.55821 8.37886
#
# Compressibility (1/GPa) = 0.01230417
#
# Stress axis : x y z
#
# Youngs Moduli (GPa) = 109.70057 94.66047 95.22596
#
# Poissons Ratio (x) = 0.24992 0.33705
# Poissons Ratio (y) = 0.28963 0.26270
# Poissons Ratio (z) = 0.38829 0.26114
#
# Static dielectric constant tensor:
#      x y z
#    x 4.029240 0.000000 -0.176170 
#    y 0.000000 3.699930 0.000000 
#    z -0.176170 0.000000 3.743450 
# 
# 
# High freq. dielectric constant tensor:
#      x y z
#    x 1.819050 0.000000 -0.007510 
#    y 0.000000 1.797180 0.000000 
#    z -0.007510 0.000000 1.803830 
# 
# From -- ./inp_files/48866.got.cif
#   From: 2010.06.25/outbox.cif.g09.slc.cpg/sg12_25_cif.got.tgz:48866.got - 2010.06.28 00:19:55.
