data_PCOD8115929
_publ_section_title
;
Structure prediction by ZEFSAII (Michael W. Deem and Ramdas Pophale) SiO2 
 PCOD8115929
Probable space group: C 2/M
;
_chemical_formula_sum "Si O2"
_cell_formula_units_Z 48
_cell_length_a 9.237699
_cell_length_b 18.137256
_cell_length_c 18.034322
_cell_angle_alpha 90.000000
_cell_angle_beta 120.812410
_cell_angle_gamma 90.000000
_cell_volume 2595.087521
_symmetry_space_group_name_H-M "C 2/M"
_symmetry_group_IT_number 12
_symmetry_cell_setting 'monoclinic'
loop_
_space_group_symop_operation_xyz
x,y,z
-x,y,-z
-x,-y,-z
x,-y,z
1/2+x,1/2+y,z
1/2-x,1/2+y,-z
1/2-x,1/2-y,-z
1/2+x,1/2-y,z
loop_
_atom_site_type_symbol
_atom_site_label
_atom_site_fract_x
_atom_site_fract_y
_atom_site_fract_z
Si Si1 0.499717 0.412437 0.339615
Si Si2 0.978839 0.413407 0.146378
Si Si3 0.686083 0.586593 0.853622
Si Si4 0.820487 0.587563 0.660385
Si Si5 0.161356 0.588150 0.500000
Si Si6 0.672901 0.671988 1.000000
O O1 0.501216 0.500000 0.344614
O O2 0.454394 0.389254 0.243716
O O3 0.357626 0.381230 0.357626
O O4 0.677532 0.379998 0.413531
O O5 0.942744 0.500000 0.132598
O O6 0.807434 0.371470 0.084632
O O7 0.126874 0.392665 0.126874
O O8 0.033039 0.389254 0.243716
O O9 0.677548 0.500000 0.867402
O O10 0.638169 0.628530 0.915367
O O11 0.811988 0.500000 0.655386
O O12 0.850471 0.620002 0.586469
O O13 0.166116 0.500000 0.500000
O O14 0.000000 0.618840 0.500000
O O15 0.500000 0.680558 0.000000
O O16 0.750000 0.750000 0.000000
#
# Coordination Sequence:
#
# PCOD8115929 Si02
#       6
#     8   8   8   8   8   8
#     4   8  14  25  42  64  92 128 164 195 234 287
#     4   9  18  34  55  77 102 132 166 206 251 298
#     4   9  18  34  55  77 102 132 166 206 251 298
#     4   8  14  25  42  64  92 128 164 195 234 287
#     4   9  15  21  33  59  96 131 160 197 240 277
#     4  12  25  38  53  73  99 131 167 208 253 302
#
# _framework density 18.496486000000001
#
# number of rings (size 3 to 8) (size 9 to 14) (size 15 to 20)
#    0.000    2.833    0.000    4.500    0.000    6.000 
#    0.000    3.333    0.000    0.000    0.000    1.167 
#    0.000    0.000    0.000    0.000    0.000    0.000 
#
# Total GULP energy -297474.946523 kJ/mol
# GULP energy per Si atom -12394.789438 kJ/mol
# Density = 1.845439 g / cm^3
# Si number density = 18.496486 Si / 1000 Ang^3
#
#
#
# Elastic Constant Matrix: (Units=GPa)
#
#
# Indices 1 2 3 4 5 6 
#
# 1 155.0606 40.1228 105.9373 0.0000 -0.0001 0.0000
# 2 40.1228 36.7861 36.6861 0.0000 -0.0001 0.0000
# 3 105.9373 36.6861 180.1873 0.0000 -0.0001 0.0000
# 4 0.0000 0.0000 0.0000 -3.5731 0.0000 0.0000
# 5 -0.0001 -0.0001 -0.0001 0.0000 30.1489 0.0000
# 6 0.0000 0.0000 0.0000 0.0000 0.0000 19.7749
#
#
#
# Elastic Compliance Matrix: (Units=1/GPa)
#
#
# Indices 1 2 3 4 5 6 
#
# 1 0.012340 -0.007810 -0.005665 0.000000 0.000000 0.000000
# 2 -0.007810 0.039053 -0.003359 0.000000 0.000000 0.000000
# 3 -0.005665 -0.003359 0.009564 0.000000 0.000000 0.000000
# 4 0.000000 0.000000 0.000000 -0.279871 0.000000 0.000000
# 5 0.000000 0.000000 0.000000 0.000000 0.033169 0.000000
# 6 0.000000 0.000000 0.000000 0.000000 0.000000 0.050569
#
#
# Mechanical properties :
#
#
# Convention : Reuss Voigt Hill
#
# Bulk Modulus (GPa) = 36.64542 81.94738 59.29640
# Shear Modulus (GPa) = -54.10675 21.88931 -16.10872
#
# Velocity S-wave (km/s) = -5.41442 3.44383 -2.95432
# Velocity P-wave (km/s) = 4.38553 7.75976 4.52664
#
# Compressibility (1/GPa) = 0.02728854
#
# Stress axis : x y z
#
# Youngs Moduli (GPa) = 81.03458 25.60635 104.55337
#
# Poissons Ratio (x) = 0.19998 0.59231
# Poissons Ratio (y) = 0.63288 0.35124
# Poissons Ratio (z) = 0.45908 0.08602
#
# Static dielectric constant tensor:
#      x y z
#    x 3.514640 0.000000 0.000000 
#    y 0.000000 2.844830 0.000000 
#    z 0.000000 0.000000 3.769630 
# 
# 
# High freq. dielectric constant tensor:
#      x y z
#    x 1.714810 0.000000 0.000000 
#    y 0.000000 1.654100 0.000000 
#    z 0.000000 0.000000 1.740080 
# 
# From -- ./inp_files/229312.got.cif
#   From: 2010.06.25/outbox.cif.g09.slc.cpg/sg12_115_cif.got.tgz:229312.got - 2010.06.28 00:19:55.
