data_PCOD8115155
_publ_section_title
;
Structure prediction by ZEFSAII (Michael W. Deem and Ramdas Pophale) SiO2 
 PCOD8115155
Probable space group: C 2/M
;
_chemical_formula_sum "Si O2"
_cell_formula_units_Z 56
_cell_length_a 9.057381
_cell_length_b 18.219864
_cell_length_c 18.769079
_cell_angle_alpha 90.000000
_cell_angle_beta 76.037648
_cell_angle_gamma 90.000000
_cell_volume 3005.840273
_symmetry_space_group_name_H-M "C 2/M"
_symmetry_group_IT_number 12
_symmetry_cell_setting 'monoclinic'
loop_
_space_group_symop_operation_xyz
x,y,z
-x,y,-z
-x,-y,-z
x,-y,z
1/2+x,1/2+y,z
1/2-x,1/2+y,-z
1/2-x,1/2-y,-z
1/2+x,1/2-y,z
loop_
_atom_site_type_symbol
_atom_site_label
_atom_site_fract_x
_atom_site_fract_y
_atom_site_fract_z
Si Si1 0.747724 0.412405 0.341449
Si Si2 0.816533 0.827962 0.215697
Si Si3 0.032229 0.327962 0.784303
Si Si4 0.589172 0.587595 0.658551
Si Si5 0.539710 0.916208 0.073563
Si Si6 0.674139 0.420151 0.500000
Si Si7 0.386727 0.416209 0.073562
O O1 0.763562 0.500000 0.340510
O O2 0.887969 0.378160 0.283653
O O3 0.588625 0.389484 0.322750
O O4 0.754465 0.380802 0.422688
O O5 0.888961 0.750000 0.222078
O O6 0.641606 0.818023 0.216788
O O7 0.828377 0.878160 0.283654
O O8 0.907712 0.867048 0.141160
O O9 0.048872 0.367048 0.858840
O O10 0.604072 0.500000 0.659490
O O11 0.677153 0.619198 0.577312
O O12 0.718843 0.910186 0.062314
O O13 0.483380 0.000000 0.089109
O O14 0.500000 0.886003 0.000000
O O15 0.500000 0.431790 0.500000
O O16 0.751016 0.500000 0.500000
O O17 0.427512 0.500000 0.089109
O O18 0.500000 0.386003 0.000000
#
# Coordination Sequence:
#
# PCOD8115155 Si02
#       7
#     8   8   8   8   8   8   8
#     4   9  17  32  56  82 106 135 172 213 259 311
#     4  11  23  37  52  74 107 142 177 216 258 305
#     4  11  23  37  52  74 107 142 177 216 258 305
#     4   9  17  32  56  82 106 135 172 213 259 311
#     4   9  19  36  57  79 102 130 166 210 258 307
#     4   7  12  26  50  79 106 131 165 211 258 305
#     4   9  19  36  57  79 102 130 166 210 258 307
#
# _framework density 18.630398
#
# number of rings (size 3 to 8) (size 9 to 14) (size 15 to 20)
#    0.000    2.714    0.000    3.429    0.000    4.571 
#    0.000    7.143    0.000    2.571    0.000    0.000 
#    0.000    0.000    0.000    0.000    0.000    0.000 
#
# Total GULP energy -347033.088816 kJ/mol
# GULP energy per Si atom -12394.038886 kJ/mol
# Density = 1.858799 g / cm^3
# Si number density = 18.630398 Si / 1000 Ang^3
#
#
#
# Elastic Constant Matrix: (Units=GPa)
#
#
# Indices 1 2 3 4 5 6 
#
# 1 47.1681 25.0275 46.5271 0.0000 2.8830 0.0000
# 2 25.0275 55.9237 48.6030 0.0000 1.1177 0.0000
# 3 46.5271 48.6030 171.8624 0.0000 3.0288 0.0000
# 4 0.0000 0.0000 0.0000 -1.2331 0.0000 -1.0854
# 5 2.8830 1.1177 3.0288 0.0000 30.7314 0.0000
# 6 0.0000 0.0000 0.0000 -1.0854 0.0000 21.6563
#
#
#
# Elastic Compliance Matrix: (Units=1/GPa)
#
#
# Indices 1 2 3 4 5 6 
#
# 1 0.032151 -0.009035 -0.006112 0.000000 -0.002085 0.000000
# 2 -0.009035 0.026249 -0.004984 0.000000 0.000384 0.000000
# 3 -0.006112 -0.004984 0.008885 0.000000 -0.000121 0.000000
# 4 0.000000 0.000000 0.000000 -0.776687 0.000000 -0.038927
# 5 -0.002085 0.000384 -0.000121 0.000000 0.032734 0.000000
# 6 0.000000 0.000000 0.000000 -0.038927 0.000000 0.044225
#
#
# Mechanical properties :
#
#
# Convention : Reuss Voigt Hill
#
# Bulk Modulus (GPa) = 37.00581 57.25213 47.12897
# Shear Modulus (GPa) = -8.57377 20.55069 5.98846
#
# Velocity S-wave (km/s) = -2.14756 3.32486 1.79481
# Velocity P-wave (km/s) = 3.70903 6.74809 5.44489
#
# Compressibility (1/GPa) = 0.02702278
#
# Stress axis : x y z
#
# Youngs Moduli (GPa) = 31.10297 38.09703 112.54963
#
# Poissons Ratio (x) = 0.34420 0.68793
# Poissons Ratio (y) = 0.28101 0.56095
# Poissons Ratio (z) = 0.19011 0.18988
#
# Static dielectric constant tensor:
#      x y z
#    x 3.241720 0.000000 0.030210 
#    y 0.000000 3.200910 0.000000 
#    z 0.030210 0.000000 3.878910 
# 
# 
# High freq. dielectric constant tensor:
#      x y z
#    x 1.704920 0.000000 0.001970 
#    y 0.000000 1.697860 0.000000 
#    z 0.001970 0.000000 1.746380 
# 
# From -- ./inp_files/257050.got.cif
#   From: 2010.06.25/outbox.cif.g09.slc.cpg/sg12_129_cif.got.tgz:257050.got - 2010.06.28 00:19:55.
