data_PCOD8115002
_publ_section_title
;
Structure prediction by ZEFSAII (Michael W. Deem and Ramdas Pophale) SiO2 
 PCOD8115002
Probable space group: C 2/M
;
_chemical_formula_sum "Si O2"
_cell_formula_units_Z 56
_cell_length_a 16.325674
_cell_length_b 15.403067
_cell_length_c 19.969739
_cell_angle_alpha 90.000000
_cell_angle_beta 28.949679
_cell_angle_gamma 90.000000
_cell_volume 2430.709830
_symmetry_space_group_name_H-M "C 2/M"
_symmetry_group_IT_number 12
_symmetry_cell_setting 'monoclinic'
loop_
_space_group_symop_operation_xyz
x,y,z
-x,y,-z
-x,-y,-z
x,-y,z
1/2+x,1/2+y,z
1/2-x,1/2+y,-z
1/2-x,1/2-y,-z
1/2+x,1/2-y,z
loop_
_atom_site_type_symbol
_atom_site_label
_atom_site_fract_x
_atom_site_fract_y
_atom_site_fract_z
Si Si1 0.705306 0.721322 0.874038
Si Si2 0.361552 0.401502 0.202880
Si Si3 0.503887 0.161198 0.114403
Si Si4 0.298594 0.280045 0.357192
Si Si5 0.248085 0.402349 0.047568
Si Si6 0.528965 0.682911 0.632865
Si Si7 0.578613 0.500000 0.539365
Si Si8 0.286805 0.000000 0.264440
O O1 0.642247 0.654890 0.862044
O O2 0.811336 0.662255 0.850915
O O3 0.832411 0.795971 0.756880
O O4 0.547039 0.770894 0.023995
O O5 0.303274 0.500000 0.228709
O O6 0.249255 0.360032 0.342882
O O7 0.549788 0.399552 0.098755
O O8 0.377441 0.203985 0.257091
O O9 0.675964 0.130490 0.027951
O O10 0.398352 0.081210 0.160125
O O11 0.436018 0.305064 0.314198
O O12 0.127894 0.249201 0.514364
O O13 0.181262 0.500000 0.108990
O O14 0.584311 0.584975 0.580331
O O15 0.747410 0.500000 0.372367
O O16 0.399264 0.500000 0.631669
#
# Coordination Sequence:
#
# PCOD8115002 Si02
#       8
#     8   8   8   8   8   8   4   4
#     4  12  25  42  69 108 141 180 233 288 360 416
#     4  11  26  45  71 105 143 181 227 290 355 413
#     4  12  23  46  72 101 138 183 238 289 339 419
#     4  11  24  47  73 101 136 185 241 281 346 418
#     4  11  22  40  68 101 136 181 231 288 343 411
#     4  11  26  45  73 105 138 187 234 288 349 415
#     4  11  26  45  71 103 150 181 231 286 358 410
#     4  11  26  45  73 105 139 189 228 288 356 413
#
# _framework density 23.038537999999999
#
# number of rings (size 3 to 8) (size 9 to 14) (size 15 to 20)
#    0.000    0.714    5.000    2.143    3.000    2.286 
#    0.000    2.857    0.000    0.000    0.000    0.000 
#    0.000    0.000    0.000    0.000    0.000    0.000 
#
# Total GULP energy -347150.555785 kJ/mol
# GULP energy per Si atom -12398.234135 kJ/mol
# Density = 2.298610 g / cm^3
# Si number density = 23.038538 Si / 1000 Ang^3
#
#
#
# Elastic Constant Matrix: (Units=GPa)
#
#
# Indices 1 2 3 4 5 6 
#
# 1 90.7242 54.3070 31.2082 -0.0016 15.0362 -0.0030
# 2 54.3070 166.2274 39.0151 0.0003 17.0583 -0.0021
# 3 31.2082 39.0151 71.1140 0.0021 12.8161 -0.0032
# 4 -0.0016 0.0003 0.0021 30.5160 -0.0004 -0.5267
# 5 15.0362 17.0583 12.8161 -0.0004 34.5173 0.0017
# 6 -0.0030 -0.0021 -0.0032 -0.5267 0.0017 34.3187
#
#
#
# Elastic Compliance Matrix: (Units=1/GPa)
#
#
# Indices 1 2 3 4 5 6 
#
# 1 0.015152 -0.003663 -0.004047 0.000001 -0.003287 0.000001
# 2 -0.003663 0.007943 -0.002497 0.000000 -0.001402 0.000000
# 3 -0.004047 -0.002497 0.017863 -0.000001 -0.003635 0.000001
# 4 0.000001 0.000000 -0.000001 0.032778 0.000000 0.000503
# 5 -0.003287 -0.001402 -0.003635 0.000000 0.032446 -0.000002
# 6 0.000001 0.000000 0.000001 0.000503 -0.000002 0.029146
#
#
# Mechanical properties :
#
#
# Convention : Reuss Voigt Hill
#
# Bulk Modulus (GPa) = 48.67896 64.12515 56.40206
# Shear Modulus (GPa) = 30.75186 33.43941 32.09563
#
# Velocity S-wave (km/s) = 3.65746 3.81393 3.73651
# Velocity P-wave (km/s) = 6.24590 6.87670 6.56888
#
# Compressibility (1/GPa) = 0.02054276
#
# Stress axis : x y z
#
# Youngs Moduli (GPa) = 65.99727 125.90344 55.98034
#
# Poissons Ratio (x) = 0.46117 0.22658
# Poissons Ratio (y) = 0.24174 0.13980
# Poissons Ratio (z) = 0.26712 0.31442
#
# Static dielectric constant tensor:
#      x y z
#    x 4.188720 -0.000010 0.114530 
#    y -0.000010 4.540990 0.000030 
#    z 0.114530 0.000030 3.964400 
# 
# 
# High freq. dielectric constant tensor:
#      x y z
#    x 1.916560 0.000000 0.004010 
#    y 0.000000 1.927980 0.000000 
#    z 0.004010 0.000000 1.896750 
# 
# From -- ./inp_files/316734.got.cif
#   From: 2010.06.25/outbox.cif.g09.slc.cpg/sg12_159_cif.got.tgz:316734.got - 2010.06.28 00:19:55.
