data_PCOD8115013
_publ_section_title
;
Structure prediction by ZEFSAII (Michael W. Deem and Ramdas Pophale) SiO2 
 PCOD8115013
Probable space group: C 2/M
;
_chemical_formula_sum "Si O2"
_cell_formula_units_Z 48
_cell_length_a 16.927092
_cell_length_b 14.599993
_cell_length_c 12.032324
_cell_angle_alpha 90.000000
_cell_angle_beta 132.539575
_cell_angle_gamma 90.000000
_cell_volume 2190.989715
_symmetry_space_group_name_H-M "C 2/M"
_symmetry_group_IT_number 12
_symmetry_cell_setting 'monoclinic'
loop_
_space_group_symop_operation_xyz
x,y,z
-x,y,-z
-x,-y,-z
x,-y,z
1/2+x,1/2+y,z
1/2-x,1/2+y,-z
1/2-x,1/2-y,-z
1/2+x,1/2-y,z
loop_
_atom_site_type_symbol
_atom_site_label
_atom_site_fract_x
_atom_site_fract_y
_atom_site_fract_z
Si Si1 0.905699 0.597434 0.236269
Si Si2 0.746408 0.339369 0.921645
Si Si3 0.876613 0.255841 0.850629
Si Si4 0.274635 0.105532 0.330442
Si Si5 0.493355 0.394675 0.363879
Si Si6 0.401446 0.222238 0.624999
O O1 0.968435 0.500000 0.296329
O O2 0.862080 0.614885 0.317678
O O3 0.981397 0.680317 0.278397
O O4 0.812159 0.586556 0.055555
O O5 0.804652 0.321355 0.859432
O O6 0.626782 0.374945 0.791229
O O7 0.750000 0.250000 0.000000
O O8 0.835937 0.150313 0.818939
O O9 0.861924 0.292860 0.712184
O O10 0.000000 0.258162 0.000000
O O11 0.314207 0.169369 0.468888
O O12 0.255730 0.000000 0.347595
O O13 0.500000 0.373846 0.500000
O O14 0.523364 0.500000 0.365422
O O15 0.581586 0.329896 0.387494
#
# Coordination Sequence:
#
# PCOD8115013 Si02
#       6
#     8   8   8   8   8   8
#     4  11  22  40  70  98 127 171 220 270 321 386
#     4  12  21  44  67  93 132 172 219 265 322 387
#     4  12  24  42  66  95 130 182 215 264 334 386
#     4  11  25  43  68  99 130 174 222 269 324 387
#     4  11  24  42  69 100 131 174 223 268 322 389
#     4  12  23  43  67  98 138 167 214 271 333 391
#
# _framework density 21.907907000000002
#
# number of rings (size 3 to 8) (size 9 to 14) (size 15 to 20)
#    0.000    0.500    5.000    4.000    0.000    2.333 
#    0.000    5.833    0.000    0.000    0.000    0.000 
#    0.000    0.000    0.000    0.000    0.000    0.000 
#
# Total GULP energy -297576.148709 kJ/mol
# GULP energy per Si atom -12399.006196 kJ/mol
# Density = 2.185804 g / cm^3
# Si number density = 21.907907 Si / 1000 Ang^3
#
#
#
# Elastic Constant Matrix: (Units=GPa)
#
#
# Indices 1 2 3 4 5 6 
#
# 1 65.5664 22.1532 9.6105 0.0000 -23.2068 0.0000
# 2 22.1532 106.8417 18.8138 0.0000 -10.6072 0.0000
# 3 9.6105 18.8138 83.4719 0.0000 -13.3849 0.0000
# 4 0.0000 0.0000 0.0000 577.2398 0.0000 179.6330
# 5 -23.2068 -10.6072 -13.3849 0.0000 44.7035 0.0000
# 6 0.0000 0.0000 0.0000 179.6330 0.0000 77.6764
#
#
#
# Elastic Compliance Matrix: (Units=1/GPa)
#
#
# Indices 1 2 3 4 5 6 
#
# 1 0.019661 -0.003131 -0.000043 0.000000 0.009451 0.000000
# 2 -0.003131 0.010375 -0.001937 0.000000 0.000257 0.000000
# 3 -0.000043 -0.001937 0.012967 0.000000 0.003401 0.000000
# 4 0.000000 0.000000 0.000000 0.006180 0.000000 -0.014291
# 5 0.009451 0.000257 0.003401 0.000000 0.028355 0.000000
# 6 0.000000 0.000000 0.000000 -0.014291 0.000000 0.045922
#
#
# Mechanical properties :
#
#
# Convention : Reuss Voigt Hill
#
# Bulk Modulus (GPa) = 30.50401 39.67055 35.08728
# Shear Modulus (GPa) = 34.57623 153.61078 94.09351
#
# Velocity S-wave (km/s) = 3.97703 8.38265 6.56070
# Velocity P-wave (km/s) = 5.91972 10.57539 8.56977
#
# Compressibility (1/GPa) = 0.03278257
#
# Stress axis : x y z
#
# Youngs Moduli (GPa) = 50.86257 96.38229 77.11967
#
# Poissons Ratio (x) = 0.30176 0.00328
# Poissons Ratio (y) = 0.15924 0.14937
# Poissons Ratio (z) = 0.00216 0.18668
#
# Static dielectric constant tensor:
#      x y z
#    x 3.958380 0.000000 -0.048030 
#    y 0.000000 4.202800 0.000000 
#    z -0.048030 0.000000 4.663380 
# 
# 
# High freq. dielectric constant tensor:
#      x y z
#    x 1.858630 0.000000 -0.002390 
#    y 0.000000 1.864110 0.000000 
#    z -0.002390 0.000000 1.880100 
# 
# From -- ./inp_files/143854.got.cif
#   From: 2010.06.25/outbox.cif.g09.slc.cpg/sg12_72_cif.got.tgz:143854.got - 2010.06.28 00:19:55.
