data_PCOD8115878
_publ_section_title
;
Structure prediction by ZEFSAII (Michael W. Deem and Ramdas Pophale) SiO2 
 PCOD8115878
Probable space group: C 2/M
;
_chemical_formula_sum "Si O2"
_cell_formula_units_Z 48
_cell_length_a 13.937394
_cell_length_b 28.475238
_cell_length_c 10.959263
_cell_angle_alpha 90.000000
_cell_angle_beta 29.821557
_cell_angle_gamma 90.000000
_cell_volume 2162.963100
_symmetry_space_group_name_H-M "C 2/M"
_symmetry_group_IT_number 12
_symmetry_cell_setting 'monoclinic'
loop_
_space_group_symop_operation_xyz
x,y,z
-x,y,-z
-x,-y,-z
x,-y,z
1/2+x,1/2+y,z
1/2-x,1/2+y,-z
1/2-x,1/2-y,-z
1/2+x,1/2-y,z
loop_
_atom_site_type_symbol
_atom_site_label
_atom_site_fract_x
_atom_site_fract_y
_atom_site_fract_z
Si Si1 0.022317 0.447379 0.778585
Si Si2 0.762528 0.803757 0.517541
Si Si3 0.308552 0.552345 0.659245
Si Si4 0.226879 0.800685 0.224263
Si Si5 0.418154 0.854257 0.797441
Si Si6 0.124232 0.197078 0.982030
O O1 0.058474 0.500000 0.684357
O O2 0.213410 0.426853 0.639289
O O3 0.957111 0.410339 0.747326
O O4 0.850635 0.450528 0.062755
O O5 0.750000 0.750000 0.500000
O O6 0.685219 0.813594 0.739599
O O7 0.627118 0.830155 0.570388
O O8 0.988193 0.815724 0.248245
O O9 0.500000 0.579836 0.500000
O O10 0.375417 0.500000 0.548743
O O11 0.306684 0.750835 0.088624
O O12 0.000000 0.797448 0.500000
O O13 0.293919 0.840507 0.055577
O O14 0.308041 0.837402 0.796293
O O15 0.000000 0.185429 0.000000
#
# Coordination Sequence:
#
# PCOD8115878 Si02
#       6
#     8   8   8   8   8   8
#     4   9  20  36  55  85 124 160 201 248 298 363
#     4  12  23  41  60  90 125 163 200 248 307 369
#     4   8  15  30  54  79 113 159 193 233 294 355
#     4  12  23  39  64  90 130 165 198 253 305 368
#     4  12  25  38  61  92 124 167 207 248 309 367
#     4  12  25  42  62  87 123 161 212 256 305 364
#
# _framework density 22.191779
#
# number of rings (size 3 to 8) (size 9 to 14) (size 15 to 20)
#    0.000    1.167    5.000    3.000    4.667    2.000 
#    0.000    0.000    0.000    0.500    0.000    1.167 
#    0.000    0.000    0.000    0.000    0.000    0.000 
#
# Total GULP energy -297360.311742 kJ/mol
# GULP energy per Si atom -12390.012989 kJ/mol
# Density = 2.214127 g / cm^3
# Si number density = 22.191779 Si / 1000 Ang^3
#
#
#
# Elastic Constant Matrix: (Units=GPa)
#
#
# Indices 1 2 3 4 5 6 
#
# 1 84.6824 50.7649 3.7337 0.0002 -26.3569 -0.0002
# 2 50.7649 121.9037 11.3020 0.0001 -17.7976 0.0000
# 3 3.7337 11.3020 74.9765 -0.0002 -23.9875 0.0000
# 4 0.0002 0.0001 -0.0002 13.0930 0.0001 -7.0461
# 5 -26.3569 -17.7976 -23.9875 0.0001 39.1931 0.0001
# 6 -0.0002 0.0000 0.0000 -7.0461 0.0001 24.4795
#
#
#
# Elastic Compliance Matrix: (Units=1/GPa)
#
#
# Indices 1 2 3 4 5 6 
#
# 1 0.019559 -0.006681 0.004067 0.000000 0.012608 0.000000
# 2 -0.006681 0.011068 -0.001449 0.000000 -0.000354 0.000000
# 3 0.004067 -0.001449 0.017431 0.000000 0.012745 0.000000
# 4 0.000000 0.000000 0.000000 0.090376 -0.000001 0.026014
# 5 0.012608 -0.000354 0.012745 -0.000001 0.041634 0.000000
# 6 0.000000 0.000000 0.000000 0.026014 0.000000 0.048338
#
#
# Mechanical properties :
#
#
# Convention : Reuss Voigt Hill
#
# Bulk Modulus (GPa) = 25.04265 45.90710 35.47488
# Shear Modulus (GPa) = 20.01248 29.73725 24.87487
#
# Velocity S-wave (km/s) = 3.00625 3.66459 3.35162
# Velocity P-wave (km/s) = 4.83314 6.21587 5.56760
#
# Compressibility (1/GPa) = 0.03993187
#
# Stress axis : x y z
#
# Youngs Moduli (GPa) = 51.12712 90.34882 57.36873
#
# Poissons Ratio (x) = 0.60365 -0.23332
# Poissons Ratio (y) = 0.34160 0.08312
# Poissons Ratio (z) = -0.20793 0.13091
#
# Static dielectric constant tensor:
#      x y z
#    x 4.001680 0.000000 -0.799190 
#    y 0.000000 3.334060 0.000000 
#    z -0.799190 0.000000 4.118330 
# 
# 
# High freq. dielectric constant tensor:
#      x y z
#    x 1.869130 0.000000 -0.040080 
#    y 0.000000 1.845270 0.000000 
#    z -0.040080 0.000000 1.868210 
# 
# From -- ./inp_files/149635.got.cif
#   From: 2010.06.25/outbox.cif.g09.slc.cpg/sg12_75_cif.got.tgz:149635.got - 2010.06.28 00:19:55.
