data_PCOD8115281
_publ_section_title
;
Structure prediction by ZEFSAII (Michael W. Deem and Ramdas Pophale) SiO2 
 PCOD8115281
Probable space group: C 2/M
;
_chemical_formula_sum "Si O2"
_cell_formula_units_Z 56
_cell_length_a 14.466472
_cell_length_b 8.569768
_cell_length_c 29.507936
_cell_angle_alpha 90.000000
_cell_angle_beta 52.926208
_cell_angle_gamma 90.000000
_cell_volume 2918.751303
_symmetry_space_group_name_H-M "C 2/M"
_symmetry_group_IT_number 12
_symmetry_cell_setting 'monoclinic'
loop_
_space_group_symop_operation_xyz
x,y,z
-x,y,-z
-x,-y,-z
x,-y,z
1/2+x,1/2+y,z
1/2-x,1/2+y,-z
1/2-x,1/2-y,-z
1/2+x,1/2-y,z
loop_
_atom_site_type_symbol
_atom_site_label
_atom_site_fract_x
_atom_site_fract_y
_atom_site_fract_z
Si Si1 0.951859 0.181658 0.242618
Si Si2 0.802166 0.320497 0.364259
Si Si3 0.642468 0.682196 0.558965
Si Si4 0.826394 0.814979 0.937336
Si Si5 0.942015 0.318565 0.564672
Si Si6 0.414614 0.319485 0.149711
Si Si7 0.209721 0.816318 0.151484
O O1 0.877184 0.287552 0.297806
O O2 0.903549 0.211573 0.206458
O O3 0.085247 0.238544 0.207688
O O4 0.939083 0.000000 0.259253
O O5 0.817224 0.500000 0.374285
O O6 0.841671 0.205884 0.392479
O O7 0.668767 0.287049 0.393105
O O8 0.628657 0.500000 0.551907
O O9 0.750000 0.750000 0.500000
O O10 0.529806 0.779045 0.578711
O O11 0.776067 0.751401 0.904167
O O12 0.959571 0.759241 0.904234
O O13 0.822737 0.000000 0.939068
O O14 0.750000 0.750000 0.000000
O O15 0.907502 0.500000 0.575813
O O16 0.000000 0.272057 0.500000
O O17 0.400090 0.500000 0.142752
O O18 0.313801 0.231796 0.153002
O O19 0.205881 0.000000 0.149217
#
# Coordination Sequence:
#
# PCOD8115281 Si02
#       7
#     8   8   8   8   8   8   8
#     4   9  20  40  59  78 111 150 188 236 288 339
#     4  12  25  40  61  89 119 152 191 236 289 350
#     4  12  24  40  62  87 116 150 188 231 282 342
#     4   9  19  35  53  80 116 153 190 230 280 334
#     4  11  23  40  63  87 114 150 189 231 282 340
#     4   9  19  36  58  81 110 149 190 235 286 336
#     4   9  19  36  58  81 110 149 191 235 285 336
#
# _framework density 19.186288000000001
#
# number of rings (size 3 to 8) (size 9 to 14) (size 15 to 20)
#    0.000    1.857    1.429    4.714    0.000    4.571 
#    0.000    8.571    0.000    0.000    0.000    0.000 
#    0.000    0.000    0.000    0.000    0.000    0.000 
#
# Total GULP energy -347227.662727 kJ/mol
# GULP energy per Si atom -12400.987955 kJ/mol
# Density = 1.914262 g / cm^3
# Si number density = 19.186288 Si / 1000 Ang^3
#
#
#
# Elastic Constant Matrix: (Units=GPa)
#
#
# Indices 1 2 3 4 5 6 
#
# 1 119.1603 9.7108 48.0925 0.0000 -8.9064 0.0000
# 2 9.7108 54.2431 32.0238 0.0000 -4.0628 0.0000
# 3 48.0925 32.0238 131.9564 0.0000 -7.2257 0.0000
# 4 0.0000 0.0000 0.0000 29.5681 0.0000 0.0182
# 5 -8.9064 -4.0628 -7.2257 0.0000 20.6020 0.0000
# 6 0.0000 0.0000 0.0000 0.0182 0.0000 35.5858
#
#
#
# Elastic Compliance Matrix: (Units=1/GPa)
#
#
# Indices 1 2 3 4 5 6 
#
# 1 0.010047 0.000582 -0.003629 0.000000 0.003186 0.000000
# 2 0.000582 0.021675 -0.005327 0.000000 0.002658 0.000000
# 3 -0.003629 -0.005327 0.010247 0.000000 0.000975 0.000000
# 4 0.000000 0.000000 0.000000 0.033820 0.000000 -0.000017
# 5 0.003186 0.002658 0.000975 0.000000 0.050782 0.000000
# 6 0.000000 0.000000 0.000000 -0.000017 0.000000 0.028101
#
#
# Mechanical properties :
#
#
# Convention : Reuss Voigt Hill
#
# Bulk Modulus (GPa) = 39.64691 53.89043 46.76867
# Shear Modulus (GPa) = 27.80450 31.52003 29.66227
#
# Velocity S-wave (km/s) = 3.81095 4.05760 3.93620
# Velocity P-wave (km/s) = 6.33036 7.07821 6.71471
#
# Compressibility (1/GPa) = 0.02522265
#
# Stress axis : x y z
#
# Youngs Moduli (GPa) = 99.53006 46.13560 97.59083
#
# Poissons Ratio (x) = -0.02686 0.35412
# Poissons Ratio (y) = -0.05794 0.51985
# Poissons Ratio (z) = 0.36116 0.24576
#
# Static dielectric constant tensor:
#      x y z
#    x 3.467510 0.000000 -0.485330 
#    y 0.000000 3.521200 0.000000 
#    z -0.485330 0.000000 2.629070 
# 
# 
# High freq. dielectric constant tensor:
#      x y z
#    x 1.755510 0.000000 -0.001820 
#    y 0.000000 1.741360 0.000000 
#    z -0.001820 0.000000 1.747240 
# 
# From -- ./inp_files/338168.got.cif
#   From: 2010.06.25/outbox.cif.g09.slc.cpg/sg12_170_cif.got.tgz:338168.got - 2010.06.28 00:19:55.
