data_PCOD8115975
_publ_section_title
;
Structure prediction by ZEFSAII (Michael W. Deem and Ramdas Pophale) SiO2 
 PCOD8115975
Probable space group: C 2/M
;
_chemical_formula_sum "Si O2"
_cell_formula_units_Z 56
_cell_length_a 23.553517
_cell_length_b 9.762876
_cell_length_c 19.031350
_cell_angle_alpha 90.000000
_cell_angle_beta 51.477815
_cell_angle_gamma 90.000000
_cell_volume 3423.841814
_symmetry_space_group_name_H-M "C 2/M"
_symmetry_group_IT_number 12
_symmetry_cell_setting 'monoclinic'
loop_
_space_group_symop_operation_xyz
x,y,z
-x,y,-z
-x,-y,-z
x,-y,z
1/2+x,1/2+y,z
1/2-x,1/2+y,-z
1/2-x,1/2-y,-z
1/2+x,1/2-y,z
loop_
_atom_site_type_symbol
_atom_site_label
_atom_site_fract_x
_atom_site_fract_y
_atom_site_fract_z
Si Si1 0.373240 0.336998 0.530865
Si Si2 0.999121 0.161555 0.334615
Si Si3 0.202722 0.347228 0.814927
Si Si4 0.214349 0.652300 0.639205
Si Si5 0.927436 0.159272 0.095553
Si Si6 0.085027 0.158664 0.733573
Si Si7 0.861403 0.836766 0.696684
O O1 0.377145 0.500000 0.530348
O O2 0.437251 0.275361 0.433354
O O3 0.295245 0.294982 0.557465
O O4 0.381105 0.278655 0.604047
O O5 0.981297 0.198108 0.267316
O O6 0.078337 0.220130 0.294920
O O7 0.999925 0.000000 0.345281
O O8 0.185557 0.500000 0.857372
O O9 0.209033 0.353012 0.726860
O O10 0.138837 0.244373 0.887036
O O11 0.280511 0.291078 0.783830
O O12 0.199578 0.500000 0.620074
O O13 0.155370 0.757114 0.654318
O O14 0.938878 0.193970 0.168895
O O15 0.910044 0.000000 0.097277
O O16 0.000000 0.204437 0.000000
O O17 0.105942 0.000000 0.709458
O O18 0.861217 0.000000 0.693393
#
# Coordination Sequence:
#
# PCOD8115975 Si02
#       7
#     8   8   8   8   8   8   8
#     4   8  13  21  35  56  79 104 134 162 189 223
#     4   9  15  22  35  56  81 106 131 162 193 221
#     4   8  14  25  42  63  81  98 125 159 193 228
#     4   8  14  25  39  55  79 107 130 156 191 230
#     4   9  17  29  44  60  78 101 128 158 194 236
#     4   9  17  27  39  58  80 101 129 162 196 232
#     4   8  13  22  37  57  81 106 130 157 190 226
#
# _framework density 16.355895
#
# number of rings (size 3 to 8) (size 9 to 14) (size 15 to 20)
#    0.000    3.571    0.000    2.143    0.000    2.571 
#    0.000    0.000    0.000    1.714    0.000    0.000 
#    0.000    8.000    0.000    0.000    0.000    0.000 
#
# Total GULP energy -346945.244549 kJ/mol
# GULP energy per Si atom -12390.901591 kJ/mol
# Density = 1.631867 g / cm^3
# Si number density = 16.355895 Si / 1000 Ang^3
#
#
#
# Elastic Constant Matrix: (Units=GPa)
#
#
# Indices 1 2 3 4 5 6 
#
# 1 136.1508 38.0139 61.3838 0.0000 -23.5589 0.0000
# 2 38.0139 35.2391 29.4379 0.0000 -12.0766 0.0000
# 3 61.3838 29.4379 80.0616 0.0000 -26.7730 0.0000
# 4 0.0000 0.0000 0.0000 11.9561 0.0000 -5.5481
# 5 -23.5589 -12.0766 -26.7730 0.0000 24.9746 0.0000
# 6 0.0000 0.0000 0.0000 -5.5481 0.0000 16.4070
#
#
#
# Elastic Compliance Matrix: (Units=1/GPa)
#
#
# Indices 1 2 3 4 5 6 
#
# 1 0.012634 -0.007873 -0.006359 0.000000 0.001294 0.000000
# 2 -0.007873 0.046393 -0.009358 0.000000 0.004974 0.000000
# 3 -0.006359 -0.009358 0.026948 0.000000 0.018365 0.000000
# 4 0.000000 0.000000 0.000000 0.099206 0.000000 0.033547
# 5 0.001294 0.004974 0.018365 0.000000 0.063354 0.000000
# 6 0.000000 0.000000 0.000000 0.033547 0.000000 0.072294
#
#
# Mechanical properties :
#
#
# Convention : Reuss Voigt Hill
#
# Bulk Modulus (GPa) = 25.77711 56.56919 41.17315
# Shear Modulus (GPa) = 13.12539 18.84195 15.98367
#
# Velocity S-wave (km/s) = 2.83589 3.39779 3.12948
# Velocity P-wave (km/s) = 5.14950 7.07494 6.18758
#
# Compressibility (1/GPa) = 0.03879411
#
# Stress axis : x y z
#
# Youngs Moduli (GPa) = 79.15265 21.55483 37.10841
#
# Poissons Ratio (x) = 0.16970 0.23597
# Poissons Ratio (y) = 0.62318 0.34728
# Poissons Ratio (z) = 0.50332 0.20172
#
# Static dielectric constant tensor:
#      x y z
#    x 3.414790 0.000000 -0.269560 
#    y 0.000000 2.816490 0.000000 
#    z -0.269560 0.000000 2.992230 
# 
# 
# High freq. dielectric constant tensor:
#      x y z
#    x 1.629540 0.000000 -0.017370 
#    y 0.000000 1.581600 0.000000 
#    z -0.017370 0.000000 1.605200 
# 
# From -- ./inp_files/282619.got.cif
#   From: 2010.06.25/outbox.cif.g09.slc.cpg/sg12_142_cif.got.tgz:282619.got - 2010.06.28 00:19:55.
