data_PCOD8115409
_publ_section_title
;
Structure prediction by ZEFSAII (Michael W. Deem and Ramdas Pophale) SiO2 
 PCOD8115409
Probable space group: C 2/M
;
_chemical_formula_sum "Si O2"
_cell_formula_units_Z 64
_cell_length_a 16.729143
_cell_length_b 14.782447
_cell_length_c 17.483410
_cell_angle_alpha 90.000000
_cell_angle_beta 41.535346
_cell_angle_gamma 90.000000
_cell_volume 2866.905489
_symmetry_space_group_name_H-M "C 2/M"
_symmetry_group_IT_number 12
_symmetry_cell_setting 'monoclinic'
loop_
_space_group_symop_operation_xyz
x,y,z
-x,y,-z
-x,-y,-z
x,-y,z
1/2+x,1/2+y,z
1/2-x,1/2+y,-z
1/2-x,1/2-y,-z
1/2+x,1/2-y,z
loop_
_atom_site_type_symbol
_atom_site_label
_atom_site_fract_x
_atom_site_fract_y
_atom_site_fract_z
Si Si1 0.317313 0.732306 0.234308
Si Si2 0.983156 0.102939 0.362449
Si Si3 0.773247 0.645727 0.991638
Si Si4 0.239325 0.679360 0.575165
Si Si5 0.993821 0.101197 0.829642
Si Si6 0.360377 0.902437 0.098855
Si Si7 0.491442 0.897873 0.722961
Si Si8 0.431339 0.221169 0.628005
O O1 0.245721 0.759248 0.361528
O O2 0.434498 0.669202 0.164450
O O3 0.348109 0.822082 0.167035
O O4 0.206342 0.682556 0.270743
O O5 0.847608 0.107830 0.491265
O O6 0.983664 0.133501 0.273152
O O7 0.068432 0.171533 0.348946
O O8 0.030900 0.000000 0.337079
O O9 0.882037 0.617271 0.859250
O O10 0.750000 0.750000 0.000000
O O11 0.649413 0.599017 0.051944
O O12 0.805163 0.621849 0.055689
O O13 0.250000 0.750000 0.500000
O O14 0.116461 0.623639 0.675434
O O15 0.044783 0.000000 0.806642
O O16 0.300796 0.000000 0.165586
O O17 0.500000 0.920743 0.000000
O O18 0.498965 0.833391 0.644797
O O19 0.488719 0.000000 0.695464
O O20 0.500000 0.203825 0.500000
#
# Coordination Sequence:
#
# PCOD8115409 Si02
#       8
#     8   8   8   8   8   8   8   8
#     4  12  24  41  68  96 136 180 224 281 356 412
#     4  11  23  42  69 100 136 183 233 284 349 423
#     4  12  24  46  74 100 140 186 235 288 347 417
#     4  12  21  43  68  96 140 181 232 286 336 411
#     4  11  24  43  70 102 136 184 237 286 337 409
#     4  11  24  41  65 101 140 174 220 284 350 414
#     4  12  26  44  72 102 133 184 236 280 338 414
#     4  12  25  45  64  97 141 176 221 290 350 418
#
# _framework density 22.323723000000001
#
# number of rings (size 3 to 8) (size 9 to 14) (size 15 to 20)
#    0.000    0.375    3.750    6.000    0.000    4.500 
#    0.000    0.000    0.000    4.125    0.000    0.000 
#    0.000    0.000    0.000    0.000    0.000    0.000 
#
# Total GULP energy -396626.411437 kJ/mol
# GULP energy per Si atom -12394.575357 kJ/mol
# Density = 2.227291 g / cm^3
# Si number density = 22.323723 Si / 1000 Ang^3
#
#
#
# Elastic Constant Matrix: (Units=GPa)
#
#
# Indices 1 2 3 4 5 6 
#
# 1 113.5845 38.8963 39.7977 0.0000 -21.5603 0.0000
# 2 38.8963 112.4310 32.9264 0.0000 4.2052 0.0000
# 3 39.7977 32.9264 102.3261 0.0000 -12.6781 0.0000
# 4 0.0000 0.0000 0.0000 28.6584 0.0000 -2.6953
# 5 -21.5603 4.2052 -12.6781 0.0000 48.2346 0.0000
# 6 0.0000 0.0000 0.0000 -2.6953 0.0000 18.8441
#
#
#
# Elastic Compliance Matrix: (Units=1/GPa)
#
#
# Indices 1 2 3 4 5 6 
#
# 1 0.011937 -0.003454 -0.002928 0.000000 0.004867 0.000000
# 2 -0.003454 0.010963 -0.002578 0.000000 -0.003177 0.000000
# 3 -0.002928 -0.002578 0.011997 0.000000 0.002069 0.000000
# 4 0.000000 0.000000 0.000000 0.035370 0.000000 0.005059
# 5 0.004867 -0.003177 0.002069 0.000000 0.023728 0.000000
# 6 0.000000 0.000000 0.000000 0.005059 0.000000 0.053791
#
#
# Mechanical properties :
#
#
# Convention : Reuss Voigt Hill
#
# Bulk Modulus (GPa) = 58.90333 61.28692 60.09513
# Shear Modulus (GPa) = 29.17748 33.59551 31.38650
#
# Velocity S-wave (km/s) = 3.61919 3.88354 3.75370
# Velocity P-wave (km/s) = 6.62631 6.90091 6.76500
#
# Compressibility (1/GPa) = 0.01697697
#
# Stress axis : x y z
#
# Youngs Moduli (GPa) = 83.77575 91.21476 83.35138
#
# Poissons Ratio (x) = 0.31507 0.24405
# Poissons Ratio (y) = 0.28937 0.21488
# Poissons Ratio (z) = 0.24530 0.23515
#
# Static dielectric constant tensor:
#      x y z
#    x 4.405700 0.000000 0.265260 
#    y 0.000000 5.732410 0.000000 
#    z 0.265260 0.000000 4.709760 
# 
# 
# High freq. dielectric constant tensor:
#      x y z
#    x 1.889000 0.000000 -0.013630 
#    y 0.000000 1.881540 0.000000 
#    z -0.013630 0.000000 1.886620 
# 
# From -- ./inp_files/278122.got.cif
#   From: 2010.06.25/outbox.cif.g09.slc.cpg/sg12_140_cif.got.tgz:278122.got - 2010.06.28 00:19:55.
