data_PCOD8115066
_publ_section_title
;
Structure prediction by ZEFSAII (Michael W. Deem and Ramdas Pophale) SiO2 
 PCOD8115066
Probable space group: C 2/M
;
_chemical_formula_sum "Si O2"
_cell_formula_units_Z 48
_cell_length_a 16.623351
_cell_length_b 19.501055
_cell_length_c 12.944923
_cell_angle_alpha 90.000000
_cell_angle_beta 146.688410
_cell_angle_gamma 90.000000
_cell_volume 2304.624947
_symmetry_space_group_name_H-M "C 2/M"
_symmetry_group_IT_number 12
_symmetry_cell_setting 'monoclinic'
loop_
_space_group_symop_operation_xyz
x,y,z
-x,y,-z
-x,-y,-z
x,-y,z
1/2+x,1/2+y,z
1/2-x,1/2+y,-z
1/2-x,1/2-y,-z
1/2+x,1/2-y,z
loop_
_atom_site_type_symbol
_atom_site_label
_atom_site_fract_x
_atom_site_fract_y
_atom_site_fract_z
Si Si1 0.165550 0.923885 0.551016
Si Si2 0.718830 0.675458 0.010958
Si Si3 0.673871 0.158390 0.444766
Si Si4 0.178565 0.075893 0.790923
Si Si5 0.444406 0.727660 0.822710
Si Si6 0.051672 0.576712 0.670275
O O1 0.213257 0.871345 0.516410
O O2 0.225494 0.899393 0.726892
O O3 0.993022 0.924578 0.375253
O O4 0.223575 0.000000 0.586992
O O5 0.832315 0.639827 0.211301
O O6 0.750000 0.750000 0.000000
O O7 0.747960 0.627239 0.944805
O O8 0.561069 0.674582 0.897543
O O9 0.560913 0.206694 0.259965
O O10 0.778438 0.196756 0.641595
O O11 0.583731 0.098572 0.402462
O O12 0.241988 0.000000 0.877434
O O13 0.500000 0.744600 0.000000
O O14 0.108329 0.500000 0.766516
O O15 0.000000 0.568185 0.500000
#
# Coordination Sequence:
#
# PCOD8115066 Si02
#       6
#     8   8   8   8   8   8
#     4   9  18  35  62  91 121 155 202 254 312 374
#     4  12  23  42  62  92 127 170 213 259 316 385
#     4  11  22  42  65  92 128 168 210 270 318 375
#     4   9  19  37  61  92 123 161 205 253 310 375
#     4  11  25  42  61  91 130 168 216 263 318 383
#     4  11  25  45  67  94 129 170 215 266 325 385
#
# _framework density 20.827683
#
# number of rings (size 3 to 8) (size 9 to 14) (size 15 to 20)
#    0.000    1.500    3.333    3.000    2.333    0.000 
#    3.000    0.000    0.000    8.000    0.000    0.000 
#    0.000    0.000    0.000    0.000    0.000    0.000 
#
# Total GULP energy -297320.559278 kJ/mol
# GULP energy per Si atom -12388.356637 kJ/mol
# Density = 2.078028 g / cm^3
# Si number density = 20.827683 Si / 1000 Ang^3
#
#
#
# Elastic Constant Matrix: (Units=GPa)
#
#
# Indices 1 2 3 4 5 6 
#
# 1 78.3630 36.5709 30.6523 0.0000 -6.7932 0.0000
# 2 36.5709 100.3651 32.2173 0.0000 -3.5765 0.0000
# 3 30.6523 32.2173 100.0676 0.0000 -13.2069 0.0000
# 4 0.0000 0.0000 0.0000 35.9855 0.0000 -0.0560
# 5 -6.7932 -3.5765 -13.2069 0.0000 31.5093 0.0000
# 6 0.0000 0.0000 0.0000 -0.0560 0.0000 22.9596
#
#
#
# Elastic Compliance Matrix: (Units=1/GPa)
#
#
# Indices 1 2 3 4 5 6 
#
# 1 0.016459 -0.004896 -0.003250 0.000000 0.001630 0.000000
# 2 -0.004896 0.012570 -0.002645 0.000000 -0.000737 0.000000
# 3 -0.003250 -0.002645 0.012394 0.000000 0.004194 0.000000
# 4 0.000000 0.000000 0.000000 0.027789 0.000000 0.000068
# 5 0.001630 -0.000737 0.004194 0.000000 0.033762 0.000000
# 6 0.000000 0.000000 0.000000 0.000068 0.000000 0.043555
#
#
# Mechanical properties :
#
#
# Convention : Reuss Voigt Hill
#
# Bulk Modulus (GPa) = 50.39965 53.07518 51.73741
# Shear Modulus (GPa) = 28.61657 30.04788 29.33223
#
# Velocity S-wave (km/s) = 3.71073 3.80240 3.75684
# Velocity P-wave (km/s) = 6.52765 6.69447 6.61159
#
# Compressibility (1/GPa) = 0.01984141
#
# Stress axis : x y z
#
# Youngs Moduli (GPa) = 60.75865 79.55311 80.68564
#
# Poissons Ratio (x) = 0.38947 0.26224
# Poissons Ratio (y) = 0.29746 0.21339
# Poissons Ratio (z) = 0.19747 0.21039
#
# Static dielectric constant tensor:
#      x y z
#    x 3.830090 0.000000 -0.343860 
#    y 0.000000 3.885350 0.000000 
#    z -0.343860 0.000000 4.255670 
# 
# 
# High freq. dielectric constant tensor:
#      x y z
#    x 1.813010 0.000000 -0.007870 
#    y 0.000000 1.818740 0.000000 
#    z -0.007870 0.000000 1.816260 
# 
# From -- ./inp_files/148029.got.cif
#   From: 2010.06.25/outbox.cif.g09.slc.cpg/sg12_75_cif.got.tgz:148029.got - 2010.06.28 00:19:55.
