data_PCOD8115552
_publ_section_title
;
Structure prediction by ZEFSAII (Michael W. Deem and Ramdas Pophale) SiO2 
 PCOD8115552
Probable space group: C 2/M
;
_chemical_formula_sum "Si O2"
_cell_formula_units_Z 40
_cell_length_a 11.827601
_cell_length_b 27.464316
_cell_length_c 9.169261
_cell_angle_alpha 90.000000
_cell_angle_beta 141.455143
_cell_angle_gamma 90.000000
_cell_volume 1855.993551
_symmetry_space_group_name_H-M "C 2/M"
_symmetry_group_IT_number 12
_symmetry_cell_setting 'monoclinic'
loop_
_space_group_symop_operation_xyz
x,y,z
-x,y,-z
-x,-y,-z
x,-y,z
1/2+x,1/2+y,z
1/2-x,1/2+y,-z
1/2-x,1/2-y,-z
1/2+x,1/2-y,z
loop_
_atom_site_type_symbol
_atom_site_label
_atom_site_fract_x
_atom_site_fract_y
_atom_site_fract_z
Si Si1 0.516029 0.797915 0.344766
Si Si2 0.500000 0.376694 0.000000
Si Si3 0.077145 0.197161 0.317330
Si Si4 0.816319 0.554405 0.228382
Si Si5 0.000000 0.860720 0.500000
Si Si6 0.133152 0.613023 0.996922
O O1 0.500000 0.809018 0.500000
O O2 0.731177 0.792230 0.558177
O O3 0.450567 0.745156 0.215999
O O4 0.421722 0.837947 0.146950
O O5 0.473508 0.341948 0.112754
O O6 0.677559 0.410470 0.174543
O O7 0.117045 0.172833 0.511908
O O8 0.733632 0.500000 0.141570
O O9 0.873364 0.568730 0.121978
O O10 0.000000 0.556200 0.500000
O O11 0.156461 0.890235 0.740902
O O12 0.000000 0.604721 0.000000
#
# Coordination Sequence:
#
# PCOD8115552 Si02
#       6
#     8   4   8   8   4   8
#     4  11  24  41  64 100 139 185 227 273 327 399
#     4  12  23  44  72  98 136 180 223 280 332 406
#     4  11  24  40  66  99 137 183 228 269 336 395
#     4  11  26  48  74 101 129 172 228 286 347 405
#     4  12  24  44  61  98 136 180 225 268 328 408
#     4  12  25  43  69  97 139 177 221 278 336 396
#
# _framework density 21.551798999999999
#
# number of rings (size 3 to 8) (size 9 to 14) (size 15 to 20)
#    0.000    0.600    5.000    3.300    1.400    1.200 
#    0.000    0.500    0.000    0.000    0.000    0.000 
#    0.000    0.000    0.000    0.000    0.000    0.000 
#
# Total GULP energy -247798.116673 kJ/mol
# GULP energy per Si atom -12389.905834 kJ/mol
# Density = 2.150275 g / cm^3
# Si number density = 21.551799 Si / 1000 Ang^3
#
#
#
# Elastic Constant Matrix: (Units=GPa)
#
#
# Indices 1 2 3 4 5 6 
#
# 1 108.0721 10.9522 33.6357 0.0000 -19.6686 0.0000
# 2 10.9522 103.2870 53.2092 0.0000 -10.1271 0.0000
# 3 33.6357 53.2092 108.7584 0.0000 -10.1474 0.0000
# 4 0.0000 0.0000 0.0000 9.0937 0.0000 8.6601
# 5 -19.6686 -10.1271 -10.1474 0.0000 38.0690 0.0000
# 6 0.0000 0.0000 0.0000 8.6601 0.0000 39.0902
#
#
#
# Elastic Compliance Matrix: (Units=1/GPa)
#
#
# Indices 1 2 3 4 5 6 
#
# 1 0.011172 0.001139 -0.003533 0.000000 0.005133 0.000000
# 2 0.001139 0.013182 -0.006583 0.000000 0.002340 0.000000
# 3 -0.003533 -0.006583 0.013510 0.000000 0.000025 0.000000
# 4 0.000000 0.000000 0.000000 0.139370 0.000000 -0.030876
# 5 0.005133 0.002340 0.000025 0.000000 0.029549 0.000000
# 6 0.000000 0.000000 0.000000 -0.030876 0.000000 0.032422
#
#
# Mechanical properties :
#
#
# Convention : Reuss Voigt Hill
#
# Bulk Modulus (GPa) = 50.22863 57.30131 53.76497
# Shear Modulus (GPa) = 18.95406 32.07194 25.51300
#
# Velocity S-wave (km/s) = 2.96880 3.86182 3.44437
# Velocity P-wave (km/s) = 5.92522 6.82131 6.38900
#
# Compressibility (1/GPa) = 0.01990896
#
# Stress axis : x y z
#
# Youngs Moduli (GPa) = 89.51334 75.86265 74.01716
#
# Poissons Ratio (x) = -0.08640 0.26152
# Poissons Ratio (y) = -0.10195 0.48725
# Poissons Ratio (z) = 0.31628 0.49940
#
# Static dielectric constant tensor:
#      x y z
#    x 5.143950 0.000000 -0.210020 
#    y 0.000000 4.239660 0.000000 
#    z -0.210020 0.000000 3.839010 
# 
# 
# High freq. dielectric constant tensor:
#      x y z
#    x 1.869580 0.000000 -0.004590 
#    y 0.000000 1.835240 0.000000 
#    z -0.004590 0.000000 1.849740 
# 
# From -- ./inp_files/54495.got.cif
#   From: 2010.06.25/outbox.cif.g09.slc.cpg/sg12_28_cif.got.tgz:54495.got - 2010.06.28 00:19:55.
