data_PCOD8115333
_publ_section_title
;
Structure prediction by ZEFSAII (Michael W. Deem and Ramdas Pophale) SiO2 
 PCOD8115333
Probable space group: C 2/M
;
_chemical_formula_sum "Si O2"
_cell_formula_units_Z 32
_cell_length_a 13.264096
_cell_length_b 24.673803
_cell_length_c 4.890046
_cell_angle_alpha 90.000000
_cell_angle_beta 68.909313
_cell_angle_gamma 90.000000
_cell_volume 1493.186108
_symmetry_space_group_name_H-M "C 2/M"
_symmetry_group_IT_number 12
_symmetry_cell_setting 'monoclinic'
loop_
_space_group_symop_operation_xyz
x,y,z
-x,y,-z
-x,-y,-z
x,-y,z
1/2+x,1/2+y,z
1/2-x,1/2+y,-z
1/2-x,1/2-y,-z
1/2+x,1/2-y,z
loop_
_atom_site_type_symbol
_atom_site_label
_atom_site_fract_x
_atom_site_fract_y
_atom_site_fract_z
Si Si1 0.761438 0.561535 0.654856
Si Si2 0.374860 0.106840 0.058093
Si Si3 0.760438 0.210690 0.734554
Si Si4 0.067973 0.865942 0.675439
O O1 0.740619 0.500000 0.766851
O O2 0.815655 0.562838 0.305059
O O3 0.647894 0.592565 0.749212
O O4 0.843982 0.591820 0.778591
O O5 0.335893 0.167391 0.162422
O O6 0.500000 0.103214 0.000000
O O7 0.750000 0.250000 0.500000
O O8 0.873807 0.180250 0.566404
O O9 0.750000 0.250000 0.000000
O O10 0.000000 0.896161 0.500000
O O11 0.000000 0.841746 0.000000
#
# Coordination Sequence:
#
# PCOD8115333 Si02
#       4
#     8   8   8   8
#     4  11  24  42  64  92 126 163 207 258 311 372
#     4  11  24  42  63  92 126 161 208 260 310 371
#     4  11  23  41  64  92 126 165 210 258 311 372
#     4  11  23  41  64  93 128 164 208 259 311 372
#
# _framework density 21.430686000000001
#
# number of rings (size 3 to 8) (size 9 to 14) (size 15 to 20)
#    0.000    1.000    0.000    9.000    0.000    7.000 
#    0.000    0.000    0.000    0.000    0.000    0.000 
#    0.000    0.000    0.000    0.000    0.000    0.000 
#
# Total GULP energy -198282.353397 kJ/mol
# GULP energy per Si atom -12392.647087 kJ/mol
# Density = 2.138191 g / cm^3
# Si number density = 21.430686 Si / 1000 Ang^3
#
#
#
# Elastic Constant Matrix: (Units=GPa)
#
#
# Indices 1 2 3 4 5 6 
#
# 1 146.0840 48.9305 40.2298 0.0000 11.4763 0.0000
# 2 48.9305 137.9733 43.4315 0.0000 2.4688 0.0000
# 3 40.2298 43.4315 123.1485 0.0000 4.2067 0.0000
# 4 0.0000 0.0000 0.0000 32.1788 0.0000 12.0646
# 5 11.4763 2.4688 4.2067 0.0000 48.2177 0.0000
# 6 0.0000 0.0000 0.0000 12.0646 0.0000 14.1093
#
#
#
# Elastic Compliance Matrix: (Units=1/GPa)
#
#
# Indices 1 2 3 4 5 6 
#
# 1 0.008258 -0.002326 -0.001820 0.000000 -0.001688 0.000000
# 2 -0.002326 0.008809 -0.002358 0.000000 0.000308 0.000000
# 3 -0.001820 -0.002358 0.009556 0.000000 -0.000280 0.000000
# 4 0.000000 0.000000 0.000000 0.045740 0.000000 -0.039112
# 5 -0.001688 0.000308 -0.000280 0.000000 0.021150 0.000000
# 6 0.000000 0.000000 0.000000 -0.039112 0.000000 0.104320
#
#
# Mechanical properties :
#
#
# Convention : Reuss Voigt Hill
#
# Bulk Modulus (GPa) = 73.43799 74.70992 74.07395
# Shear Modulus (GPa) = 23.21503 37.20874 30.21189
#
# Velocity S-wave (km/s) = 3.29486 4.17134 3.75874
# Velocity P-wave (km/s) = 6.98691 7.62476 7.31279
#
# Compressibility (1/GPa) = 0.01361693
#
# Stress axis : x y z
#
# Youngs Moduli (GPa) = 121.09354 113.51881 104.64825
#
# Poissons Ratio (x) = 0.26399 0.19045
# Poissons Ratio (y) = 0.28161 0.24672
# Poissons Ratio (z) = 0.22038 0.26763
#
# Static dielectric constant tensor:
#      x y z
#    x 4.000370 0.000000 -0.015230 
#    y 0.000000 3.730480 0.000000 
#    z -0.015230 0.000000 4.097770 
# 
# 
# High freq. dielectric constant tensor:
#      x y z
#    x 1.849020 0.000000 0.008730 
#    y 0.000000 1.831630 0.000000 
#    z 0.008730 0.000000 1.866110 
# 
# From -- ./inp_files/6531.got.cif
#   From: 2010.06.25/outbox.cif.g09.slc.cpg/sg12_4_cif.got.tgz:6531.got - 2010.06.28 00:19:55.
