data_PCOD8115728
_publ_section_title
;
Structure prediction by ZEFSAII (Michael W. Deem and Ramdas Pophale) SiO2 
 PCOD8115728
Probable space group: C 2/M
;
_chemical_formula_sum "Si O2"
_cell_formula_units_Z 52
_cell_length_a 19.993548
_cell_length_b 11.518340
_cell_length_c 20.153700
_cell_angle_alpha 90.000000
_cell_angle_beta 30.851201
_cell_angle_gamma 90.000000
_cell_volume 2380.078327
_symmetry_space_group_name_H-M "C 2/M"
_symmetry_group_IT_number 12
_symmetry_cell_setting 'monoclinic'
loop_
_space_group_symop_operation_xyz
x,y,z
-x,y,-z
-x,-y,-z
x,-y,z
1/2+x,1/2+y,z
1/2-x,1/2+y,-z
1/2-x,1/2-y,-z
1/2+x,1/2-y,z
loop_
_atom_site_type_symbol
_atom_site_label
_atom_site_fract_x
_atom_site_fract_y
_atom_site_fract_z
Si Si1 0.776245 0.240690 0.899858
Si Si2 0.354316 0.755251 0.617308
Si Si3 0.146982 0.137061 0.894884
Si Si4 0.202972 0.500000 0.905286
Si Si5 0.550748 0.193187 0.695366
Si Si6 0.785108 0.000000 0.687707
Si Si7 0.456822 0.000000 0.194193
Si Si8 0.758201 0.869577 0.415185
O O1 0.672890 0.320627 0.947979
O O2 0.773852 0.109828 0.876745
O O3 0.922639 0.285009 0.760463
O O4 0.750000 0.250000 0.000000
O O5 0.500000 0.808979 0.500000
O O6 0.254514 0.801707 0.757400
O O7 0.370519 0.616319 0.609387
O O8 0.298033 0.788813 0.594217
O O9 0.164403 0.000000 0.874288
O O10 0.000000 0.174517 0.000000
O O11 0.208220 0.500000 0.822014
O O12 0.050390 0.500000 0.051268
O O13 0.512028 0.114948 0.790806
O O14 0.655983 0.124884 0.562212
O O15 0.606642 0.315852 0.673900
O O16 0.689606 0.000000 0.706371
O O17 0.785199 0.000000 0.366222
#
# Coordination Sequence:
#
# PCOD8115728 Si02
#       8
#     8   8   8   4   8   4   4   8
#     4  12  27  45  73 106 143 184 239 298 365 431
#     4  12  26  47  72 106 143 192 248 299 364 434
#     4  11  28  50  74 105 146 192 244 305 366 431
#     4  12  27  45  71 110 138 196 238 300 366 442
#     4  11  25  45  68 107 143 184 234 301 366 427
#     4  12  26  46  72 106 149 187 243 303 355 444
#     4  12  23  47  75 104 145 192 241 296 371 441
#     4  11  25  44  71 101 140 190 241 294 362 436
#
# _framework density 21.848020999999999
#
# number of rings (size 3 to 8) (size 9 to 14) (size 15 to 20)
#    0.000    0.462    5.385    1.846    7.538    2.462 
#    0.000    0.000    0.000    0.000    0.000    0.000 
#    0.000    0.000    0.000    0.000    0.000    0.000 
#
# Total GULP energy -322520.371075 kJ/mol
# GULP energy per Si atom -12404.629657 kJ/mol
# Density = 2.179829 g / cm^3
# Si number density = 21.848021 Si / 1000 Ang^3
#
#
#
# Elastic Constant Matrix: (Units=GPa)
#
#
# Indices 1 2 3 4 5 6 
#
# 1 135.2353 40.3125 47.3162 -0.0001 -12.5935 0.0000
# 2 40.3125 141.4806 36.2659 -0.0001 -6.4282 0.0001
# 3 47.3162 36.2659 96.1925 0.0000 -18.4457 0.0000
# 4 -0.0001 -0.0001 0.0000 22.4117 0.0000 5.6209
# 5 -12.5935 -6.4282 -18.4457 0.0000 44.6657 0.0000
# 6 0.0000 0.0001 0.0000 5.6209 0.0000 31.3177
#
#
#
# Elastic Compliance Matrix: (Units=1/GPa)
#
#
# Indices 1 2 3 4 5 6 
#
# 1 0.009286 -0.001636 -0.003794 0.000000 0.000816 0.000000
# 2 -0.001636 0.008113 -0.002301 0.000000 -0.000244 0.000000
# 3 -0.003794 -0.002301 0.013967 0.000000 0.004367 0.000000
# 4 0.000000 0.000000 0.000000 0.046723 0.000000 -0.008386
# 5 0.000816 -0.000244 0.004367 0.000000 0.024387 0.000000
# 6 0.000000 0.000000 0.000000 -0.008386 0.000000 0.033436
#
#
# Mechanical properties :
#
#
# Convention : Reuss Voigt Hill
#
# Bulk Modulus (GPa) = 62.87920 68.96638 65.92279
# Shear Modulus (GPa) = 31.91329 36.27995 34.09662
#
# Velocity S-wave (km/s) = 3.82605 4.07942 3.95476
# Velocity P-wave (km/s) = 6.95420 7.33647 7.14789
#
# Compressibility (1/GPa) = 0.01590351
#
# Stress axis : x y z
#
# Youngs Moduli (GPa) = 107.69183 123.25973 71.59737
#
# Poissons Ratio (x) = 0.20167 0.27166
# Poissons Ratio (y) = 0.17620 0.16472
# Poissons Ratio (z) = 0.40862 0.28358
#
# Static dielectric constant tensor:
#      x y z
#    x 4.106270 0.000000 -0.002680 
#    y 0.000000 4.023440 0.000000 
#    z -0.002680 0.000000 3.968870 
# 
# 
# High freq. dielectric constant tensor:
#      x y z
#    x 1.870020 0.000000 0.000160 
#    y 0.000000 1.868000 0.000000 
#    z 0.000160 0.000000 1.863030 
# 
# From -- ./inp_files/321555.got.cif
#   From: 2010.06.25/outbox.cif.g09.slc.cpg/sg12_161_cif.got.tgz:321555.got - 2010.06.28 00:19:55.
