data_PCOD8115770
_publ_section_title
;
Structure prediction by ZEFSAII (Michael W. Deem and Ramdas Pophale) SiO2 
 PCOD8115770
Probable space group: C 2/M
;
_chemical_formula_sum "Si O2"
_cell_formula_units_Z 32
_cell_length_a 11.649772
_cell_length_b 27.297754
_cell_length_c 5.020936
_cell_angle_alpha 90.000000
_cell_angle_beta 115.530476
_cell_angle_gamma 90.000000
_cell_volume 1440.811005
_symmetry_space_group_name_H-M "C 2/M"
_symmetry_group_IT_number 12
_symmetry_cell_setting 'monoclinic'
loop_
_space_group_symop_operation_xyz
x,y,z
-x,y,-z
-x,-y,-z
x,-y,z
1/2+x,1/2+y,z
1/2-x,1/2+y,-z
1/2-x,1/2-y,-z
1/2+x,1/2-y,z
loop_
_atom_site_type_symbol
_atom_site_label
_atom_site_fract_x
_atom_site_fract_y
_atom_site_fract_z
Si Si1 0.000000 0.915803 0.500000
Si Si2 0.500000 0.650654 0.000000
Si Si3 0.113959 0.000000 0.325271
Si Si4 0.113959 0.500000 0.402648
Si Si5 0.500000 0.915803 0.000000
Si Si6 0.000000 0.349346 0.500000
Si Si7 0.750000 0.215257 0.744005
O O1 0.961126 0.882029 0.214237
O O2 0.888098 0.951902 0.488497
O O3 0.375852 0.683101 0.835111
O O4 0.250000 0.000000 0.311211
O O5 0.000000 0.000000 0.000000
O O6 0.111902 0.451902 0.212301
O O7 0.000000 0.500000 0.500000
O O8 0.461126 0.882029 0.208014
O O9 0.124148 0.316899 0.583408
O O10 0.750000 0.250000 0.500000
O O11 0.750000 0.250000 0.000000
#
# Coordination Sequence:
#
# PCOD8115770 Si02
#       7
#     4   4   4   4   4   4   8
#     4  11  26  45  68 111 140 193 234 289 350 417
#     4  12  26  44  76 103 142 181 246 288 350 442
#     4  11  26  47  74 104 157 191 240 300 358 427
#     4  11  26  47  74 104 157 191 240 300 358 427
#     4  11  26  45  68 111 140 193 234 289 350 417
#     4  12  26  44  76 103 142 181 246 288 350 442
#     4  12  26  48  72 103 140 183 230 302 370 420
#
# _framework density 22.209713000000001
#
# number of rings (size 3 to 8) (size 9 to 14) (size 15 to 20)
#    0.000    0.500    2.500    4.500    7.000    4.000 
#    0.000    0.000    0.000    0.000    0.000    0.000 
#    0.000    0.000    0.000    0.000    0.000    0.000 
#
# Total GULP energy -198268.248254 kJ/mol
# GULP energy per Si atom -12391.765516 kJ/mol
# Density = 2.215916 g / cm^3
# Si number density = 22.209713 Si / 1000 Ang^3
#
#
#
# Elastic Constant Matrix: (Units=GPa)
#
#
# Indices 1 2 3 4 5 6 
#
# 1 183.6898 82.6262 83.8985 0.0000 25.0970 0.0000
# 2 82.6262 172.8035 87.1221 0.0000 -2.5946 0.0000
# 3 83.8985 87.1221 165.8479 0.0000 -14.8013 0.0000
# 4 0.0000 0.0000 0.0000 57.8954 0.0000 -24.0954
# 5 25.0970 -2.5946 -14.8013 0.0000 51.1758 0.0000
# 6 0.0000 0.0000 0.0000 -24.0954 0.0000 16.1426
#
#
#
# Elastic Compliance Matrix: (Units=1/GPa)
#
#
# Indices 1 2 3 4 5 6 
#
# 1 0.009077 -0.002523 -0.003772 0.000000 -0.005670 0.000000
# 2 -0.002523 0.008607 -0.003177 0.000000 0.000755 0.000000
# 3 -0.003772 -0.003177 0.010016 0.000000 0.004586 0.000000
# 4 0.000000 0.000000 0.000000 0.045601 0.000000 0.068067
# 5 -0.005670 0.000755 0.004586 0.000000 0.023686 0.000000
# 6 0.000000 0.000000 0.000000 0.068067 0.000000 0.163548
#
#
# Mechanical properties :
#
#
# Convention : Reuss Voigt Hill
#
# Bulk Modulus (GPa) = 114.23511 114.40388 114.31950
# Shear Modulus (GPa) = 17.70550 42.95573 30.33061
#
# Velocity S-wave (km/s) = 2.82653 4.40261 3.69947
# Velocity P-wave (km/s) = 7.88662 8.80151 8.35659
#
# Compressibility (1/GPa) = 0.00875388
#
# Stress axis : x y z
#
# Youngs Moduli (GPa) = 110.17381 116.18844 99.83808
#
# Poissons Ratio (x) = 0.29318 0.37660
# Poissons Ratio (y) = 0.27800 0.31722
# Poissons Ratio (z) = 0.41559 0.36917
#
# Static dielectric constant tensor:
#      x y z
#    x 3.968160 0.000000 -0.075140 
#    y 0.000000 4.518260 0.000000 
#    z -0.075140 0.000000 4.098360 
# 
# 
# High freq. dielectric constant tensor:
#      x y z
#    x 1.871850 0.000000 -0.009270 
#    y 0.000000 1.904570 0.000000 
#    z -0.009270 0.000000 1.887920 
# 
# From -- ./inp_files/7159.got.cif
#   From: 2010.06.25/outbox.cif.g09.slc.cpg/sg12_4_cif.got.tgz:7159.got - 2010.06.28 00:19:55.
