data_PCOD8115693
_publ_section_title
;
Structure prediction by ZEFSAII (Michael W. Deem and Ramdas Pophale) SiO2 
 PCOD8115693
Probable space group: C 2/M
;
_chemical_formula_sum "Si O2"
_cell_formula_units_Z 40
_cell_length_a 13.864516
_cell_length_b 23.461991
_cell_length_c 5.289690
_cell_angle_alpha 90.000000
_cell_angle_beta 109.392411
_cell_angle_gamma 90.000000
_cell_volume 1623.058884
_symmetry_space_group_name_H-M "C 2/M"
_symmetry_group_IT_number 12
_symmetry_cell_setting 'monoclinic'
loop_
_space_group_symop_operation_xyz
x,y,z
-x,y,-z
-x,-y,-z
x,-y,z
1/2+x,1/2+y,z
1/2-x,1/2+y,-z
1/2-x,1/2-y,-z
1/2+x,1/2-y,z
loop_
_atom_site_type_symbol
_atom_site_label
_atom_site_fract_x
_atom_site_fract_y
_atom_site_fract_z
Si Si1 0.807771 0.500000 0.649423
Si Si2 0.113558 0.271800 0.132196
Si Si3 0.394185 0.886667 0.553898
Si Si4 0.674865 0.500000 0.027007
Si Si5 0.437582 0.614274 0.186335
Si Si6 0.244178 0.822704 0.134562
O O1 0.879869 0.443805 0.704066
O O2 0.759993 0.500000 0.883816
O O3 0.725724 0.500000 0.350501
O O4 0.107463 0.327863 0.294969
O O5 0.186734 0.219316 0.289056
O O6 0.161148 0.288470 0.902530
O O7 0.000000 0.247341 0.000000
O O8 0.500000 0.892552 0.500000
O O9 0.292906 0.880525 0.292732
O O10 0.599873 0.552484 0.925799
O O11 0.500000 0.613326 0.500000
O O12 0.500000 0.638087 0.000000
O O13 0.340062 0.656120 0.142397
#
# Coordination Sequence:
#
# PCOD8115693 Si02
#       6
#     4   8   8   4   8   8
#     4  12  27  45  82 108 153 199 254 309 383 442
#     4  11  24  47  72 106 145 198 248 310 378 447
#     4  12  25  47  74 109 147 200 248 315 374 451
#     4  12  24  49  73 106 153 201 244 320 377 439
#     4  12  26  46  74 110 149 199 255 308 379 449
#     4  11  25  46  72 104 149 193 248 312 375 444
#
# _framework density 24.644825999999998
#
# number of rings (size 3 to 8) (size 9 to 14) (size 15 to 20)
#    0.000    0.400    4.000    4.500    2.800    0.000 
#    7.200    1.500    0.000    0.000    0.000    0.000 
#    0.000    0.000    0.000    0.000    0.000    0.000 
#
# Total GULP energy -247840.775926 kJ/mol
# GULP energy per Si atom -12392.038796 kJ/mol
# Density = 2.458873 g / cm^3
# Si number density = 24.644826 Si / 1000 Ang^3
#
#
#
# Elastic Constant Matrix: (Units=GPa)
#
#
# Indices 1 2 3 4 5 6 
#
# 1 145.2381 21.7135 17.0321 0.0000 2.4086 0.0000
# 2 21.7135 88.6135 -15.5540 0.0000 6.9857 0.0000
# 3 17.0321 -15.5540 70.8748 0.0000 4.3512 0.0000
# 4 0.0000 0.0000 0.0000 -1.5014 0.0000 18.2982
# 5 2.4086 6.9857 4.3512 0.0000 33.8963 0.0000
# 6 0.0000 0.0000 0.0000 18.2982 0.0000 41.4444
#
#
#
# Elastic Compliance Matrix: (Units=1/GPa)
#
#
# Indices 1 2 3 4 5 6 
#
# 1 0.007490 -0.002259 -0.002310 0.000000 0.000230 0.000000
# 2 -0.002259 0.012682 0.003504 0.000000 -0.002903 0.000000
# 3 -0.002310 0.003504 0.015591 0.000000 -0.002559 0.000000
# 4 0.000000 0.000000 0.000000 -0.104381 0.000000 0.046085
# 5 0.000230 -0.002903 -0.002559 0.000000 0.030412 0.000000
# 6 0.000000 0.000000 0.000000 0.046085 0.000000 0.003781
#
#
# Mechanical properties :
#
#
# Convention : Reuss Voigt Hill
#
# Bulk Modulus (GPa) = 29.73146 39.01218 34.37182
# Shear Modulus (GPa) = -237.14696 33.53684 -101.80506
#
# Velocity S-wave (km/s) = -9.82012 3.69291 -6.43417
# Velocity P-wave (km/s) = 10.79303 5.83503 6.42035
#
# Compressibility (1/GPa) = 0.03363441
#
# Stress axis : x y z
#
# Youngs Moduli (GPa) = 133.51118 78.84929 64.14104
#
# Poissons Ratio (x) = 0.17811 0.14815
# Poissons Ratio (y) = 0.30158 -0.22477
# Poissons Ratio (z) = 0.30838 -0.27631
#
# Static dielectric constant tensor:
#      x y z
#    x 4.933220 0.000000 0.283210 
#    y 0.000000 4.879060 0.000000 
#    z 0.283210 0.000000 4.286710 
# 
# 
# High freq. dielectric constant tensor:
#      x y z
#    x 2.002660 0.000000 0.011110 
#    y 0.000000 2.012360 0.000000 
#    z 0.011110 0.000000 1.950930 
# 
# From -- ./inp_files/11718.got.cif
#   From: 2010.06.25/outbox.cif.g09.slc.cpg/sg12_6_cif.got.tgz:11718.got - 2010.06.28 00:19:55.
