data_PCOD8115806
_publ_section_title
;
Structure prediction by ZEFSAII (Michael W. Deem and Ramdas Pophale) SiO2 
 PCOD8115806
Probable space group: C 2/M
;
_chemical_formula_sum "Si O2"
_cell_formula_units_Z 52
_cell_length_a 15.882060
_cell_length_b 26.224582
_cell_length_c 8.492786
_cell_angle_alpha 90.000000
_cell_angle_beta 115.397621
_cell_angle_gamma 90.000000
_cell_volume 3195.384529
_symmetry_space_group_name_H-M "C 2/M"
_symmetry_group_IT_number 12
_symmetry_cell_setting 'monoclinic'
loop_
_space_group_symop_operation_xyz
x,y,z
-x,y,-z
-x,-y,-z
x,-y,z
1/2+x,1/2+y,z
1/2-x,1/2+y,-z
1/2-x,1/2-y,-z
1/2+x,1/2-y,z
loop_
_atom_site_type_symbol
_atom_site_label
_atom_site_fract_x
_atom_site_fract_y
_atom_site_fract_z
Si Si1 0.148767 0.558580 0.549197
Si Si2 0.734707 0.345152 0.395752
Si Si3 0.541573 0.941809 0.775805
Si Si4 0.090985 0.793330 0.484716
Si Si5 0.000000 0.627505 0.000000
Si Si6 0.609357 0.206728 0.277084
Si Si7 0.748638 0.742284 0.183235
O O1 0.183742 0.500000 0.577237
O O2 0.237492 0.595194 0.589495
O O3 0.106350 0.574568 0.683250
O O4 0.067833 0.565924 0.354664
O O5 0.636002 0.337406 0.408003
O O6 0.806118 0.313799 0.555545
O O7 0.740942 0.317571 0.229274
O O8 0.561181 0.000000 0.834675
O O9 0.568286 0.908836 0.951948
O O10 0.054936 0.747275 0.342890
O O11 0.163965 0.771756 0.670590
O O12 0.000000 0.815913 0.500000
O O13 0.954847 0.660930 0.827937
O O14 0.650695 0.233360 0.156404
O O15 0.750000 0.750000 0.000000
#
# Coordination Sequence:
#
# PCOD8115806 Si02
#       7
#     8   8   8   8   4   8   8
#     4   9  17  32  49  66  90 127 165 194 239 292
#     4   9  17  35  47  64  97 125 162 192 246 274
#     4   9  19  30  43  67  98 128 161 198 231 276
#     4   9  19  34  49  64  96 130 158 196 243 287
#     4  12  19  26  46  70 102 124 169 186 230 278
#     4   9  20  29  41  69  94 131 155 193 228 286
#     4   9  19  32  47  68  96 122 158 201 233 281
#
# _framework density 16.273472999999999
#
# number of rings (size 3 to 8) (size 9 to 14) (size 15 to 20)
#    0.000    2.769    1.538    3.000    4.308    1.231 
#    0.000    0.000    0.000    0.462    0.000    0.000 
#    0.000    1.231    0.000    0.000    0.000    0.000 
#
# Total GULP energy -322102.188703 kJ/mol
# GULP energy per Si atom -12388.545719 kJ/mol
# Density = 1.623643 g / cm^3
# Si number density = 16.273473 Si / 1000 Ang^3
#
#
#
# Elastic Constant Matrix: (Units=GPa)
#
#
# Indices 1 2 3 4 5 6 
#
# 1 89.7462 44.2460 24.0249 0.0000 -14.7955 0.0000
# 2 44.2460 92.3380 25.9374 0.0000 -11.7738 0.0000
# 3 24.0249 25.9374 70.0573 0.0000 -22.6404 0.0000
# 4 0.0000 0.0000 0.0000 16.4063 0.0000 0.8034
# 5 -14.7955 -11.7738 -22.6404 0.0000 19.8122 0.0000
# 6 0.0000 0.0000 0.0000 0.8034 0.0000 21.0196
#
#
#
# Elastic Compliance Matrix: (Units=1/GPa)
#
#
# Indices 1 2 3 4 5 6 
#
# 1 0.015654 -0.006399 -0.000714 0.000000 0.007072 0.000000
# 2 -0.006399 0.014838 -0.003161 0.000000 0.000427 0.000000
# 3 -0.000714 -0.003161 0.023640 0.000000 0.024603 0.000000
# 4 0.000000 0.000000 0.000000 0.061067 0.000000 -0.002334
# 5 0.007072 0.000427 0.024603 0.000000 0.084124 0.000000
# 6 0.000000 0.000000 0.000000 -0.002334 0.000000 0.047664
#
#
# Mechanical properties :
#
#
# Convention : Reuss Voigt Hill
#
# Bulk Modulus (GPa) = 29.77535 48.95090 39.36312
# Shear Modulus (GPa) = 17.93849 21.97650 19.95749
#
# Velocity S-wave (km/s) = 3.32371 3.67883 3.50577
# Velocity P-wave (km/s) = 5.75031 6.94194 6.37403
#
# Compressibility (1/GPa) = 0.03358483
#
# Stress axis : x y z
#
# Youngs Moduli (GPa) = 63.88048 67.39289 42.30089
#
# Poissons Ratio (x) = 0.43124 0.03019
# Poissons Ratio (y) = 0.40876 0.13373
# Poissons Ratio (z) = 0.04560 0.21305
#
# Static dielectric constant tensor:
#      x y z
#    x 2.684810 0.000000 -0.371090 
#    y 0.000000 3.106880 0.000000 
#    z -0.371090 0.000000 2.875010 
# 
# 
# High freq. dielectric constant tensor:
#      x y z
#    x 1.602500 0.000000 -0.027200 
#    y 0.000000 1.614170 0.000000 
#    z -0.027200 0.000000 1.618430 
# 
# From -- ./inp_files/66569.got.cif
#   From: 2010.06.25/outbox.cif.g09.slc.cpg/sg12_34_cif.got.tgz:66569.got - 2010.06.28 00:19:55.
