data_PCOD8115738
_publ_section_title
;
Structure prediction by ZEFSAII (Michael W. Deem and Ramdas Pophale) SiO2 
 PCOD8115738
Probable space group: C 2/M
;
_chemical_formula_sum "Si O2"
_cell_formula_units_Z 24
_cell_length_a 7.253692
_cell_length_b 18.069894
_cell_length_c 7.893351
_cell_angle_alpha 90.000000
_cell_angle_beta 95.803550
_cell_angle_gamma 90.000000
_cell_volume 1029.305769
_symmetry_space_group_name_H-M "C 2/M"
_symmetry_group_IT_number 12
_symmetry_cell_setting 'monoclinic'
loop_
_space_group_symop_operation_xyz
x,y,z
-x,y,-z
-x,-y,-z
x,-y,z
1/2+x,1/2+y,z
1/2-x,1/2+y,-z
1/2-x,1/2-y,-z
1/2+x,1/2-y,z
loop_
_atom_site_type_symbol
_atom_site_label
_atom_site_fract_x
_atom_site_fract_y
_atom_site_fract_z
Si Si1 0.391888 0.834111 0.321441
Si Si2 0.758949 0.698609 0.835636
Si Si3 0.472264 0.585206 0.694999
O O1 0.500000 0.855486 0.500000
O O2 0.293182 0.753649 0.325435
O O3 0.536047 0.833785 0.177251
O O4 0.238258 0.896553 0.271303
O O5 0.611225 0.632193 0.826214
O O6 0.750000 0.750000 0.000000
O O7 0.500000 0.604572 0.500000
O O8 0.514004 0.500000 0.736492
#
# Coordination Sequence:
#
# PCOD8115738 Si02
#       3
#     8   8   8
#     4  12  23  41  72 104 134 189 246 287 344 426
#     4  12  25  42  70 107 142 186 240 301 353 418
#     4  11  25  45  71 107 147 186 234 297 360 423
#
# _framework density 23.316683999999999
#
# number of rings (size 3 to 8) (size 9 to 14) (size 15 to 20)
#    0.000    0.333    6.667    3.000    0.000    2.000 
#    0.000    3.333    0.000    4.000    0.000    0.000 
#    0.000    0.000    0.000    0.000    0.000    0.000 
#
# Total GULP energy -148815.634685 kJ/mol
# GULP energy per Si atom -12401.302890 kJ/mol
# Density = 2.326361 g / cm^3
# Si number density = 23.316684 Si / 1000 Ang^3
#
#
#
# Elastic Constant Matrix: (Units=GPa)
#
#
# Indices 1 2 3 4 5 6 
#
# 1 192.3006 67.3234 62.3643 0.0000 -17.7975 0.0000
# 2 67.3234 151.6084 58.3280 0.0000 15.7342 0.0000
# 3 62.3643 58.3280 104.8190 0.0000 -12.7031 0.0000
# 4 0.0000 0.0000 0.0000 33.4989 0.0000 5.0054
# 5 -17.7975 15.7342 -12.7031 0.0000 29.6261 0.0000
# 6 0.0000 0.0000 0.0000 5.0054 0.0000 46.5541
#
#
#
# Elastic Compliance Matrix: (Units=1/GPa)
#
#
# Indices 1 2 3 4 5 6 
#
# 1 0.007418 -0.003017 -0.002110 0.000000 0.005154 0.000000
# 2 -0.003017 0.011164 -0.005649 0.000000 -0.010164 0.000000
# 3 -0.002110 -0.005649 0.014924 0.000000 0.008132 0.000000
# 4 0.000000 0.000000 0.000000 0.030339 0.000000 -0.003262
# 5 0.005154 -0.010164 0.008132 0.000000 0.045735 0.000000
# 6 0.000000 0.000000 0.000000 -0.003262 0.000000 0.021831
#
#
# Mechanical properties :
#
#
# Convention : Reuss Voigt Hill
#
# Bulk Modulus (GPa) = 83.65173 91.63995 87.64584
# Shear Modulus (GPa) = 31.85781 39.31663 35.58722
#
# Velocity S-wave (km/s) = 3.70037 4.11079 3.91097
# Velocity P-wave (km/s) = 7.36283 7.86887 7.62005
#
# Compressibility (1/GPa) = 0.01195433
#
# Stress axis : x y z
#
# Youngs Moduli (GPa) = 134.81345 89.57529 67.00400
#
# Poissons Ratio (x) = 0.27025 0.14137
# Poissons Ratio (y) = 0.40674 0.37850
# Poissons Ratio (z) = 0.28443 0.50600
#
# Static dielectric constant tensor:
#      x y z
#    x 4.625730 0.000000 0.079600 
#    y 0.000000 4.003560 0.000000 
#    z 0.079600 0.000000 4.170920 
# 
# 
# High freq. dielectric constant tensor:
#      x y z
#    x 1.947140 0.000000 0.004580 
#    y 0.000000 1.897020 0.000000 
#    z 0.004580 0.000000 1.919040 
# 
# From -- ./inp_files/36383.got.cif
#   From: 2010.06.25/outbox.cif.g09.slc.cpg/sg12_19_cif.got.tgz:36383.got - 2010.06.28 00:19:55.
