data_PCOD8115819
_publ_section_title
;
Structure prediction by ZEFSAII (Michael W. Deem and Ramdas Pophale) SiO2 
 PCOD8115819
Probable space group: C 2/M
;
_chemical_formula_sum "Si O2"
_cell_formula_units_Z 40
_cell_length_a 27.623548
_cell_length_b 9.608892
_cell_length_c 21.132279
_cell_angle_alpha 90.000000
_cell_angle_beta 156.987817
_cell_angle_gamma 90.000000
_cell_volume 2192.777705
_symmetry_space_group_name_H-M "C 2/M"
_symmetry_group_IT_number 12
_symmetry_cell_setting 'monoclinic'
loop_
_space_group_symop_operation_xyz
x,y,z
-x,y,-z
-x,-y,-z
x,-y,z
1/2+x,1/2+y,z
1/2-x,1/2+y,-z
1/2-x,1/2-y,-z
1/2+x,1/2-y,z
loop_
_atom_site_type_symbol
_atom_site_label
_atom_site_fract_x
_atom_site_fract_y
_atom_site_fract_z
Si Si1 0.237727 0.000000 0.259966
Si Si2 0.897752 0.230800 0.827867
Si Si3 0.697569 0.000000 0.355689
Si Si4 0.605459 0.225559 0.822935
Si Si5 0.985412 0.500000 0.609608
Si Si6 0.534690 0.500000 0.917030
Si Si7 0.985368 0.000000 0.714812
Si Si8 0.976704 0.500000 0.733545
O O1 0.200630 0.138467 0.252845
O O2 0.388457 0.000000 0.434626
O O3 0.172572 0.000000 0.113193
O O4 0.828171 0.362305 0.715162
O O5 0.961601 0.138034 0.850471
O O6 0.000000 0.286559 0.000000
O O7 0.613623 0.000000 0.316711
O O8 0.838488 0.000000 0.547564
O O9 0.529624 0.367936 0.728243
O O10 0.564525 0.138065 0.836823
O O11 0.572492 0.137934 0.718898
O O12 0.750000 0.250000 0.000000
O O13 0.902856 0.500000 0.576742
O O14 0.551539 0.500000 0.862476
#
# Coordination Sequence:
#
# PCOD8115819 Si02
#       8
#     4   8   4   8   4   4   4   4
#     4   9  16  35  48  65  96 135 173 198 229 294
#     4   9  19  32  46  65  99 146 170 186 232 297
#     4  12  21  29  48  79 114 120 153 211 251 312
#     4   9  19  35  51  69  98 132 168 201 237 295
#     4   8  18  32  51  72  92 130 167 197 254 275
#     4   9  20  30  48  68  99 132 168 201 237 293
#     4  12  21  29  51  84  99 127 162 202 262 290
#     4   8  21  31  46  76 101 136 150 203 262 281
#
# _framework density 18.241703000000001
#
# number of rings (size 3 to 8) (size 9 to 14) (size 15 to 20)
#    1.200    1.200    0.000    5.100    2.800    1.600 
#    0.000    0.000    0.000    2.400    0.000    0.000 
#    0.000   20.800    0.000    0.000    0.000    0.000 
#
# Total GULP energy -247763.301856 kJ/mol
# GULP energy per Si atom -12388.165093 kJ/mol
# Density = 1.820018 g / cm^3
# Si number density = 18.241703 Si / 1000 Ang^3
#
#
#
# Elastic Constant Matrix: (Units=GPa)
#
#
# Indices 1 2 3 4 5 6 
#
# 1 23.5387 19.3061 21.1686 0.0000 1.5830 0.0000
# 2 19.3061 136.4095 52.5169 0.0000 2.0296 0.0000
# 3 21.1686 52.5169 146.3420 0.0000 4.0368 0.0000
# 4 0.0000 0.0000 0.0000 28.7050 0.0000 -0.7627
# 5 1.5830 2.0296 4.0368 0.0000 28.4779 0.0000
# 6 0.0000 0.0000 0.0000 -0.7627 0.0000 10.4184
#
#
#
# Elastic Compliance Matrix: (Units=1/GPa)
#
#
# Indices 1 2 3 4 5 6 
#
# 1 0.051870 -0.005158 -0.005605 0.000000 -0.001721 0.000000
# 2 -0.005158 0.009020 -0.002491 0.000000 -0.000003 0.000000
# 3 -0.005605 -0.002491 0.008558 0.000000 -0.000724 0.000000
# 4 0.000000 0.000000 0.000000 0.034905 0.000000 0.002555
# 5 -0.001721 -0.000003 -0.000724 0.000000 0.035314 0.000000
# 6 0.000000 0.000000 0.000000 0.002555 0.000000 0.096171
#
#
# Mechanical properties :
#
#
# Convention : Reuss Voigt Hill
#
# Bulk Modulus (GPa) = 23.28776 54.69704 38.99240
# Shear Modulus (GPa) = 18.07296 27.74016 22.90656
#
# Velocity S-wave (km/s) = 3.15103 3.90385 3.54747
# Velocity P-wave (km/s) = 5.10222 7.09716 6.18071
#
# Compressibility (1/GPa) = 0.04294101
#
# Stress axis : x y z
#
# Youngs Moduli (GPa) = 19.27913 110.86709 116.85215
#
# Poissons Ratio (x) = 0.57183 0.65491
# Poissons Ratio (y) = 0.09944 0.29105
# Poissons Ratio (z) = 0.10805 0.27614
#
# Static dielectric constant tensor:
#      x y z
#    x 2.876860 0.000000 -0.060450 
#    y 0.000000 3.554340 0.000000 
#    z -0.060450 0.000000 3.350370 
# 
# 
# High freq. dielectric constant tensor:
#      x y z
#    x 1.659200 0.000000 -0.001830 
#    y 0.000000 1.720400 0.000000 
#    z -0.001830 0.000000 1.708860 
# 
# From -- ./inp_files/353167.got.cif
#   From: 2010.06.25/outbox.cif.g09.slc.cpg/sg12_177_cif.got.tgz:353167.got - 2010.06.28 00:19:55.
