data_PCOD8115101
_publ_section_title
;
Structure prediction by ZEFSAII (Michael W. Deem and Ramdas Pophale) SiO2 
 PCOD8115101
Probable space group: C 2/M
;
_chemical_formula_sum "Si O2"
_cell_formula_units_Z 40
_cell_length_a 12.581974
_cell_length_b 15.644350
_cell_length_c 9.658316
_cell_angle_alpha 90.000000
_cell_angle_beta 76.955773
_cell_angle_gamma 90.000000
_cell_volume 1852.056020
_symmetry_space_group_name_H-M "C 2/M"
_symmetry_group_IT_number 12
_symmetry_cell_setting 'monoclinic'
loop_
_space_group_symop_operation_xyz
x,y,z
-x,y,-z
-x,-y,-z
x,-y,z
1/2+x,1/2+y,z
1/2-x,1/2+y,-z
1/2-x,1/2-y,-z
1/2+x,1/2-y,z
loop_
_atom_site_type_symbol
_atom_site_label
_atom_site_fract_x
_atom_site_fract_y
_atom_site_fract_z
Si Si1 0.864819 0.328601 0.328613
Si Si2 0.345486 0.500000 0.944078
Si Si3 0.211141 0.854462 0.597218
Si Si4 0.411091 0.500000 0.230882
Si Si5 0.298802 0.839478 0.038292
Si Si6 0.098307 0.399183 0.260702
O O1 0.853700 0.234002 0.394152
O O2 0.765977 0.380583 0.433085
O O3 0.858733 0.326029 0.165543
O O4 0.978964 0.368955 0.343490
O O5 0.464232 0.500000 0.845595
O O6 0.291551 0.412222 0.909306
O O7 0.339355 0.500000 0.112483
O O8 0.308719 0.849948 0.680956
O O9 0.117191 0.919184 0.667859
O O10 0.250000 0.750000 0.000000
O O11 0.387431 0.874960 0.904450
O O12 0.109694 0.500000 0.281770
#
# Coordination Sequence:
#
# PCOD8115101 Si02
#       6
#     8   4   8   4   8   8
#     4  11  27  39  69  98 135 170 219 278 337 387
#     4  11  24  41  68  98 127 170 231 271 322 404
#     4  11  23  47  63  99 133 174 223 271 326 412
#     4  11  22  43  70  90 129 180 221 265 332 396
#     4  12  23  45  66  97 133 171 221 281 331 392
#     4  12  24  45  70  99 133 179 225 269 334 403
#
# _framework density 21.597619999999999
#
# number of rings (size 3 to 8) (size 9 to 14) (size 15 to 20)
#    0.000    0.600    6.000    1.200    5.600    1.600 
#    0.000    2.000    0.000    0.000    0.000    0.000 
#    0.000    0.000    0.000    0.000    0.000    0.000 
#
# Total GULP energy -248015.879618 kJ/mol
# GULP energy per Si atom -12400.793981 kJ/mol
# Density = 2.154846 g / cm^3
# Si number density = 21.597620 Si / 1000 Ang^3
#
#
#
# Elastic Constant Matrix: (Units=GPa)
#
#
# Indices 1 2 3 4 5 6 
#
# 1 62.5691 38.3504 9.7031 0.0000 -15.2173 0.0000
# 2 38.3504 109.5911 12.3642 0.0000 -14.2365 0.0000
# 3 9.7031 12.3642 98.1372 0.0000 -15.2422 0.0000
# 4 0.0000 0.0000 0.0000 33.4830 0.0000 -11.2296
# 5 -15.2173 -14.2365 -15.2422 0.0000 34.5661 0.0000
# 6 0.0000 0.0000 0.0000 -11.2296 0.0000 23.4222
#
#
#
# Elastic Compliance Matrix: (Units=1/GPa)
#
#
# Indices 1 2 3 4 5 6 
#
# 1 0.021771 -0.006718 -0.000265 0.000000 0.006700 0.000000
# 2 -0.006718 0.011752 -0.000562 0.000000 0.001634 0.000000
# 3 -0.000265 -0.000562 0.010985 0.000000 0.004495 0.000000
# 4 0.000000 0.000000 0.000000 0.035588 0.000000 0.017063
# 5 0.006700 0.001634 0.004495 0.000000 0.034535 0.000000
# 6 0.000000 0.000000 0.000000 0.017063 0.000000 0.050875
#
#
# Mechanical properties :
#
#
# Convention : Reuss Voigt Hill
#
# Bulk Modulus (GPa) = 33.99585 43.45921 38.72753
# Shear Modulus (GPa) = 26.26003 32.28624 29.27313
#
# Velocity S-wave (km/s) = 3.49072 3.87059 3.68555
# Velocity P-wave (km/s) = 5.65876 6.33570 6.00678
#
# Compressibility (1/GPa) = 0.02941535
#
# Stress axis : x y z
#
# Youngs Moduli (GPa) = 45.93306 85.09512 91.03212
#
# Poissons Ratio (x) = 0.57168 0.02417
# Poissons Ratio (y) = 0.30858 0.05120
# Poissons Ratio (z) = 0.01219 0.04786
#
# Static dielectric constant tensor:
#      x y z
#    x 3.702880 0.000000 -0.200230 
#    y 0.000000 4.100330 0.000000 
#    z -0.200230 0.000000 4.237970 
# 
# 
# High freq. dielectric constant tensor:
#      x y z
#    x 1.835880 0.000000 -0.018720 
#    y 0.000000 1.853480 0.000000 
#    z -0.018720 0.000000 1.868240 
# 
# From -- ./inp_files/59015.got.cif
#   From: 2010.06.25/outbox.cif.g09.slc.cpg/sg12_30_cif.got.tgz:59015.got - 2010.06.28 00:19:55.
