data_PCOD8115880
_publ_section_title
;
Structure prediction by ZEFSAII (Michael W. Deem and Ramdas Pophale) SiO2 
 PCOD8115880
Probable space group: C 2/M
;
_chemical_formula_sum "Si O2"
_cell_formula_units_Z 48
_cell_length_a 9.652804
_cell_length_b 28.621741
_cell_length_c 8.392786
_cell_angle_alpha 90.000000
_cell_angle_beta 93.835651
_cell_angle_gamma 90.000000
_cell_volume 2313.565453
_symmetry_space_group_name_H-M "C 2/M"
_symmetry_group_IT_number 12
_symmetry_cell_setting 'monoclinic'
loop_
_space_group_symop_operation_xyz
x,y,z
-x,y,-z
-x,-y,-z
x,-y,z
1/2+x,1/2+y,z
1/2-x,1/2+y,-z
1/2-x,1/2-y,-z
1/2+x,1/2-y,z
loop_
_atom_site_type_symbol
_atom_site_label
_atom_site_fract_x
_atom_site_fract_y
_atom_site_fract_z
Si Si1 0.526133 0.203298 0.318945
Si Si2 0.346255 0.638963 0.923757
Si Si3 0.390798 0.116517 0.865185
Si Si4 0.752730 0.765393 0.818263
Si Si5 0.389093 0.445694 0.712692
Si Si6 0.800621 0.946361 0.352816
O O1 0.500000 0.191846 0.500000
O O2 0.521509 0.154675 0.224286
O O3 0.405434 0.236772 0.248125
O O4 0.668591 0.230314 0.294370
O O5 0.316603 0.682457 0.803870
O O6 0.322784 0.588881 0.836508
O O7 0.500000 0.644406 0.000000
O O8 0.237987 0.641756 0.059658
O O9 0.329317 0.079550 0.735819
O O10 0.500000 0.093680 0.000000
O O11 0.750000 0.750000 0.000000
O O12 0.365255 0.500000 0.758982
O O13 0.314852 0.434305 0.540091
O O14 0.553235 0.434367 0.719949
O O15 0.766272 0.000000 0.327393
#
# Coordination Sequence:
#
# PCOD8115880 Si02
#       6
#     8   8   8   8   8   8
#     4  12  27  46  67  96 131 174 217 272 324 394
#     4  12  23  39  67 101 127 176 222 264 327 393
#     4  12  24  42  65  96 137 174 214 270 336 390
#     4  12  24  47  69  94 132 175 217 269 330 391
#     4   9  20  40  65  97 132 171 222 277 323 382
#     4   9  20  40  65  94 134 176 217 271 331 389
#
# _framework density 20.747198000000001
#
# number of rings (size 3 to 8) (size 9 to 14) (size 15 to 20)
#    0.000    1.000    5.000    3.000    2.333    1.333 
#    3.000    0.000    0.000    2.500    0.000    0.000 
#    0.000    0.000    0.000    0.000    0.000    0.000 
#
# Total GULP energy -297638.609821 kJ/mol
# GULP energy per Si atom -12401.608743 kJ/mol
# Density = 2.069998 g / cm^3
# Si number density = 20.747198 Si / 1000 Ang^3
#
#
#
# Elastic Constant Matrix: (Units=GPa)
#
#
# Indices 1 2 3 4 5 6 
#
# 1 111.0636 26.0289 44.8110 0.0000 17.2631 0.0000
# 2 26.0289 90.6938 34.5127 0.0000 1.3738 0.0000
# 3 44.8110 34.5127 95.6549 0.0000 -3.2450 0.0000
# 4 0.0000 0.0000 0.0000 35.5104 0.0000 2.8895
# 5 17.2631 1.3738 -3.2450 0.0000 39.2900 0.0000
# 6 0.0000 0.0000 0.0000 2.8895 0.0000 35.2460
#
#
#
# Elastic Compliance Matrix: (Units=1/GPa)
#
#
# Indices 1 2 3 4 5 6 
#
# 1 0.012483 -0.001382 -0.005549 0.000000 -0.005895 0.000000
# 2 -0.001382 0.012961 -0.004035 0.000000 -0.000179 0.000000
# 3 -0.005549 -0.004035 0.014638 0.000000 0.003788 0.000000
# 4 0.000000 0.000000 0.000000 0.028350 0.000000 -0.002324
# 5 -0.005895 -0.000179 0.003788 0.000000 0.028361 0.000000
# 6 0.000000 0.000000 0.000000 -0.002324 0.000000 0.028563
#
#
# Mechanical properties :
#
#
# Convention : Reuss Voigt Hill
#
# Bulk Modulus (GPa) = 55.09646 56.45749 55.77698
# Shear Modulus (GPa) = 32.60782 34.81327 33.71054
#
# Velocity S-wave (km/s) = 3.96873 4.10075 4.03528
# Velocity P-wave (km/s) = 6.90035 7.04931 6.97523
#
# Compressibility (1/GPa) = 0.01814998
#
# Stress axis : x y z
#
# Youngs Moduli (GPa) = 80.11002 77.15519 68.31379
#
# Poissons Ratio (x) = 0.10659 0.37909
# Poissons Ratio (y) = 0.11067 0.27566
# Poissons Ratio (z) = 0.44455 0.31134
#
# Static dielectric constant tensor:
#      x y z
#    x 2.240540 0.000000 -1.600200 
#    y 0.000000 3.759810 0.000000 
#    z -1.600200 0.000000 1.949040 
# 
# 
# High freq. dielectric constant tensor:
#      x y z
#    x 1.815130 0.000000 0.006760 
#    y 0.000000 1.811870 0.000000 
#    z 0.006760 0.000000 1.809910 
# 
# From -- ./inp_files/42218.got.cif
#   From: 2010.06.25/outbox.cif.g09.slc.cpg/sg12_22_cif.got.tgz:42218.got - 2010.06.28 00:19:55.
