data_PCOD8115568
_publ_section_title
;
Structure prediction by ZEFSAII (Michael W. Deem and Ramdas Pophale) SiO2 
 PCOD8115568
Probable space group: C 2/M
;
_chemical_formula_sum "Si O2"
_cell_formula_units_Z 64
_cell_length_a 9.182399
_cell_length_b 16.953691
_cell_length_c 30.589417
_cell_angle_alpha 90.000000
_cell_angle_beta 136.588412
_cell_angle_gamma 90.000000
_cell_volume 3272.627251
_symmetry_space_group_name_H-M "C 2/M"
_symmetry_group_IT_number 12
_symmetry_cell_setting 'monoclinic'
loop_
_space_group_symop_operation_xyz
x,y,z
-x,y,-z
-x,-y,-z
x,-y,z
1/2+x,1/2+y,z
1/2-x,1/2+y,-z
1/2-x,1/2-y,-z
1/2+x,1/2-y,z
loop_
_atom_site_type_symbol
_atom_site_label
_atom_site_fract_x
_atom_site_fract_y
_atom_site_fract_z
Si Si1 0.068137 0.799564 0.346991
Si Si2 0.389445 0.691365 0.156967
Si Si3 0.455028 0.909142 0.439894
Si Si4 0.764563 0.215078 0.955574
Si Si5 0.260985 0.693179 0.461552
Si Si6 0.314252 0.908539 0.736349
Si Si7 0.591421 0.909399 0.142162
Si Si8 0.141051 0.301538 0.770366
O O1 0.266180 0.855742 0.380673
O O2 0.122880 0.731475 0.393186
O O3 0.878866 0.855179 0.323332
O O4 0.008576 0.757161 0.289126
O O5 0.289387 0.712834 0.088623
O O6 0.289879 0.610268 0.153715
O O7 0.642650 0.681554 0.208552
O O8 0.316463 0.760509 0.173937
O O9 0.500000 0.886493 0.500000
O O10 0.658731 0.889931 0.454273
O O11 0.393316 0.000000 0.421435
O O12 0.609059 0.141952 0.915124
O O13 0.750000 0.250000 0.000000
O O14 0.000000 0.182243 0.000000
O O15 0.500000 0.675799 0.500000
O O16 0.250000 0.750000 0.500000
O O17 0.345354 0.889917 0.794311
O O18 0.522491 0.884164 0.754200
O O19 0.265176 0.000000 0.716995
O O20 0.529432 0.000000 0.122857
#
# Coordination Sequence:
#
# PCOD8115568 Si02
#       8
#     8   8   8   8   8   8   8   8
#     4  12  21  39  69  90 119 166 212 252 301 387
#     4  12  21  42  63  93 126 163 208 253 305 368
#     4  11  24  42  63  90 125 164 204 255 317 370
#     4  12  22  38  68  94 120 167 212 251 295 369
#     4  12  23  41  64  90 123 161 211 256 306 368
#     4  11  24  41  63  95 129 160 203 262 315 364
#     4  11  24  43  64  94 131 164 204 262 319 358
#     4  12  22  38  68  93 121 163 213 251 310 369
#
# _framework density 19.556152999999998
#
# number of rings (size 3 to 8) (size 9 to 14) (size 15 to 20)
#    0.000    0.375    8.750    1.125    0.000    1.000 
#    0.000    1.875    0.000    0.000    0.000    0.000 
#    0.000    0.000    0.000    0.000    0.000    0.000 
#
# Total GULP energy -396915.190626 kJ/mol
# GULP energy per Si atom -12403.599707 kJ/mol
# Density = 1.951164 g / cm^3
# Si number density = 19.556153 Si / 1000 Ang^3
#
#
#
# Elastic Constant Matrix: (Units=GPa)
#
#
# Indices 1 2 3 4 5 6 
#
# 1 138.5503 51.1795 46.0881 0.0000 23.3530 0.0000
# 2 51.1795 96.6210 46.8554 0.0000 5.6783 0.0000
# 3 46.0881 46.8554 98.9419 -0.0001 10.5448 0.0000
# 4 0.0000 0.0000 -0.0001 19.0644 0.0000 2.3689
# 5 23.3530 5.6783 10.5448 0.0000 32.8695 0.0000
# 6 0.0000 0.0000 0.0000 2.3689 0.0000 35.7020
#
#
#
# Elastic Compliance Matrix: (Units=1/GPa)
#
#
# Indices 1 2 3 4 5 6 
#
# 1 0.010515 -0.004091 -0.002319 0.000000 -0.006020 0.000000
# 2 -0.004091 0.015030 -0.005430 0.000000 0.002053 0.000000
# 3 -0.002319 -0.005430 0.013961 0.000000 -0.001893 0.000000
# 4 0.000000 0.000000 0.000000 0.052890 0.000000 -0.003509
# 5 -0.006020 0.002053 -0.001893 0.000000 0.034953 0.000000
# 6 0.000000 0.000000 0.000000 -0.003509 0.000000 0.028243
#
#
# Mechanical properties :
#
#
# Convention : Reuss Voigt Hill
#
# Bulk Modulus (GPa) = 63.19622 69.15101 66.17362
# Shear Modulus (GPa) = 27.09341 30.19318 28.64330
#
# Velocity S-wave (km/s) = 3.72616 3.93354 3.83125
# Velocity P-wave (km/s) = 7.13426 7.48781 7.31317
#
# Compressibility (1/GPa) = 0.01582373
#
# Stress axis : x y z
#
# Youngs Moduli (GPa) = 95.10266 66.53468 71.63060
#
# Poissons Ratio (x) = 0.27222 0.16610
# Poissons Ratio (y) = 0.38910 0.38899
# Poissons Ratio (z) = 0.22053 0.36132
#
# Static dielectric constant tensor:
#      x y z
#    x 4.007270 0.000000 0.071310 
#    y 0.000000 3.561820 0.000000 
#    z 0.071310 0.000000 3.619150 
# 
# 
# High freq. dielectric constant tensor:
#      x y z
#    x 1.773710 0.000000 0.005110 
#    y 0.000000 1.747850 0.000000 
#    z 0.005110 0.000000 1.770080 
# 
# From -- ./inp_files/373018.got.cif
#   From: 2010.06.25/outbox.cif.g09.slc.cpg/sg12_187_cif.got.tgz:373018.got - 2010.06.28 00:19:55.
