data_PCOD8115362
_publ_section_title
;
Structure prediction by ZEFSAII (Michael W. Deem and Ramdas Pophale) SiO2 
 PCOD8115362
Probable space group: C 2/M
;
_chemical_formula_sum "Si O2"
_cell_formula_units_Z 32
_cell_length_a 23.729080
_cell_length_b 8.891922
_cell_length_c 9.591712
_cell_angle_alpha 90.000000
_cell_angle_beta 52.948347
_cell_angle_gamma 90.000000
_cell_volume 1615.198792
_symmetry_space_group_name_H-M "C 2/M"
_symmetry_group_IT_number 12
_symmetry_cell_setting 'monoclinic'
loop_
_space_group_symop_operation_xyz
x,y,z
-x,y,-z
-x,-y,-z
x,-y,z
1/2+x,1/2+y,z
1/2-x,1/2+y,-z
1/2-x,1/2-y,-z
1/2+x,1/2-y,z
loop_
_atom_site_type_symbol
_atom_site_label
_atom_site_fract_x
_atom_site_fract_y
_atom_site_fract_z
Si Si1 0.708232 0.170109 0.183889
Si Si2 0.064409 0.327716 0.799906
Si Si3 0.934547 0.177976 0.499752
Si Si4 0.299832 0.668922 0.319321
O O1 0.636895 0.256494 0.328838
O O2 0.763518 0.169965 0.225481
O O3 0.688057 0.000000 0.171435
O O4 0.750000 0.250000 0.000000
O O5 0.081205 0.500000 0.736333
O O6 0.051060 0.240888 0.675848
O O7 0.127614 0.258667 0.794976
O O8 0.000000 0.312243 0.000000
O O9 0.000000 0.224742 0.500000
O O10 0.926448 0.000000 0.502465
O O11 0.314686 0.500000 0.349167
O O12 0.250000 0.750000 0.500000
#
# Coordination Sequence:
#
# PCOD8115362 Si02
#       4
#     8   8   8   8
#     4  11  25  43  66  96 129 168 214 261 317 379
#     4  11  25  43  65  96 129 168 214 261 318 379
#     4  11  25  44  66  94 129 169 213 262 318 379
#     4  11  23  41  67  95 126 166 213 264 317 376
#
# _framework density 19.811803000000001
#
# number of rings (size 3 to 8) (size 9 to 14) (size 15 to 20)
#    0.000    1.000    2.500    3.000    3.500    7.000 
#    0.000    0.000    0.000    0.000    0.000    0.000 
#    0.000    0.000    0.000    0.000    0.000    0.000 
#
# Total GULP energy -198444.237580 kJ/mol
# GULP energy per Si atom -12402.764849 kJ/mol
# Density = 1.976671 g / cm^3
# Si number density = 19.811803 Si / 1000 Ang^3
#
#
#
# Elastic Constant Matrix: (Units=GPa)
#
#
# Indices 1 2 3 4 5 6 
#
# 1 130.4252 70.0284 43.4696 0.0000 -12.9584 0.0000
# 2 70.0284 154.8776 74.2357 0.0000 -9.6258 0.0000
# 3 43.4696 74.2357 117.8780 0.0000 2.2302 0.0000
# 4 0.0000 0.0000 0.0000 35.6536 0.0000 -0.8300
# 5 -12.9584 -9.6258 2.2302 0.0000 28.2107 0.0000
# 6 0.0000 0.0000 0.0000 -0.8300 0.0000 34.1177
#
#
#
# Elastic Compliance Matrix: (Units=1/GPa)
#
#
# Indices 1 2 3 4 5 6 
#
# 1 0.010607 -0.003807 -0.001584 0.000000 0.003698 0.000000
# 2 -0.003807 0.010999 -0.005570 0.000000 0.002445 0.000000
# 3 -0.001584 -0.005570 0.012644 0.000000 -0.003628 0.000000
# 4 0.000000 0.000000 0.000000 0.028064 0.000000 0.000683
# 5 0.003698 0.002445 -0.003628 0.000000 0.038267 0.000000
# 6 0.000000 0.000000 0.000000 0.000683 0.000000 0.029327
#
#
# Mechanical properties :
#
#
# Convention : Reuss Voigt Hill
#
# Bulk Modulus (GPa) = 81.10875 86.51648 83.81262
# Shear Modulus (GPa) = 32.06410 33.95953 33.01181
#
# Velocity S-wave (km/s) = 4.02734 4.14467 4.08643
# Velocity P-wave (km/s) = 7.91546 8.16507 8.04123
#
# Compressibility (1/GPa) = 0.01232913
#
# Stress axis : x y z
#
# Youngs Moduli (GPa) = 94.28175 90.91344 79.09115
#
# Poissons Ratio (x) = 0.34608 0.12528
# Poissons Ratio (y) = 0.35890 0.44050
# Poissons Ratio (z) = 0.14934 0.50635
#
# Static dielectric constant tensor:
#      x y z
#    x 3.623920 0.000000 -0.038610 
#    y 0.000000 4.095960 0.000000 
#    z -0.038610 0.000000 3.647310 
# 
# 
# High freq. dielectric constant tensor:
#      x y z
#    x 1.787790 0.000000 -0.002650 
#    y 0.000000 1.796320 0.000000 
#    z -0.002650 0.000000 1.783270 
# 
# From -- ./inp_files/81674.got.cif
#   From: 2010.06.25/outbox.cif.g09.slc.cpg/sg12_41_cif.got.tgz:81674.got - 2010.06.28 00:19:55.
