data_PCOD8115691
_publ_section_title
;
Structure prediction by ZEFSAII (Michael W. Deem and Ramdas Pophale) SiO2 
 PCOD8115691
Probable space group: C 2/M
;
_chemical_formula_sum "Si O2"
_cell_formula_units_Z 48
_cell_length_a 9.628610
_cell_length_b 22.288274
_cell_length_c 11.636741
_cell_angle_alpha 90.000000
_cell_angle_beta 65.658669
_cell_angle_gamma 90.000000
_cell_volume 2275.309076
_symmetry_space_group_name_H-M "C 2/M"
_symmetry_group_IT_number 12
_symmetry_cell_setting 'monoclinic'
loop_
_space_group_symop_operation_xyz
x,y,z
-x,y,-z
-x,-y,-z
x,-y,z
1/2+x,1/2+y,z
1/2-x,1/2+y,-z
1/2-x,1/2-y,-z
1/2+x,1/2-y,z
loop_
_atom_site_type_symbol
_atom_site_label
_atom_site_fract_x
_atom_site_fract_y
_atom_site_fract_z
Si Si1 0.776584 0.695436 0.664634
Si Si2 0.949162 0.500000 0.695235
Si Si3 0.827731 0.804079 0.042889
Si Si4 0.864742 0.098895 0.846083
Si Si5 0.023282 0.809864 0.370606
Si Si6 0.418335 0.500000 0.151745
Si Si7 0.500000 0.899840 0.500000
Si Si8 0.129297 0.500000 0.865810
O O1 0.746649 0.680986 0.808862
O O2 0.885331 0.751663 0.622472
O O3 0.624239 0.711764 0.648418
O O4 0.850046 0.640378 0.569356
O O5 0.007571 0.441351 0.609282
O O6 0.049174 0.500000 0.772633
O O7 0.765853 0.500000 0.784437
O O8 0.750000 0.750000 0.000000
O O9 0.820821 0.867505 0.978882
O O10 0.000000 0.782329 0.000000
O O11 0.879166 0.148029 0.743358
O O12 0.727179 0.058832 0.851735
O O13 0.020804 0.060188 0.805457
O O14 0.000000 0.844555 0.500000
O O15 0.500000 0.500000 0.000000
O O16 0.000000 0.500000 0.000000
#
# Coordination Sequence:
#
# PCOD8115691 Si02
#       8
#     8   4   8   8   8   4   4   4
#     4  12  25  46  71 106 144 188 232 282 352 428
#     4  11  26  50  70 102 140 183 246 295 349 413
#     4  12  24  45  72 108 144 183 229 290 356 423
#     4  11  25  46  70 104 138 185 229 290 358 413
#     4  12  26  45  70 103 146 187 230 281 345 427
#     4  11  24  46  79 100 133 183 241 295 352 419
#     4  11  28  44  74 100 142 193 234 288 350 421
#     4  11  28  46  69 104 137 181 234 302 358 402
#
# _framework density 21.096036000000002
#
# number of rings (size 3 to 8) (size 9 to 14) (size 15 to 20)
#    0.000    0.500    4.167    3.000    7.000    0.667 
#    0.000    0.833    0.000    0.000    0.000    0.000 
#    0.000    0.000    0.000    0.000    0.000    0.000 
#
# Total GULP energy -297564.714126 kJ/mol
# GULP energy per Si atom -12398.529755 kJ/mol
# Density = 2.104802 g / cm^3
# Si number density = 21.096036 Si / 1000 Ang^3
#
#
#
# Elastic Constant Matrix: (Units=GPa)
#
#
# Indices 1 2 3 4 5 6 
#
# 1 174.8760 76.5758 65.3837 0.0000 6.3372 0.0000
# 2 76.5758 128.9300 45.0055 0.0000 -0.4896 0.0000
# 3 65.3837 45.0055 153.2804 0.0000 5.7667 0.0000
# 4 0.0000 0.0000 0.0000 -36.6234 0.0000 -77.5272
# 5 6.3372 -0.4896 5.7667 0.0000 39.2323 0.0000
# 6 0.0000 0.0000 0.0000 -77.5272 0.0000 -77.7768
#
#
#
# Elastic Compliance Matrix: (Units=1/GPa)
#
#
# Indices 1 2 3 4 5 6 
#
# 1 0.008482 -0.004226 -0.002336 0.000000 -0.001079 0.000000
# 2 -0.004226 0.010757 -0.001394 0.000000 0.001022 0.000000
# 3 -0.002336 -0.001394 0.007960 0.000000 -0.000810 0.000000
# 4 0.000000 0.000000 0.000000 0.024597 0.000000 -0.024518
# 5 -0.001079 0.001022 -0.000810 0.000000 0.025795 0.000000
# 6 0.000000 0.000000 0.000000 -0.024518 0.000000 0.011582
#
#
# Mechanical properties :
#
#
# Convention : Reuss Voigt Hill
#
# Bulk Modulus (GPa) = 88.60950 92.33515 90.47233
# Shear Modulus (GPa) = 45.93546 2.97451 24.45499
#
# Velocity S-wave (km/s) = 4.67137 1.18872 3.40843
# Velocity P-wave (km/s) = 8.43740 6.76373 7.64649
#
# Compressibility (1/GPa) = 0.01128547
#
# Stress axis : x y z
#
# Youngs Moduli (GPa) = 117.90340 92.96609 125.62093
#
# Poissons Ratio (x) = 0.39287 0.29351
# Poissons Ratio (y) = 0.49826 0.17513
# Poissons Ratio (z) = 0.27548 0.12961
#
# Static dielectric constant tensor:
#      x y z
#    x 3.982560 0.000000 0.139100 
#    y 0.000000 3.929730 0.000000 
#    z 0.139100 0.000000 4.496530 
# 
# 
# High freq. dielectric constant tensor:
#      x y z
#    x 1.831550 0.000000 0.001890 
#    y 0.000000 1.837440 0.000000 
#    z 0.001890 0.000000 1.849440 
# 
# From -- ./inp_files/122524.got.cif
#   From: 2010.06.25/outbox.cif.g09.slc.cpg/sg12_62_cif.got.tgz:122524.got - 2010.06.28 00:19:55.
