data_PCOD8115954
_publ_section_title
;
Structure prediction by ZEFSAII (Michael W. Deem and Ramdas Pophale) SiO2 
 PCOD8115954
Probable space group: C 2/M
;
_chemical_formula_sum "Si O2"
_cell_formula_units_Z 64
_cell_length_a 19.018289
_cell_length_b 9.415390
_cell_length_c 23.405505
_cell_angle_alpha 90.000000
_cell_angle_beta 65.272637
_cell_angle_gamma 90.000000
_cell_volume 3806.809603
_symmetry_space_group_name_H-M "C 2/M"
_symmetry_group_IT_number 12
_symmetry_cell_setting 'monoclinic'
loop_
_space_group_symop_operation_xyz
x,y,z
-x,y,-z
-x,-y,-z
x,-y,z
1/2+x,1/2+y,z
1/2-x,1/2+y,-z
1/2-x,1/2-y,-z
1/2+x,1/2-y,z
loop_
_atom_site_type_symbol
_atom_site_label
_atom_site_fract_x
_atom_site_fract_y
_atom_site_fract_z
Si Si1 0.505433 0.332971 0.235762
Si Si2 0.173379 0.168912 0.507051
Si Si3 0.883939 0.664080 0.957803
Si Si4 0.021095 0.168684 0.628603
Si Si5 0.335799 0.165687 0.096752
Si Si6 0.425587 0.332672 0.560239
Si Si7 0.549792 0.835671 0.849086
Si Si8 0.333472 0.336369 0.871777
O O1 0.489237 0.500000 0.236598
O O2 0.485021 0.271332 0.305201
O O3 0.451290 0.253766 0.208734
O O4 0.595020 0.295528 0.193122
O O5 0.250000 0.250000 0.500000
O O6 0.103018 0.213718 0.573023
O O7 0.150351 0.219525 0.449550
O O8 0.187997 0.000000 0.504809
O O9 0.859249 0.500000 0.963184
O O10 0.831422 0.746734 0.930355
O O11 0.973382 0.686615 0.912720
O O12 0.867158 0.728902 0.026194
O O13 0.945252 0.224485 0.617752
O O14 0.016303 0.000000 0.631490
O O15 0.380592 0.228630 0.136251
O O16 0.244957 0.196818 0.136133
O O17 0.355521 0.000000 0.088952
O O18 0.500000 0.284833 0.500000
O O19 0.418726 0.500000 0.564354
O O20 0.561506 0.000000 0.828426
O O21 0.337509 0.500000 0.888846
#
# Coordination Sequence:
#
# PCOD8115954 Si02
#       8
#     8   8   8   8   8   8   8   8
#     4   9  17  30  46  62  81 110 146 176 206 247
#     4   9  16  27  45  69  94 114 135 170 212 248
#     4   9  16  27  44  62  80 108 143 172 207 261
#     4   8  14  27  47  64  81 113 150 174 197 242
#     4   9  16  27  43  62  83 108 139 175 216 258
#     4   7  11  22  42  65  83 105 142 176 195 225
#     4   9  17  29  44  61  84 113 142 173 209 253
#     4   9  17  28  42  61  84 106 134 178 219 246
#
# _framework density 16.811979000000001
#
# number of rings (size 3 to 8) (size 9 to 14) (size 15 to 20)
#    0.000    3.375    0.000    2.250    0.000    1.500 
#    0.000    3.125    0.000   10.125    0.000    0.000 
#    0.000    0.000    0.000    0.000    0.000    0.000 
#
# Total GULP energy -396427.067956 kJ/mol
# GULP energy per Si atom -12388.345874 kJ/mol
# Density = 1.677371 g / cm^3
# Si number density = 16.811979 Si / 1000 Ang^3
#
#
#
# Elastic Constant Matrix: (Units=GPa)
#
#
# Indices 1 2 3 4 5 6 
#
# 1 149.8801 35.7381 68.3837 0.0000 27.5221 0.0002
# 2 35.7381 28.5410 26.8235 0.0000 8.1544 0.0005
# 3 68.3837 26.8235 114.6286 0.0000 26.6967 0.0000
# 4 0.0000 0.0000 0.0000 16.0648 0.0000 2.9867
# 5 27.5221 8.1544 26.6967 0.0000 23.3089 0.0000
# 6 0.0002 0.0005 0.0000 2.9867 0.0000 23.3732
#
#
#
# Elastic Compliance Matrix: (Units=1/GPa)
#
#
# Indices 1 2 3 4 5 6 
#
# 1 0.011656 -0.009748 -0.003084 0.000000 -0.006820 0.000000
# 2 -0.009748 0.053501 -0.006854 0.000000 0.000643 -0.000001
# 3 -0.003084 -0.006854 0.014676 0.000000 -0.010769 0.000000
# 4 0.000000 0.000000 0.000000 0.063763 0.000000 -0.008148
# 5 -0.006820 0.000643 -0.010769 0.000000 0.063065 0.000000
# 6 0.000000 -0.000001 0.000000 -0.008148 0.000000 0.043825
#
#
# Mechanical properties :
#
#
# Convention : Reuss Voigt Hill
#
# Bulk Modulus (GPa) = 24.71534 61.66005 43.18769
# Shear Modulus (GPa) = 16.48293 23.35634 19.91963
#
# Velocity S-wave (km/s) = 3.13458 3.73133 3.44590
# Velocity P-wave (km/s) = 5.27576 7.43772 6.44800
#
# Compressibility (1/GPa) = 0.04046071
#
# Stress axis : x y z
#
# Youngs Moduli (GPa) = 85.79393 18.69115 68.13995
#
# Poissons Ratio (x) = 0.18220 0.21014
# Poissons Ratio (y) = 0.83632 0.46703
# Poissons Ratio (z) = 0.26459 0.12811
#
# Static dielectric constant tensor:
#      x y z
#    x 3.361540 0.000000 0.285550 
#    y 0.000000 2.794400 0.000000 
#    z 0.285550 0.000000 3.304290 
# 
# 
# High freq. dielectric constant tensor:
#      x y z
#    x 1.655900 0.000000 0.016170 
#    y 0.000000 1.603710 0.000000 
#    z 0.016170 0.000000 1.634570 
# 
# From -- ./inp_files/309884.got.cif
#   From: 2010.06.25/outbox.cif.g09.slc.cpg/sg12_155_cif.got.tgz:309884.got - 2010.06.28 00:19:55.
