data_PCOD8115108
_publ_section_title
;
Structure prediction by ZEFSAII (Michael W. Deem and Ramdas Pophale) SiO2 
 PCOD8115108
Probable space group: C 2/M
;
_chemical_formula_sum "Si O2"
_cell_formula_units_Z 32
_cell_length_a 14.046545
_cell_length_b 17.836164
_cell_length_c 12.038758
_cell_angle_alpha 90.000000
_cell_angle_beta 30.215984
_cell_angle_gamma 90.000000
_cell_volume 1517.909798
_symmetry_space_group_name_H-M "C 2/M"
_symmetry_group_IT_number 12
_symmetry_cell_setting 'monoclinic'
loop_
_space_group_symop_operation_xyz
x,y,z
-x,y,-z
-x,-y,-z
x,-y,z
1/2+x,1/2+y,z
1/2-x,1/2+y,-z
1/2-x,1/2-y,-z
1/2+x,1/2-y,z
loop_
_atom_site_type_symbol
_atom_site_label
_atom_site_fract_x
_atom_site_fract_y
_atom_site_fract_z
Si Si1 0.201741 0.500000 0.545235
Si Si2 0.825488 0.658913 0.103650
Si Si3 0.000000 0.736107 0.500000
Si Si4 0.779358 0.000000 0.720031
Si Si5 0.405249 0.122211 0.783334
Si Si6 0.903302 0.000000 0.975507
O O1 0.193839 0.500000 0.684737
O O2 0.421160 0.500000 0.286592
O O3 0.090660 0.572505 0.615985
O O4 0.672519 0.707372 0.321462
O O5 0.793802 0.570434 0.139031
O O6 0.844681 0.671113 0.952121
O O7 0.000000 0.684552 0.000000
O O8 0.987506 0.683584 0.618438
O O9 0.000000 0.000000 0.500000
O O10 0.228477 0.073788 0.911498
O O11 0.000000 0.000000 0.000000
#
# Coordination Sequence:
#
# PCOD8115108 Si02
#       6
#     4   8   4   4   8   4
#     4  11  22  43  77  98 132 176 224 301 338 385
#     4  12  25  44  70 101 137 180 227 289 343 401
#     4  12  28  44  64  98 150 188 222 274 340 420
#     4  12  21  43  72 101 127 166 232 289 342 385
#     4  11  25  46  68 104 140 177 237 278 339 417
#     4  11  24  42  74 104 132 183 232 288 340 397
#
# _framework density 21.081620000000001
#
# number of rings (size 3 to 8) (size 9 to 14) (size 15 to 20)
#    0.000    0.500    3.750    5.625    0.000    6.000 
#    0.000    0.000    0.000    0.000    0.000    0.000 
#    0.000    0.000    0.000    0.000    0.000    0.000 
#
# Total GULP energy -198299.989930 kJ/mol
# GULP energy per Si atom -12393.749371 kJ/mol
# Density = 2.103364 g / cm^3
# Si number density = 21.081620 Si / 1000 Ang^3
#
#
#
# Elastic Constant Matrix: (Units=GPa)
#
#
# Indices 1 2 3 4 5 6 
#
# 1 141.0824 52.8021 61.8338 0.0005 6.0795 -0.0057
# 2 52.8021 115.9946 72.7777 -0.0844 -5.4437 0.0359
# 3 61.8338 72.7777 154.1355 0.0023 3.0271 -0.0204
# 4 0.0005 -0.0844 0.0023 58.5571 -0.0366 11.0341
# 5 6.0795 -5.4437 3.0271 -0.0366 44.7957 0.0258
# 6 -0.0057 0.0359 -0.0204 11.0341 0.0258 11.5435
#
#
#
# Elastic Compliance Matrix: (Units=1/GPa)
#
#
# Indices 1 2 3 4 5 6 
#
# 1 0.009226 -0.002789 -0.002356 -0.000009 -0.001432 0.000021
# 2 -0.002789 0.013254 -0.005185 0.000038 0.002340 -0.000094
# 3 -0.002356 -0.005185 0.009901 -0.000018 -0.000979 0.000052
# 4 -0.000009 0.000038 -0.000018 0.020829 0.000036 -0.019910
# 5 -0.001432 0.002340 -0.000979 0.000036 0.022868 -0.000095
# 6 0.000021 -0.000094 0.000052 -0.019910 -0.000095 0.105661
#
#
# Mechanical properties :
#
#
# Convention : Reuss Voigt Hill
#
# Bulk Modulus (GPa) = 85.32402 87.33776 86.33089
# Shear Modulus (GPa) = 24.23580 37.89919 31.06750
#
# Velocity S-wave (km/s) = 3.39428 4.24457 3.84301
# Velocity P-wave (km/s) = 7.47814 8.09569 7.79303
#
# Compressibility (1/GPa) = 0.01172003
#
# Stress axis : x y z
#
# Youngs Moduli (GPa) = 108.38687 75.45074 101.00353
#
# Poissons Ratio (x) = 0.21040 0.23801
# Poissons Ratio (y) = 0.30225 0.52373
# Poissons Ratio (z) = 0.25541 0.39123
#
# Static dielectric constant tensor:
#      x y z
#    x 4.207130 -0.000050 -0.213510 
#    y -0.000050 4.028700 0.000090 
#    z -0.213510 0.000090 4.163650 
# 
# 
# High freq. dielectric constant tensor:
#      x y z
#    x 1.838860 0.000000 0.000520 
#    y 0.000000 1.829040 0.000010 
#    z 0.000520 0.000010 1.851230 
# 
# From -- ./inp_files/145230.got.cif
#   From: 2010.06.25/outbox.cif.g09.slc.cpg/sg12_73_cif.got.tgz:145230.got - 2010.06.28 00:19:55.
