data_PCOD8115307
_publ_section_title
;
Structure prediction by ZEFSAII (Michael W. Deem and Ramdas Pophale) SiO2 
 PCOD8115307
Probable space group: C 2/M
;
_chemical_formula_sum "Si O2"
_cell_formula_units_Z 40
_cell_length_a 12.407637
_cell_length_b 18.440074
_cell_length_c 17.490854
_cell_angle_alpha 90.000000
_cell_angle_beta 150.487652
_cell_angle_gamma 90.000000
_cell_volume 1971.364657
_symmetry_space_group_name_H-M "C 2/M"
_symmetry_group_IT_number 12
_symmetry_cell_setting 'monoclinic'
loop_
_space_group_symop_operation_xyz
x,y,z
-x,y,-z
-x,-y,-z
x,-y,z
1/2+x,1/2+y,z
1/2-x,1/2+y,-z
1/2-x,1/2-y,-z
1/2+x,1/2-y,z
loop_
_atom_site_type_symbol
_atom_site_label
_atom_site_fract_x
_atom_site_fract_y
_atom_site_fract_z
Si Si1 0.500000 0.794132 0.500000
Si Si2 0.697519 0.500000 0.921295
Si Si3 0.957297 0.725272 0.751745
Si Si4 0.741857 0.500000 0.123743
Si Si5 0.838690 0.340713 0.971103
Si Si6 0.019490 0.380625 0.368826
Si Si7 0.715028 0.000000 0.578079
O O1 0.712026 0.748201 0.614568
O O2 0.416000 0.842048 0.377921
O O3 0.781670 0.426584 0.931834
O O4 0.433906 0.500000 0.762858
O O5 0.786786 0.500000 0.061784
O O6 0.118991 0.791800 0.829980
O O7 0.906843 0.676984 0.647215
O O8 0.045338 0.678483 0.877238
O O9 0.834054 0.427678 0.216174
O O10 0.500000 0.500000 0.000000
O O11 0.000000 0.321847 0.000000
O O12 0.218066 0.430424 0.523295
O O13 0.500000 0.000000 0.500000
#
# Coordination Sequence:
#
# PCOD8115307 Si02
#       7
#     4   4   8   4   8   8   4
#     4  12  24  39  70  95 136 176 222 274 344 393
#     4  12  23  46  68  96 132 181 227 269 334 405
#     4  11  25  44  67 100 134 175 221 281 331 407
#     4  11  25  37  70  96 134 173 224 283 329 394
#     4  11  25  45  69  96 135 175 229 272 335 400
#     4  11  23  42  62  99 135 170 217 275 338 390
#     4  11  23  40  67 101 134 171 219 276 331 389
#
# _framework density 20.290512
#
# number of rings (size 3 to 8) (size 9 to 14) (size 15 to 20)
#    0.000    0.800    3.000    4.500    2.800    2.400 
#    0.000    0.000    0.000    3.000    0.000    0.000 
#    0.000    0.000    0.000    0.000    0.000    0.000 
#
# Total GULP energy -247886.084361 kJ/mol
# GULP energy per Si atom -12394.304218 kJ/mol
# Density = 2.024433 g / cm^3
# Si number density = 20.290512 Si / 1000 Ang^3
#
#
#
# Elastic Constant Matrix: (Units=GPa)
#
#
# Indices 1 2 3 4 5 6 
#
# 1 131.6174 67.0210 56.8943 -0.0079 -3.6274 -0.0071
# 2 67.0210 152.0875 59.0243 0.0001 2.0398 -0.0051
# 3 56.8943 59.0243 123.6603 0.0100 6.0848 0.0016
# 4 -0.0079 0.0001 0.0100 0.7137 -0.0027 -35.8549
# 5 -3.6274 2.0398 6.0848 -0.0027 43.8608 -0.0012
# 6 -0.0071 -0.0051 0.0016 -35.8549 -0.0012 20.1403
#
#
#
# Elastic Compliance Matrix: (Units=1/GPa)
#
#
# Indices 1 2 3 4 5 6 
#
# 1 0.010899 -0.003496 -0.003422 -0.000004 0.001539 -0.000004
# 2 -0.003496 0.009192 -0.002763 -0.000001 -0.000333 0.000000
# 3 -0.003422 -0.002763 0.011063 0.000004 -0.001689 0.000004
# 4 -0.000004 -0.000001 0.000004 -0.015844 -0.000003 -0.028206
# 5 0.001539 -0.000333 -0.001689 -0.000003 0.023177 -0.000003
# 6 -0.000004 0.000000 0.000004 -0.028206 -0.000003 -0.000561
#
#
# Mechanical properties :
#
#
# Convention : Reuss Voigt Hill
#
# Bulk Modulus (GPa) = 84.79041 85.91604 85.35323
# Shear Modulus (GPa) = 81.67505 27.90468 54.78987
#
# Velocity S-wave (km/s) = 6.35139 3.71247 5.20205
# Velocity P-wave (km/s) = 9.78089 7.79817 8.84526
#
# Compressibility (1/GPa) = 0.01179379
#
# Stress axis : x y z
#
# Youngs Moduli (GPa) = 91.74821 108.78596 90.39244
#
# Poissons Ratio (x) = 0.38029 0.30931
# Poissons Ratio (y) = 0.32073 0.24974
# Poissons Ratio (z) = 0.31395 0.30056
#
# Static dielectric constant tensor:
#      x y z
#    x 3.704450 0.000000 -0.244440 
#    y 0.000000 4.143450 -0.000030 
#    z -0.244440 -0.000030 3.608890 
# 
# 
# High freq. dielectric constant tensor:
#      x y z
#    x 1.794230 0.000000 -0.018780 
#    y 0.000000 1.813080 0.000000 
#    z -0.018780 0.000000 1.799530 
# 
# From -- ./inp_files/48664.got.cif
#   From: 2010.06.25/outbox.cif.g09.slc.cpg/sg12_25_cif.got.tgz:48664.got - 2010.06.28 00:19:55.
