data_PCOD8115803
_publ_section_title
;
Structure prediction by ZEFSAII (Michael W. Deem and Ramdas Pophale) SiO2 
 PCOD8115803
Probable space group: C 2/M
;
_chemical_formula_sum "Si O2"
_cell_formula_units_Z 44
_cell_length_a 31.168935
_cell_length_b 14.278305
_cell_length_c 15.703998
_cell_angle_alpha 90.000000
_cell_angle_beta 19.704889
_cell_angle_gamma 90.000000
_cell_volume 2356.486619
_symmetry_space_group_name_H-M "C 2/M"
_symmetry_group_IT_number 12
_symmetry_cell_setting 'monoclinic'
loop_
_space_group_symop_operation_xyz
x,y,z
-x,y,-z
-x,-y,-z
x,-y,z
1/2+x,1/2+y,z
1/2-x,1/2+y,-z
1/2-x,1/2-y,-z
1/2+x,1/2-y,z
loop_
_atom_site_type_symbol
_atom_site_label
_atom_site_fract_x
_atom_site_fract_y
_atom_site_fract_z
Si Si1 0.607664 0.260414 0.730828
Si Si2 0.554746 0.102246 0.253926
Si Si3 0.317637 0.609666 0.554799
Si Si4 0.500000 0.250257 0.500000
Si Si5 0.028816 0.391331 0.114160
Si Si6 0.350382 0.397543 0.680985
O O1 0.750000 0.250000 0.500000
O O2 0.603007 0.338477 0.666147
O O3 0.570508 0.160505 0.760721
O O4 0.500000 0.290538 0.000000
O O5 0.537634 0.184988 0.352092
O O6 0.488257 0.127296 0.288418
O O7 0.503875 0.000000 0.382356
O O8 0.701104 0.090432 0.960417
O O9 0.321469 0.500000 0.528429
O O10 0.386943 0.631286 0.515959
O O11 0.171552 0.645706 0.828600
O O12 0.387536 0.318718 0.680058
O O13 0.018542 0.500000 0.111284
O O14 0.410997 0.500000 0.590066
#
# Coordination Sequence:
#
# PCOD8115803 Si02
#       6
#     8   8   8   4   8   8
#     4  12  23  36  57  90 114 137 181 233 281 330
#     4   9  19  34  52  76 106 142 183 223 262 318
#     4   9  19  38  58  76 107 151 188 224 272 328
#     4  12  18  28  52  84 110 136 174 228 278 306
#     4   9  19  38  59  76 105 152 192 218 267 339
#     4   9  19  34  52  75 106 145 184 215 262 331
#
# _framework density 18.671863999999999
#
# number of rings (size 3 to 8) (size 9 to 14) (size 15 to 20)
#    0.000    2.182    1.818    4.364    0.000    1.455 
#    0.000    0.000    0.000    0.000    0.000    0.000 
#    0.000    0.000    0.000    0.000    0.000    0.000 
#
# Total GULP energy -272658.655519 kJ/mol
# GULP energy per Si atom -12393.575251 kJ/mol
# Density = 1.862937 g / cm^3
# Si number density = 18.671864 Si / 1000 Ang^3
#
#
#
# Elastic Constant Matrix: (Units=GPa)
#
#
# Indices 1 2 3 4 5 6 
#
# 1 80.2190 58.0297 35.0863 0.0000 4.3840 0.0000
# 2 58.0297 103.9619 33.2311 0.0000 11.2361 0.0000
# 3 35.0863 33.2311 63.8004 0.0000 9.2807 0.0001
# 4 0.0000 0.0000 0.0000 19.7092 0.0001 -2.6540
# 5 4.3840 11.2361 9.2807 0.0001 29.3991 -0.0001
# 6 0.0000 0.0000 0.0001 -2.6540 -0.0001 44.6301
#
#
#
# Elastic Compliance Matrix: (Units=1/GPa)
#
#
# Indices 1 2 3 4 5 6 
#
# 1 0.023697 -0.011104 -0.007705 0.000000 0.003143 0.000000
# 2 -0.011104 0.016941 -0.002114 0.000000 -0.004152 0.000000
# 3 -0.007705 -0.002114 0.021725 0.000000 -0.004901 0.000000
# 4 0.000000 0.000000 0.000000 0.051147 0.000000 0.003042
# 5 0.003143 -0.004152 -0.004901 0.000000 0.036680 0.000000
# 6 0.000000 0.000000 0.000000 0.003042 0.000000 0.022587
#
#
# Mechanical properties :
#
#
# Convention : Reuss Voigt Hill
#
# Bulk Modulus (GPa) = 48.73866 55.63060 52.18463
# Shear Modulus (GPa) = 22.57721 26.85664 24.71692
#
# Velocity S-wave (km/s) = 3.48107 3.79667 3.64229
# Velocity P-wave (km/s) = 6.50511 7.00558 6.75998
#
# Compressibility (1/GPa) = 0.02051759
#
# Stress axis : x y z
#
# Youngs Moduli (GPa) = 42.20011 59.02784 46.02933
#
# Poissons Ratio (x) = 0.65543 0.35467
# Poissons Ratio (y) = 0.46858 0.09729
# Poissons Ratio (z) = 0.32517 0.12477
#
# Static dielectric constant tensor:
#      x y z
#    x 3.612490 0.000000 0.140930 
#    y 0.000000 3.669480 0.000000 
#    z 0.140930 0.000000 3.176800 
# 
# 
# High freq. dielectric constant tensor:
#      x y z
#    x 1.738200 0.000000 0.008760 
#    y 0.000000 1.732160 0.000000 
#    z 0.008760 0.000000 1.692700 
# 
# From -- ./inp_files/251240.got.cif
#   From: 2010.06.25/outbox.cif.g09.slc.cpg/sg12_126_cif.got.tgz:251240.got - 2010.06.28 00:19:55.
