data_PCOD8115618
_publ_section_title
;
Structure prediction by ZEFSAII (Michael W. Deem and Ramdas Pophale) SiO2 
 PCOD8115618
Probable space group: C 2/M
;
_chemical_formula_sum "Si O2"
_cell_formula_units_Z 40
_cell_length_a 9.859179
_cell_length_b 9.859053
_cell_length_c 20.610770
_cell_angle_alpha 90.000000
_cell_angle_beta 98.951593
_cell_angle_gamma 90.000000
_cell_volume 1979.010289
_symmetry_space_group_name_H-M "C 2/M"
_symmetry_group_IT_number 12
_symmetry_cell_setting 'monoclinic'
loop_
_space_group_symop_operation_xyz
x,y,z
-x,y,-z
-x,-y,-z
x,-y,z
1/2+x,1/2+y,z
1/2-x,1/2+y,-z
1/2-x,1/2-y,-z
1/2+x,1/2-y,z
loop_
_atom_site_type_symbol
_atom_site_label
_atom_site_fract_x
_atom_site_fract_y
_atom_site_fract_z
Si Si1 0.669622 0.000000 0.363912
Si Si2 0.105629 0.268861 0.455323
Si Si3 0.995632 0.000000 0.383599
Si Si4 0.162632 0.500000 0.217540
Si Si5 0.485499 0.500000 0.236589
Si Si6 0.968023 0.241341 0.854257
Si Si7 0.754119 0.340776 0.063983
O O1 0.613317 0.867756 0.395030
O O2 0.606438 0.000000 0.286921
O O3 0.832707 0.000000 0.375019
O O4 0.250000 0.250000 0.500000
O O5 0.000000 0.329491 0.500000
O O6 0.052889 0.127057 0.425732
O O7 0.049629 0.000000 0.313483
O O8 0.324202 0.500000 0.229972
O O9 0.113647 0.370482 0.175345
O O10 0.536010 0.633119 0.203540
O O11 0.890786 0.177602 0.910430
O O12 0.122318 0.285336 0.882692
O O13 0.775661 0.500000 0.048363
O O14 0.750000 0.250000 0.000000
#
# Coordination Sequence:
#
# PCOD8115618 Si02
#       7
#     4   8   4   4   4   8   8
#     4  11  24  43  65 101 132 174 223 273 332 394
#     4  12  23  43  68  95 134 177 221 273 332 390
#     4  11  24  44  64 101 136 170 223 277 331 392
#     4  11  24  43  70  97 134 173 221 277 331 388
#     4  11  24  43  71  96 134 177 217 277 332 392
#     4  12  24  46  68 100 131 173 225 269 334 388
#     4  12  28  44  69 100 135 174 221 273 324 395
#
# _framework density 20.212123999999999
#
# number of rings (size 3 to 8) (size 9 to 14) (size 15 to 20)
#    0.000    0.400    6.000    3.000    2.800    1.600 
#    0.000    2.000    0.000    0.000    0.000    0.000 
#    0.000    0.000    0.000    0.000    0.000    0.000 
#
# Total GULP energy -248106.386882 kJ/mol
# GULP energy per Si atom -12405.319344 kJ/mol
# Density = 2.016612 g / cm^3
# Si number density = 20.212124 Si / 1000 Ang^3
#
#
#
# Elastic Constant Matrix: (Units=GPa)
#
#
# Indices 1 2 3 4 5 6 
#
# 1 81.6177 14.8959 19.6288 0.0000 -13.8909 0.0000
# 2 14.8959 127.8758 34.2762 0.0000 -10.4291 0.0000
# 3 19.6288 34.2762 102.1907 0.0000 -18.9913 0.0000
# 4 0.0000 0.0000 0.0000 293.1603 0.0000 209.5069
# 5 -13.8909 -10.4291 -18.9913 0.0000 40.4771 0.0000
# 6 0.0000 0.0000 0.0000 209.5069 0.0000 214.0057
#
#
#
# Elastic Compliance Matrix: (Units=1/GPa)
#
#
# Indices 1 2 3 4 5 6 
#
# 1 0.013412 -0.000831 -0.001623 0.000000 0.003627 0.000000
# 2 -0.000831 0.008677 -0.002616 0.000000 0.000723 0.000000
# 3 -0.001623 -0.002616 0.011773 0.000000 0.004292 0.000000
# 4 0.000000 0.000000 0.000000 0.011356 0.000000 -0.011117
# 5 0.003627 0.000723 0.004292 0.000000 0.028150 0.000000
# 6 0.000000 0.000000 0.000000 -0.011117 0.000000 0.015557
#
#
# Mechanical properties :
#
#
# Convention : Reuss Voigt Hill
#
# Bulk Modulus (GPa) = 42.15961 49.92067 46.04014
# Shear Modulus (GPa) = 46.74075 125.72083 86.23079
#
# Velocity S-wave (km/s) = 4.81407 7.89530 6.53877
# Velocity P-wave (km/s) = 7.19752 10.38587 8.93506
#
# Compressibility (1/GPa) = 0.02371939
#
# Stress axis : x y z
#
# Youngs Moduli (GPa) = 74.56217 115.24459 84.94220
#
# Poissons Ratio (x) = 0.09581 0.13788
# Poissons Ratio (y) = 0.06199 0.22225
# Poissons Ratio (z) = 0.12103 0.30153
#
# Static dielectric constant tensor:
#      x y z
#    x 3.924820 0.000000 -0.141400 
#    y 0.000000 3.859760 0.000000 
#    z -0.141400 0.000000 4.001740 
# 
# 
# High freq. dielectric constant tensor:
#      x y z
#    x 1.797430 0.000000 -0.006550 
#    y 0.000000 1.807450 0.000000 
#    z -0.006550 0.000000 1.803780 
# 
# From -- ./inp_files/331835.got.cif
#   From: 2010.06.25/outbox.cif.g09.slc.cpg/sg12_166_cif.got.tgz:331835.got - 2010.06.28 00:19:55.
