data_PCOD8115426
_publ_section_title
;
Structure prediction by ZEFSAII (Michael W. Deem and Ramdas Pophale) SiO2 
 PCOD8115426
Probable space group: C 2/M
;
_chemical_formula_sum "Si O2"
_cell_formula_units_Z 48
_cell_length_a 9.009048
_cell_length_b 16.753261
_cell_length_c 17.147356
_cell_angle_alpha 90.000000
_cell_angle_beta 52.708601
_cell_angle_gamma 90.000000
_cell_volume 2058.973622
_symmetry_space_group_name_H-M "C 2/M"
_symmetry_group_IT_number 12
_symmetry_cell_setting 'monoclinic'
loop_
_space_group_symop_operation_xyz
x,y,z
-x,y,-z
-x,-y,-z
x,-y,z
1/2+x,1/2+y,z
1/2-x,1/2+y,-z
1/2-x,1/2-y,-z
1/2+x,1/2-y,z
loop_
_atom_site_type_symbol
_atom_site_label
_atom_site_fract_x
_atom_site_fract_y
_atom_site_fract_z
Si Si1 0.199034 0.407838 0.238260
Si Si2 0.350293 0.913084 0.981863
Si Si3 0.462199 0.331197 0.596850
Si Si4 0.816465 0.658711 0.595428
Si Si5 0.991324 0.802875 0.915858
Si Si6 0.920576 0.346069 0.220076
O O1 0.159290 0.500000 0.234488
O O2 0.252809 0.395885 0.311680
O O3 0.370685 0.378570 0.130204
O O4 0.019397 0.351931 0.273814
O O5 0.214800 0.837202 0.033819
O O6 0.467119 0.911859 0.864643
O O7 0.249601 0.000000 0.019467
O O8 0.500000 0.902083 0.000000
O O9 0.500000 0.372473 0.500000
O O10 0.652218 0.331698 0.584922
O O11 0.378519 0.244179 0.607589
O O12 0.296289 0.371969 0.700252
O O13 0.000000 0.617107 0.500000
O O14 0.051320 0.740241 0.829960
O O15 0.000000 0.765067 0.000000
#
# Coordination Sequence:
#
# PCOD8115426 Si02
#       6
#     8   8   8   8   8   8
#     4  12  27  45  70 102 145 189 235 295 364 429
#     4  11  26  43  64  97 144 187 233 294 359 416
#     4  11  23  42  73 108 144 182 234 302 356 416
#     4  11  23  43  71 104 143 185 235 294 361 425
#     4  12  26  44  71 100 138 187 247 292 350 419
#     4  12  25  43  71 103 137 187 242 296 348 424
#
# _framework density 23.312587000000001
#
# number of rings (size 3 to 8) (size 9 to 14) (size 15 to 20)
#    0.000    0.500    3.333    6.000    4.667    1.000 
#    0.000    0.833    0.000    3.500    0.000    0.000 
#    0.000    0.000    0.000    0.000    0.000    0.000 
#
# Total GULP energy -297498.237078 kJ/mol
# GULP energy per Si atom -12395.759878 kJ/mol
# Density = 2.325953 g / cm^3
# Si number density = 23.312587 Si / 1000 Ang^3
#
#
#
# Elastic Constant Matrix: (Units=GPa)
#
#
# Indices 1 2 3 4 5 6 
#
# 1 186.3910 43.5653 63.5504 0.0000 0.8831 0.0001
# 2 43.5653 92.2631 25.4718 0.0001 8.0951 -0.0001
# 3 63.5504 25.4718 127.3069 0.0000 -11.9076 0.0000
# 4 0.0000 0.0001 0.0000 25.2828 0.0000 -2.8389
# 5 0.8831 8.0951 -11.9076 0.0000 40.7753 -0.0001
# 6 0.0001 -0.0001 0.0000 -2.8389 -0.0001 29.5881
#
#
#
# Elastic Compliance Matrix: (Units=1/GPa)
#
#
# Indices 1 2 3 4 5 6 
#
# 1 0.006969 -0.002398 -0.003052 0.000000 -0.000566 0.000000
# 2 -0.002398 0.012674 -0.001613 0.000000 -0.002935 0.000000
# 3 -0.003052 -0.001613 0.010011 0.000000 0.003310 0.000000
# 4 0.000000 0.000000 0.000000 0.039983 0.000000 0.003836
# 5 -0.000566 -0.002935 0.003310 0.000000 0.026086 0.000000
# 6 0.000000 0.000000 0.000000 0.003836 0.000000 0.034166
#
#
# Mechanical properties :
#
#
# Convention : Reuss Voigt Hill
#
# Bulk Modulus (GPa) = 64.40437 74.57067 69.48752
# Shear Modulus (GPa) = 33.51409 37.35415 35.43412
#
# Velocity S-wave (km/s) = 3.79568 4.00724 3.90289
# Velocity P-wave (km/s) = 6.84806 7.31214 7.08390
#
# Compressibility (1/GPa) = 0.01552690
#
# Stress axis : x y z
#
# Youngs Moduli (GPa) = 143.49550 78.90210 99.89181
#
# Poissons Ratio (x) = 0.18924 0.30486
# Poissons Ratio (y) = 0.34416 0.16114
# Poissons Ratio (z) = 0.43793 0.12728
#
# Static dielectric constant tensor:
#      x y z
#    x 4.094470 0.000000 -0.162340 
#    y 0.000000 3.895230 0.000000 
#    z -0.162340 0.000000 4.885690 
# 
# 
# High freq. dielectric constant tensor:
#      x y z
#    x 1.937500 0.000000 0.004410 
#    y 0.000000 1.893580 0.000000 
#    z 0.004410 0.000000 1.936940 
# 
# From -- ./inp_files/256436.got.cif
#   From: 2010.06.25/outbox.cif.g09.slc.cpg/sg12_129_cif.got.tgz:256436.got - 2010.06.28 00:19:55.
