data_PCOD8115452
_publ_section_title
;
Structure prediction by ZEFSAII (Michael W. Deem and Ramdas Pophale) SiO2 
 PCOD8115452
Probable space group: C 2/M
;
_chemical_formula_sum "Si O2"
_cell_formula_units_Z 48
_cell_length_a 18.686075
_cell_length_b 16.317532
_cell_length_c 14.105708
_cell_angle_alpha 90.000000
_cell_angle_beta 29.698160
_cell_angle_gamma 90.000000
_cell_volume 2130.837978
_symmetry_space_group_name_H-M "C 2/M"
_symmetry_group_IT_number 12
_symmetry_cell_setting 'monoclinic'
loop_
_space_group_symop_operation_xyz
x,y,z
-x,y,-z
-x,-y,-z
x,-y,z
1/2+x,1/2+y,z
1/2-x,1/2+y,-z
1/2-x,1/2-y,-z
1/2+x,1/2-y,z
loop_
_atom_site_type_symbol
_atom_site_label
_atom_site_fract_x
_atom_site_fract_y
_atom_site_fract_z
Si Si1 0.773370 0.095031 0.335406
Si Si2 0.771174 0.905932 0.122066
Si Si3 0.044530 0.158234 0.708901
Si Si4 0.214649 0.596143 0.697687
Si Si5 0.585596 0.096149 0.033625
Si Si6 0.464396 0.834928 0.722429
O O1 0.822862 0.111983 0.170314
O O2 0.855997 0.157581 0.310765
O O3 0.603936 0.111246 0.539092
O O4 0.805052 0.000000 0.327733
O O5 0.641059 0.842405 0.247278
O O6 0.717405 0.000000 0.175697
O O7 0.902809 0.892836 0.898155
O O8 0.131499 0.118538 0.522186
O O9 0.002445 0.245649 0.715866
O O10 0.202507 0.500000 0.715761
O O11 0.194184 0.632054 0.828217
O O12 0.079206 0.629294 0.791741
O O13 0.588792 0.000000 0.022308
O O14 0.633393 0.124623 0.082043
#
# Coordination Sequence:
#
# PCOD8115452 Si02
#       6
#     8   8   8   8   8   8
#     4  11  23  43  70  96 126 175 230 271 316 391
#     4  11  25  45  68  94 132 180 223 269 325 395
#     4  12  24  40  64  99 137 165 213 278 338 383
#     4   9  18  35  61  90 121 164 215 263 309 375
#     4   9  18  35  61  90 121 164 216 259 308 380
#     4  12  24  40  64  97 135 170 214 270 339 393
#
# _framework density 22.526349
#
# number of rings (size 3 to 8) (size 9 to 14) (size 15 to 20)
#    0.000    1.333    1.667    6.000    0.000    4.000 
#    3.000    2.500    0.000    3.000    0.000    0.000 
#    0.000    0.000    0.000    0.000    0.000    0.000 
#
# Total GULP energy -297443.525352 kJ/mol
# GULP energy per Si atom -12393.480223 kJ/mol
# Density = 2.247508 g / cm^3
# Si number density = 22.526349 Si / 1000 Ang^3
#
#
#
# Elastic Constant Matrix: (Units=GPa)
#
#
# Indices 1 2 3 4 5 6 
#
# 1 77.7599 43.8733 32.2384 0.0003 -4.4500 -0.0001
# 2 43.8733 82.4709 37.7968 0.0002 4.8577 -0.0001
# 3 32.2384 37.7968 148.4915 0.0002 13.9021 -0.0002
# 4 0.0003 0.0002 0.0002 21.6367 -0.0002 -9.5847
# 5 -4.4500 4.8577 13.9021 -0.0002 39.7724 0.0001
# 6 -0.0001 -0.0001 -0.0002 -9.5847 0.0001 34.0124
#
#
#
# Elastic Compliance Matrix: (Units=1/GPa)
#
#
# Indices 1 2 3 4 5 6 
#
# 1 0.019385 -0.009565 -0.002157 0.000000 0.004091 0.000000
# 2 -0.009565 0.018455 -0.002388 0.000000 -0.002490 0.000000
# 3 -0.002157 -0.002388 0.008070 0.000000 -0.002770 0.000000
# 4 0.000000 0.000000 0.000000 0.052810 0.000000 0.014882
# 5 0.004091 -0.002490 -0.002770 0.000000 0.026873 0.000000
# 6 0.000000 0.000000 0.000000 0.014882 0.000000 0.033595
#
#
# Mechanical properties :
#
#
# Convention : Reuss Voigt Hill
#
# Bulk Modulus (GPa) = 56.52807 59.61551 58.07179
# Shear Modulus (GPa) = 25.86589 32.07189 28.96889
#
# Velocity S-wave (km/s) = 3.39226 3.77735 3.58998
# Velocity P-wave (km/s) = 6.36333 6.74884 6.55891
#
# Compressibility (1/GPa) = 0.01769033
#
# Stress axis : x y z
#
# Youngs Moduli (GPa) = 51.58551 54.18601 123.91809
#
# Poissons Ratio (x) = 0.51829 0.26729
# Poissons Ratio (y) = 0.49342 0.29589
# Poissons Ratio (z) = 0.11127 0.12938
#
# Static dielectric constant tensor:
#      x y z
#    x 3.745360 -0.000010 -0.535330 
#    y -0.000010 3.576800 -0.000020 
#    z -0.535330 -0.000020 2.909790 
# 
# 
# High freq. dielectric constant tensor:
#      x y z
#    x 1.885260 0.000000 0.020770 
#    y 0.000000 1.868550 0.000000 
#    z 0.020770 0.000000 1.898810 
# 
# From -- ./inp_files/226749.got.cif
#   From: 2010.06.25/outbox.cif.g09.slc.cpg/sg12_114_cif.got.tgz:226749.got - 2010.06.28 00:19:55.
