data_PCOD8115199
_publ_section_title
;
Structure prediction by ZEFSAII (Michael W. Deem and Ramdas Pophale) SiO2 
 PCOD8115199
Probable space group: C 2/M
;
_chemical_formula_sum "Si O2"
_cell_formula_units_Z 48
_cell_length_a 22.134305
_cell_length_b 17.971700
_cell_length_c 18.822697
_cell_angle_alpha 90.000000
_cell_angle_beta 162.465585
_cell_angle_gamma 90.000000
_cell_volume 2255.823862
_symmetry_space_group_name_H-M "C 2/M"
_symmetry_group_IT_number 12
_symmetry_cell_setting 'monoclinic'
loop_
_space_group_symop_operation_xyz
x,y,z
-x,y,-z
-x,-y,-z
x,-y,z
1/2+x,1/2+y,z
1/2-x,1/2+y,-z
1/2-x,1/2-y,-z
1/2+x,1/2-y,z
loop_
_atom_site_type_symbol
_atom_site_label
_atom_site_fract_x
_atom_site_fract_y
_atom_site_fract_z
Si Si1 0.453283 0.197570 0.026911
Si Si2 0.366983 0.808274 0.289174
Si Si3 0.907623 0.142264 0.138711
Si Si4 0.684323 0.918265 0.023129
Si Si5 0.713454 0.918720 0.506621
Si Si6 0.131404 0.740462 0.470437
O O1 0.319673 0.271761 0.879215
O O2 0.500000 0.172558 0.000000
O O3 0.317965 0.134196 0.910971
O O4 0.663483 0.213171 0.302096
O O5 0.500000 0.849619 0.500000
O O6 0.513350 0.749309 0.412810
O O7 0.274624 0.859068 0.122624
O O8 0.076667 0.088387 0.298667
O O9 0.995971 0.226249 0.253293
O O10 0.831297 0.111382 0.127399
O O11 0.457389 0.921321 0.743185
O O12 0.758990 0.000000 0.129870
O O13 0.676542 0.847957 0.515992
O O14 0.716155 0.000000 0.549968
#
# Coordination Sequence:
#
# PCOD8115199 Si02
#       6
#     8   8   8   8   8   8
#     4  12  24  41  67  95 133 173 217 271 327 388
#     4  12  24  38  65  99 130 163 214 277 328 376
#     4  12  22  40  70  96 127 172 227 272 316 386
#     4  11  24  41  64  98 135 173 216 268 327 388
#     4  11  23  38  63  96 130 166 214 273 324 377
#     4  12  22  40  67  96 124 172 228 270 317 384
#
# _framework density 21.278255999999999
#
# number of rings (size 3 to 8) (size 9 to 14) (size 15 to 20)
#    0.000    0.333    8.333    2.500    0.000    0.333 
#    0.000    0.000    0.000    9.500    0.000    0.000 
#    0.000    0.000    0.000    0.000    0.000    0.000 
#
# Total GULP energy -297429.266672 kJ/mol
# GULP energy per Si atom -12392.886111 kJ/mol
# Density = 2.122983 g / cm^3
# Si number density = 21.278256 Si / 1000 Ang^3
#
#
#
# Elastic Constant Matrix: (Units=GPa)
#
#
# Indices 1 2 3 4 5 6 
#
# 1 96.7696 20.8090 23.6260 0.0225 8.8661 0.0192
# 2 20.8090 102.5683 16.4260 0.0431 0.4071 0.0366
# 3 23.6260 16.4260 86.2384 0.0558 9.3785 0.0438
# 4 0.0225 0.0431 0.0558 10.7765 0.0351 7.2229
# 5 8.8661 0.4071 9.3785 0.0351 38.7112 0.0194
# 6 0.0192 0.0366 0.0438 7.2229 0.0194 20.1010
#
#
#
# Elastic Compliance Matrix: (Units=1/GPa)
#
#
# Indices 1 2 3 4 5 6 
#
# 1 0.011562 -0.001924 -0.002583 0.000005 -0.002002 -0.000002
# 2 -0.001924 0.010382 -0.001527 -0.000029 0.000701 -0.000004
# 3 -0.002583 -0.001527 0.012867 -0.000044 -0.002510 -0.000005
# 4 0.000005 -0.000029 -0.000044 0.122233 -0.000079 -0.043922
# 5 -0.002002 0.000701 -0.002510 -0.000079 0.026891 0.000008
# 6 -0.000002 -0.000004 -0.000005 -0.043922 0.000008 0.065531
#
#
# Mechanical properties :
#
#
# Convention : Reuss Voigt Hill
#
# Bulk Modulus (GPa) = 43.96985 45.25537 44.61261
# Shear Modulus (GPa) = 18.57941 28.89877 23.73909
#
# Velocity S-wave (km/s) = 2.95814 3.68929 3.34376
# Velocity P-wave (km/s) = 5.69004 6.28190 5.99328
#
# Compressibility (1/GPa) = 0.02274286
#
# Stress axis : x y z
#
# Youngs Moduli (GPa) = 86.49272 96.32386 77.71699
#
# Poissons Ratio (x) = 0.18532 0.20077
# Poissons Ratio (y) = 0.16641 0.11864
# Poissons Ratio (z) = 0.22344 0.14704
#
# Static dielectric constant tensor:
#      x y z
#    x 3.805330 -0.000080 0.259980 
#    y -0.000080 3.886030 -0.000150 
#    z 0.259980 -0.000150 4.037260 
# 
# 
# High freq. dielectric constant tensor:
#      x y z
#    x 1.835650 -0.000010 0.030470 
#    y -0.000010 1.804060 -0.000010 
#    z 0.030470 -0.000010 1.842850 
# 
# From -- ./inp_files/285417.got.cif
#   From: 2010.06.25/outbox.cif.g09.slc.cpg/sg12_143_cif.got.tgz:285417.got - 2010.06.28 00:19:55.
