data_PCOD8115200
_publ_section_title
;
Structure prediction by ZEFSAII (Michael W. Deem and Ramdas Pophale) SiO2 
 PCOD8115200
Probable space group: C 2/M
;
_chemical_formula_sum "Si O2"
_cell_formula_units_Z 40
_cell_length_a 9.964245
_cell_length_b 16.180569
_cell_length_c 28.255624
_cell_angle_alpha 90.000000
_cell_angle_beta 153.986921
_cell_angle_gamma 90.000000
_cell_volume 1997.966738
_symmetry_space_group_name_H-M "C 2/M"
_symmetry_group_IT_number 12
_symmetry_cell_setting 'monoclinic'
loop_
_space_group_symop_operation_xyz
x,y,z
-x,y,-z
-x,-y,-z
x,-y,z
1/2+x,1/2+y,z
1/2-x,1/2+y,-z
1/2-x,1/2-y,-z
1/2+x,1/2-y,z
loop_
_atom_site_type_symbol
_atom_site_label
_atom_site_fract_x
_atom_site_fract_y
_atom_site_fract_z
Si Si1 0.250626 0.093946 0.545155
Si Si2 0.332922 0.596294 0.230247
Si Si3 0.301513 0.317173 0.734986
Si Si4 0.688052 0.218055 0.928292
Si Si5 0.682957 0.326970 0.422640
O O1 0.584410 0.103466 0.676005
O O2 0.262014 0.135270 0.497892
O O3 0.000000 0.135544 0.500000
O O4 0.165595 0.000000 0.510067
O O5 0.323335 0.500000 0.211403
O O6 0.470966 0.658830 0.235094
O O7 0.530196 0.603576 0.340617
O O8 0.990162 0.630679 0.129382
O O9 0.495376 0.290834 0.841879
O O10 0.058359 0.245894 0.644219
O O11 0.750000 0.250000 0.000000
O O12 0.000000 0.201057 0.000000
O O13 0.000000 0.294988 0.500000
#
# Coordination Sequence:
#
# PCOD8115200 Si02
#       5
#     8   8   8   8   8
#     4  11  24  38  58  93 139 173 207 257 315 371
#     4  11  24  41  67  99 127 163 213 267 317 374
#     4  11  23  38  65  91 126 164 217 256 310 379
#     4  11  24  45  67  93 123 164 212 271 326 380
#     4  11  23  38  64  93 132 175 213 249 307 381
#
# _framework density 20.020354000000001
#
# number of rings (size 3 to 8) (size 9 to 14) (size 15 to 20)
#    0.000    1.000    4.000    2.400    5.600    1.200 
#    0.000    3.000    0.000    0.000    0.000    0.000 
#    0.000    0.000    0.000    0.000    0.000    0.000 
#
# Total GULP energy -247911.796993 kJ/mol
# GULP energy per Si atom -12395.589850 kJ/mol
# Density = 1.997479 g / cm^3
# Si number density = 20.020354 Si / 1000 Ang^3
#
#
#
# Elastic Constant Matrix: (Units=GPa)
#
#
# Indices 1 2 3 4 5 6 
#
# 1 155.7689 56.6872 68.6458 -0.0025 11.1355 -0.0017
# 2 56.6872 99.8614 49.9037 0.0021 -6.5689 0.0002
# 3 68.6458 49.9037 133.7051 -0.0051 5.1622 0.0071
# 4 -0.0025 0.0021 -0.0051 22.5578 -0.0037 3.4180
# 5 11.1355 -6.5689 5.1622 -0.0037 38.3539 -0.0019
# 6 -0.0017 0.0002 0.0071 3.4180 -0.0019 22.2676
#
#
#
# Elastic Compliance Matrix: (Units=1/GPa)
#
#
# Indices 1 2 3 4 5 6 
#
# 1 0.009528 -0.003958 -0.003299 0.000000 -0.003000 0.000002
# 2 -0.003958 0.014247 -0.003442 -0.000002 0.004052 0.000001
# 3 -0.003299 -0.003442 0.010498 0.000003 -0.001045 -0.000004
# 4 0.000000 -0.000002 0.000003 0.045386 0.000003 -0.006967
# 5 -0.003000 0.004052 -0.001045 0.000003 0.027779 0.000002
# 6 0.000002 0.000001 -0.000004 -0.006967 0.000002 0.045978
#
#
# Mechanical properties :
#
#
# Convention : Reuss Voigt Hill
#
# Bulk Modulus (GPa) = 77.66412 82.20099 79.93256
# Shear Modulus (GPa) = 27.91653 30.90912 29.41283
#
# Velocity S-wave (km/s) = 3.73823 3.93349 3.83710
# Velocity P-wave (km/s) = 7.58349 7.85988 7.72292
#
# Compressibility (1/GPa) = 0.01287596
#
# Stress axis : x y z
#
# Youngs Moduli (GPa) = 104.95034 70.18947 95.25651
#
# Poissons Ratio (x) = 0.27778 0.31425
# Poissons Ratio (y) = 0.41535 0.32789
# Poissons Ratio (z) = 0.34623 0.24160
#
# Static dielectric constant tensor:
#      x y z
#    x 3.860780 0.000010 0.253350 
#    y 0.000010 3.653460 0.000010 
#    z 0.253350 0.000010 4.094120 
# 
# 
# High freq. dielectric constant tensor:
#      x y z
#    x 1.796210 0.000000 0.010420 
#    y 0.000000 1.773120 0.000000 
#    z 0.010420 0.000000 1.786380 
# 
# From -- ./inp_files/194407.got.cif
#   From: 2010.06.25/outbox.cif.g09.slc.cpg/sg12_98_cif.got.tgz:194407.got - 2010.06.28 00:19:55.
