data_PCOD8115318
_publ_section_title
;
Structure prediction by ZEFSAII (Michael W. Deem and Ramdas Pophale) SiO2 
 PCOD8115318
Probable space group: C 2/M
;
_chemical_formula_sum "Si O2"
_cell_formula_units_Z 56
_cell_length_a 20.707030
_cell_length_b 18.640212
_cell_length_c 18.390327
_cell_angle_alpha 90.000000
_cell_angle_beta 158.374906
_cell_angle_gamma 90.000000
_cell_volume 2615.971466
_symmetry_space_group_name_H-M "C 2/M"
_symmetry_group_IT_number 12
_symmetry_cell_setting 'monoclinic'
loop_
_space_group_symop_operation_xyz
x,y,z
-x,y,-z
-x,-y,-z
x,-y,z
1/2+x,1/2+y,z
1/2-x,1/2+y,-z
1/2-x,1/2-y,-z
1/2+x,1/2-y,z
loop_
_atom_site_type_symbol
_atom_site_label
_atom_site_fract_x
_atom_site_fract_y
_atom_site_fract_z
Si Si1 0.952476 0.278686 0.535768
Si Si2 0.511840 0.584958 0.803387
Si Si3 0.469609 0.163821 0.101183
Si Si4 0.667036 0.825171 0.890492
Si Si5 0.625925 0.420632 0.694144
Si Si6 0.062610 0.819203 0.144776
Si Si7 0.646697 0.631355 0.497994
O O1 0.769726 0.315951 0.358798
O O2 0.948016 0.200628 0.567121
O O3 0.000000 0.278212 0.500000
O O4 0.091121 0.323210 0.729213
O O5 0.491155 0.500000 0.781616
O O6 0.493211 0.613891 0.865055
O O7 0.360848 0.625085 0.597379
O O8 0.698153 0.608964 0.965688
O O9 0.472812 0.157770 0.192088
O O10 0.471755 0.246526 0.078950
O O11 0.650607 0.125714 0.263446
O O12 0.297304 0.128580 0.885202
O O13 0.750000 0.750000 0.000000
O O14 0.500000 0.386615 0.500000
O O15 0.694395 0.500000 0.744836
O O16 0.489058 0.430228 0.617899
O O17 0.000000 0.837726 0.000000
#
# Coordination Sequence:
#
# PCOD8115318 Si02
#       7
#     8   8   8   8   8   8   8
#     4  11  23  40  69 103 134 170 226 291 341 397
#     4  12  25  43  66  98 139 181 223 281 347 409
#     4  11  24  41  70 100 134 177 238 286 332 406
#     4  12  21  41  69  97 134 175 228 280 338 401
#     4  11  25  42  62  97 145 188 225 278 348 413
#     4  11  25  42  68 100 130 177 232 284 345 397
#     4  11  23  40  68  98 134 174 227 277 341 402
#
# _framework density 21.406962
#
# number of rings (size 3 to 8) (size 9 to 14) (size 15 to 20)
#    0.000    0.714    4.286    2.571    6.000    3.714 
#    0.000    3.571    0.000    1.714    0.000    0.000 
#    0.000    0.000    0.000    0.000    0.000    0.000 
#
# Total GULP energy -347011.938698 kJ/mol
# GULP energy per Si atom -12393.283525 kJ/mol
# Density = 2.135824 g / cm^3
# Si number density = 21.406962 Si / 1000 Ang^3
#
#
#
# Elastic Constant Matrix: (Units=GPa)
#
#
# Indices 1 2 3 4 5 6 
#
# 1 119.5482 40.1265 52.6381 0.0017 -13.1971 0.0014
# 2 40.1265 90.0061 52.6634 0.0162 1.8911 0.0108
# 3 52.6381 52.6634 153.2702 -0.0011 -7.5683 0.0011
# 4 0.0017 0.0162 -0.0011 19.5380 0.0044 -4.9696
# 5 -13.1971 1.8911 -7.5683 0.0044 46.9461 0.0007
# 6 0.0014 0.0108 0.0011 -4.9696 0.0007 26.5110
#
#
#
# Elastic Compliance Matrix: (Units=1/GPa)
#
#
# Indices 1 2 3 4 5 6 
#
# 1 0.010915 -0.003522 -0.002399 0.000002 0.002823 0.000001
# 2 -0.003522 0.015127 -0.004100 -0.000014 -0.002260 -0.000008
# 3 -0.002399 -0.004100 0.008802 0.000004 0.000910 0.000002
# 4 0.000002 -0.000014 0.000004 0.053745 -0.000003 0.010075
# 5 0.002823 -0.002260 0.000910 -0.000003 0.022332 0.000000
# 6 0.000001 -0.000008 0.000002 0.010075 0.000000 0.039609
#
#
# Mechanical properties :
#
#
# Convention : Reuss Voigt Hill
#
# Bulk Modulus (GPa) = 67.55552 72.63116 70.09334
# Shear Modulus (GPa) = 28.48929 33.09211 30.79070
#
# Velocity S-wave (km/s) = 3.65203 3.93600 3.79667
# Velocity P-wave (km/s) = 7.02918 7.39314 7.21346
#
# Compressibility (1/GPa) = 0.01480264
#
# Stress axis : x y z
#
# Youngs Moduli (GPa) = 91.61786 66.10869 113.61191
#
# Poissons Ratio (x) = 0.23281 0.27256
# Poissons Ratio (y) = 0.32265 0.46577
# Poissons Ratio (z) = 0.21980 0.27102
#
# Static dielectric constant tensor:
#      x y z
#    x 4.268180 -0.000020 -0.099180 
#    y -0.000020 3.557010 -0.000010 
#    z -0.099180 -0.000010 3.910400 
# 
# 
# High freq. dielectric constant tensor:
#      x y z
#    x 1.856810 0.000000 -0.001800 
#    y 0.000000 1.808900 0.000000 
#    z -0.001800 0.000000 1.853010 
# 
# From -- ./inp_files/286100.got.cif
#   From: 2010.06.25/outbox.cif.g09.slc.cpg/sg12_144_cif.got.tgz:286100.got - 2010.06.28 00:19:55.
