data_PCOD8115311
_publ_section_title
;
Structure prediction by ZEFSAII (Michael W. Deem and Ramdas Pophale) SiO2 
 PCOD8115311
Probable space group: C 2/M
;
_chemical_formula_sum "Si O2"
_cell_formula_units_Z 48
_cell_length_a 14.823055
_cell_length_b 8.335609
_cell_length_c 18.812376
_cell_angle_alpha 90.000000
_cell_angle_beta 90.168161
_cell_angle_gamma 90.000000
_cell_volume 2324.431942
_symmetry_space_group_name_H-M "C 2/M"
_symmetry_group_IT_number 12
_symmetry_cell_setting 'monoclinic'
loop_
_space_group_symop_operation_xyz
x,y,z
-x,y,-z
-x,-y,-z
x,-y,z
1/2+x,1/2+y,z
1/2-x,1/2+y,-z
1/2-x,1/2-y,-z
1/2+x,1/2-y,z
loop_
_atom_site_type_symbol
_atom_site_label
_atom_site_fract_x
_atom_site_fract_y
_atom_site_fract_z
Si Si1 0.992191 0.186900 0.417632
Si Si2 0.337884 0.186483 0.326373
Si Si3 0.771779 0.814683 0.922907
Si Si4 0.854570 0.313959 0.680133
Si Si5 0.428084 0.186058 0.832140
Si Si6 0.619918 0.683972 0.826404
O O1 0.893504 0.241744 0.392274
O O2 0.000000 0.229010 0.500000
O O3 0.067527 0.287224 0.376615
O O4 0.007232 0.000000 0.402530
O O5 0.232694 0.212242 0.342374
O O6 0.369170 0.278431 0.256252
O O7 0.359736 0.000000 0.317229
O O8 0.856564 0.715486 0.894007
O O9 0.685765 0.795008 0.872069
O O10 0.798584 0.000000 0.926415
O O11 0.750000 0.750000 0.000000
O O12 0.827735 0.500000 0.682912
O O13 0.886973 0.253843 0.757413
O O14 0.517643 0.285451 0.850130
O O15 0.453952 0.000000 0.827743
O O16 0.645880 0.500000 0.840774
#
# Coordination Sequence:
#
# PCOD8115311 Si02
#       6
#     8   8   8   8   8   8
#     4  11  25  44  66  95 132 171 214 268 327 384
#     4  12  24  40  66  97 129 170 217 266 321 383
#     4  12  26  45  68  97 134 173 214 267 325 383
#     4  11  23  40  67  97 129 169 217 267 319 381
#     4  11  23  41  67  99 130 169 218 267 318 382
#     4  12  24  41  67  98 131 170 217 267 319 383
#
# _framework density 20.650207000000002
#
# number of rings (size 3 to 8) (size 9 to 14) (size 15 to 20)
#    0.000    0.500    3.333    6.000    0.000    4.000 
#    0.000    3.333    0.000    0.000    0.000    0.000 
#    0.000    0.000    0.000    0.000    0.000    0.000 
#
# Total GULP energy -297839.947681 kJ/mol
# GULP energy per Si atom -12409.997820 kJ/mol
# Density = 2.060321 g / cm^3
# Si number density = 20.650207 Si / 1000 Ang^3
#
#
#
# Elastic Constant Matrix: (Units=GPa)
#
#
# Indices 1 2 3 4 5 6 
#
# 1 84.5870 3.5442 9.1614 0.0000 -3.0775 0.0000
# 2 3.5442 71.5333 22.3264 0.0000 2.7156 0.0000
# 3 9.1614 22.3264 67.6059 0.0000 -10.4614 0.0000
# 4 0.0000 0.0000 0.0000 28.1910 0.0000 -1.1640
# 5 -3.0775 2.7156 -10.4614 0.0000 32.1553 0.0000
# 6 0.0000 0.0000 0.0000 -1.1640 0.0000 37.9334
#
#
#
# Elastic Compliance Matrix: (Units=1/GPa)
#
#
# Indices 1 2 3 4 5 6 
#
# 1 0.012013 -0.000163 -0.001468 0.000000 0.000686 0.000000
# 2 -0.000163 0.015897 -0.005726 0.000000 -0.003221 0.000000
# 3 -0.001468 -0.005726 0.017832 0.000000 0.006145 0.000000
# 4 0.000000 0.000000 0.000000 0.035517 0.000000 0.001090
# 5 0.000686 -0.003221 0.006145 0.000000 0.033436 0.000000
# 6 0.000000 0.000000 0.000000 0.001090 0.000000 0.026395
#
#
# Mechanical properties :
#
#
# Convention : Reuss Voigt Hill
#
# Bulk Modulus (GPa) = 32.22899 32.64336 32.43618
# Shear Modulus (GPa) = 30.09362 32.23555 31.16459
#
# Velocity S-wave (km/s) = 3.82161 3.95527 3.88901
# Velocity P-wave (km/s) = 5.92570 6.05813 5.99228
#
# Compressibility (1/GPa) = 0.03102796
#
# Stress axis : x y z
#
# Youngs Moduli (GPa) = 83.24368 62.90455 56.07768
#
# Poissons Ratio (x) = 0.01026 0.08232
# Poissons Ratio (y) = 0.01358 0.32112
# Poissons Ratio (z) = 0.12219 0.36021
#
# Static dielectric constant tensor:
#      x y z
#    x 3.886890 0.000000 0.113470 
#    y 0.000000 3.840340 0.000000 
#    z 0.113470 0.000000 3.719690 
# 
# 
# High freq. dielectric constant tensor:
#      x y z
#    x 1.822370 0.000000 0.000620 
#    y 0.000000 1.820690 0.000000 
#    z 0.000620 0.000000 1.802710 
# 
# From -- ./inp_files/267646.got.cif
#   From: 2010.06.25/outbox.cif.g09.slc.cpg/sg12_134_cif.got.tgz:267646.got - 2010.06.28 00:19:55.
