data_PCOD8115401
_publ_section_title
;
Structure prediction by ZEFSAII (Michael W. Deem and Ramdas Pophale) SiO2 
 PCOD8115401
Probable space group: C 2/M
;
_chemical_formula_sum "Si O2"
_cell_formula_units_Z 48
_cell_length_a 17.910990
_cell_length_b 14.123706
_cell_length_c 14.459781
_cell_angle_alpha 90.000000
_cell_angle_beta 140.560167
_cell_angle_gamma 90.000000
_cell_volume 2323.735356
_symmetry_space_group_name_H-M "C 2/M"
_symmetry_group_IT_number 12
_symmetry_cell_setting 'monoclinic'
loop_
_space_group_symop_operation_xyz
x,y,z
-x,y,-z
-x,-y,-z
x,-y,z
1/2+x,1/2+y,z
1/2-x,1/2+y,-z
1/2-x,1/2-y,-z
1/2+x,1/2-y,z
loop_
_atom_site_type_symbol
_atom_site_label
_atom_site_fract_x
_atom_site_fract_y
_atom_site_fract_z
Si Si1 0.008703 0.500000 0.653433
Si Si2 0.636759 0.314674 0.387506
Si Si3 0.695104 0.000000 0.671658
Si Si4 0.377720 0.336451 0.839948
Si Si5 0.218800 0.699564 0.112115
Si Si6 0.579875 0.195898 0.795396
Si Si7 0.102017 0.000000 0.463848
Si Si8 0.162847 0.000000 0.736011
O O1 0.092028 0.500000 0.645769
O O2 0.037272 0.589546 0.743000
O O3 0.870829 0.500000 0.491236
O O4 0.750000 0.250000 0.500000
O O5 0.602145 0.332620 0.249265
O O6 0.528929 0.262730 0.333154
O O7 0.656571 0.410775 0.462818
O O8 0.774229 0.091231 0.762713
O O9 0.339062 0.235385 0.847219
O O10 0.500000 0.372585 0.000000
O O11 0.320174 0.773427 0.180975
O O12 0.265355 0.592936 0.166041
O O13 0.119343 0.705026 0.939010
O O14 0.145746 0.000000 0.610342
O O15 0.960082 0.000000 0.325970
#
# Coordination Sequence:
#
# PCOD8115401 Si02
#       8
#     4   8   4   8   8   8   4   4
#     4  11  23  42  67  99 134 171 231 286 333 398
#     4  12  25  44  69 100 142 180 220 280 339 406
#     4  11  24  41  64 101 130 180 223 279 340 397
#     4  12  24  45  67  99 139 174 227 275 342 405
#     4  11  23  44  70 100 131 178 229 278 337 402
#     4  11  23  43  68  98 138 176 225 280 337 404
#     4  11  25  45  66 105 134 183 229 268 340 399
#     4  11  23  44  73  99 133 173 233 280 322 409
#
# _framework density 20.656396000000001
#
# number of rings (size 3 to 8) (size 9 to 14) (size 15 to 20)
#    0.000    0.667    5.000    3.250    0.000    0.667 
#    3.000    1.250    0.000    0.000    0.000    0.000 
#    0.000    0.000    0.000    0.000    0.000    0.000 
#
# Total GULP energy -297672.666273 kJ/mol
# GULP energy per Si atom -12403.027761 kJ/mol
# Density = 2.060938 g / cm^3
# Si number density = 20.656396 Si / 1000 Ang^3
#
#
#
# Elastic Constant Matrix: (Units=GPa)
#
#
# Indices 1 2 3 4 5 6 
#
# 1 76.3856 32.8055 36.6400 0.0000 -1.8991 0.0000
# 2 32.8055 144.7203 42.6787 0.0000 9.1737 0.0000
# 3 36.6400 42.6787 108.9997 0.0000 18.2700 0.0000
# 4 0.0000 0.0000 0.0000 33.7060 0.0000 8.8304
# 5 -1.8991 9.1737 18.2700 0.0000 38.2964 0.0000
# 6 0.0000 0.0000 0.0000 8.8304 0.0000 45.1470
#
#
#
# Elastic Compliance Matrix: (Units=1/GPa)
#
#
# Indices 1 2 3 4 5 6 
#
# 1 0.016825 -0.002489 -0.005349 0.000000 0.003982 0.000000
# 2 -0.002489 0.008187 -0.002195 0.000000 -0.001037 0.000000
# 3 -0.005349 -0.002195 0.012813 0.000000 -0.005852 0.000000
# 4 0.000000 0.000000 0.000000 0.031271 0.000000 -0.006116
# 5 0.003982 -0.001037 -0.005852 0.000000 0.029350 0.000000
# 6 0.000000 0.000000 0.000000 -0.006116 0.000000 0.023346
#
#
# Mechanical properties :
#
#
# Convention : Reuss Voigt Hill
#
# Bulk Modulus (GPa) = 56.30839 61.59490 58.95164
# Shear Modulus (GPa) = 33.83479 37.96197 35.89838
#
# Velocity S-wave (km/s) = 4.05159 4.29159 4.17331
# Velocity P-wave (km/s) = 7.01469 7.37838 7.19883
#
# Compressibility (1/GPa) = 0.01775934
#
# Stress axis : x y z
#
# Youngs Moduli (GPa) = 59.43523 122.14163 78.04804
#
# Poissons Ratio (x) = 0.30402 0.41745
# Poissons Ratio (y) = 0.14794 0.17132
# Poissons Ratio (z) = 0.31790 0.26812
#
# Static dielectric constant tensor:
#      x y z
#    x 0.770560 0.000000 1.440500 
#    y 0.000000 4.015490 0.000000 
#    z 1.440500 0.000000 3.270310 
# 
# 
# High freq. dielectric constant tensor:
#      x y z
#    x 1.813690 0.000000 0.005960 
#    y 0.000000 1.816120 0.000000 
#    z 0.005960 0.000000 1.819610 
# 
# From -- ./inp_files/232901.got.cif
#   From: 2010.06.25/outbox.cif.g09.slc.cpg/sg12_117_cif.got.tgz:232901.got - 2010.06.28 00:19:55.
