data_PCOD8115321
_publ_section_title
;
Structure prediction by ZEFSAII (Michael W. Deem and Ramdas Pophale) SiO2 
 PCOD8115321
Probable space group: C 2/M
;
_chemical_formula_sum "Si O2"
_cell_formula_units_Z 48
_cell_length_a 25.077060
_cell_length_b 17.122507
_cell_length_c 12.993209
_cell_angle_alpha 90.000000
_cell_angle_beta 21.891605
_cell_angle_gamma 90.000000
_cell_volume 2080.159692
_symmetry_space_group_name_H-M "C 2/M"
_symmetry_group_IT_number 12
_symmetry_cell_setting 'monoclinic'
loop_
_space_group_symop_operation_xyz
x,y,z
-x,y,-z
-x,-y,-z
x,-y,z
1/2+x,1/2+y,z
1/2-x,1/2+y,-z
1/2-x,1/2-y,-z
1/2+x,1/2-y,z
loop_
_atom_site_type_symbol
_atom_site_label
_atom_site_fract_x
_atom_site_fract_y
_atom_site_fract_z
Si Si1 0.943616 0.087926 0.285794
Si Si2 0.655322 0.091582 0.120634
Si Si3 0.916356 0.848003 0.551480
Si Si4 0.825904 0.814921 0.221762
Si Si5 0.363572 0.168890 0.635755
Si Si6 0.658319 0.855419 0.721806
O O1 0.984716 0.118969 0.324809
O O2 0.772048 0.090945 0.577709
O O3 0.998796 0.000000 0.174574
O O4 0.020866 0.140716 0.059520
O O5 0.493251 0.110211 0.377589
O O6 0.703417 0.140388 0.136130
O O7 0.671549 0.000000 0.112633
O O8 0.754124 0.120702 0.850250
O O9 0.927584 0.755075 0.530625
O O10 0.000000 0.882528 0.500000
O O11 0.755413 0.832157 0.238237
O O12 0.716460 0.845705 0.502541
O O13 0.858149 0.724662 0.184559
O O14 0.500000 0.894162 0.000000
#
# Coordination Sequence:
#
# PCOD8115321 Si02
#       6
#     8   8   8   8   8   8
#     4  12  28  47  70 106 147 185 230 292 357 418
#     4  11  25  44  65 103 148 180 230 293 344 407
#     4  12  25  42  70 103 140 185 235 280 339 419
#     4  11  24  44  74 105 138 181 239 290 349 419
#     4  11  23  40  73 100 133 186 237 280 344 416
#     4  11  25  46  74 105 137 181 237 298 351 413
#
# _framework density 23.075151999999999
#
# number of rings (size 3 to 8) (size 9 to 14) (size 15 to 20)
#    0.000    0.667    3.333    5.500    4.667    5.667 
#    0.000    0.000    0.000    0.000    0.000    0.000 
#    0.000    0.000    0.000    0.000    0.000    0.000 
#
# Total GULP energy -297671.934481 kJ/mol
# GULP energy per Si atom -12402.997270 kJ/mol
# Density = 2.302263 g / cm^3
# Si number density = 23.075152 Si / 1000 Ang^3
#
#
#
# Elastic Constant Matrix: (Units=GPa)
#
#
# Indices 1 2 3 4 5 6 
#
# 1 98.6810 17.5833 29.7262 0.0003 -4.5464 -0.0001
# 2 17.5833 124.8875 23.8941 0.0005 16.6470 -0.0003
# 3 29.7262 23.8941 119.2369 0.0008 8.4410 -0.0003
# 4 0.0003 0.0005 0.0008 32.3008 -0.0009 -12.4336
# 5 -4.5464 16.6470 8.4410 -0.0009 34.3175 0.0004
# 6 -0.0001 -0.0003 -0.0003 -12.4336 0.0004 16.1018
#
#
#
# Elastic Compliance Matrix: (Units=1/GPa)
#
#
# Indices 1 2 3 4 5 6 
#
# 1 0.011353 -0.001458 -0.002742 0.000000 0.002886 0.000000
# 2 -0.001458 0.009001 -0.001137 0.000000 -0.004280 0.000000
# 3 -0.002742 -0.001137 0.009449 0.000000 -0.002136 0.000000
# 4 0.000000 0.000000 0.000000 0.044053 0.000001 0.034017
# 5 0.002886 -0.004280 -0.002136 0.000001 0.032123 0.000000
# 6 0.000000 0.000000 0.000000 0.034017 0.000000 0.088373
#
#
# Mechanical properties :
#
#
# Convention : Reuss Voigt Hill
#
# Bulk Modulus (GPa) = 52.28220 53.91252 53.09736
# Shear Modulus (GPa) = 23.65151 34.65079 29.15115
#
# Velocity S-wave (km/s) = 3.20500 3.87932 3.55817
# Velocity P-wave (km/s) = 6.03346 6.59394 6.31991
#
# Compressibility (1/GPa) = 0.01912697
#
# Stress axis : x y z
#
# Youngs Moduli (GPa) = 88.08585 111.10443 105.82679
#
# Poissons Ratio (x) = 0.16203 0.29021
# Poissons Ratio (y) = 0.12846 0.12034
# Poissons Ratio (z) = 0.24156 0.12634
#
# Static dielectric constant tensor:
#      x y z
#    x 4.206490 0.000000 -0.013760 
#    y 0.000000 3.888650 0.000000 
#    z -0.013760 0.000000 4.262170 
# 
# 
# High freq. dielectric constant tensor:
#      x y z
#    x 1.920170 0.000000 0.001350 
#    y 0.000000 1.893360 0.000000 
#    z 0.001350 0.000000 1.924800 
# 
# From -- ./inp_files/251425.got.cif
#   From: 2010.06.25/outbox.cif.g09.slc.cpg/sg12_126_cif.got.tgz:251425.got - 2010.06.28 00:19:55.
