data_PCOD8115416
_publ_section_title
;
Structure prediction by ZEFSAII (Michael W. Deem and Ramdas Pophale) SiO2 
 PCOD8115416
Probable space group: C 2/M
;
_chemical_formula_sum "Si O2"
_cell_formula_units_Z 36
_cell_length_a 18.728349
_cell_length_b 9.792901
_cell_length_c 8.976631
_cell_angle_alpha 90.000000
_cell_angle_beta 77.554933
_cell_angle_gamma 90.000000
_cell_volume 1607.673470
_symmetry_space_group_name_H-M "C 2/M"
_symmetry_group_IT_number 12
_symmetry_cell_setting 'monoclinic'
loop_
_space_group_symop_operation_xyz
x,y,z
-x,y,-z
-x,-y,-z
x,-y,z
1/2+x,1/2+y,z
1/2-x,1/2+y,-z
1/2-x,1/2-y,-z
1/2+x,1/2-y,z
loop_
_atom_site_type_symbol
_atom_site_label
_atom_site_fract_x
_atom_site_fract_y
_atom_site_fract_z
Si Si1 0.655495 0.500000 0.917286
Si Si2 0.475859 0.231176 0.356344
Si Si3 0.867968 0.500000 0.378582
Si Si4 0.207669 0.000000 0.347665
Si Si5 0.867463 0.782963 0.824404
Si Si6 0.397989 0.500000 0.366583
Si Si7 0.685842 0.000000 0.254543
O O1 0.593970 0.500000 0.816407
O O2 0.727354 0.500000 0.783827
O O3 0.649871 0.361172 0.014312
O O4 0.500000 0.159124 0.500000
O O5 0.416660 0.130466 0.307885
O O6 0.544877 0.270287 0.223927
O O7 0.436699 0.369846 0.419376
O O8 0.795885 0.500000 0.306643
O O9 0.152512 0.500000 0.436181
O O10 0.173445 0.134357 0.287466
O O11 0.184591 0.000000 0.531520
O O12 0.838347 0.629542 0.832865
#
# Coordination Sequence:
#
# PCOD8115416 Si02
#       7
#     4   8   4   4   8   4   4
#     4  11  27  44  65 100 138 188 227 274 335 419
#     4  12  23  42  71 104 136 177 226 288 346 405
#     4  12  25  40  73 114 135 165 232 302 348 389
#     4  11  23  42  70 109 134 175 227 295 342 398
#     4  11  25  45  71  96 141 183 230 275 350 413
#     4  12  23  40  73  98 137 178 237 280 336 403
#     4  12  22  42  72  96 135 180 227 279 339 411
#
# _framework density 22.392605
#
# number of rings (size 3 to 8) (size 9 to 14) (size 15 to 20)
#    0.000    0.444    5.556    3.333    3.111    3.556 
#    0.000    0.000    0.000    2.667    0.000    0.000 
#    0.000    0.000    0.000    0.000    0.000    0.000 
#
# Total GULP energy -223124.107794 kJ/mol
# GULP energy per Si atom -12395.783766 kJ/mol
# Density = 2.234164 g / cm^3
# Si number density = 22.392605 Si / 1000 Ang^3
#
#
#
# Elastic Constant Matrix: (Units=GPa)
#
#
# Indices 1 2 3 4 5 6 
#
# 1 154.1900 58.4417 43.1438 0.0000 -22.5491 0.0000
# 2 58.4417 165.4103 23.9895 0.0000 -7.8911 0.0000
# 3 43.1438 23.9895 87.3887 0.0000 9.0026 0.0000
# 4 0.0000 0.0000 0.0000 16.0271 0.0000 -7.3285
# 5 -22.5491 -7.8911 9.0026 0.0000 29.9264 0.0000
# 6 0.0000 0.0000 0.0000 -7.3285 0.0000 38.7182
#
#
#
# Elastic Compliance Matrix: (Units=1/GPa)
#
#
# Indices 1 2 3 4 5 6 
#
# 1 0.010105 -0.002407 -0.005208 0.000000 0.008546 0.000000
# 2 -0.002407 0.007020 -0.000766 0.000000 0.000268 0.000000
# 3 -0.005208 -0.000766 0.015119 0.000000 -0.008675 0.000000
# 4 0.000000 0.000000 0.000000 0.068306 0.000000 0.012929
# 5 0.008546 0.000268 -0.008675 0.000000 0.042535 0.000000
# 6 0.000000 0.000000 0.000000 0.012929 0.000000 0.028275
#
#
# Mechanical properties :
#
#
# Convention : Reuss Voigt Hill
#
# Bulk Modulus (GPa) = 64.60040 73.12655 68.86348
# Shear Modulus (GPa) = 25.86878 35.69527 30.78203
#
# Velocity S-wave (km/s) = 3.40257 3.99691 3.71165
# Velocity P-wave (km/s) = 6.65945 7.35036 7.01342
#
# Compressibility (1/GPa) = 0.01547978
#
# Stress axis : x y z
#
# Youngs Moduli (GPa) = 98.96026 142.45086 66.14397
#
# Poissons Ratio (x) = 0.34290 0.34451
# Poissons Ratio (y) = 0.23821 0.05068
# Poissons Ratio (z) = 0.51543 0.10915
#
# Static dielectric constant tensor:
#      x y z
#    x 4.137100 0.000000 -0.251760 
#    y 0.000000 4.077470 0.000000 
#    z -0.251760 0.000000 3.715060 
# 
# 
# High freq. dielectric constant tensor:
#      x y z
#    x 1.894670 0.000000 -0.013510 
#    y 0.000000 1.892880 0.000000 
#    z -0.013510 0.000000 1.863050 
# 
# From -- ./inp_files/71174.got.cif
#   From: 2010.06.25/outbox.cif.g09.slc.cpg/sg12_36_cif.got.tgz:71174.got - 2010.06.28 00:19:55.
