data_PCOD8115033
_publ_section_title
;
Structure prediction by ZEFSAII (Michael W. Deem and Ramdas Pophale) SiO2 
 PCOD8115033
Probable space group: C 2/M
;
_chemical_formula_sum "Si O2"
_cell_formula_units_Z 48
_cell_length_a 22.250183
_cell_length_b 17.099242
_cell_length_c 15.895846
_cell_angle_alpha 90.000000
_cell_angle_beta 157.500887
_cell_angle_gamma 90.000000
_cell_volume 2314.288628
_symmetry_space_group_name_H-M "C 2/M"
_symmetry_group_IT_number 12
_symmetry_cell_setting 'monoclinic'
loop_
_space_group_symop_operation_xyz
x,y,z
-x,y,-z
-x,-y,-z
x,-y,z
1/2+x,1/2+y,z
1/2-x,1/2+y,-z
1/2-x,1/2-y,-z
1/2+x,1/2-y,z
loop_
_atom_site_type_symbol
_atom_site_label
_atom_site_fract_x
_atom_site_fract_y
_atom_site_fract_z
Si Si1 0.060746 0.317638 0.327826
Si Si2 0.788710 0.176245 0.197654
Si Si3 0.549449 0.410923 0.974799
Si Si4 0.066874 0.911146 0.476193
Si Si5 0.175109 0.149971 0.447152
Si Si6 0.370549 0.159151 0.391954
O O1 0.159744 0.237891 0.459633
O O2 0.160982 0.369455 0.389862
O O3 0.066517 0.345684 0.431132
O O4 0.879984 0.316115 0.064649
O O5 0.799343 0.107293 0.280802
O O6 0.826822 0.255673 0.297586
O O7 0.922143 0.151936 0.300291
O O8 0.493692 0.500000 0.893755
O O9 0.470697 0.359002 0.802861
O O10 0.500000 0.374879 0.000000
O O11 0.733641 0.402993 0.204956
O O12 0.152142 0.906632 0.496637
O O13 0.005266 0.000000 0.408336
O O14 0.500000 0.121594 0.500000
#
# Coordination Sequence:
#
# PCOD8115033 Si02
#       6
#     8   8   8   8   8   8
#     4  11  24  39  66 102 126 157 223 273 310 369
#     4  11  22  42  67  96 131 168 212 269 320 375
#     4  11  24  43  63  89 132 177 209 257 326 387
#     4  11  24  45  66  95 133 173 212 256 329 394
#     4  11  22  41  66  96 127 168 215 268 316 378
#     4  12  23  41  66  96 130 165 215 270 318 376
#
# _framework density 20.740715000000002
#
# number of rings (size 3 to 8) (size 9 to 14) (size 15 to 20)
#    0.000    0.833    6.667    1.500    2.333    2.333 
#    0.000    5.833    0.000    0.000    0.000    0.000 
#    0.000    0.000    0.000    0.000    0.000    0.000 
#
# Total GULP energy -297388.396542 kJ/mol
# GULP energy per Si atom -12391.183189 kJ/mol
# Density = 2.069351 g / cm^3
# Si number density = 20.740715 Si / 1000 Ang^3
#
#
#
# Elastic Constant Matrix: (Units=GPa)
#
#
# Indices 1 2 3 4 5 6 
#
# 1 149.8934 7.6888 31.3301 0.0008 13.5922 -0.0007
# 2 7.6888 37.3740 -2.7964 0.0005 6.4752 -0.0004
# 3 31.3301 -2.7964 110.4974 0.0027 8.2273 -0.0023
# 4 0.0008 0.0005 0.0027 808.1495 0.0009 -654.0456
# 5 13.5922 6.4752 8.2273 0.0009 31.4877 -0.0008
# 6 -0.0007 -0.0004 -0.0023 -654.0456 -0.0008 575.5628
#
#
#
# Elastic Compliance Matrix: (Units=1/GPa)
#
#
# Indices 1 2 3 4 5 6 
#
# 1 0.007359 -0.001241 -0.001938 0.000000 -0.002415 0.000000
# 2 -0.001241 0.028098 0.001482 0.000000 -0.005630 0.000000
# 3 -0.001938 0.001482 0.009788 0.000000 -0.002026 0.000000
# 4 0.000000 0.000000 0.000000 0.015404 0.000000 0.017504
# 5 -0.002415 -0.005630 -0.002026 0.000000 0.034488 0.000000
# 6 0.000000 0.000000 0.000000 0.017504 0.000000 0.021628
#
#
# Mechanical properties :
#
#
# Convention : Reuss Voigt Hill
#
# Bulk Modulus (GPa) = 23.89388 41.13443 32.51415
# Shear Modulus (GPa) = 37.28303 300.47615 168.87959
#
# Velocity S-wave (km/s) = 4.24438 12.04936 9.03332
# Velocity P-wave (km/s) = 5.96364 14.61022 11.15849
#
# Compressibility (1/GPa) = 0.04185172
#
# Stress axis : x y z
#
# Youngs Moduli (GPa) = 135.88524 35.58958 102.16744
#
# Poissons Ratio (x) = 0.04415 0.19802
# Poissons Ratio (y) = 0.16857 -0.15141
# Poissons Ratio (z) = 0.26337 -0.05274
#
# Static dielectric constant tensor:
#      x y z
#    x 4.235520 0.000000 0.192550 
#    y 0.000000 3.508840 0.000000 
#    z 0.192550 0.000000 3.736610 
# 
# 
# High freq. dielectric constant tensor:
#      x y z
#    x 1.835610 0.000000 -0.000730 
#    y 0.000000 1.791550 0.000000 
#    z -0.000730 0.000000 1.803830 
# 
# From -- ./inp_files/290571.got.cif
#   From: 2010.06.25/outbox.cif.g09.slc.cpg/sg12_146_cif.got.tgz:290571.got - 2010.06.28 00:19:55.
