data_PCOD8115943
_publ_section_title
;
Structure prediction by ZEFSAII (Michael W. Deem and Ramdas Pophale) SiO2 
 PCOD8115943
Probable space group: C 2/M
;
_chemical_formula_sum "Si O2"
_cell_formula_units_Z 40
_cell_length_a 9.525645
_cell_length_b 9.757427
_cell_length_c 20.086199
_cell_angle_alpha 90.000000
_cell_angle_beta 96.561217
_cell_angle_gamma 90.000000
_cell_volume 1854.699804
_symmetry_space_group_name_H-M "C 2/M"
_symmetry_group_IT_number 12
_symmetry_cell_setting 'monoclinic'
loop_
_space_group_symop_operation_xyz
x,y,z
-x,y,-z
-x,-y,-z
x,-y,z
1/2+x,1/2+y,z
1/2-x,1/2+y,-z
1/2-x,1/2-y,-z
1/2+x,1/2-y,z
loop_
_atom_site_type_symbol
_atom_site_label
_atom_site_fract_x
_atom_site_fract_y
_atom_site_fract_z
Si Si1 0.508570 0.000000 0.379732
Si Si2 0.107235 0.227751 0.453497
Si Si3 0.179480 0.000000 0.354646
Si Si4 0.155795 0.500000 0.247674
Si Si5 0.469104 0.500000 0.225201
Si Si6 0.945425 0.257348 0.849423
Si Si7 0.786315 0.342889 0.064329
O O1 0.540351 0.130361 0.426490
O O2 0.345616 0.000000 0.349240
O O3 0.606555 0.000000 0.320660
O O4 0.250000 0.250000 0.500000
O O5 0.000000 0.157250 0.500000
O O6 0.131357 0.134203 0.391068
O O7 0.105491 0.000000 0.279439
O O8 0.325398 0.500000 0.259695
O O9 0.097945 0.365268 0.208847
O O10 0.470244 0.633172 0.179200
O O11 0.806073 0.201802 0.877631
O O12 0.048895 0.327385 0.908684
O O13 0.753870 0.500000 0.043712
O O14 0.750000 0.250000 0.000000
#
# Coordination Sequence:
#
# PCOD8115943 Si02
#       7
#     4   8   4   4   4   8   8
#     4  12  28  47  70 109 145 185 239 301 352 418
#     4  12  25  47  74 103 146 189 233 293 362 426
#     4  12  28  46  72 108 143 185 243 297 356 421
#     4  12  28  46  73 102 141 186 244 292 352 422
#     4  12  28  46  73 103 139 189 242 294 352 423
#     4  12  26  48  72 103 143 187 234 294 359 417
#     4  12  28  46  75 108 144 184 235 293 354 424
#
# _framework density 21.566832999999999
#
# number of rings (size 3 to 8) (size 9 to 14) (size 15 to 20)
#    0.000    0.000    6.000    3.000    8.400    4.800 
#    0.000    0.000    0.000    0.000    0.000    0.000 
#    0.000    0.000    0.000    0.000    0.000    0.000 
#
# Total GULP energy -248175.821217 kJ/mol
# GULP energy per Si atom -12408.791061 kJ/mol
# Density = 2.151775 g / cm^3
# Si number density = 21.566833 Si / 1000 Ang^3
#
#
#
# Elastic Constant Matrix: (Units=GPa)
#
#
# Indices 1 2 3 4 5 6 
#
# 1 125.2409 20.8774 25.4807 0.0000 6.5058 0.0000
# 2 20.8774 125.0776 25.6883 0.0000 -7.7056 0.0000
# 3 25.4807 25.6883 92.9859 0.0000 4.8790 0.0000
# 4 0.0000 0.0000 0.0000 40.4784 0.0000 -3.3925
# 5 6.5058 -7.7056 4.8790 0.0000 44.0953 0.0000
# 6 0.0000 0.0000 0.0000 -3.3925 0.0000 30.8929
#
#
#
# Elastic Compliance Matrix: (Units=1/GPa)
#
#
# Indices 1 2 3 4 5 6 
#
# 1 0.008640 -0.001109 -0.001996 0.000000 -0.001248 0.000000
# 2 -0.001109 0.008755 -0.002216 0.000000 0.001939 0.000000
# 3 -0.001996 -0.002216 0.011988 0.000000 -0.001419 0.000000
# 4 0.000000 0.000000 0.000000 0.024934 0.000000 0.002738
# 5 -0.001248 0.001939 -0.001419 0.000000 0.023358 0.000000
# 6 0.000000 0.000000 0.000000 0.002738 0.000000 0.032671
#
#
# Mechanical properties :
#
#
# Convention : Reuss Voigt Hill
#
# Bulk Modulus (GPa) = 53.36055 54.15522 53.75789
# Shear Modulus (GPa) = 39.29723 41.17720 40.23721
#
# Velocity S-wave (km/s) = 4.27325 4.37428 4.32406
# Velocity P-wave (km/s) = 7.01023 7.11880 7.06472
#
# Compressibility (1/GPa) = 0.01874044
#
# Stress axis : x y z
#
# Youngs Moduli (GPa) = 115.73556 114.22282 83.41677
#
# Poissons Ratio (x) = 0.12670 0.16648
# Poissons Ratio (y) = 0.12837 0.18488
# Poissons Ratio (z) = 0.23099 0.25316
#
# Static dielectric constant tensor:
#      x y z
#    x 4.202580 0.000000 -0.092650 
#    y 0.000000 4.079710 0.000000 
#    z -0.092650 0.000000 3.877550 
# 
# 
# High freq. dielectric constant tensor:
#      x y z
#    x 1.866240 0.000000 -0.001160 
#    y 0.000000 1.863410 0.000000 
#    z -0.001160 0.000000 1.855150 
# 
# From -- ./inp_files/331836.got.cif
#   From: 2010.06.25/outbox.cif.g09.slc.cpg/sg12_166_cif.got.tgz:331836.got - 2010.06.28 00:19:55.
