data_PCOD8115492
_publ_section_title
;
Structure prediction by ZEFSAII (Michael W. Deem and Ramdas Pophale) SiO2 
 PCOD8115492
Probable space group: C 2/M
;
_chemical_formula_sum "Si O2"
_cell_formula_units_Z 28
_cell_length_a 8.551848
_cell_length_b 24.349414
_cell_length_c 8.440699
_cell_angle_alpha 90.000000
_cell_angle_beta 46.994459
_cell_angle_gamma 90.000000
_cell_volume 1285.331629
_symmetry_space_group_name_H-M "C 2/M"
_symmetry_group_IT_number 12
_symmetry_cell_setting 'monoclinic'
loop_
_space_group_symop_operation_xyz
x,y,z
-x,y,-z
-x,-y,-z
x,-y,z
1/2+x,1/2+y,z
1/2-x,1/2+y,-z
1/2-x,1/2-y,-z
1/2+x,1/2-y,z
loop_
_atom_site_type_symbol
_atom_site_label
_atom_site_fract_x
_atom_site_fract_y
_atom_site_fract_z
Si Si1 0.500000 0.616369 0.500000
Si Si2 0.170934 0.688654 0.574166
Si Si3 0.239148 0.848021 0.826000
Si Si4 0.283085 0.936138 0.055544
O O1 0.298120 0.656919 0.621175
O O2 0.429395 0.578408 0.695646
O O3 0.250000 0.750000 0.500000
O O4 0.206699 0.649564 0.396797
O O5 0.916033 0.691772 0.786944
O O6 0.261249 0.906295 0.900376
O O7 0.000000 0.823234 0.000000
O O8 0.282210 0.000000 0.016379
O O9 0.500000 0.920151 0.000000
#
# Coordination Sequence:
#
# PCOD8115492 Si02
#       4
#     4   8   8   8
#     4  12  21  44  66  96 138 170 223 280 320 396
#     4  11  25  44  65  98 134 172 221 276 331 391
#     4  11  23  45  67  98 134 170 222 275 326 396
#     4  11  24  44  68  97 134 178 221 272 336 391
#
# _framework density 21.784261999999998
#
# number of rings (size 3 to 8) (size 9 to 14) (size 15 to 20)
#    0.000    0.857    5.714    2.143    0.000    1.714 
#    5.143    2.857    0.000    0.000    0.000    0.000 
#    0.000    0.000    0.000    0.000    0.000    0.000 
#
# Total GULP energy -173447.752465 kJ/mol
# GULP energy per Si atom -12389.125176 kJ/mol
# Density = 2.173468 g / cm^3
# Si number density = 21.784262 Si / 1000 Ang^3
#
#
#
# Elastic Constant Matrix: (Units=GPa)
#
#
# Indices 1 2 3 4 5 6 
#
# 1 117.3310 50.4003 49.1882 0.0000 -33.4300 0.0000
# 2 50.4003 123.4221 59.9775 0.0000 -3.0588 0.0000
# 3 49.1882 59.9775 96.8310 0.0000 -22.3310 0.0000
# 4 0.0000 0.0000 0.0000 24.3797 0.0000 -4.3811
# 5 -33.4300 -3.0588 -22.3310 0.0000 63.5787 0.0000
# 6 0.0000 0.0000 0.0000 -4.3811 0.0000 21.4534
#
#
#
# Elastic Compliance Matrix: (Units=1/GPa)
#
#
# Indices 1 2 3 4 5 6 
#
# 1 0.012960 -0.003691 -0.003010 0.000000 0.005580 0.000000
# 2 -0.003691 0.012916 -0.006996 0.000000 -0.003777 0.000000
# 3 -0.003010 -0.006996 0.017135 0.000000 0.004099 0.000000
# 4 0.000000 0.000000 0.000000 0.042580 0.000000 0.008696
# 5 0.005580 -0.003777 0.004099 0.000000 0.019920 0.000000
# 6 0.000000 0.000000 0.000000 0.008696 0.000000 0.048389
#
#
# Mechanical properties :
#
#
# Convention : Reuss Voigt Hill
#
# Bulk Modulus (GPa) = 64.03727 72.96845 68.50286
# Shear Modulus (GPa) = 26.80951 33.75024 30.27987
#
# Velocity S-wave (km/s) = 3.51191 3.94038 3.73230
# Velocity P-wave (km/s) = 6.77530 7.36687 7.07727
#
# Compressibility (1/GPa) = 0.01561591
#
# Stress axis : x y z
#
# Youngs Moduli (GPa) = 77.15883 77.42496 58.35953
#
# Poissons Ratio (x) = 0.28579 0.17569
# Poissons Ratio (y) = 0.28481 0.40828
# Poissons Ratio (z) = 0.23228 0.54166
#
# Static dielectric constant tensor:
#      x y z
#    x 4.440390 0.000000 -0.458080 
#    y 0.000000 3.596990 0.000000 
#    z -0.458080 0.000000 4.203630 
# 
# 
# High freq. dielectric constant tensor:
#      x y z
#    x 1.875500 0.000000 -0.020540 
#    y 0.000000 1.833180 0.000000 
#    z -0.020540 0.000000 1.857680 
# 
# From -- ./inp_files/40014.got.cif
#   From: 2010.06.25/outbox.cif.g09.slc.cpg/sg12_21_cif.got.tgz:40014.got - 2010.06.28 00:19:55.
