data_PCOD8115456
_publ_section_title
;
Structure prediction by ZEFSAII (Michael W. Deem and Ramdas Pophale) SiO2 
 PCOD8115456
Probable space group: C 2/M
;
_chemical_formula_sum "Si O2"
_cell_formula_units_Z 40
_cell_length_a 9.977284
_cell_length_b 16.644386
_cell_length_c 12.311460
_cell_angle_alpha 90.000000
_cell_angle_beta 112.394043
_cell_angle_gamma 90.000000
_cell_volume 1890.326487
_symmetry_space_group_name_H-M "C 2/M"
_symmetry_group_IT_number 12
_symmetry_cell_setting 'monoclinic'
loop_
_space_group_symop_operation_xyz
x,y,z
-x,y,-z
-x,-y,-z
x,-y,z
1/2+x,1/2+y,z
1/2-x,1/2+y,-z
1/2-x,1/2-y,-z
1/2+x,1/2-y,z
loop_
_atom_site_type_symbol
_atom_site_label
_atom_site_fract_x
_atom_site_fract_y
_atom_site_fract_z
Si Si1 0.329646 0.407861 0.146032
Si Si2 0.802649 0.593599 0.122386
Si Si3 0.362520 0.339649 0.729229
Si Si4 0.887870 0.655192 0.752969
Si Si5 0.348509 0.093658 0.503814
O O1 0.286322 0.500000 0.152929
O O2 0.500145 0.397285 0.214944
O O3 0.243032 0.352931 0.203185
O O4 0.289740 0.382243 0.011401
O O5 0.786086 0.500000 0.145967
O O6 0.747752 0.645685 0.206277
O O7 0.969872 0.614554 0.152111
O O8 0.417081 0.248626 0.741725
O O9 0.282691 0.358367 0.591783
O O10 0.843676 0.610287 0.629581
O O11 0.500000 0.123738 0.500000
O O12 0.326540 0.000000 0.473397
#
# Coordination Sequence:
#
# PCOD8115456 Si02
#       5
#     8   8   8   8   8
#     4  11  25  42  65  98 133 169 215 269 318 371
#     4  11  23  44  69  92 129 181 221 249 308 399
#     4  12  25  42  66  99 132 165 214 271 325 376
#     4  12  25  42  66  99 132 165 214 271 325 376
#     4  11  23  43  71  93 122 173 223 259 312 395
#
# _framework density 21.160367000000001
#
# number of rings (size 3 to 8) (size 9 to 14) (size 15 to 20)
#    0.000    0.600    2.000    6.600    0.000    8.800 
#    0.000    2.000    0.000    0.000    0.000    0.000 
#    0.000    0.000    0.000    0.000    0.000    0.000 
#
# Total GULP energy -248216.119587 kJ/mol
# GULP energy per Si atom -12410.805979 kJ/mol
# Density = 2.111220 g / cm^3
# Si number density = 21.160367 Si / 1000 Ang^3
#
#
#
# Elastic Constant Matrix: (Units=GPa)
#
#
# Indices 1 2 3 4 5 6 
#
# 1 89.4470 16.4948 41.1588 0.0000 12.9339 0.0000
# 2 16.4948 56.4720 18.7541 0.0000 6.7546 0.0000
# 3 41.1588 18.7541 86.5120 0.0000 29.0385 0.0000
# 4 0.0000 0.0000 0.0000 15.3031 0.0000 0.6702
# 5 12.9339 6.7546 29.0385 0.0000 40.8824 0.0000
# 6 0.0000 0.0000 0.0000 0.6702 0.0000 35.5080
#
#
#
# Elastic Compliance Matrix: (Units=1/GPa)
#
#
# Indices 1 2 3 4 5 6 
#
# 1 0.014547 -0.002106 -0.006613 0.000000 0.000443 0.000000
# 2 -0.002106 0.019389 -0.003085 0.000000 -0.000346 0.000000
# 3 -0.006613 -0.003085 0.019040 0.000000 -0.010922 0.000000
# 4 0.000000 0.000000 0.000000 0.065400 0.000000 -0.001234
# 5 0.000443 -0.000346 -0.010922 0.000000 0.032135 0.000000
# 6 0.000000 0.000000 0.000000 -0.001234 0.000000 0.028186
#
#
# Mechanical properties :
#
#
# Convention : Reuss Voigt Hill
#
# Bulk Modulus (GPa) = 34.05049 42.80513 38.42781
# Shear Modulus (GPa) = 23.57426 28.74025 26.15725
#
# Velocity S-wave (km/s) = 3.34140 3.68939 3.51970
# Velocity P-wave (km/s) = 5.56895 6.19852 5.89215
#
# Compressibility (1/GPa) = 0.02936815
#
# Stress axis : x y z
#
# Youngs Moduli (GPa) = 68.74238 51.57582 52.52020
#
# Poissons Ratio (x) = 0.10861 0.34732
# Poissons Ratio (y) = 0.14476 0.16203
# Poissons Ratio (z) = 0.45460 0.15912
#
# Static dielectric constant tensor:
#      x y z
#    x 3.734690 0.000000 0.071780 
#    y 0.000000 3.742120 0.000000 
#    z 0.071780 0.000000 3.890640 
# 
# 
# High freq. dielectric constant tensor:
#      x y z
#    x 1.834120 0.000000 0.006300 
#    y 0.000000 1.835300 0.000000 
#    z 0.006300 0.000000 1.841920 
# 
# From -- ./inp_files/119147.got.cif
#   From: 2010.06.25/outbox.cif.g09.slc.cpg/sg12_60_cif.got.tgz:119147.got - 2010.06.28 00:19:55.
