data_PCOD8115397
_publ_section_title
;
Structure prediction by ZEFSAII (Michael W. Deem and Ramdas Pophale) SiO2 
 PCOD8115397
Probable space group: C 2/M
;
_chemical_formula_sum "Si O2"
_cell_formula_units_Z 48
_cell_length_a 28.267293
_cell_length_b 8.543667
_cell_length_c 15.776061
_cell_angle_alpha 90.000000
_cell_angle_beta 142.369201
_cell_angle_gamma 90.000000
_cell_volume 2326.286815
_symmetry_space_group_name_H-M "C 2/M"
_symmetry_group_IT_number 12
_symmetry_cell_setting 'monoclinic'
loop_
_space_group_symop_operation_xyz
x,y,z
-x,y,-z
-x,-y,-z
x,-y,z
1/2+x,1/2+y,z
1/2-x,1/2+y,-z
1/2-x,1/2-y,-z
1/2+x,1/2-y,z
loop_
_atom_site_type_symbol
_atom_site_label
_atom_site_fract_x
_atom_site_fract_y
_atom_site_fract_z
Si Si1 0.058892 0.818168 0.705056
Si Si2 0.889283 0.818397 0.407595
Si Si3 0.601146 0.819500 0.936915
Si Si4 0.189171 0.682899 0.348268
Si Si5 0.971150 0.181770 0.866686
Si Si6 0.769558 0.818279 0.772448
O O1 0.100594 0.774767 0.676451
O O2 0.098254 0.713154 0.832739
O O3 0.967685 0.779307 0.569540
O O4 0.070800 0.000000 0.743217
O O5 0.821653 0.715763 0.352403
O O6 0.868213 0.000000 0.387815
O O7 0.537518 0.713709 0.892795
O O8 0.584040 0.000000 0.931231
O O9 0.686437 0.776445 0.091463
O O10 0.203253 0.500000 0.355493
O O11 0.250000 0.750000 0.500000
O O12 0.103794 0.716108 0.263743
O O13 0.196897 0.770184 0.270336
O O14 0.948658 0.000000 0.832197
O O15 0.000000 0.233474 0.000000
O O16 0.785668 0.000000 0.808828
#
# Coordination Sequence:
#
# PCOD8115397 Si02
#       6
#     8   8   8   8   8   8
#     4   9  20  41  67  93 124 161 205 254 312 376
#     4   9  20  41  67  93 123 162 205 255 313 373
#     4  12  25  40  63  93 126 165 211 257 308 372
#     4  12  26  44  66  93 127 165 209 256 307 367
#     4  11  23  42  67  92 125 165 206 255 310 367
#     4  12  25  42  63  91 127 165 208 259 312 367
#
# _framework density 20.633741000000001
#
# number of rings (size 3 to 8) (size 9 to 14) (size 15 to 20)
#    0.000    1.167    1.667    6.000    2.333    2.667 
#    0.000    1.667    0.000    0.000    0.000    0.000 
#    0.000    0.000    0.000    0.000    0.000    0.000 
#
# Total GULP energy -297784.456577 kJ/mol
# GULP energy per Si atom -12407.685691 kJ/mol
# Density = 2.058678 g / cm^3
# Si number density = 20.633741 Si / 1000 Ang^3
#
#
#
# Elastic Constant Matrix: (Units=GPa)
#
#
# Indices 1 2 3 4 5 6 
#
# 1 45.3414 15.6463 6.9168 0.0000 7.7353 0.0000
# 2 15.6463 84.4661 32.4567 0.0000 -4.4758 0.0000
# 3 6.9168 32.4567 102.7360 0.0000 -6.6948 0.0000
# 4 0.0000 0.0000 0.0000 30.4289 0.0000 -0.9446
# 5 7.7353 -4.4758 -6.6948 0.0000 38.5213 0.0000
# 6 0.0000 0.0000 0.0000 -0.9446 0.0000 34.6486
#
#
#
# Elastic Compliance Matrix: (Units=1/GPa)
#
#
# Indices 1 2 3 4 5 6 
#
# 1 0.024702 -0.004659 -0.000556 0.000000 -0.005598 0.000000
# 2 -0.004659 0.014380 -0.004106 0.000000 0.001893 0.000000
# 3 -0.000556 -0.004106 0.011171 0.000000 0.001576 0.000000
# 4 0.000000 0.000000 0.000000 0.032891 0.000000 0.000897
# 5 -0.005598 0.001893 0.001576 0.000000 0.027578 0.000000
# 6 0.000000 0.000000 0.000000 0.000897 0.000000 0.028886
#
#
# Mechanical properties :
#
#
# Convention : Reuss Voigt Hill
#
# Bulk Modulus (GPa) = 31.63381 38.06481 34.84931
# Shear Modulus (GPa) = 29.62308 32.55469 31.08889
#
# Velocity S-wave (km/s) = 3.79312 3.97639 3.88584
# Velocity P-wave (km/s) = 5.87776 6.29048 6.08762
#
# Compressibility (1/GPa) = 0.03161175
#
# Stress axis : x y z
#
# Youngs Moduli (GPa) = 40.48177 69.54047 89.51740
#
# Poissons Ratio (x) = 0.32398 0.04978
# Poissons Ratio (y) = 0.18860 0.36756
# Poissons Ratio (z) = 0.02251 0.28553
#
# Static dielectric constant tensor:
#      x y z
#    x 3.675570 0.000000 -0.001040 
#    y 0.000000 3.628880 0.000000 
#    z -0.001040 0.000000 3.802860 
# 
# 
# High freq. dielectric constant tensor:
#      x y z
#    x 1.807000 0.000000 0.001690 
#    y 0.000000 1.808300 0.000000 
#    z 0.001690 0.000000 1.817050 
# 
# From -- ./inp_files/244918.got.cif
#   From: 2010.06.25/outbox.cif.g09.slc.cpg/sg12_123_cif.got.tgz:244918.got - 2010.06.28 00:19:55.
