data_PCOD8115087
_publ_section_title
;
Structure prediction by ZEFSAII (Michael W. Deem and Ramdas Pophale) SiO2 
 PCOD8115087
Probable space group: C 2/M
;
_chemical_formula_sum "Si O2"
_cell_formula_units_Z 48
_cell_length_a 20.044366
_cell_length_b 14.713856
_cell_length_c 11.518643
_cell_angle_alpha 90.000000
_cell_angle_beta 38.635426
_cell_angle_gamma 90.000000
_cell_volume 2121.080192
_symmetry_space_group_name_H-M "C 2/M"
_symmetry_group_IT_number 12
_symmetry_cell_setting 'monoclinic'
loop_
_space_group_symop_operation_xyz
x,y,z
-x,y,-z
-x,-y,-z
x,-y,z
1/2+x,1/2+y,z
1/2-x,1/2+y,-z
1/2-x,1/2-y,-z
1/2+x,1/2-y,z
loop_
_atom_site_type_symbol
_atom_site_label
_atom_site_fract_x
_atom_site_fract_y
_atom_site_fract_z
Si Si1 0.879846 0.148678 0.149912
Si Si2 0.499967 0.284577 0.635636
Si Si3 0.406752 0.897916 0.817005
Si Si4 0.612867 0.139323 0.894117
Si Si5 0.187540 0.100837 0.001119
Si Si6 0.676751 0.601626 0.521774
O O1 0.883406 0.252999 0.110292
O O2 0.819956 0.096724 0.128121
O O3 0.815361 0.132919 0.355758
O O4 0.000000 0.110309 0.000000
O O5 0.500000 0.304406 0.500000
O O6 0.499186 0.176329 0.664853
O O7 0.605903 0.327083 0.546766
O O8 0.396163 0.328572 0.833674
O O9 0.306338 0.868866 0.874227
O O10 0.447067 0.000000 0.730528
O O11 0.369485 0.896743 0.000597
O O12 0.704166 0.098786 0.688746
O O13 0.500000 0.103141 0.000000
O O14 0.164636 0.000000 0.082439
O O15 0.627212 0.500000 0.580471
#
# Coordination Sequence:
#
# PCOD8115087 Si02
#       6
#     8   8   8   8   8   8
#     4  11  22  42  71 101 145 185 227 284 345 417
#     4  12  25  42  70 100 142 182 228 295 349 415
#     4  11  25  46  70  98 136 189 242 289 346 414
#     4  11  24  47  73 100 137 185 236 286 349 417
#     4  11  23  42  71 102 140 189 231 281 350 414
#     4  12  26  43  70 109 142 180 235 287 349 423
#
# _framework density 22.629978000000001
#
# number of rings (size 3 to 8) (size 9 to 14) (size 15 to 20)
#    0.000    0.667    3.333    4.500    2.333    5.000 
#    0.000    0.000    0.000    0.000    0.000    0.000 
#    0.000    0.000    0.000    0.000    0.000    0.000 
#
# Total GULP energy -297736.338050 kJ/mol
# GULP energy per Si atom -12405.680752 kJ/mol
# Density = 2.257847 g / cm^3
# Si number density = 22.629978 Si / 1000 Ang^3
#
#
#
# Elastic Constant Matrix: (Units=GPa)
#
#
# Indices 1 2 3 4 5 6 
#
# 1 161.9445 46.7218 66.9339 0.0000 17.0787 0.0000
# 2 46.7218 125.3034 29.5748 0.0000 -15.7446 0.0000
# 3 66.9339 29.5748 99.2196 0.0000 12.4678 0.0000
# 4 0.0000 0.0000 0.0000 4.5926 0.0000 14.3278
# 5 17.0787 -15.7446 12.4678 0.0000 41.7740 0.0000
# 6 0.0000 0.0000 0.0000 14.3278 0.0000 -13.4425
#
#
#
# Elastic Compliance Matrix: (Units=1/GPa)
#
#
# Indices 1 2 3 4 5 6 
#
# 1 0.009437 -0.002729 -0.005131 0.000000 -0.003355 0.000000
# 2 -0.002729 0.010129 -0.001868 0.000000 0.005491 0.000000
# 3 -0.005131 -0.001868 0.014464 0.000000 -0.002923 0.000000
# 4 0.000000 0.000000 0.000000 0.050343 0.000000 0.053658
# 5 -0.003355 0.005491 -0.002923 0.000000 0.028252 0.000000
# 6 0.000000 0.000000 0.000000 0.053658 0.000000 -0.017199
#
#
# Mechanical properties :
#
#
# Convention : Reuss Voigt Hill
#
# Bulk Modulus (GPa) = 68.61728 74.76982 71.69355
# Shear Modulus (GPa) = 41.75697 22.80062 32.27880
#
# Velocity S-wave (km/s) = 4.30025 3.17762 3.78083
# Velocity P-wave (km/s) = 7.41912 6.82458 7.12805
#
# Compressibility (1/GPa) = 0.01457359
#
# Stress axis : x y z
#
# Youngs Moduli (GPa) = 105.96615 98.72465 69.13615
#
# Poissons Ratio (x) = 0.26945 0.35474
# Poissons Ratio (y) = 0.28922 0.12915
# Poissons Ratio (z) = 0.54372 0.18442
#
# Static dielectric constant tensor:
#      x y z
#    x 4.275480 0.000000 0.091850 
#    y 0.000000 4.253330 0.000000 
#    z 0.091850 0.000000 3.944320 
# 
# 
# High freq. dielectric constant tensor:
#      x y z
#    x 1.901960 0.000000 0.011800 
#    y 0.000000 1.911360 0.000000 
#    z 0.011800 0.000000 1.880020 
# 
# From -- ./inp_files/167530.got.cif
#   From: 2010.06.25/outbox.cif.g09.slc.cpg/sg12_84_cif.got.tgz:167530.got - 2010.06.28 00:19:55.
