data_PCOD8115783
_publ_section_title
;
Structure prediction by ZEFSAII (Michael W. Deem and Ramdas Pophale) SiO2 
 PCOD8115783
Probable space group: C 2/M
;
_chemical_formula_sum "Si O2"
_cell_formula_units_Z 32
_cell_length_a 5.160977
_cell_length_b 25.078839
_cell_length_c 12.211042
_cell_angle_alpha 90.000000
_cell_angle_beta 112.179634
_cell_angle_gamma 90.000000
_cell_volume 1463.542467
_symmetry_space_group_name_H-M "C 2/M"
_symmetry_group_IT_number 12
_symmetry_cell_setting 'monoclinic'
loop_
_space_group_symop_operation_xyz
x,y,z
-x,y,-z
-x,-y,-z
x,-y,z
1/2+x,1/2+y,z
1/2-x,1/2+y,-z
1/2-x,1/2-y,-z
1/2+x,1/2-y,z
loop_
_atom_site_type_symbol
_atom_site_label
_atom_site_fract_x
_atom_site_fract_y
_atom_site_fract_z
Si Si1 0.000000 0.297782 0.000000
Si Si2 0.927820 0.062715 0.364960
Si Si3 0.780142 0.769459 0.763966
Si Si4 0.500000 0.629153 0.000000
Si Si5 0.181145 0.606548 0.755469
O O1 0.026349 0.259301 0.110534
O O2 0.273754 0.334668 0.029122
O O3 0.639614 0.089990 0.284458
O O4 0.000000 0.078363 0.500000
O O5 0.185010 0.083412 0.333143
O O6 0.896833 0.000000 0.344693
O O7 0.492815 0.736490 0.695220
O O8 0.699307 0.829988 0.769910
O O9 0.647935 0.588415 0.109558
#
# Coordination Sequence:
#
# PCOD8115783 Si02
#       5
#     4   8   8   4   8
#     4  12  19  36  54  95 138 191 222 230 280 373
#     4  11  26  50  74  90 113 166 237 288 321 375
#     4  12  20  33  56  96 139 170 214 249 291 378
#     4  12  23  36  63 105 140 175 205 252 318 393
#     4  12  23  40  68 104 133 164 215 268 328 381
#
# _framework density 21.864757000000001
#
# number of rings (size 3 to 8) (size 9 to 14) (size 15 to 20)
#    0.000    0.250    5.000    6.000    0.000    2.000 
#    0.000    3.750    0.000   15.000    0.000    0.000 
#    0.000    0.000    0.000    0.000    0.000    0.000 
#
# Total GULP energy -198304.927462 kJ/mol
# GULP energy per Si atom -12394.057966 kJ/mol
# Density = 2.181499 g / cm^3
# Si number density = 21.864757 Si / 1000 Ang^3
#
#
#
# Elastic Constant Matrix: (Units=GPa)
#
#
# Indices 1 2 3 4 5 6 
#
# 1 114.5440 8.9509 -0.9169 0.0000 10.6254 0.0000
# 2 8.9509 60.6570 25.8044 0.0000 8.3372 0.0000
# 3 -0.9169 25.8044 73.7051 0.0000 3.3371 0.0000
# 4 0.0000 0.0000 0.0000 45.2947 0.0000 12.8072
# 5 10.6254 8.3372 3.3371 0.0000 25.6388 0.0000
# 6 0.0000 0.0000 0.0000 12.8072 0.0000 40.1967
#
#
#
# Elastic Compliance Matrix: (Units=1/GPa)
#
#
# Indices 1 2 3 4 5 6 
#
# 1 0.009151 -0.001157 0.000678 0.000000 -0.003504 0.000000
# 2 -0.001157 0.020305 -0.006887 0.000000 -0.005227 0.000000
# 3 0.000678 -0.006887 0.015993 0.000000 -0.000123 0.000000
# 4 0.000000 0.000000 0.000000 0.024264 0.000000 -0.007731
# 5 -0.003504 -0.005227 -0.000123 0.000000 0.042171 0.000000
# 6 0.000000 0.000000 0.000000 -0.007731 0.000000 0.027341
#
#
# Mechanical properties :
#
#
# Convention : Reuss Voigt Hill
#
# Bulk Modulus (GPa) = 32.55548 35.17588 33.86568
# Shear Modulus (GPa) = 30.45152 36.56388 33.50770
#
# Velocity S-wave (km/s) = 3.73597 4.09378 3.91896
# Velocity P-wave (km/s) = 5.79066 6.20228 6.00000
#
# Compressibility (1/GPa) = 0.03071680
#
# Stress axis : x y z
#
# Youngs Moduli (GPa) = 109.27546 49.24904 62.52896
#
# Poissons Ratio (x) = 0.05698 -0.04237
# Poissons Ratio (y) = 0.12643 0.43061
# Poissons Ratio (z) = -0.07404 0.33916
#
# Static dielectric constant tensor:
#      x y z
#    x 4.859670 0.000000 0.020140 
#    y 0.000000 3.809120 0.000000 
#    z 0.020140 0.000000 3.927010 
# 
# 
# High freq. dielectric constant tensor:
#      x y z
#    x 1.908190 0.000000 0.001270 
#    y 0.000000 1.843730 0.000000 
#    z 0.001270 0.000000 1.825860 
# 
# From -- ./inp_files/115084.got.cif
#   From: 2010.06.25/outbox.cif.g09.slc.cpg/sg12_58_cif.got.tgz:115084.got - 2010.06.28 00:19:55.
