data_PCOD8115936
_publ_section_title
;
Structure prediction by ZEFSAII (Michael W. Deem and Ramdas Pophale) SiO2 
 PCOD8115936
Probable space group: C 2/M
;
_chemical_formula_sum "Si O2"
_cell_formula_units_Z 48
_cell_length_a 14.457166
_cell_length_b 25.667793
_cell_length_c 9.030922
_cell_angle_alpha 90.000000
_cell_angle_beta 41.011987
_cell_angle_gamma 90.000000
_cell_volume 2199.131525
_symmetry_space_group_name_H-M "C 2/M"
_symmetry_group_IT_number 12
_symmetry_cell_setting 'monoclinic'
loop_
_space_group_symop_operation_xyz
x,y,z
-x,y,-z
-x,-y,-z
x,-y,z
1/2+x,1/2+y,z
1/2-x,1/2+y,-z
1/2-x,1/2-y,-z
1/2+x,1/2-y,z
loop_
_atom_site_type_symbol
_atom_site_label
_atom_site_fract_x
_atom_site_fract_y
_atom_site_fract_z
Si Si1 0.158400 0.773017 0.475392
Si Si2 0.266044 0.442855 0.803077
Si Si3 0.627975 0.838229 0.952802
Si Si4 0.546672 0.337735 0.096961
Si Si5 0.972663 0.942692 0.297897
Si Si6 0.133425 0.319039 0.273075
O O1 0.250000 0.750000 0.500000
O O2 0.235160 0.820179 0.300064
O O3 0.129478 0.731040 0.384078
O O4 0.010875 0.798778 0.707287
O O5 0.198710 0.500000 0.914359
O O6 0.145486 0.399432 0.971171
O O7 0.326816 0.441152 0.563711
O O8 0.394537 0.432337 0.757423
O O9 0.500000 0.827302 0.000000
O O10 0.603047 0.806225 0.136147
O O11 0.472348 0.394631 0.184852
O O12 0.500000 0.310815 0.000000
O O13 0.714859 0.346266 0.902119
O O14 0.986076 0.000000 0.204926
O O15 0.000000 0.353119 0.500000
#
# Coordination Sequence:
#
# PCOD8115936 Si02
#       6
#     8   8   8   8   8   8
#     4  12  27  45  66  98 134 177 233 280 333 406
#     4   9  18  37  67  97 126 167 221 280 340 401
#     4  12  26  43  66  96 137 177 226 283 334 405
#     4  12  25  43  72  98 134 183 229 282 343 406
#     4   9  18  37  66 101 130 162 221 285 338 402
#     4  12  29  44  66  98 137 180 227 277 344 400
#
# _framework density 21.826796999999999
#
# number of rings (size 3 to 8) (size 9 to 14) (size 15 to 20)
#    0.000    1.000    5.000    2.500    7.000    0.667 
#    0.000    0.000    0.000    2.000    0.000    0.000 
#    0.000    0.000    0.000    0.000    0.000    0.000 
#
# Total GULP energy -297422.134357 kJ/mol
# GULP energy per Si atom -12392.588932 kJ/mol
# Density = 2.177712 g / cm^3
# Si number density = 21.826797 Si / 1000 Ang^3
#
#
#
# Elastic Constant Matrix: (Units=GPa)
#
#
# Indices 1 2 3 4 5 6 
#
# 1 110.7537 18.5168 42.1430 0.0000 13.2074 0.0000
# 2 18.5168 120.9386 42.5291 0.0000 12.4647 0.0000
# 3 42.1430 42.5291 126.6855 0.0000 1.2721 0.0000
# 4 0.0000 0.0000 0.0000 18.7632 0.0000 3.2950
# 5 13.2074 12.4647 1.2721 0.0000 34.0137 0.0000
# 6 0.0000 0.0000 0.0000 3.2950 0.0000 25.2836
#
#
#
# Elastic Compliance Matrix: (Units=1/GPa)
#
#
# Indices 1 2 3 4 5 6 
#
# 1 0.010878 0.000017 -0.003583 0.000000 -0.004096 0.000000
# 2 0.000017 0.009766 -0.003249 0.000000 -0.003464 0.000000
# 3 -0.003583 -0.003249 0.010154 0.000000 0.002202 0.000000
# 4 0.000000 0.000000 0.000000 0.054544 0.000000 -0.007108
# 5 -0.004096 -0.003464 0.002202 0.000000 0.032177 0.000000
# 6 0.000000 0.000000 0.000000 -0.007108 0.000000 0.040478
#
#
# Mechanical properties :
#
#
# Convention : Reuss Voigt Hill
#
# Bulk Modulus (GPa) = 58.25233 62.75062 60.50147
# Shear Modulus (GPa) = 28.19272 32.62469 30.40871
#
# Velocity S-wave (km/s) = 3.59786 3.87034 3.73659
# Velocity P-wave (km/s) = 6.63369 6.98459 6.81140
#
# Compressibility (1/GPa) = 0.01716669
#
# Stress axis : x y z
#
# Youngs Moduli (GPa) = 91.92736 102.39930 98.48145
#
# Poissons Ratio (x) = -0.00171 0.35288
# Poissons Ratio (y) = -0.00153 0.31998
# Poissons Ratio (z) = 0.32939 0.33271
#
# Static dielectric constant tensor:
#      x y z
#    x 3.912860 0.000000 -0.210240 
#    y 0.000000 3.964270 0.000000 
#    z -0.210240 0.000000 5.239470 
# 
# 
# High freq. dielectric constant tensor:
#      x y z
#    x 1.848820 0.000000 0.005570 
#    y 0.000000 1.851290 0.000000 
#    z 0.005570 0.000000 1.858620 
# 
# From -- ./inp_files/67340.got.cif
#   From: 2010.06.25/outbox.cif.g09.slc.cpg/sg12_34_cif.got.tgz:67340.got - 2010.06.28 00:19:55.
