data_PCOD8115800
_publ_section_title
;
Structure prediction by ZEFSAII (Michael W. Deem and Ramdas Pophale) SiO2 
 PCOD8115800
Probable space group: C 2/M
;
_chemical_formula_sum "Si O2"
_cell_formula_units_Z 40
_cell_length_a 25.544002
_cell_length_b 14.330426
_cell_length_c 19.465891
_cell_angle_alpha 90.000000
_cell_angle_beta 18.893115
_cell_angle_gamma 90.000000
_cell_volume 2307.300568
_symmetry_space_group_name_H-M "C 2/M"
_symmetry_group_IT_number 12
_symmetry_cell_setting 'monoclinic'
loop_
_space_group_symop_operation_xyz
x,y,z
-x,y,-z
-x,-y,-z
x,-y,z
1/2+x,1/2+y,z
1/2-x,1/2+y,-z
1/2-x,1/2-y,-z
1/2+x,1/2-y,z
loop_
_atom_site_type_symbol
_atom_site_label
_atom_site_fract_x
_atom_site_fract_y
_atom_site_fract_z
Si Si1 0.190078 0.893883 0.143278
Si Si2 0.149847 0.393727 0.681092
Si Si3 0.707902 0.107965 0.831531
Si Si4 0.051107 0.394940 0.649880
Si Si5 0.375593 0.707983 0.499356
O O1 0.202032 0.870878 0.209134
O O2 0.059171 0.827719 0.270788
O O3 0.132306 0.000000 0.205880
O O4 0.360418 0.878356 0.894920
O O5 0.194843 0.500000 0.642221
O O6 0.138689 0.378795 0.613718
O O7 0.289613 0.328747 0.537372
O O8 0.980864 0.368902 0.927464
O O9 0.781243 0.176131 0.683906
O O10 0.733480 0.000000 0.778277
O O11 0.085100 0.500000 0.580840
O O12 0.120953 0.320857 0.508504
#
# Coordination Sequence:
#
# PCOD8115800 Si02
#       5
#     8   8   8   8   8
#     4   9  18  32  48  69  96 119 144 186 236 276
#     4   9  18  32  48  69  96 119 144 186 236 276
#     4   9  18  31  47  71 100 119 136 182 246 283
#     4   9  20  35  45  61  96 131 152 180 224 267
#     4  12  18  26  50  76  90 114 158 190 218 270
#
# _framework density 17.336276000000002
#
# number of rings (size 3 to 8) (size 9 to 14) (size 15 to 20)
#    0.000    2.400    0.000    6.600    0.000    3.200 
#    0.000    0.000    0.000    4.800    0.000    8.400 
#    0.000    0.000    0.000    0.000    0.000    0.000 
#
# Total GULP energy -247989.260450 kJ/mol
# GULP energy per Si atom -12399.463023 kJ/mol
# Density = 1.729682 g / cm^3
# Si number density = 17.336276 Si / 1000 Ang^3
#
#
#
# Elastic Constant Matrix: (Units=GPa)
#
#
# Indices 1 2 3 4 5 6 
#
# 1 60.8961 59.4061 47.2605 0.0027 -16.1601 -0.0017
# 2 59.4061 136.5659 51.5630 0.0034 2.0082 -0.0018
# 3 47.2605 51.5630 41.8142 0.0080 -3.4546 -0.0035
# 4 0.0027 0.0034 0.0080 26.5783 -0.0039 7.8980
# 5 -16.1601 2.0082 -3.4546 -0.0039 32.1149 0.0015
# 6 -0.0017 -0.0018 -0.0035 7.8980 0.0015 24.7311
#
#
#
# Elastic Compliance Matrix: (Units=1/GPa)
#
#
# Indices 1 2 3 4 5 6 
#
# 1 0.386628 -0.019079 -0.400849 0.000131 0.152623 -0.000083
# 2 -0.019079 0.014879 0.002367 -0.000003 -0.010277 0.000002
# 3 -0.400849 0.002367 0.461481 -0.000149 -0.152212 0.000096
# 4 0.000131 -0.000003 -0.000149 0.041570 0.000056 -0.013275
# 5 0.152623 -0.010277 -0.152212 0.000056 0.092207 -0.000035
# 6 -0.000083 0.000002 0.000096 -0.013275 -0.000035 0.044675
#
#
# Mechanical properties :
#
#
# Convention : Reuss Voigt Hill
#
# Bulk Modulus (GPa) = 35.88732 61.74837 48.81785
# Shear Modulus (GPa) = 2.65132 22.08795 12.36963
#
# Velocity S-wave (km/s) = 1.23801 3.57331 2.67406
# Velocity P-wave (km/s) = 4.77380 7.26086 6.14448
#
# Compressibility (1/GPa) = 0.02786499
#
# Stress axis : x y z
#
# Youngs Moduli (GPa) = 2.58646 67.20679 2.16694
#
# Poissons Ratio (x) = 1.28226 0.86862
# Poissons Ratio (y) = 0.04935 -0.00513
# Poissons Ratio (z) = 1.03678 -0.15907
#
# Static dielectric constant tensor:
#      x y z
#    x 3.083240 0.000000 -0.131800 
#    y 0.000000 3.128890 0.000000 
#    z -0.131800 0.000000 2.985940 
# 
# 
# High freq. dielectric constant tensor:
#      x y z
#    x 1.667080 0.000000 -0.020730 
#    y 0.000000 1.656650 0.000000 
#    z -0.020730 0.000000 1.658120 
# 
# From -- ./inp_files/59064.got.cif
#   From: 2010.06.25/outbox.cif.g09.slc.cpg/sg12_30_cif.got.tgz:59064.got - 2010.06.28 00:19:55.
