data_PCOD8115255
_publ_section_title
;
Structure prediction by ZEFSAII (Michael W. Deem and Ramdas Pophale) SiO2 
 PCOD8115255
Probable space group: C 2/M
;
_chemical_formula_sum "Si O2"
_cell_formula_units_Z 56
_cell_length_a 22.954319
_cell_length_b 14.203158
_cell_length_c 18.953241
_cell_angle_alpha 90.000000
_cell_angle_beta 25.131716
_cell_angle_gamma 90.000000
_cell_volume 2624.313566
_symmetry_space_group_name_H-M "C 2/M"
_symmetry_group_IT_number 12
_symmetry_cell_setting 'monoclinic'
loop_
_space_group_symop_operation_xyz
x,y,z
-x,y,-z
-x,-y,-z
x,-y,z
1/2+x,1/2+y,z
1/2-x,1/2+y,-z
1/2-x,1/2-y,-z
1/2+x,1/2-y,z
loop_
_atom_site_type_symbol
_atom_site_label
_atom_site_fract_x
_atom_site_fract_y
_atom_site_fract_z
Si Si1 0.518726 0.793999 0.297868
Si Si2 0.827217 0.397301 0.282252
Si Si3 0.763768 0.711666 0.676909
Si Si4 0.402267 0.107462 0.931131
Si Si5 0.750705 0.721459 0.847087
Si Si6 0.473329 0.393105 0.134078
Si Si7 0.921142 0.104154 0.348148
O O1 0.379441 0.816597 0.493558
O O2 0.533739 0.859049 0.213263
O O3 0.646347 0.819814 0.207838
O O4 0.520441 0.683967 0.272292
O O5 0.807748 0.500000 0.268030
O O6 0.785846 0.319417 0.271638
O O7 0.731589 0.386372 0.455255
O O8 0.981971 0.383353 0.136583
O O9 0.822291 0.707927 0.692224
O O10 0.628558 0.646828 0.814419
O O11 0.351153 0.000000 0.979151
O O12 0.278172 0.171481 0.096010
O O13 0.611074 0.664205 0.995379
O O14 0.509575 0.500000 0.074197
O O15 0.395174 0.383411 0.293768
O O16 0.984666 0.000000 0.294981
#
# Coordination Sequence:
#
# PCOD8115255 Si02
#       7
#     8   8   8   8   8   8   8
#     4  11  23  42  63  91 124 167 207 250 303 367
#     4   9  18  35  61  94 123 156 201 252 307 362
#     4  11  23  41  65  88 126 165 207 251 302 369
#     4  11  23  39  64  94 126 161 206 259 311 363
#     4  12  25  41  59  94 128 165 203 250 311 369
#     4  11  23  40  65  92 120 157 205 258 309 360
#     4   9  18  35  63  93 122 156 203 256 304 358
#
# _framework density 21.338913999999999
#
# number of rings (size 3 to 8) (size 9 to 14) (size 15 to 20)
#    0.000    1.429    2.857    2.143    0.000    6.857 
#    0.000    1.429    0.000    6.857    0.000    0.000 
#    0.000    0.000    0.000    0.000    0.000    0.000 
#
# Total GULP energy -347108.404552 kJ/mol
# GULP energy per Si atom -12396.728734 kJ/mol
# Density = 2.129035 g / cm^3
# Si number density = 21.338914 Si / 1000 Ang^3
#
#
#
# Elastic Constant Matrix: (Units=GPa)
#
#
# Indices 1 2 3 4 5 6 
#
# 1 60.8366 16.8028 6.5315 -0.0009 -5.9728 0.0004
# 2 16.8028 102.8253 20.4320 -0.0013 -5.3869 0.0006
# 3 6.5315 20.4320 46.4953 -0.0004 -3.6285 0.0001
# 4 -0.0009 -0.0013 -0.0004 16.5911 0.0002 -0.7133
# 5 -5.9728 -5.3869 -3.6285 0.0002 34.0520 -0.0001
# 6 0.0004 0.0006 0.0001 -0.7133 -0.0001 11.6019
#
#
#
# Elastic Compliance Matrix: (Units=1/GPa)
#
#
# Indices 1 2 3 4 5 6 
#
# 1 0.017502 -0.002495 -0.001163 0.000001 0.002551 0.000000
# 2 -0.002495 0.011060 -0.004444 0.000001 0.000838 0.000000
# 3 -0.001163 -0.004444 0.023751 0.000000 0.001624 0.000000
# 4 0.000001 0.000001 0.000000 0.060433 0.000000 0.003715
# 5 0.002551 0.000838 0.001624 0.000000 0.030120 0.000000
# 6 0.000000 0.000000 0.000000 0.003715 0.000000 0.086421
#
#
# Mechanical properties :
#
#
# Convention : Reuss Voigt Hill
#
# Bulk Modulus (GPa) = 27.69502 33.07664 30.38583
# Shear Modulus (GPa) = 19.41540 23.54173 21.47857
#
# Velocity S-wave (km/s) = 3.01966 3.32509 3.17605
# Velocity P-wave (km/s) = 5.01643 5.50236 5.26500
#
# Compressibility (1/GPa) = 0.03610757
#
# Stress axis : x y z
#
# Youngs Moduli (GPa) = 57.13633 90.41576 42.10407
#
# Poissons Ratio (x) = 0.22561 0.04897
# Poissons Ratio (y) = 0.14257 0.18712
# Poissons Ratio (z) = 0.06645 0.40183
#
# Static dielectric constant tensor:
#      x y z
#    x 3.777970 0.000000 0.218920 
#    y 0.000000 4.094970 0.000000 
#    z 0.218920 0.000000 3.786800 
# 
# 
# High freq. dielectric constant tensor:
#      x y z
#    x 1.831320 0.000000 0.012990 
#    y 0.000000 1.839680 0.000000 
#    z 0.012990 0.000000 1.833610 
# 
# From -- ./inp_files/284476.got.cif
#   From: 2010.06.25/outbox.cif.g09.slc.cpg/sg12_143_cif.got.tgz:284476.got - 2010.06.28 00:19:55.
