data_PCOD8115003
_publ_section_title
;
Structure prediction by ZEFSAII (Michael W. Deem and Ramdas Pophale) SiO2 
 PCOD8115003
Probable space group: C 2/M
;
_chemical_formula_sum "Si O2"
_cell_formula_units_Z 40
_cell_length_a 19.032416
_cell_length_b 8.779079
_cell_length_c 12.015051
_cell_angle_alpha 90.000000
_cell_angle_beta 102.196561
_cell_angle_gamma 90.000000
_cell_volume 1962.246348
_symmetry_space_group_name_H-M "C 2/M"
_symmetry_group_IT_number 12
_symmetry_cell_setting 'monoclinic'
loop_
_space_group_symop_operation_xyz
x,y,z
-x,y,-z
-x,-y,-z
x,-y,z
1/2+x,1/2+y,z
1/2-x,1/2+y,-z
1/2-x,1/2-y,-z
1/2+x,1/2-y,z
loop_
_atom_site_type_symbol
_atom_site_label
_atom_site_fract_x
_atom_site_fract_y
_atom_site_fract_z
Si Si1 0.047377 0.818848 0.337446
Si Si2 0.174818 0.825155 0.952955
Si Si3 0.061117 0.825267 0.095603
Si Si4 0.176153 0.676430 0.515891
Si Si5 0.396530 0.823302 0.283294
O O1 0.064546 0.753750 0.219455
O O2 0.107769 0.752060 0.436477
O O3 0.968593 0.762340 0.347598
O O4 0.050377 0.000000 0.346575
O O5 0.130377 0.742184 0.842394
O O6 0.183659 0.000000 0.920333
O O7 0.250000 0.750000 0.000000
O O8 0.136546 0.809177 0.059193
O O9 0.037795 0.000000 0.104732
O O10 0.000000 0.743696 0.000000
O O11 0.178604 0.500000 0.484831
O O12 0.250000 0.750000 0.500000
O O13 0.165841 0.699567 0.645184
O O14 0.414954 0.000000 0.274073
#
# Coordination Sequence:
#
# PCOD8115003 Si02
#       5
#     8   8   8   8   8
#     4  11  22  40  68  95 123 164 208 254 310 374
#     4  11  23  40  63  92 128 166 206 255 311 369
#     4   9  18  37  62  90 124 160 198 246 305 362
#     4  11  26  45  64  90 125 163 207 262 318 370
#     4  11  24  43  64  90 126 166 208 258 313 368
#
# _framework density 20.384799999999998
#
# number of rings (size 3 to 8) (size 9 to 14) (size 15 to 20)
#    0.000    1.400    2.000    3.000    2.800    5.600 
#    0.000    4.000    0.000    0.000    0.000    0.000 
#    0.000    0.000    0.000    0.000    0.000    0.000 
#
# Total GULP energy -248020.293736 kJ/mol
# GULP energy per Si atom -12401.014687 kJ/mol
# Density = 2.033840 g / cm^3
# Si number density = 20.384800 Si / 1000 Ang^3
#
#
#
# Elastic Constant Matrix: (Units=GPa)
#
#
# Indices 1 2 3 4 5 6 
#
# 1 122.0064 48.7131 27.0987 0.0000 4.7248 0.0000
# 2 48.7131 110.6234 39.0838 0.0000 -3.8651 0.0000
# 3 27.0987 39.0838 76.9893 0.0000 -5.4675 0.0000
# 4 0.0000 0.0000 0.0000 30.8415 0.0000 3.1185
# 5 4.7248 -3.8651 -5.4675 0.0000 39.4421 0.0000
# 6 0.0000 0.0000 0.0000 3.1185 0.0000 38.9363
#
#
#
# Elastic Compliance Matrix: (Units=1/GPa)
#
#
# Indices 1 2 3 4 5 6 
#
# 1 0.010232 -0.003962 -0.001722 0.000000 -0.001853 0.000000
# 2 -0.003962 0.012553 -0.004905 0.000000 0.001025 0.000000
# 3 -0.001722 -0.004905 0.016225 0.000000 0.001975 0.000000
# 4 0.000000 0.000000 0.000000 0.032689 0.000000 -0.002618
# 5 -0.001853 0.001025 0.001975 0.000000 0.025950 0.000000
# 6 0.000000 0.000000 0.000000 -0.002618 0.000000 0.025893
#
#
# Mechanical properties :
#
#
# Convention : Reuss Voigt Hill
#
# Bulk Modulus (GPa) = 56.07770 59.93448 58.00609
# Shear Modulus (GPa) = 33.18623 34.82554 34.00589
#
# Velocity S-wave (km/s) = 4.03921 4.13777 4.08879
# Velocity P-wave (km/s) = 7.02303 7.23143 7.12799
#
# Compressibility (1/GPa) = 0.01783240
#
# Stress axis : x y z
#
# Youngs Moduli (GPa) = 97.72812 79.65985 61.63233
#
# Poissons Ratio (x) = 0.31564 0.10611
# Poissons Ratio (y) = 0.38723 0.30233
# Poissons Ratio (z) = 0.16826 0.39076
#
# Static dielectric constant tensor:
#      x y z
#    x 3.940310 0.000000 -0.001020 
#    y 0.000000 3.674560 0.000000 
#    z -0.001020 0.000000 4.185890 
# 
# 
# High freq. dielectric constant tensor:
#      x y z
#    x 1.806350 0.000000 -0.005940 
#    y 0.000000 1.789940 0.000000 
#    z -0.005940 0.000000 1.810150 
# 
# From -- ./inp_files/151950.got.cif
#   From: 2010.06.25/outbox.cif.g09.slc.cpg/sg12_76_cif.got.tgz:151950.got - 2010.06.28 00:19:55.
