data_PCOD8115181
_publ_section_title
;
Structure prediction by ZEFSAII (Michael W. Deem and Ramdas Pophale) SiO2 
 PCOD8115181
Probable space group: C 2/M
;
_chemical_formula_sum "Si O2"
_cell_formula_units_Z 64
_cell_length_a 29.764450
_cell_length_b 8.800792
_cell_length_c 18.206810
_cell_angle_alpha 90.000000
_cell_angle_beta 140.382132
_cell_angle_gamma 90.000000
_cell_volume 3041.203955
_symmetry_space_group_name_H-M "C 2/M"
_symmetry_group_IT_number 12
_symmetry_cell_setting 'monoclinic'
loop_
_space_group_symop_operation_xyz
x,y,z
-x,y,-z
-x,-y,-z
x,-y,z
1/2+x,1/2+y,z
1/2-x,1/2+y,-z
1/2-x,1/2-y,-z
1/2+x,1/2-y,z
loop_
_atom_site_type_symbol
_atom_site_label
_atom_site_fract_x
_atom_site_fract_y
_atom_site_fract_z
Si Si1 0.681950 0.327271 0.948553
Si Si2 0.312850 0.321323 0.625457
Si Si3 0.803925 0.673745 0.769754
Si Si4 0.038419 0.673718 0.407033
Si Si5 0.899107 0.675356 0.023809
Si Si6 0.038592 0.179814 0.250254
Si Si7 0.827280 0.326807 0.328977
Si Si8 0.088993 0.173055 0.692087
O O1 0.701379 0.500000 0.992218
O O2 0.658038 0.246431 0.992996
O O3 0.617628 0.319465 0.810877
O O4 0.750000 0.250000 0.000000
O O5 0.306762 0.500000 0.608733
O O6 0.250000 0.250000 0.500000
O O7 0.307915 0.280729 0.704472
O O8 0.387576 0.260824 0.689504
O O9 0.796365 0.500000 0.734201
O O10 0.736880 0.717462 0.733776
O O11 0.872523 0.695794 0.906888
O O12 0.014950 0.500000 0.364995
O O13 0.031798 0.765719 0.324346
O O14 0.117658 0.684433 0.535266
O O15 0.988239 0.751135 0.404783
O O16 0.907311 0.500000 0.055470
O O17 0.974931 0.754629 0.121988
O O18 0.033513 0.000000 0.241780
O O19 0.801627 0.500000 0.286633
O O20 0.860039 0.270677 0.294437
O O21 0.084239 0.000000 0.657416
#
# Coordination Sequence:
#
# PCOD8115181 Si02
#       8
#     8   8   8   8   8   8   8   8
#     4  11  23  38  59  88 124 168 218 267 317 377
#     4  11  25  45  71 101 132 168 211 261 320 384
#     4  11  25  44  66  95 129 166 212 262 317 380
#     4  11  23  39  61  90 125 165 212 262 316 381
#     4  11  24  42  65  93 127 168 214 264 319 380
#     4  11  24  42  66  96 128 166 212 263 322 385
#     4  11  24  40  61  91 126 168 215 264 321 381
#     4  11  23  38  58  88 124 165 214 263 317 379
#
# _framework density 21.044297
#
# number of rings (size 3 to 8) (size 9 to 14) (size 15 to 20)
#    0.000    1.000    1.250    4.875    0.000   14.500 
#    0.000    2.500    0.000    0.000    0.000    0.000 
#    0.000    0.000    0.000    0.000    0.000    0.000 
#
# Total GULP energy -397030.328985 kJ/mol
# GULP energy per Si atom -12407.197781 kJ/mol
# Density = 2.099640 g / cm^3
# Si number density = 21.044297 Si / 1000 Ang^3
#
#
#
# Elastic Constant Matrix: (Units=GPa)
#
#
# Indices 1 2 3 4 5 6 
#
# 1 113.2350 31.9137 42.9814 0.0000 11.4553 0.0000
# 2 31.9137 105.4813 46.1101 0.0000 10.9894 0.0000
# 3 42.9814 46.1101 96.5108 0.0000 5.6707 0.0000
# 4 0.0000 0.0000 0.0000 36.3830 0.0000 0.6357
# 5 11.4553 10.9894 5.6707 0.0000 36.4693 0.0000
# 6 0.0000 0.0000 0.0000 0.6357 0.0000 38.7850
#
#
#
# Elastic Compliance Matrix: (Units=1/GPa)
#
#
# Indices 1 2 3 4 5 6 
#
# 1 0.011011 -0.001260 -0.004159 0.000000 -0.002432 0.000000
# 2 -0.001260 0.012406 -0.005217 0.000000 -0.002531 0.000000
# 3 -0.004159 -0.005217 0.014671 0.000000 0.000597 0.000000
# 4 0.000000 0.000000 0.000000 0.027493 0.000000 -0.000451
# 5 -0.002432 -0.002531 0.000597 0.000000 0.028854 0.000000
# 6 0.000000 0.000000 0.000000 -0.000451 0.000000 0.025791
#
#
# Mechanical properties :
#
#
# Convention : Reuss Voigt Hill
#
# Bulk Modulus (GPa) = 59.46770 61.91528 60.69149
# Shear Modulus (GPa) = 33.98954 35.27557 34.63255
#
# Velocity S-wave (km/s) = 4.02324 4.09865 4.06112
# Velocity P-wave (km/s) = 7.06411 7.20304 7.13392
#
# Compressibility (1/GPa) = 0.01681585
#
# Stress axis : x y z
#
# Youngs Moduli (GPa) = 90.81846 80.60609 68.16020
#
# Poissons Ratio (x) = 0.10156 0.28347
# Poissons Ratio (y) = 0.11443 0.35562
# Poissons Ratio (z) = 0.37770 0.42055
#
# Static dielectric constant tensor:
#      x y z
#    x 3.801480 0.000000 0.149160 
#    y 0.000000 3.984060 0.000000 
#    z 0.149160 0.000000 3.996360 
# 
# 
# High freq. dielectric constant tensor:
#      x y z
#    x 1.825540 0.000000 0.003350 
#    y 0.000000 1.839320 0.000000 
#    z 0.003350 0.000000 1.837770 
# 
# From -- ./inp_files/295857.got.cif
#   From: 2010.06.25/outbox.cif.g09.slc.cpg/sg12_148_cif.got.tgz:295857.got - 2010.06.28 00:19:55.
