data_PCOD8115308
_publ_section_title
;
Structure prediction by ZEFSAII (Michael W. Deem and Ramdas Pophale) SiO2 
 PCOD8115308
Probable space group: C 2/M
;
_chemical_formula_sum "Si O2"
_cell_formula_units_Z 64
_cell_length_a 13.814326
_cell_length_b 17.608687
_cell_length_c 22.500264
_cell_angle_alpha 90.000000
_cell_angle_beta 148.180407
_cell_angle_gamma 90.000000
_cell_volume 2885.744708
_symmetry_space_group_name_H-M "C 2/M"
_symmetry_group_IT_number 12
_symmetry_cell_setting 'monoclinic'
loop_
_space_group_symop_operation_xyz
x,y,z
-x,y,-z
-x,-y,-z
x,-y,z
1/2+x,1/2+y,z
1/2-x,1/2+y,-z
1/2-x,1/2-y,-z
1/2+x,1/2-y,z
loop_
_atom_site_type_symbol
_atom_site_label
_atom_site_fract_x
_atom_site_fract_y
_atom_site_fract_z
Si Si1 0.594836 0.213541 0.878718
Si Si2 0.701694 0.084830 0.097994
Si Si3 0.151520 0.587419 0.688421
Si Si4 0.923015 0.851135 0.738722
Si Si5 0.266667 0.164035 0.487016
Si Si6 0.503334 0.585577 0.431842
Si Si7 0.213549 0.662172 0.213162
Si Si8 0.700831 0.315962 0.131727
O O1 0.426823 0.271277 0.775472
O O2 0.491304 0.152133 0.866174
O O3 0.664549 0.177668 0.854261
O O4 0.750000 0.250000 0.000000
O O5 0.765338 0.089118 0.199578
O O6 0.860555 0.124662 0.142306
O O7 0.675967 0.000000 0.060605
O O8 0.500000 0.127052 0.000000
O O9 0.091890 0.500000 0.664545
O O10 0.290183 0.592274 0.704830
O O11 0.256395 0.613849 0.802751
O O12 0.976480 0.640638 0.583524
O O13 0.856848 0.845588 0.636490
O O14 0.250000 0.250000 0.500000
O O15 0.197471 0.108074 0.503147
O O16 0.500000 0.588976 0.500000
O O17 0.451613 0.500000 0.384641
O O18 0.363974 0.653774 0.342545
O O19 0.235478 0.737949 0.184901
O O20 0.500000 0.322817 0.000000
#
# Coordination Sequence:
#
# PCOD8115308 Si02
#       8
#     8   8   8   8   8   8   8   8
#     4  12  23  40  69 104 137 179 234 293 347 413
#     4  11  23  40  67 103 140 180 229 285 348 415
#     4  12  28  47  70 104 142 189 237 288 359 435
#     4  12  24  44  70 100 142 184 235 297 352 413
#     4  12  27  46  74 103 136 180 239 295 352 420
#     4  11  26  45  67  97 140 184 225 283 354 420
#     4  12  22  41  69  98 136 175 231 284 347 412
#     4  12  24  46  70 103 139 183 233 290 354 414
#
# _framework density 22.177983000000001
#
# number of rings (size 3 to 8) (size 9 to 14) (size 15 to 20)
#    0.000    0.250    5.000    4.125    3.500    2.250 
#    0.000    0.625    0.000    0.000    0.000    0.000 
#    0.000    0.000    0.000    0.000    0.000    0.000 
#
# Total GULP energy -396569.026490 kJ/mol
# GULP energy per Si atom -12392.782078 kJ/mol
# Density = 2.212751 g / cm^3
# Si number density = 22.177983 Si / 1000 Ang^3
#
#
#
# Elastic Constant Matrix: (Units=GPa)
#
#
# Indices 1 2 3 4 5 6 
#
# 1 145.4520 28.2255 26.9372 -0.0003 11.1711 -0.0004
# 2 28.2255 88.7912 33.6389 0.0000 -2.3569 -0.0006
# 3 26.9372 33.6389 104.8696 0.0008 14.3020 -0.0011
# 4 -0.0003 0.0000 0.0008 32.0576 -0.0001 -0.1868
# 5 11.1711 -2.3569 14.3020 -0.0001 44.8868 -0.0005
# 6 -0.0004 -0.0006 -0.0011 -0.1868 -0.0005 27.5751
#
#
#
# Elastic Compliance Matrix: (Units=1/GPa)
#
#
# Indices 1 2 3 4 5 6 
#
# 1 0.007599 -0.002056 -0.001066 0.000000 -0.001659 0.000000
# 2 -0.002056 0.013564 -0.004171 0.000000 0.002553 0.000000
# 3 -0.001066 -0.004171 0.011647 0.000000 -0.003665 0.000000
# 4 0.000000 0.000000 0.000000 0.031195 0.000000 0.000211
# 5 -0.001659 0.002553 -0.003665 0.000000 0.023993 0.000000
# 6 0.000000 0.000000 0.000000 0.000211 0.000000 0.036266
#
#
# Mechanical properties :
#
#
# Convention : Reuss Voigt Hill
#
# Bulk Modulus (GPa) = 54.87189 57.41290 56.14239
# Shear Modulus (GPa) = 34.50074 37.59132 36.04603
#
# Velocity S-wave (km/s) = 3.94843 4.12148 4.03588
# Velocity P-wave (km/s) = 6.75145 6.97082 6.86201
#
# Compressibility (1/GPa) = 0.01822427
#
# Stress axis : x y z
#
# Youngs Moduli (GPa) = 131.59733 73.72563 85.85743
#
# Poissons Ratio (x) = 0.15156 0.09154
# Poissons Ratio (y) = 0.27053 0.35811
# Poissons Ratio (z) = 0.14031 0.30751
#
# Static dielectric constant tensor:
#      x y z
#    x 4.351860 0.000000 0.005110 
#    y 0.000000 3.898870 0.000000 
#    z 0.005110 0.000000 4.573940 
# 
# 
# High freq. dielectric constant tensor:
#      x y z
#    x 1.896010 0.000000 0.003030 
#    y 0.000000 1.853900 0.000000 
#    z 0.003030 0.000000 1.883230 
# 
# From -- ./inp_files/340853.got.cif
#   From: 2010.06.25/outbox.cif.g09.slc.cpg/sg12_171_cif.got.tgz:340853.got - 2010.06.28 00:19:55.
