data_PCOD8115641
_publ_section_title
;
Structure prediction by ZEFSAII (Michael W. Deem and Ramdas Pophale) SiO2 
 PCOD8115641
Probable space group: C 2/M
;
_chemical_formula_sum "Si O2"
_cell_formula_units_Z 36
_cell_length_a 22.705317
_cell_length_b 10.582865
_cell_length_c 22.405272
_cell_angle_alpha 90.000000
_cell_angle_beta 18.152133
_cell_angle_gamma 90.000000
_cell_volume 1677.244940
_symmetry_space_group_name_H-M "C 2/M"
_symmetry_group_IT_number 12
_symmetry_cell_setting 'monoclinic'
loop_
_space_group_symop_operation_xyz
x,y,z
-x,y,-z
-x,-y,-z
x,-y,z
1/2+x,1/2+y,z
1/2-x,1/2+y,-z
1/2-x,1/2-y,-z
1/2+x,1/2-y,z
loop_
_atom_site_type_symbol
_atom_site_label
_atom_site_fract_x
_atom_site_fract_y
_atom_site_fract_z
Si Si1 0.007134 0.209957 0.927257
Si Si2 0.015008 0.500000 0.290982
Si Si3 0.297030 0.500000 0.928010
Si Si4 0.128294 0.146790 0.428780
Si Si5 0.134527 0.765642 0.223406
Si Si6 0.903785 0.000000 0.254089
O O1 0.152636 0.325570 0.792575
O O2 0.082801 0.119197 0.802491
O O3 0.000000 0.143811 0.000000
O O4 0.806913 0.271417 0.103920
O O5 0.120824 0.623549 0.213387
O O6 0.792705 0.500000 0.519108
O O7 0.074758 0.500000 0.163076
O O8 0.335066 0.370772 0.856396
O O9 0.430143 0.500000 0.858020
O O10 0.000000 0.207244 0.500000
O O11 0.062097 0.206014 0.554904
O O12 0.091316 0.000000 0.467775
#
# Coordination Sequence:
#
# PCOD8115641 Si02
#       6
#     8   4   4   8   8   4
#     4  12  25  44  73 106 138 185 228 290 353 423
#     4  12  26  46  73 100 138 188 235 293 344 416
#     4  12  28  47  70 103 141 188 237 292 342 421
#     4  11  24  43  70 108 143 180 232 289 351 420
#     4  12  25  47  71 104 143 184 237 287 355 412
#     4  12  27  45  72 103 141 179 241 287 352 413
#
# _framework density 21.46377
#
# number of rings (size 3 to 8) (size 9 to 14) (size 15 to 20)
#    0.000    0.222    7.778    1.000    1.556    3.111 
#    0.000    2.222    0.000    0.000    0.000    0.000 
#    0.000    0.000    0.000    0.000    0.000    0.000 
#
# Total GULP energy -223138.053908 kJ/mol
# GULP energy per Si atom -12396.558550 kJ/mol
# Density = 2.141492 g / cm^3
# Si number density = 21.463770 Si / 1000 Ang^3
#
#
#
# Elastic Constant Matrix: (Units=GPa)
#
#
# Indices 1 2 3 4 5 6 
#
# 1 110.0250 47.9751 35.5232 0.0134 12.6198 -0.0167
# 2 47.9751 123.2501 30.2481 -0.0013 9.7182 -0.0123
# 3 35.5232 30.2481 125.8963 -0.0089 12.8585 0.0022
# 4 0.0134 -0.0013 -0.0089 24.1611 -0.0009 2.1826
# 5 12.6198 9.7182 12.8585 -0.0009 41.9533 0.0083
# 6 -0.0167 -0.0123 0.0022 2.1826 0.0083 35.0222
#
#
#
# Elastic Compliance Matrix: (Units=1/GPa)
#
#
# Indices 1 2 3 4 5 6 
#
# 1 0.011701 -0.003867 -0.002172 -0.000008 -0.001958 0.000005
# 2 -0.003867 0.009981 -0.001228 0.000002 -0.000772 0.000002
# 3 -0.002172 -0.001228 0.009038 0.000005 -0.001832 -0.000002
# 4 -0.000008 0.000002 0.000005 0.041623 0.000002 -0.002594
# 5 -0.001958 -0.000772 -0.001832 0.000002 0.025166 -0.000007
# 6 0.000005 0.000002 -0.000002 -0.002594 -0.000007 0.028715
#
#
# Mechanical properties :
#
#
# Convention : Reuss Voigt Hill
#
# Bulk Modulus (GPa) = 61.78487 65.18489 63.48488
# Shear Modulus (GPa) = 34.21038 36.58897 35.39968
#
# Velocity S-wave (km/s) = 3.99666 4.13326 4.06553
# Velocity P-wave (km/s) = 7.08137 7.29480 7.18888
#
# Compressibility (1/GPa) = 0.01618519
#
# Stress axis : x y z
#
# Youngs Moduli (GPa) = 85.46243 100.18901 110.64111
#
# Poissons Ratio (x) = 0.38744 0.24037
# Poissons Ratio (y) = 0.33049 0.13587
# Poissons Ratio (z) = 0.18567 0.12304
#
# Static dielectric constant tensor:
#      x y z
#    x 4.016580 -0.000010 0.231310 
#    y -0.000010 3.730740 0.000080 
#    z 0.231310 0.000080 4.110440 
# 
# 
# High freq. dielectric constant tensor:
#      x y z
#    x 1.843640 0.000000 0.014500 
#    y 0.000000 1.842980 0.000010 
#    z 0.014500 0.000010 1.863890 
# 
# From -- ./inp_files/321468.got.cif
#   From: 2010.06.25/outbox.cif.g09.slc.cpg/sg12_161_cif.got.tgz:321468.got - 2010.06.28 00:19:55.
