data_PCOD8115394
_publ_section_title
;
Structure prediction by ZEFSAII (Michael W. Deem and Ramdas Pophale) SiO2 
 PCOD8115394
Probable space group: C 2/M
;
_chemical_formula_sum "Si O2"
_cell_formula_units_Z 40
_cell_length_a 20.004427
_cell_length_b 17.834445
_cell_length_c 12.258137
_cell_angle_alpha 90.000000
_cell_angle_beta 24.546723
_cell_angle_gamma 90.000000
_cell_volume 1816.826376
_symmetry_space_group_name_H-M "C 2/M"
_symmetry_group_IT_number 12
_symmetry_cell_setting 'monoclinic'
loop_
_space_group_symop_operation_xyz
x,y,z
-x,y,-z
-x,-y,-z
x,-y,z
1/2+x,1/2+y,z
1/2-x,1/2+y,-z
1/2-x,1/2-y,-z
1/2+x,1/2-y,z
loop_
_atom_site_type_symbol
_atom_site_label
_atom_site_fract_x
_atom_site_fract_y
_atom_site_fract_z
Si Si1 0.339960 0.413200 0.306193
Si Si2 0.820955 0.086568 0.745173
Si Si3 0.184864 0.327985 0.133882
Si Si4 0.807281 0.672387 0.270787
Si Si5 0.819140 0.672377 0.624210
O O1 0.348151 0.500000 0.328908
O O2 0.299523 0.363876 0.473278
O O3 0.196799 0.399534 0.431335
O O4 0.500000 0.388102 0.000000
O O5 0.733891 0.130778 0.779141
O O6 0.000000 0.117165 0.500000
O O7 0.819347 0.000000 0.716381
O O8 0.729083 0.101093 0.994143
O O9 0.265330 0.343074 0.133505
O O10 0.996591 0.315174 0.402696
O O11 0.250000 0.250000 0.000000
O O12 0.755211 0.758556 0.334283
O O13 0.000000 0.665743 0.000000
#
# Coordination Sequence:
#
# PCOD8115394 Si02
#       5
#     8   8   8   8   8
#     4  11  27  45  65  98 141 181 223 279 344 410
#     4  11  25  44  71 101 135 180 227 279 341 404
#     4  11  23  42  67 100 133 173 222 282 335 402
#     4  12  25  45  72 103 135 181 232 286 337 403
#     4  11  25  42  70  98 134 177 225 278 340 405
#
# _framework density 22.016411999999999
#
# number of rings (size 3 to 8) (size 9 to 14) (size 15 to 20)
#    0.000    0.800    2.000    4.200    5.600    4.800 
#    0.000    2.000    0.000    0.000    0.000    0.000 
#    0.000    0.000    0.000    0.000    0.000    0.000 
#
# Total GULP energy -247833.830389 kJ/mol
# GULP energy per Si atom -12391.691519 kJ/mol
# Density = 2.196630 g / cm^3
# Si number density = 22.016412 Si / 1000 Ang^3
#
#
#
# Elastic Constant Matrix: (Units=GPa)
#
#
# Indices 1 2 3 4 5 6 
#
# 1 141.5463 39.8209 45.4100 -0.0004 12.5276 0.0002
# 2 39.8209 62.0222 34.5408 0.0096 -1.0838 -0.0094
# 3 45.4100 34.5408 96.1329 0.0080 7.7265 -0.0096
# 4 -0.0004 0.0096 0.0080 44.2974 -0.0029 -11.3293
# 5 12.5276 -1.0838 7.7265 -0.0029 47.7969 0.0031
# 6 0.0002 -0.0094 -0.0096 -11.3293 0.0031 46.1327
#
#
#
# Elastic Compliance Matrix: (Units=1/GPa)
#
#
# Indices 1 2 3 4 5 6 
#
# 1 0.009388 -0.004615 -0.002604 0.000001 -0.002144 -0.000001
# 2 -0.004615 0.022554 -0.006142 -0.000003 0.002714 0.000002
# 3 -0.002604 -0.006142 0.013977 -0.000001 -0.001716 0.000002
# 4 0.000001 -0.000003 -0.000001 0.024088 0.000001 0.005915
# 5 -0.002144 0.002714 -0.001716 0.000001 0.021823 -0.000001
# 6 -0.000001 0.000002 0.000002 0.005915 -0.000001 0.023129
#
#
# Mechanical properties :
#
#
# Convention : Reuss Voigt Hill
#
# Bulk Modulus (GPa) = 52.09013 59.91610 56.00311
# Shear Modulus (GPa) = 33.76536 39.64073 36.70305
#
# Velocity S-wave (km/s) = 3.92043 4.24784 4.08741
# Velocity P-wave (km/s) = 6.64861 7.16465 6.91145
#
# Compressibility (1/GPa) = 0.01919750
#
# Stress axis : x y z
#
# Youngs Moduli (GPa) = 106.51457 44.33783 71.54515
#
# Poissons Ratio (x) = 0.20461 0.18632
# Poissons Ratio (y) = 0.49155 0.43943
# Poissons Ratio (z) = 0.27740 0.27232
#
# Static dielectric constant tensor:
#      x y z
#    x 4.320850 -0.000020 0.217990 
#    y -0.000020 4.041550 0.000010 
#    z 0.217990 0.000010 4.459820 
# 
# 
# High freq. dielectric constant tensor:
#      x y z
#    x 1.893510 0.000000 0.004690 
#    y 0.000000 1.860070 0.000000 
#    z 0.004690 0.000000 1.873330 
# 
# From -- ./inp_files/158449.got.cif
#   From: 2010.06.25/outbox.cif.g09.slc.cpg/sg12_80_cif.got.tgz:158449.got - 2010.06.28 00:19:55.
