data_PCOD8115811
_publ_section_title
;
Structure prediction by ZEFSAII (Michael W. Deem and Ramdas Pophale) SiO2 
 PCOD8115811
Probable space group: C 2/M
;
_chemical_formula_sum "Si O2"
_cell_formula_units_Z 48
_cell_length_a 16.806756
_cell_length_b 14.009784
_cell_length_c 9.812179
_cell_angle_alpha 90.000000
_cell_angle_beta 90.577742
_cell_angle_gamma 90.000000
_cell_volume 2310.248610
_symmetry_space_group_name_H-M "C 2/M"
_symmetry_group_IT_number 12
_symmetry_cell_setting 'monoclinic'
loop_
_space_group_symop_operation_xyz
x,y,z
-x,y,-z
-x,-y,-z
x,-y,z
1/2+x,1/2+y,z
1/2-x,1/2+y,-z
1/2-x,1/2-y,-z
1/2+x,1/2-y,z
loop_
_atom_site_type_symbol
_atom_site_label
_atom_site_fract_x
_atom_site_fract_y
_atom_site_fract_z
Si Si1 0.670771 0.205877 0.553884
Si Si2 0.574391 0.199406 0.290289
Si Si3 0.082510 0.206627 0.801234
Si Si4 0.828528 0.305803 0.967341
Si Si5 0.756343 0.500000 0.051237
Si Si6 0.416122 0.500000 0.080287
Si Si7 0.998670 0.500000 0.663438
Si Si8 0.676346 0.000000 0.663090
O O1 0.750000 0.250000 0.500000
O O2 0.600395 0.221414 0.444493
O O3 0.646939 0.258793 0.692049
O O4 0.687315 0.093526 0.571416
O O5 0.506171 0.274053 0.251136
O O6 0.648203 0.211887 0.189121
O O7 0.543838 0.091842 0.276646
O O8 0.089696 0.093458 0.825398
O O9 0.099076 0.267072 0.938527
O O10 0.750000 0.250000 0.000000
O O11 0.807194 0.414557 0.990625
O O12 0.759431 0.500000 0.215107
O O13 0.662051 0.500000 0.017369
O O14 0.500000 0.500000 0.000000
O O15 0.000000 0.500000 0.500000
O O16 0.087759 0.500000 0.724004
#
# Coordination Sequence:
#
# PCOD8115811 Si02
#       8
#     8   8   8   8   4   4   4   4
#     4  12  26  44  70 105 144 184 235 285 355 423
#     4  12  24  42  74 103 137 182 229 287 359 418
#     4  12  25  47  70 100 139 184 234 288 351 419
#     4  12  24  43  69 104 139 180 231 292 349 419
#     4  12  25  43  72 101 141 175 236 285 354 406
#     4  12  28  46  70 100 141 194 242 289 340 416
#     4  12  19  43  72 103 139 173 226 289 361 421
#     4  12  24  44  72 106 141 181 222 301 360 412
#
# _framework density 20.776985
#
# number of rings (size 3 to 8) (size 9 to 14) (size 15 to 20)
#    0.000    0.000    6.667    3.500    0.000    0.667 
#    0.000    4.167    0.000    0.000    0.000    0.000 
#    0.000    0.000    0.000    0.000    0.000    0.000 
#
# Total GULP energy -297701.436023 kJ/mol
# GULP energy per Si atom -12404.226501 kJ/mol
# Density = 2.072970 g / cm^3
# Si number density = 20.776985 Si / 1000 Ang^3
#
#
#
# Elastic Constant Matrix: (Units=GPa)
#
#
# Indices 1 2 3 4 5 6 
#
# 1 104.6560 51.4298 30.0979 0.0000 5.5090 0.0000
# 2 51.4298 163.2785 46.3231 0.0000 -1.2472 0.0000
# 3 30.0979 46.3231 106.2039 0.0000 2.8207 0.0000
# 4 0.0000 0.0000 0.0000 18.8904 0.0000 -14.9088
# 5 5.5090 -1.2472 2.8207 0.0000 51.1777 0.0000
# 6 0.0000 0.0000 0.0000 -14.9088 0.0000 -24.1814
#
#
#
# Elastic Compliance Matrix: (Units=1/GPa)
#
#
# Indices 1 2 3 4 5 6 
#
# 1 0.011722 -0.003160 -0.001911 0.000000 -0.001234 0.000000
# 2 -0.003160 0.007847 -0.002545 0.000000 0.000672 0.000000
# 3 -0.001911 -0.002545 0.011080 0.000000 -0.000467 0.000000
# 4 0.000000 0.000000 0.000000 0.035610 0.000000 -0.021955
# 5 -0.001234 0.000672 -0.000467 0.000000 0.019715 0.000000
# 6 0.000000 0.000000 0.000000 -0.021955 0.000000 -0.027818
#
#
# Mechanical properties :
#
#
# Convention : Reuss Voigt Hill
#
# Bulk Modulus (GPa) = 64.86083 69.98223 67.42153
# Shear Modulus (GPa) = 63.67309 25.59652 44.63480
#
# Velocity S-wave (km/s) = 5.54189 3.51374 4.63998
# Velocity P-wave (km/s) = 8.49914 7.08643 7.82474
#
# Compressibility (1/GPa) = 0.01541763
#
# Stress axis : x y z
#
# Youngs Moduli (GPa) = 85.30726 127.43947 90.25310
#
# Poissons Ratio (x) = 0.40265 0.17249
# Poissons Ratio (y) = 0.26953 0.22970
# Poissons Ratio (z) = 0.16304 0.32434
#
# Static dielectric constant tensor:
#      x y z
#    x 3.850030 0.000000 0.305780 
#    y 0.000000 3.846690 0.000000 
#    z 0.305780 0.000000 4.204100 
# 
# 
# High freq. dielectric constant tensor:
#      x y z
#    x 1.825460 0.000000 0.007780 
#    y 0.000000 1.824020 0.000000 
#    z 0.007780 0.000000 1.816690 
# 
# From -- ./inp_files/73693.got.cif
#   From: 2010.06.25/outbox.cif.g09.slc.cpg/sg12_37_cif.got.tgz:73693.got - 2010.06.28 00:19:55.
