data_PCOD8115384
_publ_section_title
;
Structure prediction by ZEFSAII (Michael W. Deem and Ramdas Pophale) SiO2 
 PCOD8115384
Probable space group: C 2/M
;
_chemical_formula_sum "Si O2"
_cell_formula_units_Z 44
_cell_length_a 11.237362
_cell_length_b 25.082452
_cell_length_c 11.737554
_cell_angle_alpha 90.000000
_cell_angle_beta 40.599991
_cell_angle_gamma 90.000000
_cell_volume 2152.991045
_symmetry_space_group_name_H-M "C 2/M"
_symmetry_group_IT_number 12
_symmetry_cell_setting 'monoclinic'
loop_
_space_group_symop_operation_xyz
x,y,z
-x,y,-z
-x,-y,-z
x,-y,z
1/2+x,1/2+y,z
1/2-x,1/2+y,-z
1/2-x,1/2-y,-z
1/2+x,1/2-y,z
loop_
_atom_site_type_symbol
_atom_site_label
_atom_site_fract_x
_atom_site_fract_y
_atom_site_fract_z
Si Si1 0.116246 0.752602 0.301480
Si Si2 0.792918 0.439039 0.823563
Si Si3 0.500000 0.202004 0.000000
Si Si4 0.429504 0.560662 0.230806
Si Si5 0.078992 0.143820 0.564350
Si Si6 0.497076 0.842716 0.236579
O O1 0.000000 0.741451 0.500000
O O2 0.038219 0.806758 0.301057
O O3 0.100249 0.702703 0.231099
O O4 0.333110 0.760549 0.164204
O O5 0.863495 0.500000 0.778250
O O6 0.735276 0.424414 0.735926
O O7 0.953597 0.400738 0.749579
O O8 0.620349 0.430746 0.029759
O O9 0.560668 0.163435 0.059437
O O10 0.407332 0.500000 0.286432
O O11 0.423744 0.595523 0.347157
O O12 0.281784 0.165584 0.399923
O O13 0.000000 0.124514 0.500000
#
# Coordination Sequence:
#
# PCOD8115384 Si02
#       6
#     8   8   4   8   8   8
#     4  11  25  44  64  97 133 167 217 268 317 387
#     4   9  21  41  65  96 126 164 219 272 319 384
#     4  12  24  44  65  96 133 176 210 262 324 392
#     4   9  20  41  67  94 129 167 214 269 323 382
#     4  11  23  42  63  90 138 170 209 271 315 382
#     4  12  25  40  68  92 132 171 216 266 326 381
#
# _framework density 20.436684
#
# number of rings (size 3 to 8) (size 9 to 14) (size 15 to 20)
#    0.000    1.455    3.636    3.273    2.545    2.545 
#    0.000    2.273    0.000    0.000    0.000    0.000 
#    0.000    0.000    0.000    0.000    0.000    0.000 
#
# Total GULP energy -272813.881377 kJ/mol
# GULP energy per Si atom -12400.630972 kJ/mol
# Density = 2.039017 g / cm^3
# Si number density = 20.436684 Si / 1000 Ang^3
#
#
#
# Elastic Constant Matrix: (Units=GPa)
#
#
# Indices 1 2 3 4 5 6 
#
# 1 116.6447 73.7065 43.3132 0.0000 5.3067 0.0000
# 2 73.7065 116.4730 47.8397 0.0000 20.9389 0.0000
# 3 43.3132 47.8397 72.3946 0.0000 -3.4149 0.0000
# 4 0.0000 0.0000 0.0000 53.7122 0.0000 -8.8731
# 5 5.3067 20.9389 -3.4149 0.0000 39.2466 0.0000
# 6 0.0000 0.0000 0.0000 -8.8731 0.0000 34.2400
#
#
#
# Elastic Compliance Matrix: (Units=1/GPa)
#
#
# Indices 1 2 3 4 5 6 
#
# 1 0.015146 -0.008676 -0.003220 0.000000 0.002300 0.000000
# 2 -0.008676 0.019035 -0.007844 0.000000 -0.009665 0.000000
# 3 -0.003220 -0.007844 0.021229 0.000000 0.006468 0.000000
# 4 0.000000 0.000000 0.000000 0.019450 0.000000 0.005040
# 5 0.002300 -0.009665 0.006468 0.000000 0.030888 0.000000
# 6 0.000000 0.000000 0.000000 0.005040 0.000000 0.030512
#
#
# Mechanical properties :
#
#
# Convention : Reuss Voigt Hill
#
# Bulk Modulus (GPa) = 62.77586 70.58123 66.67854
# Shear Modulus (GPa) = 27.61658 34.81664 31.21661
#
# Velocity S-wave (km/s) = 3.68002 4.13199 3.91254
# Velocity P-wave (km/s) = 6.98861 7.57469 7.28755
#
# Compressibility (1/GPa) = 0.01592969
#
# Stress axis : x y z
#
# Youngs Moduli (GPa) = 66.02284 52.53401 47.10644
#
# Poissons Ratio (x) = 0.45577 0.15170
# Poissons Ratio (y) = 0.57280 0.36951
# Poissons Ratio (z) = 0.21261 0.41208
#
# Static dielectric constant tensor:
#      x y z
#    x 3.903490 0.000000 0.065830 
#    y 0.000000 3.671940 0.000000 
#    z 0.065830 0.000000 3.771810 
# 
# 
# High freq. dielectric constant tensor:
#      x y z
#    x 1.803010 0.000000 -0.002380 
#    y 0.000000 1.793150 0.000000 
#    z -0.002380 0.000000 1.805600 
# 
# From -- ./inp_files/135739.got.cif
#   From: 2010.06.25/outbox.cif.g09.slc.cpg/sg12_68_cif.got.tgz:135739.got - 2010.06.28 00:19:55.
