data_PCOD8115475
_publ_section_title
;
Structure prediction by ZEFSAII (Michael W. Deem and Ramdas Pophale) SiO2 
 PCOD8115475
Probable space group: C 2/M
;
_chemical_formula_sum "Si O2"
_cell_formula_units_Z 64
_cell_length_a 11.917039
_cell_length_b 17.224736
_cell_length_c 14.656574
_cell_angle_alpha 90.000000
_cell_angle_beta 93.908074
_cell_angle_gamma 90.000000
_cell_volume 3001.527677
_symmetry_space_group_name_H-M "C 2/M"
_symmetry_group_IT_number 12
_symmetry_cell_setting 'monoclinic'
loop_
_space_group_symop_operation_xyz
x,y,z
-x,y,-z
-x,-y,-z
x,-y,z
1/2+x,1/2+y,z
1/2-x,1/2+y,-z
1/2-x,1/2-y,-z
1/2+x,1/2-y,z
loop_
_atom_site_type_symbol
_atom_site_label
_atom_site_fract_x
_atom_site_fract_y
_atom_site_fract_z
Si Si1 0.596962 0.326584 0.247421
Si Si2 0.253467 0.646575 0.426007
Si Si3 0.027180 0.913294 0.602941
Si Si4 0.683058 0.829124 0.989836
Si Si5 0.602558 0.589734 0.061617
Si Si6 0.522694 0.909014 0.331160
Si Si7 0.973043 0.331962 0.849300
Si Si8 0.697703 0.179856 0.618361
O O1 0.518242 0.354094 0.324925
O O2 0.592446 0.385887 0.164861
O O3 0.554734 0.243473 0.211735
O O4 0.725080 0.326353 0.288119
O O5 0.336888 0.584403 0.384392
O O6 0.310023 0.730019 0.408360
O O7 0.249648 0.633709 0.535032
O O8 0.131483 0.634097 0.376881
O O9 0.000000 0.881956 0.500000
O O10 0.979456 0.000000 0.617007
O O11 0.775254 0.894303 0.974183
O O12 0.593338 0.822954 0.903831
O O13 0.750000 0.750000 0.000000
O O14 0.623559 0.848507 0.082035
O O15 0.581402 0.500000 0.056623
O O16 0.500000 0.631362 0.000000
O O17 0.523036 0.903675 0.220928
O O18 0.420569 0.859860 0.366630
O O19 0.516321 0.000000 0.358758
#
# Coordination Sequence:
#
# PCOD8115475 Si02
#       8
#     8   8   8   8   8   8   8   8
#     4  12  22  44  70 100 134 179 235 289 340 415
#     4  11  24  45  68  96 135 183 237 286 344 410
#     4  11  24  41  65  95 134 179 228 284 345 408
#     4  11  23  44  70  98 134 180 224 284 345 418
#     4  11  25  44  69 102 138 176 224 286 353 418
#     4  12  27  45  67 104 145 183 230 291 360 419
#     4  11  25  42  69 102 132 180 231 279 346 424
#     4  11  25  42  71  96 132 185 235 286 343 413
#
# _framework density 21.322475000000001
#
# number of rings (size 3 to 8) (size 9 to 14) (size 15 to 20)
#    0.000    0.750    3.750    3.375    0.000    6.500 
#    0.000    2.500    0.000    0.000    0.000    0.000 
#    0.000    0.000    0.000    0.000    0.000    0.000 
#
# Total GULP energy -396814.924163 kJ/mol
# GULP energy per Si atom -12400.466380 kJ/mol
# Density = 2.127394 g / cm^3
# Si number density = 21.322475 Si / 1000 Ang^3
#
#
#
# Elastic Constant Matrix: (Units=GPa)
#
#
# Indices 1 2 3 4 5 6 
#
# 1 132.1546 33.7219 53.6676 0.0000 -5.2464 0.0000
# 2 33.7219 83.9592 35.9214 0.0000 -6.0002 0.0000
# 3 53.6676 35.9214 142.2779 0.0000 -4.2878 0.0000
# 4 0.0000 0.0000 0.0000 19.1735 0.0000 -0.4152
# 5 -5.2464 -6.0002 -4.2878 0.0000 36.7000 0.0000
# 6 0.0000 0.0000 0.0000 -0.4152 0.0000 30.4274
#
#
#
# Elastic Compliance Matrix: (Units=1/GPa)
#
#
# Indices 1 2 3 4 5 6 
#
# 1 0.009405 -0.002494 -0.002900 0.000000 0.000598 0.000000
# 2 -0.002494 0.014133 -0.002578 0.000000 0.001653 0.000000
# 3 -0.002900 -0.002578 0.008779 0.000000 0.000190 0.000000
# 4 0.000000 0.000000 0.000000 0.052171 0.000000 0.000712
# 5 0.000598 0.001653 0.000190 0.000000 0.027626 0.000000
# 6 0.000000 0.000000 0.000000 0.000712 0.000000 0.032875
#
#
# Mechanical properties :
#
#
# Convention : Reuss Voigt Hill
#
# Bulk Modulus (GPa) = 61.07332 67.22375 64.14853
# Shear Modulus (GPa) = 30.05010 32.93223 31.49116
#
# Velocity S-wave (km/s) = 3.75816 3.93426 3.84721
# Velocity P-wave (km/s) = 6.89468 7.22727 7.06293
#
# Compressibility (1/GPa) = 0.01637376
#
# Stress axis : x y z
#
# Youngs Moduli (GPa) = 106.33089 70.75526 113.91042
#
# Poissons Ratio (x) = 0.17646 0.33031
# Poissons Ratio (y) = 0.26518 0.29363
# Poissons Ratio (z) = 0.30834 0.18239
#
# Static dielectric constant tensor:
#      x y z
#    x 3.692890 0.000000 0.244130 
#    y 0.000000 3.479480 0.000000 
#    z 0.244130 0.000000 4.112520 
# 
# 
# High freq. dielectric constant tensor:
#      x y z
#    x 1.853730 0.000000 0.001680 
#    y 0.000000 1.828630 0.000000 
#    z 0.001680 0.000000 1.851430 
# 
# From -- ./inp_files/206676.got.cif
#   From: 2010.06.25/outbox.cif.g09.slc.cpg/sg12_104_cif.got.tgz:206676.got - 2010.06.28 00:19:55.
