data_PCOD8115567
_publ_section_title
;
Structure prediction by ZEFSAII (Michael W. Deem and Ramdas Pophale) SiO2 
 PCOD8115567
Probable space group: C 2/M
;
_chemical_formula_sum "Si O2"
_cell_formula_units_Z 64
_cell_length_a 9.226435
_cell_length_b 16.528495
_cell_length_c 21.039338
_cell_angle_alpha 90.000000
_cell_angle_beta 89.429580
_cell_angle_gamma 90.000000
_cell_volume 3208.320784
_symmetry_space_group_name_H-M "C 2/M"
_symmetry_group_IT_number 12
_symmetry_cell_setting 'monoclinic'
loop_
_space_group_symop_operation_xyz
x,y,z
-x,y,-z
-x,-y,-z
x,-y,z
1/2+x,1/2+y,z
1/2-x,1/2+y,-z
1/2-x,1/2-y,-z
1/2+x,1/2-y,z
loop_
_atom_site_type_symbol
_atom_site_label
_atom_site_fract_x
_atom_site_fract_y
_atom_site_fract_z
Si Si1 0.235615 0.314153 0.663048
Si Si2 0.599685 0.906899 0.941032
Si Si3 0.621563 0.239400 0.453532
Si Si4 0.777840 0.593304 0.754409
Si Si5 0.643984 0.307163 0.038681
Si Si6 0.551894 0.202599 0.155213
Si Si7 0.531113 0.906397 0.369009
Si Si8 0.524872 0.304067 0.729195
O O1 0.345880 0.296983 0.605468
O O2 0.353565 0.323392 0.719168
O O3 0.115080 0.243528 0.673669
O O4 0.139458 0.393460 0.647913
O O5 0.769700 0.891825 0.954053
O O6 0.558937 0.856624 0.879212
O O7 0.570417 0.000000 0.927472
O O8 0.500000 0.875918 0.000000
O O9 0.500000 0.274586 0.500000
O O10 0.750000 0.250000 0.500000
O O11 0.582802 0.148687 0.428273
O O12 0.796651 0.500000 0.772186
O O13 0.822364 0.647916 0.814159
O O14 0.875779 0.617909 0.693436
O O15 0.609317 0.611545 0.739733
O O16 0.616649 0.268697 0.107391
O O17 0.500000 0.325428 0.000000
O O18 0.750000 0.250000 0.000000
O O19 0.460083 0.248148 0.209096
O O20 0.554998 0.000000 0.387473
#
# Coordination Sequence:
#
# PCOD8115567 Si02
#       8
#     8   8   8   8   8   8   8   8
#     4  12  21  42  63  93 127 162 212 252 308 369
#     4  11  24  42  63  90 126 165 205 259 320 373
#     4  12  22  38  67  94 120 167 212 252 294 370
#     4  11  24  41  63  94 128 163 203 260 320 368
#     4  12  23  41  64  90 123 161 211 260 312 372
#     4  12  21  39  69  90 119 167 215 256 300 389
#     4  11  24  43  65  94 132 166 204 263 321 362
#     4  12  22  38  68  92 123 165 212 258 308 372
#
# _framework density 19.948129999999999
#
# number of rings (size 3 to 8) (size 9 to 14) (size 15 to 20)
#    0.000    0.375    8.750    1.125    0.000    1.000 
#    0.000    0.625    0.000    0.750    0.000    0.000 
#    0.000    0.000    0.000    0.000    0.000    0.000 
#
# Total GULP energy -396642.225660 kJ/mol
# GULP energy per Si atom -12395.069552 kJ/mol
# Density = 1.990273 g / cm^3
# Si number density = 19.948130 Si / 1000 Ang^3
#
#
#
# Elastic Constant Matrix: (Units=GPa)
#
#
# Indices 1 2 3 4 5 6 
#
# 1 149.2787 42.6063 39.7802 0.0000 19.0939 0.0000
# 2 42.6063 68.3127 37.0778 0.0000 2.8159 0.0000
# 3 39.7802 37.0778 95.7768 0.0000 2.9894 0.0000
# 4 0.0000 0.0000 0.0000 20.0073 0.0000 2.4860
# 5 19.0939 2.8159 2.9894 0.0000 32.5839 0.0000
# 6 0.0000 0.0000 0.0000 2.4860 0.0000 34.7673
#
#
#
# Elastic Compliance Matrix: (Units=1/GPa)
#
#
# Indices 1 2 3 4 5 6 
#
# 1 0.009082 -0.004433 -0.001907 0.000000 -0.004764 0.000000
# 2 -0.004433 0.020725 -0.006225 0.000000 0.001378 0.000000
# 3 -0.001907 -0.006225 0.013630 0.000000 0.000405 0.000000
# 4 0.000000 0.000000 0.000000 0.050430 0.000000 -0.003606
# 5 -0.004764 0.001378 0.000405 0.000000 0.033325 0.000000
# 6 0.000000 0.000000 0.000000 -0.003606 0.000000 0.029020
#
#
# Mechanical properties :
#
#
# Convention : Reuss Voigt Hill
#
# Bulk Modulus (GPa) = 54.62396 61.36630 57.99513
# Shear Modulus (GPa) = 26.67443 30.39862 28.53653
#
# Velocity S-wave (km/s) = 3.66073 3.90793 3.78635
# Velocity P-wave (km/s) = 6.73130 7.15488 6.94632
#
# Compressibility (1/GPa) = 0.01830698
#
# Stress axis : x y z
#
# Youngs Moduli (GPa) = 110.11305 48.25045 73.36515
#
# Poissons Ratio (x) = 0.21387 0.13993
# Poissons Ratio (y) = 0.48808 0.45672
# Poissons Ratio (z) = 0.21002 0.30037
#
# Static dielectric constant tensor:
#      x y z
#    x 3.876940 0.000000 -0.128720 
#    y 0.000000 3.486470 0.000000 
#    z -0.128720 0.000000 3.546990 
# 
# 
# High freq. dielectric constant tensor:
#      x y z
#    x 1.792290 0.000000 0.002250 
#    y 0.000000 1.754660 0.000000 
#    z 0.002250 0.000000 1.786450 
# 
# From -- ./inp_files/300814.got.cif
#   From: 2010.06.25/outbox.cif.g09.slc.cpg/sg12_151_cif.got.tgz:300814.got - 2010.06.28 00:19:55.
