data_PCOD8115967
_publ_section_title
;
Structure prediction by ZEFSAII (Michael W. Deem and Ramdas Pophale) SiO2 
 PCOD8115967
Probable space group: C 2/M
;
_chemical_formula_sum "Si O2"
_cell_formula_units_Z 40
_cell_length_a 33.735260
_cell_length_b 9.408326
_cell_length_c 7.358053
_cell_angle_alpha 90.000000
_cell_angle_beta 90.011435
_cell_angle_gamma 90.000000
_cell_volume 2335.389494
_symmetry_space_group_name_H-M "C 2/M"
_symmetry_group_IT_number 12
_symmetry_cell_setting 'monoclinic'
loop_
_space_group_symop_operation_xyz
x,y,z
-x,y,-z
-x,-y,-z
x,-y,z
1/2+x,1/2+y,z
1/2-x,1/2+y,-z
1/2-x,1/2-y,-z
1/2+x,1/2-y,z
loop_
_atom_site_type_symbol
_atom_site_label
_atom_site_fract_x
_atom_site_fract_y
_atom_site_fract_z
Si Si1 0.788494 0.665620 0.708429
Si Si2 0.500003 0.168940 0.295173
Si Si3 0.850480 0.332052 0.000205
Si Si4 0.438579 0.830675 0.999967
Si Si5 0.711394 0.834445 0.707562
O O1 0.779869 0.500000 0.741313
O O2 0.826358 0.718082 0.822642
O O3 0.749876 0.749828 0.775033
O O4 0.798423 0.700192 0.500482
O O5 0.500000 0.233893 0.500000
O O6 0.461307 0.220908 0.182595
O O7 0.499975 0.000000 0.307800
O O8 0.538734 0.220756 0.182788
O O9 0.855208 0.500000 0.999266
O O10 0.894395 0.263728 0.999977
O O11 0.826614 0.282695 0.178793
O O12 0.437372 0.000000 0.000175
O O13 0.720166 0.000000 0.740244
#
# Coordination Sequence:
#
# PCOD8115967 Si02
#       5
#     8   8   8   8   8
#     4   9  17  28  41  57  77 103 134 164 195 231
#     4   8  13  21  32  45  65  94 123 151 185 224
#     4   9  16  25  37  53  74  99 129 165 197 226
#     4   8  14  22  31  47  68  91 124 158 185 221
#     4   9  17  28  41  57  77 103 134 164 195 231
#
# _framework density 17.127763999999999
#
# number of rings (size 3 to 8) (size 9 to 14) (size 15 to 20)
#    0.000    3.400    0.000    1.800    0.000    1.600 
#    0.000    8.000    0.000    0.000    0.000    0.000 
#    0.000    0.000    0.000   14.400    0.000  101.600 
#
# Total GULP energy -247866.981690 kJ/mol
# GULP energy per Si atom -12393.349085 kJ/mol
# Density = 1.708878 g / cm^3
# Si number density = 17.127764 Si / 1000 Ang^3
#
#
#
# Elastic Constant Matrix: (Units=GPa)
#
#
# Indices 1 2 3 4 5 6 
#
# 1 187.4744 20.8636 94.9133 0.0000 -9.9217 0.0000
# 2 20.8636 12.6947 13.3061 0.0000 -0.9221 0.0000
# 3 94.9133 13.3061 143.4640 0.0000 0.9233 0.0000
# 4 0.0000 0.0000 0.0000 8.6467 0.0000 -0.6098
# 5 -9.9217 -0.9221 0.9233 0.0000 12.0701 0.0000
# 6 0.0000 0.0000 0.0000 -0.6098 0.0000 14.3143
#
#
#
# Elastic Compliance Matrix: (Units=1/GPa)
#
#
# Indices 1 2 3 4 5 6 
#
# 1 0.009570 -0.009405 -0.005507 0.000000 0.007569 0.000000
# 2 -0.009405 0.097144 -0.002787 0.000000 -0.000096 0.000000
# 3 -0.005507 -0.002787 0.010908 0.000000 -0.005575 0.000000
# 4 0.000000 0.000000 0.000000 0.116000 0.000000 0.004942
# 5 0.007569 -0.000096 -0.005575 0.000000 0.089490 0.000000
# 6 0.000000 0.000000 0.000000 0.004942 0.000000 0.070071
#
#
# Mechanical properties :
#
#
# Convention : Reuss Voigt Hill
#
# Bulk Modulus (GPa) = 12.16206 66.86657 39.51432
# Shear Modulus (GPa) = 10.96516 21.30956 16.13736
#
# Velocity S-wave (km/s) = 2.53296 3.53108 3.07282
# Velocity P-wave (km/s) = 3.95862 7.46655 5.97579
#
# Compressibility (1/GPa) = 0.08222288
#
# Stress axis : x y z
#
# Youngs Moduli (GPa) = 104.49770 10.29398 91.67219
#
# Poissons Ratio (x) = 0.09681 0.50488
# Poissons Ratio (y) = 0.98280 0.25551
# Poissons Ratio (z) = 0.57552 0.02869
#
# Static dielectric constant tensor:
#      x y z
#    x 3.561940 0.000000 -0.009750 
#    y 0.000000 2.582220 0.000000 
#    z -0.009750 0.000000 3.457740 
# 
# 
# High freq. dielectric constant tensor:
#      x y z
#    x 1.664440 0.000000 0.001110 
#    y 0.000000 1.585730 0.000000 
#    z 0.001110 0.000000 1.675230 
# 
# From -- ./inp_files/101631.got.cif
#   From: 2010.06.25/outbox.cif.g09.slc.cpg/sg12_51_cif.got.tgz:101631.got - 2010.06.28 00:19:55.
