data_PCOD8115323
_publ_section_title
;
Structure prediction by ZEFSAII (Michael W. Deem and Ramdas Pophale) SiO2 
 PCOD8115323
Probable space group: C 2/M
;
_chemical_formula_sum "Si O2"
_cell_formula_units_Z 64
_cell_length_a 14.057753
_cell_length_b 29.682287
_cell_length_c 8.491468
_cell_angle_alpha 90.000000
_cell_angle_beta 97.808007
_cell_angle_gamma 90.000000
_cell_volume 3510.353572
_symmetry_space_group_name_H-M "C 2/M"
_symmetry_group_IT_number 12
_symmetry_cell_setting 'monoclinic'
loop_
_space_group_symop_operation_xyz
x,y,z
-x,y,-z
-x,-y,-z
x,-y,z
1/2+x,1/2+y,z
1/2-x,1/2+y,-z
1/2-x,1/2-y,-z
1/2+x,1/2-y,z
loop_
_atom_site_type_symbol
_atom_site_label
_atom_site_fract_x
_atom_site_fract_y
_atom_site_fract_z
Si Si1 0.548172 0.723867 0.293317
Si Si2 0.804655 0.364828 0.638001
Si Si3 0.389375 0.949063 0.157209
Si Si4 0.156750 0.360875 0.716470
Si Si5 0.235543 0.225702 0.161384
Si Si6 0.356128 0.299264 0.357930
Si Si7 0.978635 0.680618 0.813274
Si Si8 0.110330 0.449622 0.210190
O O1 0.621162 0.718595 0.163447
O O2 0.606808 0.712320 0.461291
O O3 0.448704 0.695057 0.262281
O O4 0.508409 0.774586 0.286436
O O5 0.831008 0.352919 0.465132
O O6 0.697155 0.347565 0.650348
O O7 0.871262 0.337751 0.774833
O O8 0.818259 0.417755 0.673932
O O9 0.320655 0.913070 0.232558
O O10 0.499815 0.944591 0.238956
O O11 0.352988 0.000000 0.184306
O O12 0.381979 0.937973 0.971560
O O13 0.219150 0.324221 0.826320
O O14 0.047346 0.355919 0.748854
O O15 0.283836 0.258532 0.300167
O O16 0.250000 0.250000 0.000000
O O17 0.000000 0.689752 0.000000
O O18 0.146572 0.500000 0.252119
#
# Coordination Sequence:
#
# PCOD8115323 Si02
#       8
#     8   8   8   8   8   8   8   8
#     4  11  23  41  55  75 114 155 198 234 287 326
#     4  12  23  36  55  84 115 149 196 234 285 343
#     4   9  19  36  57  83 114 150 183 229 291 348
#     4  12  23  35  53  87 113 156 191 232 286 339
#     4  12  24  37  57  84 114 153 201 240 279 338
#     4  11  24  38  58  77 111 157 189 242 278 340
#     4  12  23  34  54  80 112 154 195 236 277 338
#     4   9  19  36  58  82 114 147 185 232 287 354
#
# _framework density 18.231781000000002
#
# number of rings (size 3 to 8) (size 9 to 14) (size 15 to 20)
#    0.000    1.000    5.000    3.750    3.500    0.500 
#    0.000    1.250    0.000    0.000    0.000    2.625 
#    0.000    2.000    0.000    0.000    0.000    0.000 
#
# Total GULP energy -396672.197945 kJ/mol
# GULP energy per Si atom -12396.006186 kJ/mol
# Density = 1.819028 g / cm^3
# Si number density = 18.231781 Si / 1000 Ang^3
#
#
#
# Elastic Constant Matrix: (Units=GPa)
#
#
# Indices 1 2 3 4 5 6 
#
# 1 105.6824 44.8114 41.1542 0.0000 -12.8494 0.0000
# 2 44.8114 127.0613 43.6827 0.0000 5.1215 0.0000
# 3 41.1542 43.6827 62.1806 0.0000 1.3393 0.0000
# 4 0.0000 0.0000 0.0000 29.0350 0.0000 2.3063
# 5 -12.8494 5.1215 1.3393 0.0000 18.6286 0.0000
# 6 0.0000 0.0000 0.0000 2.3063 0.0000 27.9784
#
#
#
# Elastic Compliance Matrix: (Units=1/GPa)
#
#
# Indices 1 2 3 4 5 6 
#
# 1 0.015498 -0.003084 -0.008353 0.000000 0.012139 0.000000
# 2 -0.003084 0.011092 -0.005649 0.000000 -0.004770 0.000000
# 3 -0.008353 -0.005649 0.025709 0.000000 -0.006057 0.000000
# 4 0.000000 0.000000 0.000000 0.034668 0.000000 -0.002858
# 5 0.012139 -0.004770 -0.006057 0.000000 0.063801 0.000000
# 6 0.000000 0.000000 0.000000 -0.002858 0.000000 0.035977
#
#
# Mechanical properties :
#
#
# Convention : Reuss Voigt Hill
#
# Bulk Modulus (GPa) = 55.15871 61.58012 58.36941
# Shear Modulus (GPa) = 22.03042 26.14680 24.08861
#
# Velocity S-wave (km/s) = 3.47991 3.79110 3.63883
# Velocity P-wave (km/s) = 6.81661 7.28099 7.05262
#
# Compressibility (1/GPa) = 0.01812950
#
# Stress axis : x y z
#
# Youngs Moduli (GPa) = 64.52288 90.15553 38.89653
#
# Poissons Ratio (x) = 0.27800 0.32490
# Poissons Ratio (y) = 0.19896 0.21971
# Poissons Ratio (z) = 0.53895 0.50926
#
# Static dielectric constant tensor:
#      x y z
#    x 3.399960 0.000000 0.019340 
#    y 0.000000 3.489670 0.000000 
#    z 0.019340 0.000000 3.280910 
# 
# 
# High freq. dielectric constant tensor:
#      x y z
#    x 1.680310 0.000000 -0.005080 
#    y 0.000000 1.698310 0.000000 
#    z -0.005080 0.000000 1.708380 
# 
# From -- ./inp_files/66981.got.cif
#   From: 2010.06.25/outbox.cif.g09.slc.cpg/sg12_34_cif.got.tgz:66981.got - 2010.06.28 00:19:55.
