data_PCOD8115225
_publ_section_title
;
Structure prediction by ZEFSAII (Michael W. Deem and Ramdas Pophale) SiO2 
 PCOD8115225
Probable space group: C 2/M
;
_chemical_formula_sum "Si O2"
_cell_formula_units_Z 64
_cell_length_a 21.585901
_cell_length_b 28.930371
_cell_length_c 15.427143
_cell_angle_alpha 90.000000
_cell_angle_beta 160.745569
_cell_angle_gamma 90.000000
_cell_volume 3176.965352
_symmetry_space_group_name_H-M "C 2/M"
_symmetry_group_IT_number 12
_symmetry_cell_setting 'monoclinic'
loop_
_space_group_symop_operation_xyz
x,y,z
-x,y,-z
-x,-y,-z
x,-y,z
1/2+x,1/2+y,z
1/2-x,1/2+y,-z
1/2-x,1/2-y,-z
1/2+x,1/2-y,z
loop_
_atom_site_type_symbol
_atom_site_label
_atom_site_fract_x
_atom_site_fract_y
_atom_site_fract_z
Si Si1 0.015502 0.290851 0.704139
Si Si2 0.691859 0.359284 0.701437
Si Si3 0.946881 0.379771 0.721457
Si Si4 0.670550 0.709213 0.004464
Si Si5 0.901353 0.875089 0.613882
Si Si6 0.314371 0.240273 0.808579
Si Si7 0.426359 0.946210 0.539253
Si Si8 0.204073 0.054058 0.078033
O O1 0.125713 0.307225 0.762448
O O2 0.941153 0.335439 0.653356
O O3 0.847177 0.255091 0.469637
O O4 0.152925 0.261693 0.946709
O O5 0.500000 0.362007 0.500000
O O6 0.657632 0.383216 0.563460
O O7 0.757398 0.306432 0.781653
O O8 0.852477 0.387096 0.966352
O O9 0.789578 0.372705 0.585417
O O10 0.897832 0.422512 0.594369
O O11 0.664716 0.715447 0.100106
O O12 0.512343 0.673136 0.766790
O O13 0.023002 0.917288 0.810785
O O14 0.500000 0.230260 0.000000
O O15 0.631719 0.934822 0.773180
O O16 0.270182 0.930712 0.261931
O O17 0.403238 0.000000 0.525787
O O18 0.152824 0.000000 0.008947
#
# Coordination Sequence:
#
# PCOD8115225 Si02
#       8
#     8   8   8   8   8   8   8   8
#     4  11  23  39  60  84 118 165 211 249 296 363
#     4  12  24  42  63  85 120 167 213 251 302 371
#     4  12  25  40  62  93 127 161 204 259 313 361
#     4  11  23  39  60  84 118 165 211 249 296 363
#     4  12  25  40  62  93 127 161 204 259 313 361
#     4  12  24  38  58  85 120 157 202 260 314 356
#     4   9  20  42  70  96 124 160 202 248 303 370
#     4   9  20  42  70  96 124 160 202 248 303 370
#
# _framework density 20.145009999999999
#
# number of rings (size 3 to 8) (size 9 to 14) (size 15 to 20)
#    0.000    1.000    2.500    6.000    1.750    2.000 
#    0.000    1.875    0.000    3.750    0.000    0.000 
#    0.000    0.000    0.000    0.000    0.000    0.000 
#
# Total GULP energy -396805.216236 kJ/mol
# GULP energy per Si atom -12400.163007 kJ/mol
# Density = 2.009916 g / cm^3
# Si number density = 20.145010 Si / 1000 Ang^3
#
#
#
# Elastic Constant Matrix: (Units=GPa)
#
#
# Indices 1 2 3 4 5 6 
#
# 1 123.6440 43.6821 58.3142 -0.0001 5.8367 -0.0001
# 2 43.6821 69.5960 36.8621 0.0000 -4.2824 0.0000
# 3 58.3142 36.8621 107.9444 0.0002 4.3717 0.0000
# 4 -0.0001 0.0000 0.0002 29.5591 0.0001 -4.9371
# 5 5.8367 -4.2824 4.3717 0.0001 41.9453 -0.0001
# 6 -0.0001 0.0000 0.0000 -4.9371 -0.0001 33.9321
#
#
#
# Elastic Compliance Matrix: (Units=1/GPa)
#
#
# Indices 1 2 3 4 5 6 
#
# 1 0.012286 -0.005300 -0.004756 0.000000 -0.001755 0.000000
# 2 -0.005300 0.020077 -0.004123 0.000000 0.003217 0.000000
# 3 -0.004756 -0.004123 0.013288 0.000000 -0.001144 0.000000
# 4 0.000000 0.000000 0.000000 0.034673 0.000000 0.005045
# 5 -0.001755 0.003217 -0.001144 0.000000 0.024532 0.000000
# 6 0.000000 0.000000 0.000000 0.005045 0.000000 0.030205
#
#
# Mechanical properties :
#
#
# Convention : Reuss Voigt Hill
#
# Bulk Modulus (GPa) = 57.83051 64.32236 61.07643
# Shear Modulus (GPa) = 29.55344 31.90904 30.73124
#
# Velocity S-wave (km/s) = 3.83434 3.98423 3.91000
# Velocity P-wave (km/s) = 6.95502 7.29139 7.12519
#
# Compressibility (1/GPa) = 0.01729191
#
# Stress axis : x y z
#
# Youngs Moduli (GPa) = 81.39123 49.80776 75.25689
#
# Poissons Ratio (x) = 0.26400 0.35794
# Poissons Ratio (y) = 0.43140 0.31029
# Poissons Ratio (z) = 0.38712 0.20536
#
# Static dielectric constant tensor:
#      x y z
#    x 3.844650 0.000000 -0.087280 
#    y 0.000000 3.457110 0.000000 
#    z -0.087280 0.000000 3.714090 
# 
# 
# High freq. dielectric constant tensor:
#      x y z
#    x 1.797370 0.000000 -0.001970 
#    y 0.000000 1.769490 0.000000 
#    z -0.001970 0.000000 1.794040 
# 
# From -- ./inp_files/236016.got.cif
#   From: 2010.06.25/outbox.cif.g09.slc.cpg/sg12_119_cif.got.tgz:236016.got - 2010.06.28 00:19:55.
