data_PCOD8115395
_publ_section_title
;
Structure prediction by ZEFSAII (Michael W. Deem and Ramdas Pophale) SiO2 
 PCOD8115395
Probable space group: C 2/M
;
_chemical_formula_sum "Si O2"
_cell_formula_units_Z 48
_cell_length_a 25.372412
_cell_length_b 18.355891
_cell_length_c 5.170794
_cell_angle_alpha 90.000000
_cell_angle_beta 62.750028
_cell_angle_gamma 90.000000
_cell_volume 2140.941031
_symmetry_space_group_name_H-M "C 2/M"
_symmetry_group_IT_number 12
_symmetry_cell_setting 'monoclinic'
loop_
_space_group_symop_operation_xyz
x,y,z
-x,y,-z
-x,-y,-z
x,-y,z
1/2+x,1/2+y,z
1/2-x,1/2+y,-z
1/2-x,1/2-y,-z
1/2+x,1/2-y,z
loop_
_atom_site_type_symbol
_atom_site_label
_atom_site_fract_x
_atom_site_fract_y
_atom_site_fract_z
Si Si1 0.535910 0.374630 0.679652
Si Si2 0.060885 0.290031 0.766771
Si Si3 0.785098 0.804277 0.235827
Si Si4 0.273514 0.081310 0.961398
Si Si5 0.158168 0.920475 0.565085
Si Si6 0.364869 0.186944 0.889703
O O1 0.500000 0.390273 0.500000
O O2 0.543764 0.289613 0.709928
O O3 0.599981 0.412242 0.518097
O O4 0.500000 0.409528 0.000000
O O5 0.089879 0.326548 0.448289
O O6 0.105436 0.292688 0.906015
O O7 0.000000 0.329530 0.000000
O O8 0.750000 0.750000 0.500000
O O9 0.735536 0.860862 0.248471
O O10 0.837191 0.853119 0.248338
O O11 0.818577 0.754755 0.942358
O O12 0.328923 0.111250 0.003967
O O13 0.287630 0.000000 0.825672
O O14 0.214456 0.081915 0.256766
O O15 0.156723 0.000000 0.708959
#
# Coordination Sequence:
#
# PCOD8115395 Si02
#       6
#     8   8   8   8   8   8
#     4  11  24  42  64  94 134 180 232 282 333 397
#     4  11  23  42  67 104 132 173 230 293 344 406
#     4  12  23  42  67 104 139 183 237 288 344 420
#     4  11  26  43  66 102 142 182 224 286 359 422
#     4  11  25  43  65  97 142 188 230 284 348 413
#     4  12  23  41  72 100 138 177 230 286 345 410
#
# _framework density 22.420048999999999
#
# number of rings (size 3 to 8) (size 9 to 14) (size 15 to 20)
#    0.000    0.667    3.333    5.500    2.333    0.667 
#    0.000    0.000    0.000    3.000    0.000    0.000 
#    0.000    0.000    0.000    0.000    0.000    0.000 
#
# Total GULP energy -297494.641039 kJ/mol
# GULP energy per Si atom -12395.610043 kJ/mol
# Density = 2.236902 g / cm^3
# Si number density = 22.420049 Si / 1000 Ang^3
#
#
#
# Elastic Constant Matrix: (Units=GPa)
#
#
# Indices 1 2 3 4 5 6 
#
# 1 101.5243 54.0752 46.9553 0.0000 -6.9282 0.0000
# 2 54.0752 138.9251 40.1730 0.0000 -5.0737 0.0000
# 3 46.9553 40.1730 128.2341 0.0000 -7.8142 0.0000
# 4 0.0000 0.0000 0.0000 8.5902 0.0000 15.5401
# 5 -6.9282 -5.0737 -7.8142 0.0000 41.4751 0.0000
# 6 0.0000 0.0000 0.0000 15.5401 0.0000 2.9615
#
#
#
# Elastic Compliance Matrix: (Units=1/GPa)
#
#
# Indices 1 2 3 4 5 6 
#
# 1 0.013926 -0.004316 -0.003680 0.000000 0.001105 0.000000
# 2 -0.004316 0.009263 -0.001312 0.000000 0.000165 0.000000
# 3 -0.003680 -0.001312 0.009620 0.000000 0.001037 0.000000
# 4 0.000000 0.000000 0.000000 -0.013707 0.000000 0.071927
# 5 0.001105 0.000165 0.001037 0.000000 0.024511 0.000000
# 6 0.000000 0.000000 0.000000 0.071927 0.000000 -0.039760
#
#
# Mechanical properties :
#
#
# Convention : Reuss Voigt Hill
#
# Bulk Modulus (GPa) = 70.45080 72.34337 71.39708
# Shear Modulus (GPa) = 183.82335 25.77072 104.79703
#
# Velocity S-wave (km/s) = 9.06469 3.39403 6.84427
# Velocity P-wave (km/s) = 11.87643 6.90627 9.71458
#
# Compressibility (1/GPa) = 0.01419430
#
# Stress axis : x y z
#
# Youngs Moduli (GPa) = 71.80757 107.95147 103.95279
#
# Poissons Ratio (x) = 0.46593 0.38253
# Poissons Ratio (y) = 0.30993 0.13634
# Poissons Ratio (z) = 0.26424 0.14158
#
# Static dielectric constant tensor:
#      x y z
#    x 4.749170 0.000000 -0.220520 
#    y 0.000000 4.332010 0.000000 
#    z -0.220520 0.000000 4.220500 
# 
# 
# High freq. dielectric constant tensor:
#      x y z
#    x 1.893010 0.000000 -0.009550 
#    y 0.000000 1.865340 0.000000 
#    z -0.009550 0.000000 1.879900 
# 
# From -- ./inp_files/28438.got.cif
#   From: 2010.06.25/outbox.cif.g09.slc.cpg/sg12_15_cif.got.tgz:28438.got - 2010.06.28 00:19:55.
