data_PCOD8115109
_publ_section_title
;
Structure prediction by ZEFSAII (Michael W. Deem and Ramdas Pophale) SiO2 
 PCOD8115109
Probable space group: C 2/M
;
_chemical_formula_sum "Si O2"
_cell_formula_units_Z 40
_cell_length_a 17.757937
_cell_length_b 12.604581
_cell_length_c 16.220215
_cell_angle_alpha 90.000000
_cell_angle_beta 32.873831
_cell_angle_gamma 90.000000
_cell_volume 1970.652717
_symmetry_space_group_name_H-M "C 2/M"
_symmetry_group_IT_number 12
_symmetry_cell_setting 'monoclinic'
loop_
_space_group_symop_operation_xyz
x,y,z
-x,y,-z
-x,-y,-z
x,-y,z
1/2+x,1/2+y,z
1/2-x,1/2+y,-z
1/2-x,1/2-y,-z
1/2+x,1/2-y,z
loop_
_atom_site_type_symbol
_atom_site_label
_atom_site_fract_x
_atom_site_fract_y
_atom_site_fract_z
Si Si1 0.850181 0.123238 0.177870
Si Si2 0.607268 0.878339 0.096899
Si Si3 0.697126 0.769562 0.174282
Si Si4 0.311071 0.783213 0.357095
Si Si5 0.537364 0.383072 0.559898
O O1 0.730610 0.170237 0.228425
O O2 0.845754 0.179895 0.270480
O O3 0.818457 0.000000 0.222159
O O4 0.000000 0.140573 0.000000
O O5 0.680559 0.855184 0.116992
O O6 0.445327 0.854079 0.248660
O O7 0.631506 0.000000 0.052372
O O8 0.676782 0.809838 0.960654
O O9 0.554167 0.703728 0.308553
O O10 0.250000 0.750000 0.500000
O O11 0.199169 0.855747 0.414428
O O12 0.500000 0.384154 0.500000
O O13 0.511798 0.500000 0.622424
#
# Coordination Sequence:
#
# PCOD8115109 Si02
#       5
#     8   8   8   8   8
#     4  11  24  44  70  96 128 175 223 269 323 380
#     4  11  24  41  66  95 128 170 214 264 325 387
#     4  11  22  44  65  94 129 164 221 268 313 385
#     4  12  24  44  63  97 137 167 212 273 324 390
#     4  11  23  40  64  91 127 167 205 260 325 380
#
# _framework density 20.297843
#
# number of rings (size 3 to 8) (size 9 to 14) (size 15 to 20)
#    0.000    0.800    6.000    1.800    0.000    1.600 
#    0.000    2.000    0.000    0.000    0.000    0.000 
#    0.000    0.000    0.000    0.000    0.000    0.000 
#
# Total GULP energy -248111.759733 kJ/mol
# GULP energy per Si atom -12405.587987 kJ/mol
# Density = 2.025164 g / cm^3
# Si number density = 20.297843 Si / 1000 Ang^3
#
#
#
# Elastic Constant Matrix: (Units=GPa)
#
#
# Indices 1 2 3 4 5 6 
#
# 1 91.5373 50.4904 26.0156 -0.0001 0.0009 0.0000
# 2 50.4904 131.6957 36.8610 0.0000 0.3384 0.0000
# 3 26.0156 36.8610 96.5544 -0.0001 -7.8609 0.0000
# 4 -0.0001 0.0000 -0.0001 25.9021 0.0001 -4.8725
# 5 0.0009 0.3384 -7.8609 0.0001 42.4818 0.0000
# 6 0.0000 0.0000 0.0000 -4.8725 0.0000 20.9052
#
#
#
# Elastic Compliance Matrix: (Units=1/GPa)
#
#
# Indices 1 2 3 4 5 6 
#
# 1 0.014180 -0.004880 -0.001984 0.000000 -0.000329 0.000000
# 2 -0.004880 0.010201 -0.002625 0.000000 -0.000567 0.000000
# 3 -0.001984 -0.002625 0.012077 0.000000 0.002256 0.000000
# 4 0.000000 0.000000 0.000000 0.040377 0.000000 0.009411
# 5 -0.000329 -0.000567 0.002256 0.000000 0.023961 0.000000
# 6 0.000000 0.000000 0.000000 0.009411 0.000000 0.050028
#
#
# Mechanical properties :
#
#
# Convention : Reuss Voigt Hill
#
# Bulk Modulus (GPa) = 57.21407 60.72458 58.96933
# Shear Modulus (GPa) = 28.46862 31.61917 30.04390
#
# Velocity S-wave (km/s) = 3.74912 3.95113 3.85145
# Velocity P-wave (km/s) = 6.85490 7.12720 6.99237
#
# Compressibility (1/GPa) = 0.01747822
#
# Stress axis : x y z
#
# Youngs Moduli (GPa) = 70.52003 98.03336 82.79872
#
# Poissons Ratio (x) = 0.47843 0.16430
# Poissons Ratio (y) = 0.34416 0.21738
# Poissons Ratio (z) = 0.13994 0.25738
#
# Static dielectric constant tensor:
#      x y z
#    x 3.284310 0.000000 0.729880 
#    y 0.000000 3.886580 0.000000 
#    z 0.729880 0.000000 1.979020 
# 
# 
# High freq. dielectric constant tensor:
#      x y z
#    x 1.801300 0.000000 -0.008700 
#    y 0.000000 1.797880 0.000000 
#    z -0.008700 0.000000 1.797940 
# 
# From -- ./inp_files/71194.got.cif
#   From: 2010.06.25/outbox.cif.g09.slc.cpg/sg12_36_cif.got.tgz:71194.got - 2010.06.28 00:19:55.
