data_PCOD8115572
_publ_section_title
;
Structure prediction by ZEFSAII (Michael W. Deem and Ramdas Pophale) SiO2 
 PCOD8115572
Probable space group: C 2/M
;
_chemical_formula_sum "Si O2"
_cell_formula_units_Z 32
_cell_length_a 14.077703
_cell_length_b 23.778693
_cell_length_c 4.860988
_cell_angle_alpha 90.000000
_cell_angle_beta 58.911843
_cell_angle_gamma 90.000000
_cell_volume 1393.502385
_symmetry_space_group_name_H-M "C 2/M"
_symmetry_group_IT_number 12
_symmetry_cell_setting 'monoclinic'
loop_
_space_group_symop_operation_xyz
x,y,z
-x,y,-z
-x,-y,-z
x,-y,z
1/2+x,1/2+y,z
1/2-x,1/2+y,-z
1/2-x,1/2-y,-z
1/2+x,1/2-y,z
loop_
_atom_site_type_symbol
_atom_site_label
_atom_site_fract_x
_atom_site_fract_y
_atom_site_fract_z
Si Si1 0.249266 0.593806 0.782606
Si Si2 0.074138 0.241473 0.648338
Si Si3 0.080816 0.000000 0.622824
Si Si4 0.420103 0.000000 0.866026
Si Si5 0.255054 0.668166 0.297950
O O1 0.347203 0.556493 0.505466
O O2 0.197521 0.625900 0.598987
O O3 0.154815 0.554998 0.049153
O O4 0.287497 0.637898 0.962514
O O5 0.166590 0.282369 0.377415
O O6 0.133067 0.189461 0.716912
O O7 0.000000 0.220921 0.500000
O O8 0.000000 0.270945 0.000000
O O9 0.000000 0.000000 0.500000
O O10 0.000000 0.000000 0.000000
O O11 0.500000 0.000000 0.500000
O O12 0.500000 0.000000 0.000000
#
# Coordination Sequence:
#
# PCOD8115572 Si02
#       5
#     8   8   4   4   8
#     4  11  24  42  65  95 131 171 215 269 325 387
#     4  11  24  42  65  95 130 171 220 273 329 391
#     4  11  24  43  66  94 130 169 214 266 322 385
#     4  11  24  41  64  96 131 169 215 264 322 393
#     4  11  24  42  65  95 131 170 218 272 326 390
#
# _framework density 22.963719000000001
#
# number of rings (size 3 to 8) (size 9 to 14) (size 15 to 20)
#    0.000    1.000    0.000    6.000    0.000   18.000 
#    0.000    0.000    0.000    0.000    0.000    0.000 
#    0.000    0.000    0.000    0.000    0.000    0.000 
#
# Total GULP energy -198345.306585 kJ/mol
# GULP energy per Si atom -12396.581662 kJ/mol
# Density = 2.291145 g / cm^3
# Si number density = 22.963719 Si / 1000 Ang^3
#
#
#
# Elastic Constant Matrix: (Units=GPa)
#
#
# Indices 1 2 3 4 5 6 
#
# 1 132.4192 32.1074 44.2568 0.0000 7.3801 0.0000
# 2 32.1074 97.9270 41.4390 0.0000 -1.4171 0.0000
# 3 44.2568 41.4390 176.1980 0.0000 8.1530 0.0000
# 4 0.0000 0.0000 0.0000 14.8305 0.0000 18.6384
# 5 7.3801 -1.4171 8.1530 0.0000 46.4411 0.0000
# 6 0.0000 0.0000 0.0000 18.6384 0.0000 25.0322
#
#
#
# Elastic Compliance Matrix: (Units=1/GPa)
#
#
# Indices 1 2 3 4 5 6 
#
# 1 0.008685 -0.002181 -0.001615 0.000000 -0.001163 0.000000
# 2 -0.002181 0.011919 -0.002307 0.000000 0.001115 0.000000
# 3 -0.001615 -0.002307 0.006669 0.000000 -0.000985 0.000000
# 4 0.000000 0.000000 0.000000 1.049552 0.000000 -0.781472
# 5 -0.001163 0.001115 -0.000985 0.000000 0.021924 0.000000
# 6 0.000000 0.000000 0.000000 -0.781472 0.000000 0.621814
#
#
# Mechanical properties :
#
#
# Convention : Reuss Voigt Hill
#
# Bulk Modulus (GPa) = 66.36665 71.35008 68.85836
# Shear Modulus (GPa) = 2.87721 36.51015 19.69368
#
# Velocity S-wave (km/s) = 1.12056 3.99169 2.93166
# Velocity P-wave (km/s) = 5.53512 7.23761 6.44285
#
# Compressibility (1/GPa) = 0.01506781
#
# Stress axis : x y z
#
# Youngs Moduli (GPa) = 115.13937 83.89840 149.94467
#
# Poissons Ratio (x) = 0.18300 0.24212
# Poissons Ratio (y) = 0.25114 0.34592
# Poissons Ratio (z) = 0.18592 0.19355
#
# Static dielectric constant tensor:
#      x y z
#    x 4.191370 0.000000 -0.039500 
#    y 0.000000 4.159430 0.000000 
#    z -0.039500 0.000000 4.251500 
# 
# 
# High freq. dielectric constant tensor:
#      x y z
#    x 1.913750 0.000000 0.009040 
#    y 0.000000 1.907430 0.000000 
#    z 0.009040 0.000000 1.927510 
# 
# From -- ./inp_files/11840.got.cif
#   From: 2010.06.25/outbox.cif.g09.slc.cpg/sg12_6_cif.got.tgz:11840.got - 2010.06.28 00:19:55.
