data_PCOD8115711
_publ_section_title
;
Structure prediction by ZEFSAII (Michael W. Deem and Ramdas Pophale) SiO2 
 PCOD8115711
Probable space group: C 2/M
;
_chemical_formula_sum "Si O2"
_cell_formula_units_Z 52
_cell_length_a 9.161299
_cell_length_b 17.320561
_cell_length_c 18.979890
_cell_angle_alpha 90.000000
_cell_angle_beta 54.754649
_cell_angle_gamma 90.000000
_cell_volume 2459.626031
_symmetry_space_group_name_H-M "C 2/M"
_symmetry_group_IT_number 12
_symmetry_cell_setting 'monoclinic'
loop_
_space_group_symop_operation_xyz
x,y,z
-x,y,-z
-x,-y,-z
x,-y,z
1/2+x,1/2+y,z
1/2-x,1/2+y,-z
1/2-x,1/2-y,-z
1/2+x,1/2-y,z
loop_
_atom_site_type_symbol
_atom_site_label
_atom_site_fract_x
_atom_site_fract_y
_atom_site_fract_z
Si Si1 0.912279 0.873594 0.096686
Si Si2 0.489560 0.910233 0.585586
Si Si3 0.179583 0.000000 0.070594
Si Si4 0.350347 0.000000 0.879800
Si Si5 0.562141 0.655724 0.300816
Si Si6 0.707170 0.702646 0.735165
Si Si7 0.254188 0.000000 0.206173
Si Si8 0.337373 0.331609 0.491956
O O1 0.739199 0.923978 0.126730
O O2 0.845792 0.807138 0.167821
O O3 0.056327 0.924732 0.097764
O O4 0.000000 0.839584 0.000000
O O5 0.500000 0.887849 0.500000
O O6 0.338186 0.863788 0.669630
O O7 0.683603 0.888596 0.564507
O O8 0.448013 0.000000 0.608876
O O9 0.284074 0.000000 0.114427
O O10 0.330065 0.000000 0.969376
O O11 0.559425 0.000000 0.803847
O O12 0.474155 0.700470 0.259519
O O13 0.704902 0.713274 0.297205
O O14 0.647584 0.575941 0.255239
O O15 0.410217 0.633189 0.399006
O O16 0.500000 0.322643 0.500000
O O17 0.250000 0.250000 0.500000
#
# Coordination Sequence:
#
# PCOD8115711 Si02
#       8
#     8   8   4   4   8   8   4   8
#     4   9  20  41  69  97 133 179 225 272 331 404
#     4  11  25  42  70 100 130 176 230 275 329 402
#     4   9  17  41  67  97 126 184 213 279 331 398
#     4   9  21  37  67 100 137 165 232 267 341 394
#     4  12  28  43  69  98 135 179 224 277 337 400
#     4  12  25  45  68  97 138 178 225 275 341 398
#     4  12  25  42  67 102 137 171 224 282 334 391
#     4  12  24  45  65  92 132 176 220 274 334 392
#
# _framework density 21.141425999999999
#
# number of rings (size 3 to 8) (size 9 to 14) (size 15 to 20)
#    0.000    1.077    4.615    2.538    6.462    0.308 
#    0.000    2.308    0.000    0.000    0.000    0.000 
#    0.000    0.000    0.000    0.000    0.000    0.000 
#
# Total GULP energy -322435.793394 kJ/mol
# GULP energy per Si atom -12401.376669 kJ/mol
# Density = 2.109331 g / cm^3
# Si number density = 21.141426 Si / 1000 Ang^3
#
#
#
# Elastic Constant Matrix: (Units=GPa)
#
#
# Indices 1 2 3 4 5 6 
#
# 1 118.8012 27.5394 24.3993 0.0000 -10.9106 0.0000
# 2 27.5394 94.6039 20.4527 0.0000 -4.7127 0.0000
# 3 24.3993 20.4527 90.1597 0.0000 6.6444 0.0000
# 4 0.0000 0.0000 0.0000 22.4891 -0.0001 0.7847
# 5 -10.9106 -4.7127 6.6444 -0.0001 33.7063 0.0000
# 6 0.0000 0.0000 0.0000 0.7847 0.0000 21.2258
#
#
#
# Elastic Compliance Matrix: (Units=1/GPa)
#
#
# Indices 1 2 3 4 5 6 
#
# 1 0.009709 -0.002146 -0.002385 0.000000 0.003313 0.000000
# 2 -0.002146 0.011736 -0.002183 0.000000 0.001377 0.000000
# 3 -0.002385 -0.002183 0.012493 0.000000 -0.003540 0.000000
# 4 0.000000 0.000000 0.000000 0.044523 0.000000 -0.001646
# 5 0.003313 0.001377 -0.003540 0.000000 0.031631 0.000000
# 6 0.000000 0.000000 0.000000 -0.001646 0.000000 0.047173
#
#
# Mechanical properties :
#
#
# Convention : Reuss Voigt Hill
#
# Bulk Modulus (GPa) = 48.75595 49.81640 49.28618
# Shear Modulus (GPa) = 28.16451 30.89580 29.53016
#
# Velocity S-wave (km/s) = 3.65388 3.82696 3.74142
# Velocity P-wave (km/s) = 6.39633 6.56826 6.48286
#
# Compressibility (1/GPa) = 0.02051032
#
# Stress axis : x y z
#
# Youngs Moduli (GPa) = 102.99881 85.21146 80.04540
#
# Poissons Ratio (x) = 0.18283 0.19090
# Poissons Ratio (y) = 0.22100 0.17474
# Poissons Ratio (z) = 0.24564 0.18602
#
# Static dielectric constant tensor:
#      x y z
#    x 4.109260 0.000000 -0.178960 
#    y 0.000000 3.504770 0.000000 
#    z -0.178960 0.000000 4.153970 
# 
# 
# High freq. dielectric constant tensor:
#      x y z
#    x 1.837780 0.000000 -0.001780 
#    y 0.000000 1.808690 0.000000 
#    z -0.001780 0.000000 1.837510 
# 
# From -- ./inp_files/301080.got.cif
#   From: 2010.06.25/outbox.cif.g09.slc.cpg/sg12_151_cif.got.tgz:301080.got - 2010.06.28 00:19:55.
