data_PCOD8115713
_publ_section_title
;
Structure prediction by ZEFSAII (Michael W. Deem and Ramdas Pophale) SiO2 
 PCOD8115713
Probable space group: C 2/M
;
_chemical_formula_sum "Si O2"
_cell_formula_units_Z 44
_cell_length_a 12.179989
_cell_length_b 22.042365
_cell_length_c 9.395520
_cell_angle_alpha 90.000000
_cell_angle_beta 64.995584
_cell_angle_gamma 90.000000
_cell_volume 2286.051492
_symmetry_space_group_name_H-M "C 2/M"
_symmetry_group_IT_number 12
_symmetry_cell_setting 'monoclinic'
loop_
_space_group_symop_operation_xyz
x,y,z
-x,y,-z
-x,-y,-z
x,-y,z
1/2+x,1/2+y,z
1/2-x,1/2+y,-z
1/2-x,1/2-y,-z
1/2+x,1/2-y,z
loop_
_atom_site_type_symbol
_atom_site_label
_atom_site_fract_x
_atom_site_fract_y
_atom_site_fract_z
Si Si1 0.280661 0.180994 0.947731
Si Si2 0.882852 0.931572 0.464469
Si Si3 0.459457 0.221460 0.236209
Si Si4 0.411456 0.647464 0.164206
Si Si5 0.224067 0.153632 0.274311
Si Si6 0.000000 0.231154 0.500000
O O1 0.426383 0.177895 0.857937
O O2 0.221361 0.158653 0.831951
O O3 0.250000 0.250000 0.000000
O O4 0.229842 0.137482 0.102874
O O5 0.899459 0.892714 0.312344
O O6 0.774399 0.904687 0.622288
O O7 0.000000 0.929390 0.500000
O O8 0.849795 0.000000 0.438443
O O9 0.477483 0.289116 0.164652
O O10 0.340904 0.194143 0.233540
O O11 0.438945 0.225864 0.416477
O O12 0.500000 0.615157 0.000000
O O13 0.102306 0.190610 0.371492
#
# Coordination Sequence:
#
# PCOD8115713 Si02
#       6
#     8   8   8   8   8   4
#     4  12  22  36  57  94 131 159 193 237 308 383
#     4  11  25  43  62  85 116 163 217 259 298 343
#     4  12  22  34  58  93 130 161 190 238 313 382
#     4  12  21  36  61  90 128 157 194 253 307 366
#     4  12  22  38  60  87 126 164 197 247 306 366
#     4  12  20  32  55  94 123 158 194 242 302 372
#
# _framework density 19.247161999999999
#
# number of rings (size 3 to 8) (size 9 to 14) (size 15 to 20)
#    0.000    0.182    8.182    2.182    2.545    0.364 
#    0.000    0.909    0.000    4.364    0.000    0.000 
#    0.000    0.000    0.000    0.000    0.000    0.000 
#
# Total GULP energy -272725.119511 kJ/mol
# GULP energy per Si atom -12396.596341 kJ/mol
# Density = 1.920335 g / cm^3
# Si number density = 19.247162 Si / 1000 Ang^3
#
#
#
# Elastic Constant Matrix: (Units=GPa)
#
#
# Indices 1 2 3 4 5 6 
#
# 1 99.3297 25.1604 43.4120 0.0000 5.9929 0.0000
# 2 25.1604 81.3563 53.0208 0.0000 5.0294 0.0000
# 3 43.4120 53.0208 132.1984 0.0000 19.0769 0.0000
# 4 0.0000 0.0000 0.0000 11.2616 0.0000 5.0982
# 5 5.9929 5.0294 19.0769 0.0000 38.7087 0.0000
# 6 0.0000 0.0000 0.0000 5.0982 0.0000 14.3753
#
#
#
# Elastic Compliance Matrix: (Units=1/GPa)
#
#
# Indices 1 2 3 4 5 6 
#
# 1 0.011894 -0.001535 -0.003287 0.000000 -0.000022 0.000000
# 2 -0.001535 0.016893 -0.006447 0.000000 0.001220 0.000000
# 3 -0.003287 -0.006447 0.011880 0.000000 -0.004508 0.000000
# 4 0.000000 0.000000 0.000000 0.105781 0.000000 -0.037515
# 5 -0.000022 0.001220 -0.004508 0.000000 0.027901 0.000000
# 6 0.000000 0.000000 0.000000 -0.037515 0.000000 0.082869
#
#
# Mechanical properties :
#
#
# Convention : Reuss Voigt Hill
#
# Bulk Modulus (GPa) = 55.16103 61.78562 58.47333
# Shear Modulus (GPa) = 17.49485 25.62186 21.55836
#
# Velocity S-wave (km/s) = 3.01816 3.65252 3.35039
# Velocity P-wave (km/s) = 6.39275 7.06815 6.73892
#
# Compressibility (1/GPa) = 0.01812874
#
# Stress axis : x y z
#
# Youngs Moduli (GPa) = 84.07442 59.19783 84.17384
#
# Poissons Ratio (x) = 0.09086 0.27669
# Poissons Ratio (y) = 0.12904 0.54268
# Poissons Ratio (z) = 0.27636 0.38166
#
# Static dielectric constant tensor:
#      x y z
#    x 3.718750 0.000000 0.163100 
#    y 0.000000 3.349950 0.000000 
#    z 0.163100 0.000000 4.385180 
# 
# 
# High freq. dielectric constant tensor:
#      x y z
#    x 1.762310 0.000000 0.016150 
#    y 0.000000 1.683460 0.000000 
#    z 0.016150 0.000000 1.772950 
# 
# From -- ./inp_files/51193.got.cif
#   From: 2010.06.25/outbox.cif.g09.slc.cpg/sg12_26_cif.got.tgz:51193.got - 2010.06.28 00:19:55.
