data_PCOD8115989
_publ_section_title
;
Structure prediction by ZEFSAII (Michael W. Deem and Ramdas Pophale) SiO2 
 PCOD8115989
Probable space group: C 2/M
;
_chemical_formula_sum "Si O2"
_cell_formula_units_Z 60
_cell_length_a 23.358398
_cell_length_b 13.361660
_cell_length_c 14.842581
_cell_angle_alpha 90.000000
_cell_angle_beta 121.822004
_cell_angle_gamma 90.000000
_cell_volume 3936.167188
_symmetry_space_group_name_H-M "C 2/M"
_symmetry_group_IT_number 12
_symmetry_cell_setting 'monoclinic'
loop_
_space_group_symop_operation_xyz
x,y,z
-x,y,-z
-x,-y,-z
x,-y,z
1/2+x,1/2+y,z
1/2-x,1/2+y,-z
1/2-x,1/2-y,-z
1/2+x,1/2-y,z
loop_
_atom_site_type_symbol
_atom_site_label
_atom_site_fract_x
_atom_site_fract_y
_atom_site_fract_z
Si Si1 0.044187 0.269606 0.622131
Si Si2 0.345697 0.884579 0.389113
Si Si3 0.000000 0.174990 0.000000
Si Si4 0.375132 0.609743 0.993105
Si Si5 0.452241 0.618965 0.223765
Si Si6 0.927377 0.220869 0.770426
Si Si7 0.066912 0.384631 0.366807
Si Si8 0.806585 0.119437 0.764333
O O1 0.113457 0.320450 0.649541
O O2 0.062574 0.170076 0.692928
O O3 0.000000 0.236726 0.500000
O O4 0.003766 0.348463 0.650040
O O5 0.373424 0.867266 0.512318
O O6 0.268597 0.848838 0.323976
O O7 0.352750 0.000000 0.366583
O O8 0.055309 0.101084 0.004706
O O9 0.033140 0.245791 0.104039
O O10 0.347774 0.500000 0.993310
O O11 0.321767 0.661143 0.879692
O O12 0.394791 0.661049 0.105188
O O13 0.447265 0.500000 0.229813
O O14 0.527459 0.646907 0.253468
O O15 0.914209 0.324235 0.707449
O O16 0.856026 0.168574 0.732000
O O17 0.059499 0.500000 0.333962
O O18 0.817295 0.000000 0.771199
#
# Coordination Sequence:
#
# PCOD8115989 Si02
#       8
#     8   8   4   8   8   8   8   8
#     4   9  17  29  44  60  78 103 136 171 202 231
#     4   9  17  29  44  60  78 103 136 171 202 231
#     4   8  13  22  37  58  82 106 130 156 190 232
#     4   8  13  22  37  58  82 106 130 156 190 232
#     4   9  16  26  42  63  85 106 129 160 198 239
#     4   9  16  26  42  63  85 106 129 160 198 239
#     4   9  17  29  44  60  78 103 136 171 202 231
#     4   9  16  26  42  63  85 106 129 160 198 239
#
# _framework density 15.243255
#
# number of rings (size 3 to 8) (size 9 to 14) (size 15 to 20)
#    0.000    3.200    0.000    1.000    0.000    5.600 
#    0.000    1.000    0.000    0.800    0.000    0.000 
#    0.000    0.000    0.000    0.000    0.000    0.000 
#
# Total GULP energy -371695.301622 kJ/mol
# GULP energy per Si atom -12389.843387 kJ/mol
# Density = 1.520856 g / cm^3
# Si number density = 15.243255 Si / 1000 Ang^3
#
#
#
# Elastic Constant Matrix: (Units=GPa)
#
#
# Indices 1 2 3 4 5 6 
#
# 1 74.4482 36.7063 48.0162 0.0000 3.0738 0.0000
# 2 36.7063 76.5368 52.4160 0.0000 -5.7656 0.0000
# 3 48.0162 52.4160 89.8582 0.0000 -3.4065 0.0000
# 4 0.0000 0.0000 0.0000 20.3574 0.0000 -4.3134
# 5 3.0738 -5.7656 -3.4065 0.0000 23.7585 0.0000
# 6 0.0000 0.0000 0.0000 -4.3134 0.0000 19.7491
#
#
#
# Elastic Compliance Matrix: (Units=1/GPa)
#
#
# Indices 1 2 3 4 5 6 
#
# 1 0.021836 -0.004564 -0.009205 0.000000 -0.005253 0.000000
# 2 -0.004564 0.023001 -0.010803 0.000000 0.004623 0.000000
# 3 -0.009205 -0.010803 0.022417 0.000000 0.001783 0.000000
# 4 0.000000 0.000000 0.000000 0.051506 0.000000 0.011249
# 5 -0.005253 0.004623 0.001783 0.000000 0.044147 0.000000
# 6 0.000000 0.000000 0.000000 0.011249 0.000000 0.053092
#
#
# Mechanical properties :
#
#
# Convention : Reuss Voigt Hill
#
# Bulk Modulus (GPa) = 55.21867 57.23557 56.22712
# Shear Modulus (GPa) = 18.43795 19.68666 19.06230
#
# Velocity S-wave (km/s) = 3.48168 3.59764 3.54013
# Velocity P-wave (km/s) = 7.24337 7.40858 7.32644
#
# Compressibility (1/GPa) = 0.01810982
#
# Stress axis : x y z
#
# Youngs Moduli (GPa) = 45.79541 43.47633 44.60972
#
# Poissons Ratio (x) = 0.19842 0.41064
# Poissons Ratio (y) = 0.20901 0.48191
# Poissons Ratio (z) = 0.42156 0.46967
#
# Static dielectric constant tensor:
#      x y z
#    x 2.759000 0.000000 0.014420 
#    y 0.000000 2.657650 0.000000 
#    z 0.014420 0.000000 3.209780 
# 
# 
# High freq. dielectric constant tensor:
#      x y z
#    x 1.564030 0.000000 0.001060 
#    y 0.000000 1.552750 0.000000 
#    z 0.001060 0.000000 1.596480 
# 
# From -- ./inp_files/239738.got.cif
#   From: 2010.06.25/outbox.cif.g09.slc.cpg/sg12_120_cif.got.tgz:239738.got - 2010.06.28 00:19:55.
