data_PCOD8115336
_publ_section_title
;
Structure prediction by ZEFSAII (Michael W. Deem and Ramdas Pophale) SiO2 
 PCOD8115336
Probable space group: C 2/M
;
_chemical_formula_sum "Si O2"
_cell_formula_units_Z 60
_cell_length_a 11.009343
_cell_length_b 30.912077
_cell_length_c 9.403763
_cell_angle_alpha 90.000000
_cell_angle_beta 112.540076
_cell_angle_gamma 90.000000
_cell_volume 2955.838215
_symmetry_space_group_name_H-M "C 2/M"
_symmetry_group_IT_number 12
_symmetry_cell_setting 'monoclinic'
loop_
_space_group_symop_operation_xyz
x,y,z
-x,y,-z
-x,-y,-z
x,-y,z
1/2+x,1/2+y,z
1/2-x,1/2+y,-z
1/2-x,1/2-y,-z
1/2+x,1/2-y,z
loop_
_atom_site_type_symbol
_atom_site_label
_atom_site_fract_x
_atom_site_fract_y
_atom_site_fract_z
Si Si1 0.127421 0.737912 0.853619
Si Si2 0.125278 0.451939 0.143857
Si Si3 0.368451 0.951580 0.525434
Si Si4 0.489191 0.673172 0.163323
Si Si5 0.277523 0.364146 0.542387
Si Si6 0.846636 0.721206 0.443647
Si Si7 0.237498 0.128777 0.787920
Si Si8 0.000000 0.328584 0.000000
O O1 0.021489 0.776923 0.792073
O O2 0.200202 0.725570 0.739424
O O3 0.051157 0.698571 0.889161
O O4 0.250000 0.750000 0.000000
O O5 0.163937 0.500000 0.112164
O O6 0.088013 0.449052 0.292128
O O7 0.254781 0.422612 0.177048
O O8 0.000000 0.435090 0.000000
O O9 0.500000 0.942887 0.500000
O O10 0.266592 0.913177 0.439588
O O11 0.310005 0.000000 0.465393
O O12 0.603403 0.649133 0.301111
O O13 0.351877 0.650612 0.135684
O O14 0.500000 0.669120 0.000000
O O15 0.161658 0.328866 0.512203
O O16 0.318946 0.361755 0.395203
O O17 0.750000 0.750000 0.500000
O O18 0.000000 0.735889 0.500000
O O19 0.387140 0.143879 0.874469
#
# Coordination Sequence:
#
# PCOD8115336 Si02
#       8
#     8   8   8   8   8   8   8   4
#     4  12  25  42  62  88 125 164 216 265 326 381
#     4   9  18  35  61  93 125 158 202 256 319 383
#     4   9  19  37  63  94 130 167 208 264 325 381
#     4  12  25  43  63  90 125 173 217 263 324 386
#     4  11  24  41  63  95 128 170 217 266 323 395
#     4  12  26  42  63  93 127 170 216 271 324 381
#     4  11  23  41  64  93 128 164 211 267 319 386
#     4  12  24  40  67  94 122 168 215 270 324 384
#
# _framework density 20.29881
#
# number of rings (size 3 to 8) (size 9 to 14) (size 15 to 20)
#    0.000    1.067    2.667    4.000    1.867    2.133 
#    0.000    0.667    0.000    4.000    0.000    0.000 
#    0.000    0.000    0.000    0.000    0.000    0.000 
#
# Total GULP energy -371827.553402 kJ/mol
# GULP energy per Si atom -12394.251780 kJ/mol
# Density = 2.025261 g / cm^3
# Si number density = 20.298810 Si / 1000 Ang^3
#
#
#
# Elastic Constant Matrix: (Units=GPa)
#
#
# Indices 1 2 3 4 5 6 
#
# 1 81.8205 34.1785 25.3840 0.0000 -7.4215 0.0000
# 2 34.1785 116.3948 39.2179 0.0000 -3.6959 0.0000
# 3 25.3840 39.2179 95.8307 0.0000 -4.0042 0.0000
# 4 0.0000 0.0000 0.0000 26.1648 0.0000 0.6156
# 5 -7.4215 -3.6959 -4.0042 0.0000 42.2580 0.0000
# 6 0.0000 0.0000 0.0000 0.6156 0.0000 23.3079
#
#
#
# Elastic Compliance Matrix: (Units=1/GPa)
#
#
# Indices 1 2 3 4 5 6 
#
# 1 0.014570 -0.003413 -0.002378 0.000000 0.002035 0.000000
# 2 -0.003413 0.010775 -0.003505 0.000000 0.000011 0.000000
# 3 -0.002378 -0.003505 0.012519 0.000000 0.000462 0.000000
# 4 0.000000 0.000000 0.000000 0.038243 0.000000 -0.001010
# 5 0.002035 0.000011 0.000462 0.000000 0.024066 0.000000
# 6 0.000000 0.000000 0.000000 -0.001010 0.000000 0.042931
#
#
# Mechanical properties :
#
#
# Convention : Reuss Voigt Hill
#
# Bulk Modulus (GPa) = 51.88755 54.62296 53.25525
# Shear Modulus (GPa) = 29.74104 31.36384 30.55244
#
# Velocity S-wave (km/s) = 3.83190 3.93505 3.88382
# Velocity P-wave (km/s) = 6.72274 6.90029 6.81209
#
# Compressibility (1/GPa) = 0.01927245
#
# Stress axis : x y z
#
# Youngs Moduli (GPa) = 68.63604 92.80851 79.88084
#
# Poissons Ratio (x) = 0.31671 0.18993
# Poissons Ratio (y) = 0.23422 0.27999
# Poissons Ratio (z) = 0.16319 0.32531
#
# Static dielectric constant tensor:
#      x y z
#    x 5.183600 0.000000 1.069320 
#    y 0.000000 2.575000 0.000000 
#    z 1.069320 0.000000 4.711950 
# 
# 
# High freq. dielectric constant tensor:
#      x y z
#    x 1.781030 0.000000 -0.006160 
#    y 0.000000 1.803380 0.000000 
#    z -0.006160 0.000000 1.805890 
# 
# From -- ./inp_files/54768.got.cif
#   From: 2010.06.25/outbox.cif.g09.slc.cpg/sg12_28_cif.got.tgz:54768.got - 2010.06.28 00:19:55.
