data_PCOD8115071
_publ_section_title
;
Structure prediction by ZEFSAII (Michael W. Deem and Ramdas Pophale) SiO2 
 PCOD8115071
Probable space group: C 2/M
;
_chemical_formula_sum "Si O2"
_cell_formula_units_Z 36
_cell_length_a 7.610744
_cell_length_b 18.861056
_cell_length_c 11.265206
_cell_angle_alpha 90.000000
_cell_angle_beta 106.607350
_cell_angle_gamma 90.000000
_cell_volume 1549.627670
_symmetry_space_group_name_H-M "C 2/M"
_symmetry_group_IT_number 12
_symmetry_cell_setting 'monoclinic'
loop_
_space_group_symop_operation_xyz
x,y,z
-x,y,-z
-x,-y,-z
x,-y,z
1/2+x,1/2+y,z
1/2-x,1/2+y,-z
1/2-x,1/2-y,-z
1/2+x,1/2-y,z
loop_
_atom_site_type_symbol
_atom_site_label
_atom_site_fract_x
_atom_site_fract_y
_atom_site_fract_z
Si Si1 0.500970 0.817892 0.241579
Si Si2 0.121458 0.834898 0.812814
Si Si3 0.609698 0.581021 0.406343
Si Si4 0.000000 0.360462 0.500000
Si Si5 0.182726 0.580064 0.957837
O O1 0.704957 0.837046 0.240713
O O2 0.436634 0.745192 0.167436
O O3 0.494017 0.810156 0.382841
O O4 0.361933 0.880260 0.174271
O O5 0.949805 0.872054 0.716872
O O6 0.160034 0.876866 0.942166
O O7 0.500000 0.607672 0.500000
O O8 0.560380 0.500000 0.368575
O O9 0.825002 0.588706 0.471936
O O10 0.249288 0.500000 0.943571
O O11 0.000000 0.579368 0.000000
#
# Coordination Sequence:
#
# PCOD8115071 Si02
#       5
#     8   8   8   4   8
#     4  11  24  39  67  97 136 177 225 273 334 396
#     4  11  22  42  66  96 133 176 225 277 334 397
#     4  11  24  42  66  97 135 176 221 273 331 396
#     4  12  25  44  66 100 137 178 222 278 325 404
#     4   9  20  40  66  95 129 174 224 278 337 396
#
# _framework density 23.231387000000002
#
# number of rings (size 3 to 8) (size 9 to 14) (size 15 to 20)
#    0.000    1.333    2.222    3.000    1.556    4.444 
#    0.000    3.333    0.000    6.667    0.000    0.000 
#    0.000    0.000    0.000    0.000    0.000    0.000 
#
# Total GULP energy -223316.731569 kJ/mol
# GULP energy per Si atom -12406.485087 kJ/mol
# Density = 2.317851 g / cm^3
# Si number density = 23.231387 Si / 1000 Ang^3
#
#
#
# Elastic Constant Matrix: (Units=GPa)
#
#
# Indices 1 2 3 4 5 6 
#
# 1 95.5468 18.4659 38.1447 0.0000 17.2502 0.0000
# 2 18.4659 158.3776 64.3474 0.0000 18.9709 0.0000
# 3 38.1447 64.3474 130.6955 0.0000 23.7634 0.0000
# 4 0.0000 0.0000 0.0000 38.5316 0.0000 6.5117
# 5 17.2502 18.9709 23.7634 0.0000 30.4745 0.0000
# 6 0.0000 0.0000 0.0000 6.5117 0.0000 30.6011
#
#
#
# Elastic Compliance Matrix: (Units=1/GPa)
#
#
# Indices 1 2 3 4 5 6 
#
# 1 0.012459 0.000318 -0.002883 0.000000 -0.005002 0.000000
# 2 0.000318 0.008029 -0.003617 0.000000 -0.002358 0.000000
# 3 -0.002883 -0.003617 0.011148 0.000000 -0.004809 0.000000
# 4 0.000000 0.000000 0.000000 0.026921 0.000000 -0.005729
# 5 -0.005002 -0.002358 -0.004809 0.000000 0.040864 0.000000
# 6 0.000000 0.000000 0.000000 -0.005729 0.000000 0.033898
#
#
# Mechanical properties :
#
#
# Convention : Reuss Voigt Hill
#
# Bulk Modulus (GPa) = 51.89149 69.61508 60.75328
# Shear Modulus (GPa) = 32.87168 37.49888 35.18528
#
# Velocity S-wave (km/s) = 3.76569 4.02200 3.89595
# Velocity P-wave (km/s) = 6.42592 7.18329 6.81514
#
# Compressibility (1/GPa) = 0.01927098
#
# Stress axis : x y z
#
# Youngs Moduli (GPa) = 80.26478 124.54897 89.70029
#
# Poissons Ratio (x) = -0.03960 0.25863
# Poissons Ratio (y) = -0.02552 0.32446
# Poissons Ratio (z) = 0.23143 0.45052
#
# Static dielectric constant tensor:
#      x y z
#    x 4.070130 0.000000 0.166430 
#    y 0.000000 4.085150 0.000000 
#    z 0.166430 0.000000 4.156510 
# 
# 
# High freq. dielectric constant tensor:
#      x y z
#    x 1.923220 0.000000 0.009660 
#    y 0.000000 1.915600 0.000000 
#    z 0.009660 0.000000 1.920310 
# 
# From -- ./inp_files/118765.got.cif
#   From: 2010.06.25/outbox.cif.g09.slc.cpg/sg12_60_cif.got.tgz:118765.got - 2010.06.28 00:19:55.
