data_PCOD8115306
_publ_section_title
;
Structure prediction by ZEFSAII (Michael W. Deem and Ramdas Pophale) SiO2 
 PCOD8115306
Probable space group: C 2/M
;
_chemical_formula_sum "Si O2"
_cell_formula_units_Z 40
_cell_length_a 13.555374
_cell_length_b 21.943317
_cell_length_c 8.045291
_cell_angle_alpha 90.000000
_cell_angle_beta 46.039970
_cell_angle_gamma 90.000000
_cell_volume 1722.590298
_symmetry_space_group_name_H-M "C 2/M"
_symmetry_group_IT_number 12
_symmetry_cell_setting 'monoclinic'
loop_
_space_group_symop_operation_xyz
x,y,z
-x,y,-z
-x,-y,-z
x,-y,z
1/2+x,1/2+y,z
1/2-x,1/2+y,-z
1/2-x,1/2-y,-z
1/2+x,1/2-y,z
loop_
_atom_site_type_symbol
_atom_site_label
_atom_site_fract_x
_atom_site_fract_y
_atom_site_fract_z
Si Si1 0.232695 0.651521 0.412849
Si Si2 0.981640 0.159508 0.334479
Si Si3 0.293372 0.429029 0.031610
Si Si4 0.660811 0.748760 0.941368
Si Si5 0.448513 0.122480 0.896074
O O1 0.324238 0.643585 0.473058
O O2 0.281166 0.600430 0.226597
O O3 0.252415 0.718976 0.310335
O O4 0.073023 0.641744 0.632056
O O5 0.000000 0.185607 0.500000
O O6 0.076315 0.099415 0.214627
O O7 0.026326 0.208945 0.142760
O O8 0.318426 0.500000 0.024066
O O9 0.156044 0.417809 0.086035
O O10 0.750000 0.750000 0.000000
O O11 0.621772 0.817324 0.941601
O O12 0.500000 0.085473 0.000000
#
# Coordination Sequence:
#
# PCOD8115306 Si02
#       5
#     8   8   8   8   8
#     4  11  25  43  67  98 133 171 218 263 325 393
#     4  11  24  43  68  99 132 170 216 268 325 389
#     4  11  25  46  68  92 127 174 224 272 326 386
#     4  11  23  40  66  99 135 174 210 260 319 394
#     4  12  25  42  68  99 134 172 215 269 325 384
#
# _framework density 23.220845000000001
#
# number of rings (size 3 to 8) (size 9 to 14) (size 15 to 20)
#    0.000    0.800    4.000    5.400    2.800    5.600 
#    0.000    2.000    0.000    0.000    0.000    0.000 
#    0.000    0.000    0.000    0.000    0.000    0.000 
#
# Total GULP energy -248058.814366 kJ/mol
# GULP energy per Si atom -12402.940718 kJ/mol
# Density = 2.316799 g / cm^3
# Si number density = 23.220845 Si / 1000 Ang^3
#
#
#
# Elastic Constant Matrix: (Units=GPa)
#
#
# Indices 1 2 3 4 5 6 
#
# 1 143.0111 -9.4884 -0.4634 0.0000 1.9549 0.0000
# 2 -9.4884 67.8936 0.4037 0.0000 -0.0233 0.0000
# 3 -0.4634 0.4037 80.0781 0.0000 -0.4666 0.0000
# 4 0.0000 0.0000 0.0000 12.8147 0.0000 -1.2943
# 5 1.9549 -0.0233 -0.4666 0.0000 43.3303 0.0000
# 6 0.0000 0.0000 0.0000 -1.2943 0.0000 9.5875
#
#
#
# Elastic Compliance Matrix: (Units=1/GPa)
#
#
# Indices 1 2 3 4 5 6 
#
# 1 0.007062 0.000987 0.000034 0.000000 -0.000318 0.000000
# 2 0.000987 0.014867 -0.000069 0.000000 -0.000037 0.000000
# 3 0.000034 -0.000069 0.012489 0.000000 0.000133 0.000000
# 4 0.000000 0.000000 0.000000 0.079114 0.000000 0.010681
# 5 -0.000318 -0.000037 0.000133 0.000000 0.023094 0.000000
# 6 0.000000 0.000000 0.000000 0.010681 0.000000 0.105744
#
#
# Mechanical properties :
#
#
# Convention : Reuss Voigt Hill
#
# Bulk Modulus (GPa) = 27.53208 30.20962 28.87085
# Shear Modulus (GPa) = 19.79603 33.18190 26.48896
#
# Velocity S-wave (km/s) = 2.92295 3.78427 3.38115
# Velocity P-wave (km/s) = 4.82430 5.66853 5.26337
#
# Compressibility (1/GPa) = 0.03632127
#
# Stress axis : x y z
#
# Youngs Moduli (GPa) = 141.59527 67.26210 80.06964
#
# Poissons Ratio (x) = -0.06637 -0.00273
# Poissons Ratio (y) = -0.13971 0.00556
# Poissons Ratio (z) = -0.00482 0.00467
#
# Static dielectric constant tensor:
#      x y z
#    x 4.314100 0.000000 -0.152130 
#    y 0.000000 4.283800 0.000000 
#    z -0.152130 0.000000 4.231760 
# 
# 
# High freq. dielectric constant tensor:
#      x y z
#    x 1.949920 0.000000 -0.002190 
#    y 0.000000 1.879060 0.000000 
#    z -0.002190 0.000000 1.925400 
# 
# From -- ./inp_files/50401.got.cif
#   From: 2010.06.25/outbox.cif.g09.slc.cpg/sg12_26_cif.got.tgz:50401.got - 2010.06.28 00:19:55.
