data_PCOD8115083
_publ_section_title
;
Structure prediction by ZEFSAII (Michael W. Deem and Ramdas Pophale) SiO2 
 PCOD8115083
Probable space group: C 2/M
;
_chemical_formula_sum "Si O2"
_cell_formula_units_Z 56
_cell_length_a 15.112043
_cell_length_b 20.148240
_cell_length_c 13.902512
_cell_angle_alpha 90.000000
_cell_angle_beta 37.797209
_cell_angle_gamma 90.000000
_cell_volume 2594.304323
_symmetry_space_group_name_H-M "C 2/M"
_symmetry_group_IT_number 12
_symmetry_cell_setting 'monoclinic'
loop_
_space_group_symop_operation_xyz
x,y,z
-x,y,-z
-x,-y,-z
x,-y,z
1/2+x,1/2+y,z
1/2-x,1/2+y,-z
1/2-x,1/2-y,-z
1/2+x,1/2-y,z
loop_
_atom_site_type_symbol
_atom_site_label
_atom_site_fract_x
_atom_site_fract_y
_atom_site_fract_z
Si Si1 0.031626 0.424729 0.261457
Si Si2 0.616040 0.106798 0.978893
Si Si3 0.126106 0.806513 0.722782
Si Si4 0.168533 0.754805 0.971311
Si Si5 0.779318 0.338685 0.414204
Si Si6 0.841654 0.923971 0.643292
Si Si7 0.348331 0.839283 0.681200
O O1 0.979538 0.500000 0.329704
O O2 0.138857 0.401482 0.255793
O O3 0.907435 0.368708 0.369808
O O4 0.104140 0.426054 0.093915
O O5 0.597830 0.185590 0.002249
O O6 0.775645 0.086315 0.805878
O O7 0.500000 0.079560 0.000000
O O8 0.185248 0.731462 0.664400
O O9 0.137371 0.835162 0.604234
O O10 0.226727 0.852364 0.704485
O O11 0.963201 0.807395 0.903506
O O12 0.286927 0.775848 0.791498
O O13 0.250000 0.750000 0.000000
O O14 0.764051 0.389535 0.340930
O O15 0.000000 0.891271 0.500000
O O16 0.850919 0.000000 0.605086
O O17 0.500000 0.821795 0.500000
#
# Coordination Sequence:
#
# PCOD8115083 Si02
#       7
#     8   8   8   8   8   8   8
#     4  12  25  45  69 100 138 183 239 282 332 417
#     4  12  23  42  66 101 128 177 225 281 347 400
#     4  11  24  42  68 100 139 169 223 288 341 413
#     4  12  24  42  69 100 140 172 222 283 357 409
#     4  11  22  42  68  99 133 174 224 279 349 392
#     4  11  25  41  61  95 134 174 219 271 339 409
#     4  12  25  44  66 103 136 182 228 279 344 404
#
# _framework density 21.585747000000001
#
# number of rings (size 3 to 8) (size 9 to 14) (size 15 to 20)
#    0.000    0.429    5.714    3.000    4.000    2.000 
#    0.000    0.000    0.000    2.571    0.000    0.000 
#    0.000    0.000    0.000    0.000    0.000    0.000 
#
# Total GULP energy -347113.840029 kJ/mol
# GULP energy per Si atom -12396.922858 kJ/mol
# Density = 2.153662 g / cm^3
# Si number density = 21.585747 Si / 1000 Ang^3
#
#
#
# Elastic Constant Matrix: (Units=GPa)
#
#
# Indices 1 2 3 4 5 6 
#
# 1 106.6641 20.9819 38.8875 0.0005 6.5419 0.0001
# 2 20.9819 66.2408 9.3128 0.0010 8.6504 0.0006
# 3 38.8875 9.3128 151.2791 -0.0003 7.4434 0.0019
# 4 0.0005 0.0010 -0.0003 20.0334 0.0001 -5.3523
# 5 6.5419 8.6504 7.4434 0.0001 34.7503 -0.0005
# 6 0.0001 0.0006 0.0019 -5.3523 -0.0005 9.3051
#
#
#
# Elastic Compliance Matrix: (Units=1/GPa)
#
#
# Indices 1 2 3 4 5 6 
#
# 1 0.010959 -0.003008 -0.002595 0.000000 -0.000759 0.000001
# 2 -0.003008 0.016520 -0.000070 -0.000001 -0.003531 -0.000002
# 3 -0.002595 -0.000070 0.007334 0.000000 -0.001065 -0.000002
# 4 0.000000 -0.000001 0.000000 0.058981 0.000001 0.033926
# 5 -0.000759 -0.003531 -0.001065 0.000001 0.030027 0.000002
# 6 0.000001 -0.000002 -0.000002 0.033926 0.000002 0.126982
#
#
# Mechanical properties :
#
#
# Convention : Reuss Voigt Hill
#
# Bulk Modulus (GPa) = 42.60998 51.39428 47.00213
# Shear Modulus (GPa) = 18.52054 29.81787 24.16920
#
# Velocity S-wave (km/s) = 2.93234 3.72071 3.34980
# Velocity P-wave (km/s) = 5.58995 6.50533 6.06493
#
# Compressibility (1/GPa) = 0.02346868
#
# Stress axis : x y z
#
# Youngs Moduli (GPa) = 91.24636 60.53246 136.35111
#
# Poissons Ratio (x) = 0.18205 0.35379
# Poissons Ratio (y) = 0.27443 0.00956
# Poissons Ratio (z) = 0.23676 0.00425
#
# Static dielectric constant tensor:
#      x y z
#    x 4.024640 0.000000 0.154280 
#    y 0.000000 3.616170 0.000010 
#    z 0.154280 0.000010 4.370350 
# 
# 
# High freq. dielectric constant tensor:
#      x y z
#    x 1.848120 0.000000 0.016140 
#    y 0.000000 1.818810 0.000000 
#    z 0.016140 0.000000 1.865620 
# 
# From -- ./inp_files/217675.got.cif
#   From: 2010.06.25/outbox.cif.g09.slc.cpg/sg12_109_cif.got.tgz:217675.got - 2010.06.28 00:19:55.
