data_PCOD8115536
_publ_section_title
;
Structure prediction by ZEFSAII (Michael W. Deem and Ramdas Pophale) SiO2 
 PCOD8115536
Probable space group: C 2/M
;
_chemical_formula_sum "Si O2"
_cell_formula_units_Z 56
_cell_length_a 18.434218
_cell_length_b 8.743511
_cell_length_c 29.186060
_cell_angle_alpha 90.000000
_cell_angle_beta 37.952747
_cell_angle_gamma 90.000000
_cell_volume 2893.138342
_symmetry_space_group_name_H-M "C 2/M"
_symmetry_group_IT_number 12
_symmetry_cell_setting 'monoclinic'
loop_
_space_group_symop_operation_xyz
x,y,z
-x,y,-z
-x,-y,-z
x,-y,z
1/2+x,1/2+y,z
1/2-x,1/2+y,-z
1/2-x,1/2-y,-z
1/2+x,1/2-y,z
loop_
_atom_site_type_symbol
_atom_site_label
_atom_site_fract_x
_atom_site_fract_y
_atom_site_fract_z
Si Si1 0.630166 0.318747 0.432308
Si Si2 0.332029 0.177606 0.266603
Si Si3 0.247564 0.821138 0.136427
Si Si4 0.325846 0.680059 0.002851
Si Si5 0.212899 0.321321 0.565559
Si Si6 0.001022 0.676755 0.267735
Si Si7 0.596257 0.320769 0.862413
O O1 0.500000 0.245478 0.500000
O O2 0.623919 0.500000 0.440458
O O3 0.701136 0.279801 0.350377
O O4 0.701269 0.248451 0.439312
O O5 0.429170 0.212822 0.257103
O O6 0.352716 0.283888 0.212821
O O7 0.338635 0.000000 0.248915
O O8 0.113344 0.785065 0.216659
O O9 0.334308 0.770759 0.133503
O O10 0.262810 0.000000 0.120335
O O11 0.276576 0.732330 0.075833
O O12 0.314334 0.500000 0.004922
O O13 0.460884 0.733158 0.931093
O O14 0.250000 0.750000 0.000000
O O15 0.233510 0.500000 0.552066
O O16 0.250000 0.250000 0.500000
O O17 0.078820 0.286898 0.647827
O O18 0.040908 0.500000 0.247893
O O19 0.609244 0.500000 0.865999
#
# Coordination Sequence:
#
# PCOD8115536 Si02
#       7
#     8   8   8   8   8   8   8
#     4   8  15  30  52  77 106 140 180 224 269 320
#     4   9  18  34  57  82 108 145 189 228 271 327
#     4  12  25  39  59  86 113 145 188 235 281 329
#     4  11  24  42  64  88 115 149 186 224 272 331
#     4   9  18  32  52  79 110 146 185 228 278 329
#     4   9  19  37  57  78 112 153 190 232 282 335
#     4  11  24  40  58  83 116 149 180 223 280 335
#
# _framework density 19.356142999999999
#
# number of rings (size 3 to 8) (size 9 to 14) (size 15 to 20)
#    0.000    2.143    0.000    5.143    0.000    8.571 
#    0.000    3.571    0.000    0.857    0.000    0.000 
#    0.000    0.000    0.000    0.000    0.000    0.000 
#
# Total GULP energy -347182.592488 kJ/mol
# GULP energy per Si atom -12399.378303 kJ/mol
# Density = 1.931209 g / cm^3
# Si number density = 19.356143 Si / 1000 Ang^3
#
#
#
# Elastic Constant Matrix: (Units=GPa)
#
#
# Indices 1 2 3 4 5 6 
#
# 1 105.0400 28.0158 65.2664 -0.0002 -7.5795 -0.0169
# 2 28.0158 38.9138 27.8311 0.0034 -9.0945 -0.0055
# 3 65.2664 27.8311 141.2198 0.0012 -4.0944 -0.0022
# 4 -0.0002 0.0034 0.0012 34.0116 0.0015 6.9547
# 5 -7.5795 -9.0945 -4.0944 0.0015 40.7610 -0.0004
# 6 -0.0169 -0.0055 -0.0022 6.9547 -0.0004 28.4229
#
#
#
# Elastic Compliance Matrix: (Units=1/GPa)
#
#
# Indices 1 2 3 4 5 6 
#
# 1 0.014725 -0.006492 -0.005505 -0.000001 0.000737 0.000007
# 2 -0.006492 0.034370 -0.003596 -0.000004 0.006100 0.000004
# 3 -0.005505 -0.003596 0.010311 0.000001 -0.000790 -0.000003
# 4 -0.000001 -0.000004 0.000001 0.030950 -0.000002 -0.007573
# 5 0.000737 0.006100 -0.000790 -0.000002 0.025952 0.000002
# 6 0.000007 0.000004 -0.000003 -0.007573 0.000002 0.037036
#
#
# Mechanical properties :
#
#
# Convention : Reuss Voigt Hill
#
# Bulk Modulus (GPa) = 35.43619 58.60002 47.01811
# Shear Modulus (GPa) = 25.78167 31.57645 28.67906
#
# Velocity S-wave (km/s) = 3.65357 4.04337 3.85340
# Velocity P-wave (km/s) = 6.01209 7.22072 6.64395
#
# Compressibility (1/GPa) = 0.02821974
#
# Stress axis : x y z
#
# Youngs Moduli (GPa) = 67.91073 29.09556 96.98411
#
# Poissons Ratio (x) = 0.18890 0.53386
# Poissons Ratio (y) = 0.44090 0.34876
# Poissons Ratio (z) = 0.37382 0.10463
#
# Static dielectric constant tensor:
#      x y z
#    x 3.071380 -0.000020 -0.519220 
#    y -0.000020 3.312130 -0.000010 
#    z -0.519220 -0.000010 3.522970 
# 
# 
# High freq. dielectric constant tensor:
#      x y z
#    x 1.755050 0.000000 -0.002760 
#    y 0.000000 1.736320 0.000000 
#    z -0.002760 0.000000 1.771810 
# 
# From -- ./inp_files/314385.got.cif
#   From: 2010.06.25/outbox.cif.g09.slc.cpg/sg12_158_cif.got.tgz:314385.got - 2010.06.28 00:19:55.
