data_PCOD8115174
_publ_section_title
;
Structure prediction by ZEFSAII (Michael W. Deem and Ramdas Pophale) SiO2 
 PCOD8115174
Probable space group: C 2/M
;
_chemical_formula_sum "Si O2"
_cell_formula_units_Z 48
_cell_length_a 12.783110
_cell_length_b 14.107104
_cell_length_c 21.791039
_cell_angle_alpha 90.000000
_cell_angle_beta 139.933918
_cell_angle_gamma 90.000000
_cell_volume 2529.391596
_symmetry_space_group_name_H-M "C 2/M"
_symmetry_group_IT_number 12
_symmetry_cell_setting 'monoclinic'
loop_
_space_group_symop_operation_xyz
x,y,z
-x,y,-z
-x,-y,-z
x,-y,z
1/2+x,1/2+y,z
1/2-x,1/2+y,-z
1/2-x,1/2-y,-z
1/2+x,1/2-y,z
loop_
_atom_site_type_symbol
_atom_site_label
_atom_site_fract_x
_atom_site_fract_y
_atom_site_fract_z
Si Si1 0.591560 0.787769 0.605395
Si Si2 0.764124 0.891576 0.109718
Si Si3 0.543226 0.239856 0.235948
Si Si4 0.434874 0.397487 0.539065
Si Si5 0.059104 0.391540 0.355625
Si Si6 0.978031 0.608419 0.890680
O O1 0.500000 0.802061 0.500000
O O2 0.781455 0.787278 0.676854
O O3 0.535042 0.689075 0.614088
O O4 0.547485 0.872455 0.631579
O O5 0.661866 0.865132 0.123949
O O6 0.918683 0.825130 0.174027
O O7 0.824093 0.000000 0.139943
O O8 0.653606 0.876521 0.000110
O O9 0.497509 0.174213 0.272913
O O10 0.540001 0.176781 0.174323
O O11 0.500000 0.407466 0.500000
O O12 0.463571 0.500000 0.585426
O O13 0.246346 0.370362 0.454829
O O14 0.034407 0.500000 0.324574
O O15 0.958412 0.500000 0.859964
#
# Coordination Sequence:
#
# PCOD8115174 Si02
#       6
#     8   8   8   8   8   8
#     4  11  23  38  56  79 118 154 193 230 281 330
#     4   9  20  39  60  86 117 147 181 231 284 336
#     4  12  21  35  61  87 114 148 192 230 277 339
#     4   9  17  34  57  79 103 142 190 236 275 316
#     4  11  23  38  56  79 112 150 192 240 279 323
#     4   9  19  38  62  87 115 144 184 232 284 338
#
# _framework density 18.976894999999999
#
# number of rings (size 3 to 8) (size 9 to 14) (size 15 to 20)
#    0.000    1.833    3.333    3.500    0.000    1.667 
#    0.000    0.833    0.000    0.000    0.000   10.500 
#    0.000    0.000    0.000    0.000    0.000    0.000 
#
# Total GULP energy -297572.102242 kJ/mol
# GULP energy per Si atom -12398.837593 kJ/mol
# Density = 1.893370 g / cm^3
# Si number density = 18.976895 Si / 1000 Ang^3
#
#
#
# Elastic Constant Matrix: (Units=GPa)
#
#
# Indices 1 2 3 4 5 6 
#
# 1 86.7969 36.4745 51.7647 0.0000 -3.2690 0.0000
# 2 36.4745 55.7860 38.4206 0.0000 7.2718 0.0000
# 3 51.7647 38.4206 91.4515 0.0000 7.9335 0.0000
# 4 0.0000 0.0000 0.0000 -11.7505 0.0000 0.8265
# 5 -3.2690 7.2718 7.9335 0.0000 26.8812 0.0000
# 6 0.0000 0.0000 0.0000 0.8265 0.0000 38.8075
#
#
#
# Elastic Compliance Matrix: (Units=1/GPa)
#
#
# Indices 1 2 3 4 5 6 
#
# 1 0.020522 -0.008352 -0.008743 0.000000 0.007336 0.000000
# 2 -0.008352 0.029006 -0.006865 0.000000 -0.006836 0.000000
# 3 -0.008743 -0.006865 0.019191 0.000000 -0.004870 0.000000
# 4 0.000000 0.000000 0.000000 -0.084975 0.000000 0.001810
# 5 0.007336 -0.006836 -0.004870 0.000000 0.041379 0.000000
# 6 0.000000 0.000000 0.000000 0.001810 0.000000 0.025730
#
#
# Mechanical properties :
#
#
# Convention : Reuss Voigt Hill
#
# Bulk Modulus (GPa) = 48.08541 54.15045 51.11793
# Shear Modulus (GPa) = 47.30098 17.94592 32.62345
#
# Velocity S-wave (km/s) = 4.99797 3.07851 4.15072
# Velocity P-wave (km/s) = 7.66160 6.42131 7.06871
#
# Compressibility (1/GPa) = 0.02079633
#
# Stress axis : x y z
#
# Youngs Moduli (GPa) = 48.72876 34.47577 52.10897
#
# Poissons Ratio (x) = 0.28795 0.45561
# Poissons Ratio (y) = 0.40699 0.35774
# Poissons Ratio (z) = 0.42606 0.23669
#
# Static dielectric constant tensor:
#      x y z
#    x 3.472360 0.000000 0.060120 
#    y 0.000000 3.836060 0.000000 
#    z 0.060120 0.000000 3.358710 
# 
# 
# High freq. dielectric constant tensor:
#      x y z
#    x 1.734700 0.000000 0.004740 
#    y 0.000000 1.743770 0.000000 
#    z 0.004740 0.000000 1.726930 
# 
# From -- ./inp_files/204584.got.cif
#   From: 2010.06.25/outbox.cif.g09.slc.cpg/sg12_103_cif.got.tgz:204584.got - 2010.06.28 00:19:55.
