data_PCOD8115872
_publ_section_title
;
Structure prediction by ZEFSAII (Michael W. Deem and Ramdas Pophale) SiO2 
 PCOD8115872
Probable space group: C 2/M
;
_chemical_formula_sum "Si O2"
_cell_formula_units_Z 32
_cell_length_a 19.834096
_cell_length_b 8.721870
_cell_length_c 24.866851
_cell_angle_alpha 90.000000
_cell_angle_beta 156.514130
_cell_angle_gamma 90.000000
_cell_volume 1714.336571
_symmetry_space_group_name_H-M "C 2/M"
_symmetry_group_IT_number 12
_symmetry_cell_setting 'monoclinic'
loop_
_space_group_symop_operation_xyz
x,y,z
-x,y,-z
-x,-y,-z
x,-y,z
1/2+x,1/2+y,z
1/2-x,1/2+y,-z
1/2-x,1/2-y,-z
1/2+x,1/2-y,z
loop_
_atom_site_type_symbol
_atom_site_label
_atom_site_fract_x
_atom_site_fract_y
_atom_site_fract_z
Si Si1 0.933855 0.179958 0.642568
Si Si2 0.039959 0.677534 0.615526
Si Si3 0.074283 0.680148 0.853628
Si Si4 0.272770 0.677654 0.689354
O O1 0.750000 0.250000 0.500000
O O2 0.050045 0.219021 0.676056
O O3 0.022120 0.247885 0.759126
O O4 0.915648 0.000000 0.636677
O O5 0.047451 0.500000 0.637569
O O6 0.198094 0.720023 0.693170
O O7 0.865936 0.712727 0.457486
O O8 0.091997 0.500000 0.860064
O O9 0.935683 0.718382 0.797820
O O10 0.250000 0.750000 0.000000
O O11 0.325159 0.500000 0.725607
#
# Coordination Sequence:
#
# PCOD8115872 Si02
#       4
#     8   8   8   8
#     4  12  23  37  59  89 121 154 198 247 290 343
#     4   9  18  34  59  89 120 153 191 240 295 345
#     4  12  25  41  61  86 119 159 198 243 295 353
#     4   9  18  35  59  87 120 155 192 238 293 350
#
# _framework density 18.666114
#
# number of rings (size 3 to 8) (size 9 to 14) (size 15 to 20)
#    0.000    1.500    2.500    6.000    0.000    1.000 
#    0.000    3.750    0.000    7.500    0.000    0.000 
#    0.000    0.000    0.000    0.000    0.000    0.000 
#
# Total GULP energy -198448.741983 kJ/mol
# GULP energy per Si atom -12403.046374 kJ/mol
# Density = 1.862363 g / cm^3
# Si number density = 18.666114 Si / 1000 Ang^3
#
#
#
# Elastic Constant Matrix: (Units=GPa)
#
#
# Indices 1 2 3 4 5 6 
#
# 1 144.3541 69.5052 69.5289 -0.0046 4.9996 0.0001
# 2 69.5052 150.4355 68.6429 -0.0092 1.0470 -0.0004
# 3 69.5289 68.6429 122.9792 -0.0428 0.1810 -0.0013
# 4 -0.0046 -0.0092 -0.0428 30.0032 -0.0020 2.8770
# 5 4.9996 1.0470 0.1810 -0.0020 26.9110 0.0019
# 6 0.0001 -0.0004 -0.0013 2.8770 0.0019 37.7816
#
#
#
# Elastic Compliance Matrix: (Units=1/GPa)
#
#
# Indices 1 2 3 4 5 6 
#
# 1 0.010434 -0.002841 -0.004310 -0.000006 -0.001799 0.000000
# 2 -0.002841 0.009695 -0.003805 -0.000003 0.000176 0.000000
# 3 -0.004310 -0.003805 0.012691 0.000016 0.000863 -0.000001
# 4 -0.000006 -0.000003 0.000016 0.033575 0.000004 -0.002557
# 5 -0.001799 0.000176 0.000863 0.000004 0.037481 -0.000002
# 6 0.000000 0.000000 -0.000001 -0.002557 -0.000002 0.026663
#
#
# Mechanical properties :
#
#
# Convention : Reuss Voigt Hill
#
# Bulk Modulus (GPa) = 91.69258 92.56919 92.13089
# Shear Modulus (GPa) = 32.03299 32.94528 32.48913
#
# Velocity S-wave (km/s) = 4.14708 4.20572 4.17650
# Velocity P-wave (km/s) = 8.49471 8.56060 8.52772
#
# Compressibility (1/GPa) = 0.01090601
#
# Stress axis : x y z
#
# Youngs Moduli (GPa) = 95.84078 103.14229 78.79451
#
# Poissons Ratio (x) = 0.29307 0.33964
# Poissons Ratio (y) = 0.27232 0.29985
# Poissons Ratio (z) = 0.41312 0.39250
#
# Static dielectric constant tensor:
#      x y z
#    x 3.271580 0.000010 0.627070 
#    y 0.000010 3.452310 -0.000020 
#    z 0.627070 -0.000020 2.632310 
# 
# 
# High freq. dielectric constant tensor:
#      x y z
#    x 1.743270 0.000000 0.008970 
#    y 0.000000 1.726970 0.000000 
#    z 0.008970 0.000000 1.700300 
# 
# From -- ./inp_files/81659.got.cif
#   From: 2010.06.25/outbox.cif.g09.slc.cpg/sg12_41_cif.got.tgz:81659.got - 2010.06.28 00:19:55.
