data_PCOD8115771
_publ_section_title
;
Structure prediction by ZEFSAII (Michael W. Deem and Ramdas Pophale) SiO2 
 PCOD8115771
Probable space group: C 2/M
;
_chemical_formula_sum "Si O2"
_cell_formula_units_Z 48
_cell_length_a 14.026823
_cell_length_b 30.177189
_cell_length_c 8.617055
_cell_angle_alpha 90.000000
_cell_angle_beta 40.451135
_cell_angle_gamma 90.000000
_cell_volume 2366.504500
_symmetry_space_group_name_H-M "C 2/M"
_symmetry_group_IT_number 12
_symmetry_cell_setting 'monoclinic'
loop_
_space_group_symop_operation_xyz
x,y,z
-x,y,-z
-x,-y,-z
x,-y,z
1/2+x,1/2+y,z
1/2-x,1/2+y,-z
1/2-x,1/2-y,-z
1/2+x,1/2-y,z
loop_
_atom_site_type_symbol
_atom_site_label
_atom_site_fract_x
_atom_site_fract_y
_atom_site_fract_z
Si Si1 0.268262 0.450497 0.376762
Si Si2 0.849347 0.130868 0.744360
Si Si3 0.837387 0.289660 0.483301
Si Si4 0.322252 0.205999 0.859534
Si Si5 0.410652 0.450058 0.885028
Si Si6 0.851995 0.622815 0.279353
O O1 0.211891 0.500000 0.483194
O O2 0.427814 0.442064 0.249715
O O3 0.146351 0.416830 0.596581
O O4 0.285625 0.443431 0.171279
O O5 0.882544 0.085919 0.791114
O O6 0.773166 0.112285 0.686939
O O7 0.000000 0.154885 0.500000
O O8 0.746581 0.163804 0.968874
O O9 0.750000 0.250000 0.500000
O O10 0.783062 0.298243 0.725886
O O11 0.805697 0.332210 0.420280
O O12 0.011905 0.285474 0.289741
O O13 0.250000 0.250000 0.000000
O O14 0.397562 0.500000 0.833376
O O15 0.000000 0.627409 0.000000
#
# Coordination Sequence:
#
# PCOD8115771 Si02
#       6
#     8   8   8   8   8   8
#     4   9  19  38  64  93 127 169 215 261 314 371
#     4  12  24  40  64  96 130 167 213 262 313 375
#     4  11  26  46  68  90 126 168 207 261 319 381
#     4  11  26  45  68  94 123 163 214 261 315 380
#     4   9  19  38  64  94 127 167 217 264 308 371
#     4  12  24  42  63  91 134 168 206 260 319 379
#
# _framework density 20.283079000000001
#
# number of rings (size 3 to 8) (size 9 to 14) (size 15 to 20)
#    0.000    1.333    3.333    3.000    4.667    1.333 
#    0.000    0.000    0.000    2.000    0.000    0.000 
#    0.000    0.000    0.000    0.000    0.000    0.000 
#
# Total GULP energy -297375.424203 kJ/mol
# GULP energy per Si atom -12390.642675 kJ/mol
# Density = 2.023691 g / cm^3
# Si number density = 20.283079 Si / 1000 Ang^3
#
#
#
# Elastic Constant Matrix: (Units=GPa)
#
#
# Indices 1 2 3 4 5 6 
#
# 1 92.2463 33.1017 30.7175 0.0000 9.3371 0.0000
# 2 33.1017 139.2815 60.2323 0.0000 13.0638 0.0000
# 3 30.7175 60.2323 116.7158 0.0000 12.6730 0.0000
# 4 0.0000 0.0000 0.0000 50.3245 0.0000 16.4884
# 5 9.3371 13.0638 12.6730 0.0000 24.0689 0.0000
# 6 0.0000 0.0000 0.0000 16.4884 0.0000 44.3420
#
#
#
# Elastic Compliance Matrix: (Units=1/GPa)
#
#
# Indices 1 2 3 4 5 6 
#
# 1 0.012452 -0.001818 -0.002038 0.000000 -0.002771 0.000000
# 2 -0.001818 0.009671 -0.004263 0.000000 -0.002299 0.000000
# 3 -0.002038 -0.004263 0.011632 0.000000 -0.003020 0.000000
# 4 0.000000 0.000000 0.000000 0.022628 0.000000 -0.008414
# 5 -0.002771 -0.002299 -0.003020 0.000000 0.045461 0.000000
# 6 0.000000 0.000000 0.000000 -0.008414 0.000000 0.025681
#
#
# Mechanical properties :
#
#
# Convention : Reuss Voigt Hill
#
# Bulk Modulus (GPa) = 57.08655 66.26075 61.67365
# Shear Modulus (GPa) = 33.42234 38.69319 36.05776
#
# Velocity S-wave (km/s) = 4.06371 4.37241 4.22088
# Velocity P-wave (km/s) = 7.08691 7.63083 7.36389
#
# Compressibility (1/GPa) = 0.01751726
#
# Stress axis : x y z
#
# Youngs Moduli (GPa) = 80.30792 103.40394 85.97055
#
# Poissons Ratio (x) = 0.18800 0.17521
# Poissons Ratio (y) = 0.14601 0.36645
# Poissons Ratio (z) = 0.16367 0.44077
#
# Static dielectric constant tensor:
#      x y z
#    x 4.654180 0.000000 -0.195490 
#    y 0.000000 3.621490 0.000000 
#    z -0.195490 0.000000 3.938170 
# 
# 
# High freq. dielectric constant tensor:
#      x y z
#    x 1.791240 0.000000 0.013870 
#    y 0.000000 1.801000 0.000000 
#    z 0.013870 0.000000 1.803360 
# 
# From -- ./inp_files/67295.got.cif
#   From: 2010.06.25/outbox.cif.g09.slc.cpg/sg12_34_cif.got.tgz:67295.got - 2010.06.28 00:19:55.
