data_PCOD8115616
_publ_section_title
;
Structure prediction by ZEFSAII (Michael W. Deem and Ramdas Pophale) SiO2 
 PCOD8115616
Probable space group: C 2/M
;
_chemical_formula_sum "Si O2"
_cell_formula_units_Z 56
_cell_length_a 9.004749
_cell_length_b 18.883947
_cell_length_c 25.777529
_cell_angle_alpha 90.000000
_cell_angle_beta 41.270897
_cell_angle_gamma 90.000000
_cell_volume 2891.342054
_symmetry_space_group_name_H-M "C 2/M"
_symmetry_group_IT_number 12
_symmetry_cell_setting 'monoclinic'
loop_
_space_group_symop_operation_xyz
x,y,z
-x,y,-z
-x,-y,-z
x,-y,z
1/2+x,1/2+y,z
1/2-x,1/2+y,-z
1/2-x,1/2-y,-z
1/2+x,1/2-y,z
loop_
_atom_site_type_symbol
_atom_site_label
_atom_site_fract_x
_atom_site_fract_y
_atom_site_fract_z
Si Si1 0.056275 0.418620 0.848295
Si Si2 0.121182 0.316572 0.303245
Si Si3 0.708714 0.677485 0.481828
Si Si4 0.493866 0.668865 0.718043
Si Si5 0.264865 0.581445 0.432256
Si Si6 0.276040 0.081344 0.816248
Si Si7 0.373223 0.583551 0.984938
O O1 0.136005 0.500000 0.832994
O O2 0.266002 0.366837 0.797750
O O3 0.926570 0.408482 0.828049
O O4 0.891718 0.397140 0.940285
O O5 0.358563 0.313043 0.270366
O O6 0.126922 0.370287 0.254138
O O7 0.928865 0.345223 0.392129
O O8 0.058915 0.238958 0.300113
O O9 0.500000 0.690549 0.500000
O O10 0.750000 0.750000 0.500000
O O11 0.640950 0.616723 0.540232
O O12 0.625805 0.614664 0.647136
O O13 0.334465 0.500000 0.415431
O O14 0.000000 0.593845 0.500000
O O15 0.285288 0.000000 0.795091
O O16 0.013943 0.105129 0.896339
O O17 0.397761 0.500000 0.984268
O O18 0.500000 0.619994 0.000000
#
# Coordination Sequence:
#
# PCOD8115616 Si02
#       7
#     8   8   8   8   8   8   8
#     4   9  18  35  62  90 120 158 195 237 292 356
#     4  12  25  39  61  86 117 156 199 245 300 348
#     4  12  24  42  66  87 116 159 203 241 290 352
#     4  12  24  40  59  86 117 157 201 245 290 355
#     4  11  24  43  64  89 120 153 192 243 298 348
#     4   9  19  36  60  92 123 151 193 247 295 348
#     4   7  12  29  57  86 117 155 193 231 288 354
#
# _framework density 19.368168000000001
#
# number of rings (size 3 to 8) (size 9 to 14) (size 15 to 20)
#    0.000    1.714    2.857    4.286    2.000    2.000 
#    0.000    1.429    0.000    2.571    0.000    0.000 
#    0.000    0.000    0.000    0.000    0.000    0.000 
#
# Total GULP energy -347089.582535 kJ/mol
# GULP energy per Si atom -12396.056519 kJ/mol
# Density = 1.932409 g / cm^3
# Si number density = 19.368168 Si / 1000 Ang^3
#
#
#
# Elastic Constant Matrix: (Units=GPa)
#
#
# Indices 1 2 3 4 5 6 
#
# 1 87.4034 30.5389 13.8023 0.0187 -9.0610 0.0073
# 2 30.5389 89.5810 30.4846 0.0136 0.8650 -0.0036
# 3 13.8023 30.4846 107.0332 -0.1129 -6.4297 -0.0345
# 4 0.0187 0.0136 -0.1129 7.9658 0.0246 -9.6220
# 5 -9.0610 0.8650 -6.4297 0.0246 23.9757 -0.0006
# 6 0.0073 -0.0036 -0.0345 -9.6220 -0.0006 24.4898
#
#
#
# Elastic Compliance Matrix: (Units=1/GPa)
#
#
# Indices 1 2 3 4 5 6 
#
# 1 0.013636 -0.004661 -0.000113 -0.000091 0.005291 -0.000041
# 2 -0.004661 0.014002 -0.003581 -0.000106 -0.003227 -0.000043
# 3 -0.000113 -0.003581 0.010553 0.000313 0.002916 0.000137
# 4 -0.000091 -0.000106 0.000313 0.238941 -0.000190 0.093880
# 5 0.005291 -0.003227 0.002916 -0.000190 0.044607 -0.000071
# 6 -0.000041 -0.000043 0.000137 0.093880 -0.000071 0.077719
#
#
# Mechanical properties :
#
#
# Convention : Reuss Voigt Hill
#
# Bulk Modulus (GPa) = 46.55352 48.18546 47.36949
# Shear Modulus (GPa) = 11.81115 25.23238 18.52177
#
# Velocity S-wave (km/s) = 2.47214 3.61331 3.09576
# Velocity P-wave (km/s) = 5.67775 6.50698 6.10646
#
# Compressibility (1/GPa) = 0.02148065
#
# Stress axis : x y z
#
# Youngs Moduli (GPa) = 73.33360 71.41882 94.76059
#
# Poissons Ratio (x) = 0.33291 0.01072
# Poissons Ratio (y) = 0.34183 0.33932
# Poissons Ratio (z) = 0.00829 0.25574
#
# Static dielectric constant tensor:
#      x y z
#    x 3.468010 0.000000 -0.074430 
#    y 0.000000 3.425290 0.000040 
#    z -0.074430 0.000040 4.006350 
# 
# 
# High freq. dielectric constant tensor:
#      x y z
#    x 1.738680 0.000000 -0.005120 
#    y 0.000000 1.739080 0.000000 
#    z -0.005120 0.000000 1.774320 
# 
# From -- ./inp_files/356684.got.cif
#   From: 2010.06.25/outbox.cif.g09.slc.cpg/sg12_179_cif.got.tgz:356684.got - 2010.06.28 00:19:55.
