data_PCOD8115885
_publ_section_title
;
Structure prediction by ZEFSAII (Michael W. Deem and Ramdas Pophale) SiO2 
 PCOD8115885
Probable space group: C 2/M
;
_chemical_formula_sum "Si O2"
_cell_formula_units_Z 64
_cell_length_a 9.947060
_cell_length_b 17.815410
_cell_length_c 18.945519
_cell_angle_alpha 90.000000
_cell_angle_beta 89.500145
_cell_angle_gamma 90.000000
_cell_volume 3357.225698
_symmetry_space_group_name_H-M "C 2/M"
_symmetry_group_IT_number 12
_symmetry_cell_setting 'monoclinic'
loop_
_space_group_symop_operation_xyz
x,y,z
-x,y,-z
-x,-y,-z
x,-y,z
1/2+x,1/2+y,z
1/2-x,1/2+y,-z
1/2-x,1/2-y,-z
1/2+x,1/2-y,z
loop_
_atom_site_type_symbol
_atom_site_label
_atom_site_fract_x
_atom_site_fract_y
_atom_site_fract_z
Si Si1 0.598267 0.410320 0.059360
Si Si2 0.242806 0.086997 0.598431
Si Si3 0.504087 0.161155 0.651057
Si Si4 0.596640 0.082198 0.786958
Si Si5 0.976409 0.832147 0.646840
Si Si6 0.242784 0.668898 0.539956
Si Si7 0.588289 0.581988 0.212908
Si Si8 0.100674 0.410543 0.941118
O O1 0.600258 0.500000 0.056884
O O2 0.541050 0.385376 0.136916
O O3 0.749031 0.379002 0.045408
O O4 0.500000 0.376769 0.000000
O O5 0.379507 0.105883 0.638817
O O6 0.124738 0.142554 0.624002
O O7 0.267710 0.102436 0.516257
O O8 0.204349 0.000000 0.610833
O O9 0.567778 0.140171 0.725266
O O10 0.452975 0.244844 0.657767
O O11 0.610410 0.160411 0.587312
O O12 0.754010 0.072099 0.793910
O O13 0.545372 0.112699 0.863337
O O14 0.533308 0.000000 0.770054
O O15 0.871892 0.853382 0.585994
O O16 0.949133 0.865389 0.723073
O O17 0.250000 0.750000 0.500000
O O18 0.522575 0.500000 0.227162
O O19 0.103462 0.500000 0.945550
O O20 0.000000 0.376224 0.000000
#
# Coordination Sequence:
#
# PCOD8115885 Si02
#       8
#     8   8   8   8   8   8   8   8
#     4   8  14  27  49  78 111 146 186 233 287 347
#     4  12  28  42  60  96 127 149 199 267 310 352
#     4  12  23  41  65  85 120 162 199 245 306 372
#     4   9  18  34  57  85 114 149 199 246 286 350
#     4  12  23  41  65  85 120 162 199 245 306 372
#     4  12  24  44  66  88 113 159 210 247 302 373
#     4   9  18  34  57  85 114 149 199 246 286 350
#     4   8  14  27  49  78 111 146 186 233 287 347
#
# _framework density 19.063358999999998
#
# number of rings (size 3 to 8) (size 9 to 14) (size 15 to 20)
#    0.000    1.750    3.750    3.000    0.000    3.000 
#    2.250    0.000    0.000    0.750    0.000    3.500 
#    0.000    0.000    0.000    0.000    0.000    0.000 
#
# Total GULP energy -396603.919400 kJ/mol
# GULP energy per Si atom -12393.872481 kJ/mol
# Density = 1.901997 g / cm^3
# Si number density = 19.063359 Si / 1000 Ang^3
#
#
#
# Elastic Constant Matrix: (Units=GPa)
#
#
# Indices 1 2 3 4 5 6 
#
# 1 72.6458 11.8710 43.4398 0.0000 0.4509 0.0000
# 2 11.8710 48.9446 24.7928 0.0000 3.7878 0.0000
# 3 43.4398 24.7928 153.6992 0.0000 0.0744 0.0000
# 4 0.0000 0.0000 0.0000 23.2251 0.0000 -4.2252
# 5 0.4509 3.7878 0.0744 0.0000 36.0487 0.0000
# 6 0.0000 0.0000 0.0000 -4.2252 0.0000 25.5788
#
#
#
# Elastic Compliance Matrix: (Units=1/GPa)
#
#
# Indices 1 2 3 4 5 6 
#
# 1 0.016711 -0.001808 -0.004431 0.000000 -0.000010 0.000000
# 2 -0.001808 0.022642 -0.003140 0.000000 -0.002350 0.000000
# 3 -0.004431 -0.003140 0.008265 0.000000 0.000368 0.000000
# 4 0.000000 0.000000 0.000000 0.044391 0.000000 0.007333
# 5 -0.000010 -0.002350 0.000368 0.000000 0.027987 0.000000
# 6 0.000000 0.000000 0.000000 0.007333 0.000000 0.040306
#
#
# Mechanical properties :
#
#
# Convention : Reuss Voigt Hill
#
# Bulk Modulus (GPa) = 34.65068 48.38854 41.51961
# Shear Modulus (GPa) = 26.49994 29.98293 28.24143
#
# Velocity S-wave (km/s) = 3.73245 3.97016 3.85314
# Velocity P-wave (km/s) = 6.06555 6.81574 6.45156
#
# Compressibility (1/GPa) = 0.02885946
#
# Stress axis : x y z
#
# Youngs Moduli (GPa) = 59.84211 44.16516 120.99179
#
# Poissons Ratio (x) = 0.07983 0.53616
# Poissons Ratio (y) = 0.10817 0.37996
# Poissons Ratio (z) = 0.26518 0.13869
#
# Static dielectric constant tensor:
#      x y z
#    x 3.297790 0.000000 0.261970 
#    y 0.000000 3.932360 0.000000 
#    z 0.261970 0.000000 3.668080 
# 
# 
# High freq. dielectric constant tensor:
#      x y z
#    x 1.735150 0.000000 0.001090 
#    y 0.000000 1.708170 0.000000 
#    z 0.001090 0.000000 1.759660 
# 
# From -- ./inp_files/258128.got.cif
#   From: 2010.06.25/outbox.cif.g09.slc.cpg/sg12_130_cif.got.tgz:258128.got - 2010.06.28 00:19:55.
