data_PCOD8115064
_publ_section_title
;
Structure prediction by ZEFSAII (Michael W. Deem and Ramdas Pophale) SiO2 
 PCOD8115064
Probable space group: C 2/M
;
_chemical_formula_sum "Si O2"
_cell_formula_units_Z 48
_cell_length_a 11.617919
_cell_length_b 18.276441
_cell_length_c 11.303361
_cell_angle_alpha 90.000000
_cell_angle_beta 102.587427
_cell_angle_gamma 90.000000
_cell_volume 2342.403131
_symmetry_space_group_name_H-M "C 2/M"
_symmetry_group_IT_number 12
_symmetry_cell_setting 'monoclinic'
loop_
_space_group_symop_operation_xyz
x,y,z
-x,y,-z
-x,-y,-z
x,-y,z
1/2+x,1/2+y,z
1/2-x,1/2+y,-z
1/2-x,1/2-y,-z
1/2+x,1/2-y,z
loop_
_atom_site_type_symbol
_atom_site_label
_atom_site_fract_x
_atom_site_fract_y
_atom_site_fract_z
Si Si1 0.644108 0.188964 0.860308
Si Si2 0.761085 0.584924 0.917310
Si Si3 0.688735 0.702473 0.311363
Si Si4 0.967922 0.160354 0.123230
Si Si5 0.443823 0.918246 0.752307
Si Si6 0.377049 0.165426 0.534460
O O1 0.734985 0.223550 0.786684
O O2 0.578735 0.256887 0.905934
O O3 0.551954 0.137123 0.774427
O O4 0.712530 0.139545 0.969517
O O5 0.768082 0.500000 0.957980
O O6 0.629921 0.605540 0.844094
O O7 0.853395 0.601747 0.835219
O O8 0.575877 0.656742 0.240603
O O9 0.648156 0.773984 0.371292
O O10 0.770743 0.655102 0.418025
O O11 0.000000 0.130804 0.000000
O O12 0.384413 0.910440 0.609372
O O13 0.491619 0.000000 0.780109
O O14 0.500000 0.186629 0.500000
#
# Coordination Sequence:
#
# PCOD8115064 Si02
#       6
#     8   8   8   8   8   8
#     4  12  22  41  66  98 127 165 214 271 322 379
#     4  11  25  43  63  93 135 173 208 261 327 387
#     4  11  23  40  64  98 126 165 212 262 326 374
#     4  12  23  38  66  96 127 165 210 264 316 388
#     4  11  23  41  65  94 127 169 218 267 320 378
#     4  11  22  42  64  92 131 169 213 268 318 372
#
# _framework density 20.491775000000001
#
# number of rings (size 3 to 8) (size 9 to 14) (size 15 to 20)
#    0.000    0.667    5.000    3.500    0.000    3.333 
#    0.000    0.833    0.000    2.000    0.000    0.000 
#    0.000    0.000    0.000    0.000    0.000    0.000 
#
# Total GULP energy -297585.153002 kJ/mol
# GULP energy per Si atom -12399.381375 kJ/mol
# Density = 2.044513 g / cm^3
# Si number density = 20.491775 Si / 1000 Ang^3
#
#
#
# Elastic Constant Matrix: (Units=GPa)
#
#
# Indices 1 2 3 4 5 6 
#
# 1 122.8241 43.9450 54.4492 0.0000 2.1511 0.0000
# 2 43.9450 64.1181 28.0254 0.0000 -8.0503 0.0000
# 3 54.4492 28.0254 116.6349 0.0000 7.3445 0.0000
# 4 0.0000 0.0000 0.0000 12.6236 0.0000 -13.8257
# 5 2.1511 -8.0503 7.3445 0.0000 46.7207 0.0000
# 6 0.0000 0.0000 0.0000 -13.8257 0.0000 22.9209
#
#
#
# Elastic Compliance Matrix: (Units=1/GPa)
#
#
# Indices 1 2 3 4 5 6 
#
# 1 0.012430 -0.006876 -0.004080 0.000000 -0.001116 0.000000
# 2 -0.006876 0.021886 -0.002329 0.000000 0.004454 0.000000
# 3 -0.004080 -0.002329 0.011162 0.000000 -0.001968 0.000000
# 4 0.000000 0.000000 0.000000 0.233422 0.000000 0.140798
# 5 -0.001116 0.004454 -0.001968 0.000000 0.022532 0.000000
# 6 0.000000 0.000000 0.000000 0.140798 0.000000 0.128557
#
#
# Mechanical properties :
#
#
# Convention : Reuss Voigt Hill
#
# Bulk Modulus (GPa) = 52.89003 61.82404 57.35704
# Shear Modulus (GPa) = 10.80231 28.26355 19.53293
#
# Velocity S-wave (km/s) = 2.29847 3.71787 3.09076
# Velocity P-wave (km/s) = 5.73676 6.97609 6.38655
#
# Compressibility (1/GPa) = 0.01890715
#
# Stress axis : x y z
#
# Youngs Moduli (GPa) = 80.44841 45.69086 89.58711
#
# Poissons Ratio (x) = 0.31417 0.36556
# Poissons Ratio (y) = 0.55316 0.20868
# Poissons Ratio (z) = 0.32827 0.10643
#
# Static dielectric constant tensor:
#      x y z
#    x 4.064780 0.000000 0.160040 
#    y 0.000000 3.512320 0.000000 
#    z 0.160040 0.000000 3.944340 
# 
# 
# High freq. dielectric constant tensor:
#      x y z
#    x 1.819580 0.000000 -0.000610 
#    y 0.000000 1.776900 0.000000 
#    z -0.000610 0.000000 1.810270 
# 
# From -- ./inp_files/131233.got.cif
#   From: 2010.06.25/outbox.cif.g09.slc.cpg/sg12_66_cif.got.tgz:131233.got - 2010.06.28 00:19:55.
