data_PCOD8115219
_publ_section_title
;
Structure prediction by ZEFSAII (Michael W. Deem and Ramdas Pophale) SiO2 
 PCOD8115219
Probable space group: C 2/M
;
_chemical_formula_sum "Si O2"
_cell_formula_units_Z 40
_cell_length_a 14.579163
_cell_length_b 8.407848
_cell_length_c 30.219248
_cell_angle_alpha 90.000000
_cell_angle_beta 146.785591
_cell_angle_gamma 90.000000
_cell_volume 2029.094272
_symmetry_space_group_name_H-M "C 2/M"
_symmetry_group_IT_number 12
_symmetry_cell_setting 'monoclinic'
loop_
_space_group_symop_operation_xyz
x,y,z
-x,y,-z
-x,-y,-z
x,-y,z
1/2+x,1/2+y,z
1/2-x,1/2+y,-z
1/2-x,1/2-y,-z
1/2+x,1/2-y,z
loop_
_atom_site_type_symbol
_atom_site_label
_atom_site_fract_x
_atom_site_fract_y
_atom_site_fract_z
Si Si1 0.611863 0.687808 0.505029
Si Si2 0.679221 0.684309 0.091391
Si Si3 0.295457 0.815666 0.804432
Si Si4 0.360538 0.315463 0.084311
Si Si5 0.542901 0.687887 0.378924
O O1 0.500000 0.760678 0.500000
O O2 0.599416 0.500000 0.501849
O O3 0.544617 0.750767 0.430358
O O4 0.804955 0.738966 0.588146
O O5 0.677313 0.500000 0.104410
O O6 0.725593 0.791612 0.151861
O O7 0.819765 0.716191 0.111623
O O8 0.500000 0.737602 0.000000
O O9 0.444998 0.706886 0.847262
O O10 0.128811 0.755745 0.712670
O O11 0.332152 0.000000 0.809112
O O12 0.319425 0.500000 0.074770
O O13 0.250000 0.250000 0.000000
O O14 0.562552 0.500000 0.385327
#
# Coordination Sequence:
#
# PCOD8115219 Si02
#       5
#     8   8   8   8   8
#     4   9  18  35  60  86 115 153 191 230 281 342
#     4  11  23  39  60  84 111 149 198 248 296 348
#     4  11  23  39  59  85 121 158 196 246 294 347
#     4  12  24  39  60  85 114 152 197 243 295 350
#     4   9  20  37  56  85 119 150 189 236 286 339
#
# _framework density 19.713228000000001
#
# number of rings (size 3 to 8) (size 9 to 14) (size 15 to 20)
#    0.000    1.600    2.000    3.000    0.000    4.400 
#    0.000    2.000    0.000    0.000    0.000    0.000 
#    0.000    0.000    0.000    0.000    0.000    0.000 
#
# Total GULP energy -248088.142385 kJ/mol
# GULP energy per Si atom -12404.407119 kJ/mol
# Density = 1.966836 g / cm^3
# Si number density = 19.713228 Si / 1000 Ang^3
#
#
#
# Elastic Constant Matrix: (Units=GPa)
#
#
# Indices 1 2 3 4 5 6 
#
# 1 149.4168 7.6292 57.5820 0.0000 9.6393 0.0000
# 2 7.6292 41.4946 22.3880 0.0000 1.6677 0.0000
# 3 57.5820 22.3880 145.6292 0.0000 10.1202 0.0000
# 4 0.0000 0.0000 0.0000 29.2145 0.0000 3.8649
# 5 9.6393 1.6677 10.1202 0.0000 25.2070 0.0000
# 6 0.0000 0.0000 0.0000 3.8649 0.0000 30.5068
#
#
#
# Elastic Compliance Matrix: (Units=1/GPa)
#
#
# Indices 1 2 3 4 5 6 
#
# 1 0.007980 0.000262 -0.003068 0.000000 -0.001837 0.000000
# 2 0.000262 0.026288 -0.004132 0.000000 -0.000180 0.000000
# 3 -0.003068 -0.004132 0.008862 0.000000 -0.002111 0.000000
# 4 0.000000 0.000000 0.000000 0.034813 0.000000 -0.004411
# 5 -0.001837 -0.000180 -0.002111 0.000000 0.041234 0.000000
# 6 0.000000 0.000000 0.000000 -0.004411 0.000000 0.033338
#
#
# Mechanical properties :
#
#
# Convention : Reuss Voigt Hill
#
# Bulk Modulus (GPa) = 34.18416 56.85988 45.52202
# Shear Modulus (GPa) = 28.38597 33.58175 30.98386
#
# Velocity S-wave (km/s) = 3.79878 4.13184 3.96880
# Velocity P-wave (km/s) = 6.05139 7.18811 6.64411
#
# Compressibility (1/GPa) = 0.02925332
#
# Stress axis : x y z
#
# Youngs Moduli (GPa) = 125.31068 38.03983 112.84345
#
# Poissons Ratio (x) = -0.00996 0.34620
# Poissons Ratio (y) = -0.03282 0.46631
# Poissons Ratio (z) = 0.38445 0.15720
#
# Static dielectric constant tensor:
#      x y z
#    x 3.784580 0.000000 -0.052040 
#    y 0.000000 3.505920 0.000000 
#    z -0.052040 0.000000 3.761680 
# 
# 
# High freq. dielectric constant tensor:
#      x y z
#    x 1.777920 0.000000 0.001380 
#    y 0.000000 1.765050 0.000000 
#    z 0.001380 0.000000 1.764750 
# 
# From -- ./inp_files/211332.got.cif
#   From: 2010.06.25/outbox.cif.g09.slc.cpg/sg12_106_cif.got.tgz:211332.got - 2010.06.28 00:19:55.
