data_PCOD8115902
_publ_section_title
;
Structure prediction by ZEFSAII (Michael W. Deem and Ramdas Pophale) SiO2 
 PCOD8115902
Probable space group: C 2/M
;
_chemical_formula_sum "Si O2"
_cell_formula_units_Z 48
_cell_length_a 22.637729
_cell_length_b 8.902695
_cell_length_c 19.861596
_cell_angle_alpha 90.000000
_cell_angle_beta 136.159463
_cell_angle_gamma 90.000000
_cell_volume 2772.583420
_symmetry_space_group_name_H-M "C 2/M"
_symmetry_group_IT_number 12
_symmetry_cell_setting 'monoclinic'
loop_
_space_group_symop_operation_xyz
x,y,z
-x,y,-z
-x,-y,-z
x,-y,z
1/2+x,1/2+y,z
1/2-x,1/2+y,-z
1/2-x,1/2-y,-z
1/2+x,1/2-y,z
loop_
_atom_site_type_symbol
_atom_site_label
_atom_site_fract_x
_atom_site_fract_y
_atom_site_fract_z
Si Si1 0.597041 0.179840 0.726810
Si Si2 0.658765 0.322775 0.913837
Si Si3 0.061171 0.325814 0.951889
Si Si4 0.376787 0.827136 0.850620
Si Si5 0.204030 0.678180 0.687169
Si Si6 0.443230 0.836262 0.519131
O O1 0.617187 0.262299 0.811963
O O2 0.668413 0.228066 0.730849
O O3 0.503296 0.241081 0.625230
O O4 0.596370 0.000000 0.735987
O O5 0.669942 0.500000 0.918847
O O6 0.596746 0.281479 0.923847
O O7 0.750000 0.250000 0.000000
O O8 0.079883 0.500000 0.950482
O O9 0.960112 0.297658 0.874154
O O10 0.105913 0.278984 0.058379
O O11 0.300072 0.732441 0.756147
O O12 0.350543 0.000000 0.826772
O O13 0.199937 0.500000 0.678331
O O14 0.144196 0.746771 0.577182
O O15 0.500000 0.857611 0.500000
O O16 0.418496 0.000000 0.527357
#
# Coordination Sequence:
#
# PCOD8115902 Si02
#       6
#     8   8   8   8   8   8
#     4   9  17  31  50  71  98 131 161 192 234 280
#     4  12  24  35  49  71  98 127 159 194 233 279
#     4   9  19  36  52  68  94 127 161 194 235 284
#     4   9  18  32  51  72  95 124 156 196 241 282
#     4   9  16  27  48  76 100 124 158 196 233 280
#     4   7  12  25  45  69  96 125 157 192 232 278
#
# _framework density 17.312373000000001
#
# number of rings (size 3 to 8) (size 9 to 14) (size 15 to 20)
#    0.000    2.833    0.000    5.500    0.000    4.667 
#    0.000    2.500    0.000    4.000    0.000    0.000 
#    0.000    0.000    0.000    0.000    0.000    0.000 
#
# Total GULP energy -297374.903824 kJ/mol
# GULP energy per Si atom -12390.620993 kJ/mol
# Density = 1.727297 g / cm^3
# Si number density = 17.312373 Si / 1000 Ang^3
#
#
#
# Elastic Constant Matrix: (Units=GPa)
#
#
# Indices 1 2 3 4 5 6 
#
# 1 74.0555 32.5079 54.4552 0.0000 2.5208 0.0000
# 2 32.5079 57.0452 45.3507 0.0000 -0.6978 0.0000
# 3 54.4552 45.3507 153.8812 0.0000 11.4657 0.0000
# 4 0.0000 0.0000 0.0000 20.6625 0.0000 3.6934
# 5 2.5208 -0.6978 11.4657 0.0000 27.1639 0.0000
# 6 0.0000 0.0000 0.0000 3.6934 0.0000 22.7519
#
#
#
# Elastic Compliance Matrix: (Units=1/GPa)
#
#
# Indices 1 2 3 4 5 6 
#
# 1 0.020583 -0.007756 -0.004998 0.000000 0.000000 0.000000
# 2 -0.007756 0.026153 -0.005231 0.000000 0.003600 0.000000
# 3 -0.004998 -0.005231 0.010102 0.000000 -0.003935 0.000000
# 4 0.000000 0.000000 0.000000 0.049843 0.000000 -0.008091
# 5 0.000000 0.003600 -0.003935 0.000000 0.038567 0.000000
# 6 0.000000 0.000000 0.000000 -0.008091 0.000000 0.045266
#
#
# Mechanical properties :
#
#
# Convention : Reuss Voigt Hill
#
# Bulk Modulus (GPa) = 47.92167 61.06772 54.49470
# Shear Modulus (GPa) = 21.41878 24.29354 22.85616
#
# Velocity S-wave (km/s) = 3.52119 3.75006 3.63743
# Velocity P-wave (km/s) = 6.65375 7.35535 7.01333
#
# Compressibility (1/GPa) = 0.02086738
#
# Stress axis : x y z
#
# Youngs Moduli (GPa) = 48.58288 38.23724 98.98971
#
# Poissons Ratio (x) = 0.29657 0.49477
# Poissons Ratio (y) = 0.37682 0.51781
# Poissons Ratio (z) = 0.24283 0.20002
#
# Static dielectric constant tensor:
#      x y z
#    x 3.013780 0.000000 0.115290 
#    y 0.000000 2.954560 0.000000 
#    z 0.115290 0.000000 3.626410 
# 
# 
# High freq. dielectric constant tensor:
#      x y z
#    x 1.639860 0.000000 0.011410 
#    y 0.000000 1.642880 0.000000 
#    z 0.011410 0.000000 1.686380 
# 
# From -- ./inp_files/280778.got.cif
#   From: 2010.06.25/outbox.cif.g09.slc.cpg/sg12_141_cif.got.tgz:280778.got - 2010.06.28 00:19:55.
