data_PCOD8115245
_publ_section_title
;
Structure prediction by ZEFSAII (Michael W. Deem and Ramdas Pophale) SiO2 
 PCOD8115245
Probable space group: C 2/M
;
_chemical_formula_sum "Si O2"
_cell_formula_units_Z 56
_cell_length_a 15.923252
_cell_length_b 8.697979
_cell_length_c 22.325820
_cell_angle_alpha 90.000000
_cell_angle_beta 121.569311
_cell_angle_gamma 90.000000
_cell_volume 2634.516635
_symmetry_space_group_name_H-M "C 2/M"
_symmetry_group_IT_number 12
_symmetry_cell_setting 'monoclinic'
loop_
_space_group_symop_operation_xyz
x,y,z
-x,y,-z
-x,-y,-z
x,-y,z
1/2+x,1/2+y,z
1/2-x,1/2+y,-z
1/2-x,1/2-y,-z
1/2+x,1/2-y,z
loop_
_atom_site_type_symbol
_atom_site_label
_atom_site_fract_x
_atom_site_fract_y
_atom_site_fract_z
Si Si1 0.842447 0.178839 0.067661
Si Si2 0.721636 0.676345 0.350226
Si Si3 0.544102 0.179357 0.345290
Si Si4 0.065032 0.177735 0.582367
Si Si5 0.795008 0.175615 0.790214
Si Si6 0.526572 0.820494 0.077172
Si Si7 0.619114 0.324613 0.783151
O O1 0.829600 0.201088 0.133652
O O2 0.936919 0.276531 0.085771
O O3 0.854701 0.000000 0.054898
O O4 0.750000 0.250000 0.000000
O O5 0.722147 0.500000 0.370779
O O6 0.656528 0.769353 0.374202
O O7 0.833428 0.732818 0.389482
O O8 0.671414 0.695047 0.265949
O O9 0.497922 0.264210 0.384897
O O10 0.478151 0.221251 0.262357
O O11 0.542893 0.000000 0.357622
O O12 0.000000 0.206579 0.500000
O O13 0.090082 0.000000 0.601743
O O14 0.879405 0.225302 0.867276
O O15 0.698880 0.280248 0.762918
O O16 0.766444 0.000000 0.793668
O O17 0.550814 0.000000 0.091510
O O18 0.500000 0.772802 0.000000
O O19 0.586238 0.500000 0.762255
#
# Coordination Sequence:
#
# PCOD8115245 Si02
#       7
#     8   8   8   8   8   8   8
#     4  11  24  40  59  86 119 161 210 265 327 390
#     4  11  24  43  68 100 136 175 223 275 329 396
#     4  12  25  42  68 101 135 177 224 272 332 396
#     4  11  25  46  72 102 137 177 221 273 334 398
#     4  11  23  39  63  94 125 164 214 267 328 390
#     4  11  24  40  58  84 119 162 211 264 325 389
#     4  11  23  40  63  91 127 167 213 270 328 389
#
# _framework density 21.256271000000002
#
# number of rings (size 3 to 8) (size 9 to 14) (size 15 to 20)
#    0.000    0.857    1.429    5.571    0.000   13.714 
#    0.000    0.000    0.000    0.000    0.000    0.000 
#    0.000    0.000    0.000    0.000    0.000    0.000 
#
# Total GULP energy -347345.621972 kJ/mol
# GULP energy per Si atom -12405.200785 kJ/mol
# Density = 2.120789 g / cm^3
# Si number density = 21.256271 Si / 1000 Ang^3
#
#
#
# Elastic Constant Matrix: (Units=GPa)
#
#
# Indices 1 2 3 4 5 6 
#
# 1 110.6088 10.7151 22.2601 0.0000 0.8506 0.0000
# 2 10.7151 61.4448 44.3549 0.0000 -5.6336 0.0000
# 3 22.2601 44.3549 85.5989 0.0000 0.0326 0.0000
# 4 0.0000 0.0000 0.0000 32.9304 0.0000 4.0643
# 5 0.8506 -5.6336 0.0326 0.0000 22.6793 0.0000
# 6 0.0000 0.0000 0.0000 4.0643 0.0000 41.2650
#
#
#
# Elastic Compliance Matrix: (Units=1/GPa)
#
#
# Indices 1 2 3 4 5 6 
#
# 1 0.009544 0.000157 -0.002563 0.000000 -0.000315 0.000000
# 2 0.000157 0.026991 -0.014029 0.000000 0.006719 0.000000
# 3 -0.002563 -0.014029 0.019620 0.000000 -0.003417 0.000000
# 4 0.000000 0.000000 0.000000 0.030741 0.000000 -0.003028
# 5 -0.000315 0.006719 -0.003417 0.000000 0.045779 0.000000
# 6 0.000000 0.000000 0.000000 -0.003028 0.000000 0.024532
#
#
# Mechanical properties :
#
#
# Convention : Reuss Voigt Hill
#
# Bulk Modulus (GPa) = 42.94851 45.81252 44.38052
# Shear Modulus (GPa) = 25.27331 31.39646 28.33488
#
# Velocity S-wave (km/s) = 3.45190 3.84740 3.65501
# Velocity P-wave (km/s) = 6.01136 6.42930 6.22384
#
# Compressibility (1/GPa) = 0.02328370
#
# Stress axis : x y z
#
# Youngs Moduli (GPa) = 104.77877 37.05002 50.96907
#
# Poissons Ratio (x) = -0.00582 0.13064
# Poissons Ratio (y) = -0.01645 0.71505
# Poissons Ratio (z) = 0.26856 0.51978
#
# Static dielectric constant tensor:
#      x y z
#    x 3.851050 0.000000 -0.089230 
#    y 0.000000 3.945410 0.000000 
#    z -0.089230 0.000000 3.857850 
# 
# 
# High freq. dielectric constant tensor:
#      x y z
#    x 1.842260 0.000000 0.001320 
#    y 0.000000 1.845850 0.000000 
#    z 0.001320 0.000000 1.838920 
# 
# From -- ./inp_files/339080.got.cif
#   From: 2010.06.25/outbox.cif.g09.slc.cpg/sg12_170_cif.got.tgz:339080.got - 2010.06.28 00:19:55.
