data_PCOD8115847
_publ_section_title
;
Structure prediction by ZEFSAII (Michael W. Deem and Ramdas Pophale) SiO2 
 PCOD8115847
Probable space group: C 2/M
;
_chemical_formula_sum "Si O2"
_cell_formula_units_Z 60
_cell_length_a 18.417724
_cell_length_b 18.852225
_cell_length_c 10.339401
_cell_angle_alpha 90.000000
_cell_angle_beta 124.309418
_cell_angle_gamma 90.000000
_cell_volume 2965.356921
_symmetry_space_group_name_H-M "C 2/M"
_symmetry_group_IT_number 12
_symmetry_cell_setting 'monoclinic'
loop_
_space_group_symop_operation_xyz
x,y,z
-x,y,-z
-x,-y,-z
x,-y,z
1/2+x,1/2+y,z
1/2-x,1/2+y,-z
1/2-x,1/2-y,-z
1/2+x,1/2-y,z
loop_
_atom_site_type_symbol
_atom_site_label
_atom_site_fract_x
_atom_site_fract_y
_atom_site_fract_z
Si Si1 0.274514 0.578575 0.077734
Si Si2 0.829715 0.575967 0.412313
Si Si3 0.509472 0.226409 0.746059
Si Si4 0.583307 0.079233 0.766246
Si Si5 0.500000 0.306798 0.000000
Si Si6 0.360909 0.422673 0.899186
Si Si7 0.810259 0.774132 0.182198
Si Si8 0.821830 0.723264 0.473785
O O1 0.284387 0.500000 0.151112
O O2 0.295278 0.642279 0.197912
O O3 0.176394 0.589571 0.928653
O O4 0.346737 0.588374 0.037754
O O5 0.848147 0.500000 0.499088
O O6 0.901955 0.587695 0.372445
O O7 0.733174 0.576185 0.258825
O O8 0.835699 0.639877 0.519184
O O9 0.516520 0.140013 0.748929
O O10 0.515459 0.254045 0.897463
O O11 0.588251 0.259218 0.742894
O O12 0.418290 0.256400 0.594132
O O13 0.545710 0.000000 0.758673
O O14 0.417086 0.358719 0.895397
O O15 0.406062 0.500000 0.920694
O O16 0.786342 0.733695 0.291244
O O17 0.750000 0.750000 0.000000
O O18 0.750000 0.750000 0.500000
#
# Coordination Sequence:
#
# PCOD8115847 Si02
#       8
#     8   8   8   8   4   8   8   8
#     4   9  17  33  60  91 121 159 205 252 307 375
#     4   9  18  36  62  85 116 159 206 252 316 376
#     4  12  25  38  62  94 128 165 212 259 316 371
#     4   9  18  35  61  92 120 155 206 258 308 374
#     4  12  23  34  57  88 126 168 210 252 309 370
#     4   9  17  32  55  88 119 153 205 265 309 356
#     4  12  22  41  69  91 125 169 212 254 314 379
#     4  12  27  42  61  93 133 165 209 268 318 363
#
# _framework density 20.233651999999999
#
# number of rings (size 3 to 8) (size 9 to 14) (size 15 to 20)
#    0.000    1.600    4.000    3.800    1.867    0.533 
#    0.000    2.333    0.000    3.200    0.000    0.000 
#    0.000    0.000    0.000    0.000    0.000    0.000 
#
# Total GULP energy -371745.700883 kJ/mol
# GULP energy per Si atom -12391.523363 kJ/mol
# Density = 2.018760 g / cm^3
# Si number density = 20.233652 Si / 1000 Ang^3
#
#
#
# Elastic Constant Matrix: (Units=GPa)
#
#
# Indices 1 2 3 4 5 6 
#
# 1 111.4096 51.3555 42.3252 0.0000 3.2008 0.0000
# 2 51.3555 152.2831 26.4680 0.0000 -4.9721 0.0000
# 3 42.3252 26.4680 57.8568 0.0000 -3.0838 0.0000
# 4 0.0000 0.0000 0.0000 24.5338 0.0000 -0.7896
# 5 3.2008 -4.9721 -3.0838 0.0000 28.2221 0.0000
# 6 0.0000 0.0000 0.0000 -0.7896 0.0000 32.4522
#
#
#
# Elastic Compliance Matrix: (Units=1/GPa)
#
#
# Indices 1 2 3 4 5 6 
#
# 1 0.013939 -0.003261 -0.008872 0.000000 -0.003125 0.000000
# 2 -0.003261 0.007920 -0.001150 0.000000 0.001639 0.000000
# 3 -0.008872 -0.001150 0.024486 0.000000 0.003479 0.000000
# 4 0.000000 0.000000 0.000000 0.040792 0.000000 0.000993
# 5 -0.003125 0.001639 0.003479 0.000000 0.036457 0.000000
# 6 0.000000 0.000000 0.000000 0.000993 0.000000 0.030839
#
#
# Mechanical properties :
#
#
# Convention : Reuss Voigt Hill
#
# Bulk Modulus (GPa) = 50.55914 62.42743 56.49328
# Shear Modulus (GPa) = 26.65354 30.46833 28.56094
#
# Velocity S-wave (km/s) = 3.63338 3.88471 3.76114
# Velocity P-wave (km/s) = 6.53023 7.14433 6.84417
#
# Compressibility (1/GPa) = 0.01977882
#
# Stress axis : x y z
#
# Youngs Moduli (GPa) = 71.73927 126.26506 40.83941
#
# Poissons Ratio (x) = 0.41173 0.36233
# Poissons Ratio (y) = 0.23393 0.04698
# Poissons Ratio (z) = 0.63648 0.14524
#
# Static dielectric constant tensor:
#      x y z
#    x 3.625490 0.000000 0.119300 
#    y 0.000000 4.435050 0.000000 
#    z 0.119300 0.000000 3.421340 
# 
# 
# High freq. dielectric constant tensor:
#      x y z
#    x 1.780360 0.000000 0.027840 
#    y 0.000000 1.813620 0.000000 
#    z 0.027840 0.000000 1.750200 
# 
# From -- ./inp_files/78056.got.cif
#   From: 2010.06.25/outbox.cif.g09.slc.cpg/sg12_40_cif.got.tgz:78056.got - 2010.06.28 00:19:55.
