data_PCOD8115474
_publ_section_title
;
Structure prediction by ZEFSAII (Michael W. Deem and Ramdas Pophale) SiO2 
 PCOD8115474
Probable space group: C 2/M
;
_chemical_formula_sum "Si O2"
_cell_formula_units_Z 48
_cell_length_a 25.323510
_cell_length_b 14.923257
_cell_length_c 11.243807
_cell_angle_alpha 90.000000
_cell_angle_beta 149.206865
_cell_angle_gamma 90.000000
_cell_volume 2175.303798
_symmetry_space_group_name_H-M "C 2/M"
_symmetry_group_IT_number 12
_symmetry_cell_setting 'monoclinic'
loop_
_space_group_symop_operation_xyz
x,y,z
-x,y,-z
-x,-y,-z
x,-y,z
1/2+x,1/2+y,z
1/2-x,1/2+y,-z
1/2-x,1/2-y,-z
1/2+x,1/2-y,z
loop_
_atom_site_type_symbol
_atom_site_label
_atom_site_fract_x
_atom_site_fract_y
_atom_site_fract_z
Si Si1 0.512474 0.149159 0.658908
Si Si2 0.074702 0.824702 0.410613
Si Si3 0.532024 0.000000 0.249620
Si Si4 0.729450 0.225790 0.094854
Si Si5 0.171899 0.500000 0.300388
Si Si6 0.138882 0.102522 0.041987
Si Si7 0.684619 0.661448 0.390033
O O1 0.500000 0.114550 0.500000
O O2 0.450723 0.238874 0.559984
O O3 0.459740 0.084260 0.649898
O O4 0.630916 0.163410 0.919432
O O5 0.185404 0.843309 0.685868
O O6 0.092887 0.814039 0.304411
O O7 0.978054 0.892280 0.238585
O O8 0.632267 0.000000 0.359914
O O9 0.425842 0.000000 0.973331
O O10 0.750000 0.250000 0.000000
O O11 0.714658 0.322456 0.132314
O O12 0.240598 0.587061 0.408529
O O13 0.178004 0.000000 0.095375
O O14 0.133216 0.123773 0.171049
O O15 0.750000 0.750000 0.500000
#
# Coordination Sequence:
#
# PCOD8115474 Si02
#       7
#     8   8   4   8   4   8   8
#     4  11  23  44  70  97 133 177 233 283 339 415
#     4  11  24  42  69  96 138 180 225 283 348 404
#     4  11  25  42  62 104 137 176 222 289 347 404
#     4  11  23  46  70  98 138 183 235 284 345 422
#     4  11  26  42  67 100 149 170 230 286 345 431
#     4  11  26  45  70 105 140 182 236 291 353 418
#     4  12  23  43  70 102 136 183 227 282 353 423
#
# _framework density 22.065884
#
# number of rings (size 3 to 8) (size 9 to 14) (size 15 to 20)
#    0.000    0.833    4.167    2.750    3.500    0.667 
#    3.000    0.833    0.000    0.000    0.000    0.000 
#    0.000    0.000    0.000    0.000    0.000    0.000 
#
# Total GULP energy -297404.536566 kJ/mol
# GULP energy per Si atom -12391.855690 kJ/mol
# Density = 2.201566 g / cm^3
# Si number density = 22.065884 Si / 1000 Ang^3
#
#
#
# Elastic Constant Matrix: (Units=GPa)
#
#
# Indices 1 2 3 4 5 6 
#
# 1 95.1543 -9.5996 6.2637 0.0000 -16.0950 0.0000
# 2 -9.5996 70.9692 19.7010 0.0000 -3.4134 0.0000
# 3 6.2637 19.7010 96.2658 0.0000 -5.4535 0.0000
# 4 0.0000 0.0000 0.0000 20.6685 0.0000 -12.8192
# 5 -16.0950 -3.4134 -5.4535 0.0000 38.5493 0.0000
# 6 0.0000 0.0000 0.0000 -12.8192 0.0000 24.9431
#
#
#
# Elastic Compliance Matrix: (Units=1/GPa)
#
#
# Indices 1 2 3 4 5 6 
#
# 1 0.011604 0.002055 -0.000898 0.000000 0.004900 0.000000
# 2 0.002055 0.015334 -0.003172 0.000000 0.001767 0.000000
# 3 -0.000898 -0.003172 0.011148 0.000000 0.000921 0.000000
# 4 0.000000 0.000000 0.000000 0.071022 0.000000 0.036501
# 5 0.004900 0.001767 0.000921 0.000000 0.028273 0.000000
# 6 0.000000 0.000000 0.000000 0.036501 0.000000 0.058850
#
#
# Mechanical properties :
#
#
# Convention : Reuss Voigt Hill
#
# Bulk Modulus (GPa) = 29.36349 32.79107 31.07728
# Shear Modulus (GPa) = 23.62796 33.23378 28.43087
#
# Velocity S-wave (km/s) = 3.27584 3.88508 3.59340
# Velocity P-wave (km/s) = 5.25778 5.91759 5.59742
#
# Compressibility (1/GPa) = 0.03405589
#
# Stress axis : x y z
#
# Youngs Moduli (GPa) = 86.17391 65.21464 89.70525
#
# Poissons Ratio (x) = -0.13399 0.08055
# Poissons Ratio (y) = -0.17705 0.28452
# Poissons Ratio (z) = 0.07738 0.20684
#
# Static dielectric constant tensor:
#      x y z
#    x 4.174550 0.000000 0.021810 
#    y 0.000000 3.381090 0.000000 
#    z 0.021810 0.000000 3.950230 
# 
# 
# High freq. dielectric constant tensor:
#      x y z
#    x 1.880060 0.000000 0.004840 
#    y 0.000000 1.850380 0.000000 
#    z 0.004840 0.000000 1.884790 
# 
# From -- ./inp_files/183701.got.cif
#   From: 2010.06.25/outbox.cif.g09.slc.cpg/sg12_92_cif.got.tgz:183701.got - 2010.06.28 00:19:55.
