data_PCOD8115557
_publ_section_title
;
Structure prediction by ZEFSAII (Michael W. Deem and Ramdas Pophale) SiO2 
 PCOD8115557
Probable space group: C 2/M
;
_chemical_formula_sum "Si O2"
_cell_formula_units_Z 56
_cell_length_a 14.999568
_cell_length_b 9.325571
_cell_length_c 22.739221
_cell_angle_alpha 90.000000
_cell_angle_beta 61.136589
_cell_angle_gamma 90.000000
_cell_volume 2785.616361
_symmetry_space_group_name_H-M "C 2/M"
_symmetry_group_IT_number 12
_symmetry_cell_setting 'monoclinic'
loop_
_space_group_symop_operation_xyz
x,y,z
-x,y,-z
-x,-y,-z
x,-y,z
1/2+x,1/2+y,z
1/2-x,1/2+y,-z
1/2-x,1/2-y,-z
1/2+x,1/2-y,z
loop_
_atom_site_type_symbol
_atom_site_label
_atom_site_fract_x
_atom_site_fract_y
_atom_site_fract_z
Si Si1 0.222003 0.655377 0.063543
Si Si2 0.180632 0.664374 0.805944
Si Si3 0.575654 0.659476 0.927377
Si Si4 0.224539 0.837267 0.342905
Si Si5 0.627081 0.829619 0.206510
Si Si6 0.296846 0.666832 0.430903
Si Si7 0.973087 0.835503 0.668786
O O1 0.199083 0.500000 0.043771
O O2 0.313916 0.648966 0.079769
O O3 0.126772 0.703711 0.135592
O O4 0.250000 0.750000 0.000000
O O5 0.182887 0.500000 0.826921
O O6 0.081713 0.741064 0.867056
O O7 0.183013 0.672403 0.734301
O O8 0.280241 0.746670 0.793920
O O9 0.536327 0.500000 0.922219
O O10 0.500000 0.728234 0.000000
O O11 0.248637 0.727067 0.386575
O O12 0.115204 0.794438 0.349646
O O13 0.218881 0.000000 0.369266
O O14 0.529730 0.764674 0.271499
O O15 0.635322 0.000000 0.214316
O O16 0.268453 0.500000 0.443962
O O17 0.250000 0.750000 0.500000
O O18 0.418018 0.690090 0.395519
O O19 0.958641 0.000000 0.693491
#
# Coordination Sequence:
#
# PCOD8115557 Si02
#       7
#     8   8   8   8   8   8   8
#     4   9  18  31  47  70 100 136 174 219 273 325
#     4   9  17  31  53  78 105 141 182 226 277 333
#     4   9  18  33  50  70 101 138 181 230 278 325
#     4   9  19  38  61  84 114 150 189 233 283 337
#     4   9  17  31  53  78 104 138 182 229 276 326
#     4  11  24  41  61  88 121 153 189 233 283 340
#     4   9  20  39  61  85 114 151 191 230 281 340
#
# _framework density 20.103270999999999
#
# number of rings (size 3 to 8) (size 9 to 14) (size 15 to 20)
#    0.000    2.714    0.000    3.000    0.000    7.714 
#    2.571    2.857    0.000    0.000    0.000    0.000 
#    0.000    0.000    0.000    0.000    0.000    0.000 
#
# Total GULP energy -346912.601341 kJ/mol
# GULP energy per Si atom -12389.735762 kJ/mol
# Density = 2.005752 g / cm^3
# Si number density = 20.103271 Si / 1000 Ang^3
#
#
#
# Elastic Constant Matrix: (Units=GPa)
#
#
# Indices 1 2 3 4 5 6 
#
# 1 53.5687 36.5142 41.9635 0.0000 2.0720 0.0000
# 2 36.5142 135.2913 98.4750 0.0000 6.8148 0.0000
# 3 41.9635 98.4750 172.1346 0.0000 1.0860 0.0000
# 4 0.0000 0.0000 0.0000 38.3484 0.0000 -1.3721
# 5 2.0720 6.8148 1.0860 0.0000 25.0101 0.0000
# 6 0.0000 0.0000 0.0000 -1.3721 0.0000 22.6489
#
#
#
# Elastic Compliance Matrix: (Units=1/GPa)
#
#
# Indices 1 2 3 4 5 6 
#
# 1 0.024196 -0.003769 -0.003737 0.000000 -0.000815 0.000000
# 2 -0.003769 0.013503 -0.006787 0.000000 -0.003073 0.000000
# 3 -0.003737 -0.006787 0.010592 0.000000 0.001699 0.000000
# 4 0.000000 0.000000 0.000000 0.026133 0.000000 0.001583
# 5 -0.000815 -0.003073 0.001699 0.000000 0.040815 0.000000
# 6 0.000000 0.000000 0.000000 0.001583 0.000000 0.044248
#
#
# Mechanical properties :
#
#
# Convention : Reuss Voigt Hill
#
# Bulk Modulus (GPa) = 50.74729 79.43332 65.09031
# Shear Modulus (GPa) = 25.68812 29.47095 27.57954
#
# Velocity S-wave (km/s) = 3.57852 3.83296 3.70793
# Velocity P-wave (km/s) = 6.50942 7.69332 7.12600
#
# Compressibility (1/GPa) = 0.01970549
#
# Stress axis : x y z
#
# Youngs Moduli (GPa) = 41.32952 74.05533 94.40750
#
# Poissons Ratio (x) = 0.27911 0.35282
# Poissons Ratio (y) = 0.15577 0.64073
# Poissons Ratio (z) = 0.15446 0.50260
#
# Static dielectric constant tensor:
#      x y z
#    x 3.297560 0.000000 -0.198510 
#    y 0.000000 3.918730 0.000000 
#    z -0.198510 0.000000 4.296260 
# 
# 
# High freq. dielectric constant tensor:
#      x y z
#    x 1.749190 0.000000 -0.009230 
#    y 0.000000 1.788460 0.000000 
#    z -0.009230 0.000000 1.799380 
# 
# From -- ./inp_files/338465.got.cif
#   From: 2010.06.25/outbox.cif.g09.slc.cpg/sg12_170_cif.got.tgz:338465.got - 2010.06.28 00:19:55.
