data_PCOD8115383
_publ_section_title
;
Structure prediction by ZEFSAII (Michael W. Deem and Ramdas Pophale) SiO2 
 PCOD8115383
Probable space group: C 2/M
;
_chemical_formula_sum "Si O2"
_cell_formula_units_Z 48
_cell_length_a 17.064414
_cell_length_b 28.096156
_cell_length_c 9.488448
_cell_angle_alpha 90.000000
_cell_angle_beta 146.935811
_cell_angle_gamma 90.000000
_cell_volume 2481.935698
_symmetry_space_group_name_H-M "C 2/M"
_symmetry_group_IT_number 12
_symmetry_cell_setting 'monoclinic'
loop_
_space_group_symop_operation_xyz
x,y,z
-x,y,-z
-x,-y,-z
x,-y,z
1/2+x,1/2+y,z
1/2-x,1/2+y,-z
1/2-x,1/2-y,-z
1/2+x,1/2-y,z
loop_
_atom_site_type_symbol
_atom_site_label
_atom_site_fract_x
_atom_site_fract_y
_atom_site_fract_z
Si Si1 0.825547 0.445800 0.583563
Si Si2 0.854920 0.125848 0.865074
Si Si3 0.330587 0.734523 0.759690
Si Si4 0.863361 0.115040 0.209052
Si Si5 0.163972 0.446326 0.084543
Si Si6 0.836943 0.223300 0.247241
O O1 0.772246 0.500000 0.476177
O O2 0.760475 0.410298 0.371206
O O3 0.784706 0.429831 0.681660
O O4 0.994428 0.443019 0.818311
O O5 0.801409 0.180093 0.763098
O O6 0.881891 0.112941 0.068776
O O7 0.000000 0.117415 0.000000
O O8 0.250000 0.750000 0.500000
O O9 0.254874 0.770360 0.751599
O O10 0.500000 0.744419 0.000000
O O11 0.726542 0.085326 0.053134
O O12 0.839670 0.168423 0.218897
O O13 0.000000 0.094053 0.500000
O O14 0.216238 0.500000 0.138341
O O15 0.000000 0.243561 0.500000
O O16 0.750000 0.250000 0.000000
#
# Coordination Sequence:
#
# PCOD8115383 Si02
#       6
#     8   8   8   8   8   8
#     4   9  20  40  64  90 123 159 199 253 306 364
#     4  11  24  41  61  89 123 161 205 252 305 369
#     4  11  25  42  63  91 125 166 210 256 307 372
#     4  11  24  40  63  88 122 163 202 254 308 363
#     4   9  20  40  64  91 122 158 202 250 306 367
#     4  11  23  42  63  89 125 164 206 257 308 362
#
# _framework density 19.339742999999999
#
# number of rings (size 3 to 8) (size 9 to 14) (size 15 to 20)
#    0.000    1.667    1.667    3.000    9.333    4.667 
#    0.000    1.667    0.000    0.000    0.000    0.000 
#    0.000    0.000    0.000    0.000    0.000    0.000 
#
# Total GULP energy -297534.305178 kJ/mol
# GULP energy per Si atom -12397.262716 kJ/mol
# Density = 1.929572 g / cm^3
# Si number density = 19.339743 Si / 1000 Ang^3
#
#
#
# Elastic Constant Matrix: (Units=GPa)
#
#
# Indices 1 2 3 4 5 6 
#
# 1 156.8607 45.5230 59.0590 0.0000 -17.6230 0.0000
# 2 45.5230 59.8887 49.9525 0.0000 -2.8791 0.0000
# 3 59.0590 49.9525 127.0479 0.0000 -18.2429 0.0000
# 4 0.0000 0.0000 0.0000 53.2058 0.0000 -3.8938
# 5 -17.6230 -2.8791 -18.2429 0.0000 38.5056 0.0000
# 6 0.0000 0.0000 0.0000 -3.8938 0.0000 38.5318
#
#
#
# Elastic Compliance Matrix: (Units=1/GPa)
#
#
# Indices 1 2 3 4 5 6 
#
# 1 0.008826 -0.005197 -0.001647 0.000000 0.002870 0.000000
# 2 -0.005197 0.028227 -0.009357 0.000000 -0.004701 0.000000
# 3 -0.001647 -0.009357 0.012991 0.000000 0.004701 0.000000
# 4 0.000000 0.000000 0.000000 0.018935 0.000000 0.001913
# 5 0.002870 -0.004701 0.004701 0.000000 0.029160 0.000000
# 6 0.000000 0.000000 0.000000 0.001913 0.000000 0.026146
#
#
# Mechanical properties :
#
#
# Convention : Reuss Voigt Hill
#
# Bulk Modulus (GPa) = 56.68760 72.54070 64.61415
# Shear Modulus (GPa) = 30.75634 38.66615 34.71125
#
# Velocity S-wave (km/s) = 3.99221 4.47622 4.24112
# Velocity P-wave (km/s) = 7.11515 8.01906 7.58059
#
# Compressibility (1/GPa) = 0.01764054
#
# Stress axis : x y z
#
# Youngs Moduli (GPa) = 113.30159 35.42724 76.97613
#
# Poissons Ratio (x) = 0.18411 0.12681
# Poissons Ratio (y) = 0.58881 0.72030
# Poissons Ratio (z) = 0.18665 0.33151
#
# Static dielectric constant tensor:
#      x y z
#    x 3.637860 0.000000 0.226860 
#    y 0.000000 3.576020 0.000000 
#    z 0.226860 0.000000 4.596020 
# 
# 
# High freq. dielectric constant tensor:
#      x y z
#    x 1.765750 0.000000 -0.003590 
#    y 0.000000 1.754100 0.000000 
#    z -0.003590 0.000000 1.758780 
# 
# From -- ./inp_files/67402.got.cif
#   From: 2010.06.25/outbox.cif.g09.slc.cpg/sg12_34_cif.got.tgz:67402.got - 2010.06.28 00:19:55.
