data_PCOD8115227
_publ_section_title
;
Structure prediction by ZEFSAII (Michael W. Deem and Ramdas Pophale) SiO2 
 PCOD8115227
Probable space group: C 2/M
;
_chemical_formula_sum "Si O2"
_cell_formula_units_Z 52
_cell_length_a 18.376195
_cell_length_b 16.531309
_cell_length_c 7.323614
_cell_angle_alpha 90.000000
_cell_angle_beta 95.377037
_cell_angle_gamma 90.000000
_cell_volume 2214.996247
_symmetry_space_group_name_H-M "C 2/M"
_symmetry_group_IT_number 12
_symmetry_cell_setting 'monoclinic'
loop_
_space_group_symop_operation_xyz
x,y,z
-x,y,-z
-x,-y,-z
x,-y,z
1/2+x,1/2+y,z
1/2-x,1/2+y,-z
1/2-x,1/2-y,-z
1/2+x,1/2-y,z
loop_
_atom_site_type_symbol
_atom_site_label
_atom_site_fract_x
_atom_site_fract_y
_atom_site_fract_z
Si Si1 0.672763 0.677241 0.035364
Si Si2 0.339584 0.090919 0.460990
Si Si3 0.414322 0.804543 0.216613
Si Si4 0.500000 0.700690 0.500000
Si Si5 0.449523 0.408085 0.818073
Si Si6 0.443379 0.091695 0.798729
Si Si7 0.793924 0.334754 0.797886
O O1 0.613638 0.735449 0.924789
O O2 0.728411 0.632214 0.910177
O O3 0.633589 0.606161 0.137220
O O4 0.713297 0.737016 0.189033
O O5 0.348469 0.136562 0.269975
O O6 0.419474 0.090046 0.579902
O O7 0.282459 0.135111 0.586799
O O8 0.311487 0.000000 0.418154
O O9 0.437435 0.757497 0.405409
O O10 0.481832 0.857877 0.150169
O O11 0.534680 0.647165 0.350027
O O12 0.460898 0.500000 0.760256
O O13 0.500000 0.384342 0.000000
O O14 0.374136 0.133460 0.892237
O O15 0.454828 0.000000 0.871767
#
# Coordination Sequence:
#
# PCOD8115227 Si02
#       7
#     8   8   8   4   8   8   8
#     4  11  23  39  60  88 123 163 215 263 314 379
#     4   9  18  35  57  86 124 166 205 247 311 377
#     4  12  20  33  63  95 124 162 205 265 315 373
#     4  12  21  38  63  94 124 158 202 266 327 374
#     4  11  24  41  63  90 121 158 207 267 320 369
#     4   9  18  34  58  87 121 161 201 246 311 378
#     4   9  21  39  59  82 119 172 210 253 313 377
#
# _framework density 23.476336
#
# number of rings (size 3 to 8) (size 9 to 14) (size 15 to 20)
#    0.923    0.769    3.077    2.538    0.000    3.077 
#    0.000    3.846    0.000    5.538    0.000    0.000 
#    0.000    0.000    0.000    0.000    0.000    0.000 
#
# Total GULP energy -322197.976195 kJ/mol
# GULP energy per Si atom -12392.229854 kJ/mol
# Density = 2.342290 g / cm^3
# Si number density = 23.476336 Si / 1000 Ang^3
#
#
#
# Elastic Constant Matrix: (Units=GPa)
#
#
# Indices 1 2 3 4 5 6 
#
# 1 76.0751 36.6361 28.7883 0.0000 -35.9087 0.0000
# 2 36.6361 100.5424 48.6923 0.0000 -26.8193 0.0000
# 3 28.7883 48.6923 84.4015 0.0000 -39.9536 0.0000
# 4 0.0000 0.0000 0.0000 7.0107 0.0000 -3.5072
# 5 -35.9087 -26.8193 -39.9536 0.0000 45.8153 0.0000
# 6 0.0000 0.0000 0.0000 -3.5072 0.0000 6.5208
#
#
#
# Elastic Compliance Matrix: (Units=1/GPa)
#
#
# Indices 1 2 3 4 5 6 
#
# 1 0.022816 -0.005363 0.003901 0.000000 0.018145 0.000000
# 2 -0.005363 0.015164 -0.008016 0.000000 -0.002317 0.000000
# 3 0.003901 -0.008016 0.024469 0.000000 0.019704 0.000000
# 4 0.000000 0.000000 0.000000 0.195147 0.000000 0.104959
# 5 0.018145 -0.002317 0.019704 0.000000 0.051875 0.000000
# 6 0.000000 0.000000 0.000000 0.104959 0.000000 0.209808
#
#
# Mechanical properties :
#
#
# Convention : Reuss Voigt Hill
#
# Bulk Modulus (GPa) = 22.99148 54.36138 38.67643
# Shear Modulus (GPa) = 9.04594 21.66283 15.35439
#
# Velocity S-wave (km/s) = 1.96509 3.04098 2.56019
# Velocity P-wave (km/s) = 3.86827 5.96122 5.02492
#
# Compressibility (1/GPa) = 0.04349438
#
# Stress axis : x y z
#
# Youngs Moduli (GPa) = 43.82843 65.94411 40.86744
#
# Poissons Ratio (x) = 0.35366 -0.15943
# Poissons Ratio (y) = 0.23505 0.32759
# Poissons Ratio (z) = -0.17099 0.52861
#
# Static dielectric constant tensor:
#      x y z
#    x 3.995660 0.000000 -0.027000 
#    y 0.000000 4.136520 0.000000 
#    z -0.027000 0.000000 4.212110 
# 
# 
# High freq. dielectric constant tensor:
#      x y z
#    x 1.907520 0.000000 -0.011640 
#    y 0.000000 1.927000 0.000000 
#    z -0.011640 0.000000 1.935920 
# 
# From -- ./inp_files/87225.got.cif
#   From: 2010.06.25/outbox.cif.g09.slc.cpg/sg12_44_cif.got.tgz:87225.got - 2010.06.28 00:19:55.
