data_PCOD8115911
_publ_section_title
;
Structure prediction by ZEFSAII (Michael W. Deem and Ramdas Pophale) SiO2 
 PCOD8115911
Probable space group: C 2/M
;
_chemical_formula_sum "Si O2"
_cell_formula_units_Z 48
_cell_length_a 13.057414
_cell_length_b 27.738018
_cell_length_c 8.399823
_cell_angle_alpha 90.000000
_cell_angle_beta 50.421248
_cell_angle_gamma 90.000000
_cell_volume 2344.855202
_symmetry_space_group_name_H-M "C 2/M"
_symmetry_group_IT_number 12
_symmetry_cell_setting 'monoclinic'
loop_
_space_group_symop_operation_xyz
x,y,z
-x,y,-z
-x,-y,-z
x,-y,z
1/2+x,1/2+y,z
1/2-x,1/2+y,-z
1/2-x,1/2-y,-z
1/2+x,1/2-y,z
loop_
_atom_site_type_symbol
_atom_site_label
_atom_site_fract_x
_atom_site_fract_y
_atom_site_fract_z
Si Si1 0.982048 0.301642 0.201567
Si Si2 0.770334 0.852640 0.415030
Si Si3 0.763713 0.649650 0.916851
Si Si4 0.153078 0.554026 0.660484
Si Si5 0.016548 0.198313 0.300671
Si Si6 0.655413 0.054095 0.028615
O O1 0.836409 0.318030 0.397218
O O2 0.995281 0.244794 0.212211
O O3 0.089022 0.330217 0.200506
O O4 0.000000 0.315278 0.000000
O O5 0.736785 0.908803 0.472665
O O6 0.912468 0.842666 0.353177
O O7 0.779164 0.840827 0.220537
O O8 0.664083 0.677821 0.131360
O O9 0.759028 0.592460 0.957026
O O10 0.199313 0.500000 0.570097
O O11 0.178169 0.564366 0.820580
O O12 0.998443 0.560438 0.774116
O O13 0.000000 0.213302 0.500000
O O14 0.702737 0.000000 0.025574
#
# Coordination Sequence:
#
# PCOD8115911 Si02
#       6
#     8   8   8   8   8   8
#     4  12  24  42  65  90 121 160 206 251 297 357
#     4  12  24  40  62  93 126 159 201 251 303 358
#     4  12  24  40  62  93 126 159 201 251 303 358
#     4   9  18  35  61  91 122 158 201 247 297 354
#     4  12  26  44  63  86 121 164 204 249 305 363
#     4   9  18  35  61  91 122 158 201 247 297 354
#
# _framework density 20.470345999999999
#
# number of rings (size 3 to 8) (size 9 to 14) (size 15 to 20)
#    0.000    1.000    1.667    8.000    0.000    0.667 
#    0.000    2.500    0.000    5.000    0.000    0.000 
#    0.000    0.000    0.000    0.000    0.000    0.000 
#
# Total GULP energy -297769.637537 kJ/mol
# GULP energy per Si atom -12407.068231 kJ/mol
# Density = 2.042375 g / cm^3
# Si number density = 20.470346 Si / 1000 Ang^3
#
#
#
# Elastic Constant Matrix: (Units=GPa)
#
#
# Indices 1 2 3 4 5 6 
#
# 1 63.2362 10.7991 12.3527 0.0000 8.5303 0.0000
# 2 10.7991 121.8108 21.5724 0.0000 -3.0947 0.0000
# 3 12.3527 21.5724 70.9100 0.0000 6.8583 0.0000
# 4 0.0000 0.0000 0.0000 23.6293 0.0000 9.2806
# 5 8.5303 -3.0947 6.8583 0.0000 28.0352 0.0000
# 6 0.0000 0.0000 0.0000 9.2806 0.0000 21.0262
#
#
#
# Elastic Compliance Matrix: (Units=1/GPa)
#
#
# Indices 1 2 3 4 5 6 
#
# 1 0.017095 -0.001261 -0.002128 0.000000 -0.004820 0.000000
# 2 -0.001261 0.008844 -0.002666 0.000000 0.002012 0.000000
# 3 -0.002128 -0.002666 0.015619 0.000000 -0.003468 0.000000
# 4 0.000000 0.000000 0.000000 0.051196 0.000000 -0.022597
# 5 -0.004820 0.002012 -0.003468 0.000000 0.038206 0.000000
# 6 0.000000 0.000000 0.000000 -0.022597 0.000000 0.057534
#
#
# Mechanical properties :
#
#
# Convention : Reuss Voigt Hill
#
# Bulk Modulus (GPa) = 33.95680 38.37837 36.16758
# Shear Modulus (GPa) = 23.76193 28.62032 26.19112
#
# Velocity S-wave (km/s) = 3.41074 3.74322 3.58084
# Velocity P-wave (km/s) = 5.66879 6.12138 5.89943
#
# Compressibility (1/GPa) = 0.02944919
#
# Stress axis : x y z
#
# Youngs Moduli (GPa) = 58.49662 113.06528 64.02279
#
# Poissons Ratio (x) = 0.14259 0.13625
# Poissons Ratio (y) = 0.07377 0.17066
# Poissons Ratio (z) = 0.12449 0.30139
#
# Static dielectric constant tensor:
#      x y z
#    x 3.517570 0.000000 0.045630 
#    y 0.000000 3.856080 0.000000 
#    z 0.045630 0.000000 3.634160 
# 
# 
# High freq. dielectric constant tensor:
#      x y z
#    x 1.789250 0.000000 0.010330 
#    y 0.000000 1.815120 0.000000 
#    z 0.010330 0.000000 1.794760 
# 
# From -- ./inp_files/67347.got.cif
#   From: 2010.06.25/outbox.cif.g09.slc.cpg/sg12_34_cif.got.tgz:67347.got - 2010.06.28 00:19:55.
