data_PCOD8115244
_publ_section_title
;
Structure prediction by ZEFSAII (Michael W. Deem and Ramdas Pophale) SiO2 
 PCOD8115244
Probable space group: C 2/M
;
_chemical_formula_sum "Si O2"
_cell_formula_units_Z 36
_cell_length_a 14.486957
_cell_length_b 9.309666
_cell_length_c 20.977741
_cell_angle_alpha 90.000000
_cell_angle_beta 142.236153
_cell_angle_gamma 90.000000
_cell_volume 1732.651009
_symmetry_space_group_name_H-M "C 2/M"
_symmetry_group_IT_number 12
_symmetry_cell_setting 'monoclinic'
loop_
_space_group_symop_operation_xyz
x,y,z
-x,y,-z
-x,-y,-z
x,-y,z
1/2+x,1/2+y,z
1/2-x,1/2+y,-z
1/2-x,1/2-y,-z
1/2+x,1/2-y,z
loop_
_atom_site_type_symbol
_atom_site_label
_atom_site_fract_x
_atom_site_fract_y
_atom_site_fract_z
Si Si1 0.500000 0.740965 0.500000
Si Si2 0.690450 0.663760 0.275576
Si Si3 0.399477 0.340115 0.576597
Si Si4 0.966589 0.667325 0.243330
Si Si5 0.150401 0.833806 0.111141
O O1 0.644239 0.833742 0.601534
O O2 0.549325 0.641571 0.468302
O O3 0.634062 0.500000 0.247616
O O4 0.568782 0.761638 0.245465
O O5 0.692094 0.726291 0.204349
O O6 0.377051 0.500000 0.593052
O O7 0.250000 0.250000 0.500000
O O8 0.518326 0.249130 0.681399
O O9 0.012361 0.500000 0.275250
O O10 0.786551 0.685233 0.134077
O O11 0.116264 0.000000 0.103170
O O12 0.000000 0.758503 0.000000
#
# Coordination Sequence:
#
# PCOD8115244 Si02
#       5
#     4   8   8   8   8
#     4  12  24  38  62  94 128 162 200 254 304 374
#     4  11  23  39  63  93 125 165 207 253 308 372
#     4  12  25  40  61  91 128 167 204 252 307 372
#     4  11  23  40  62  92 125 163 206 258 311 364
#     4   9  20  41  65  89 121 164 210 255 309 371
#
# _framework density 20.77741
#
# number of rings (size 3 to 8) (size 9 to 14) (size 15 to 20)
#    0.000    1.111    4.444    2.000    0.000    3.556 
#    0.000    0.000    0.000    4.667    0.000    0.000 
#    0.000    0.000    0.000    0.000    0.000    0.000 
#
# Total GULP energy -223037.771444 kJ/mol
# GULP energy per Si atom -12390.987302 kJ/mol
# Density = 2.073012 g / cm^3
# Si number density = 20.777410 Si / 1000 Ang^3
#
#
#
# Elastic Constant Matrix: (Units=GPa)
#
#
# Indices 1 2 3 4 5 6 
#
# 1 147.3733 48.1884 57.0764 0.0000 10.3727 0.0000
# 2 48.1884 122.4569 32.0540 0.0000 13.0211 0.0000
# 3 57.0764 32.0540 125.9088 0.0000 15.0686 0.0000
# 4 0.0000 0.0000 0.0000 15.7979 0.0000 -3.2309
# 5 10.3727 13.0211 15.0686 0.0000 33.3852 0.0000
# 6 0.0000 0.0000 0.0000 -3.2309 0.0000 21.3367
#
#
#
# Elastic Compliance Matrix: (Units=1/GPa)
#
#
# Indices 1 2 3 4 5 6 
#
# 1 0.008963 -0.002620 -0.003367 0.000000 -0.000243 0.000000
# 2 -0.002620 0.009724 -0.000985 0.000000 -0.002534 0.000000
# 3 -0.003367 -0.000985 0.010093 0.000000 -0.003125 0.000000
# 4 0.000000 0.000000 0.000000 0.065323 0.000000 0.009892
# 5 -0.000243 -0.002534 -0.003125 0.000000 0.032428 0.000000
# 6 0.000000 0.000000 0.000000 0.009892 0.000000 0.048366
#
#
# Mechanical properties :
#
#
# Convention : Reuss Voigt Hill
#
# Bulk Modulus (GPa) = 67.39650 74.48629 70.94140
# Shear Modulus (GPa) = 25.80158 31.33197 28.56678
#
# Velocity S-wave (km/s) = 3.52775 3.88749 3.71198
# Velocity P-wave (km/s) = 7.00723 7.48850 7.25185
#
# Compressibility (1/GPa) = 0.01483757
#
# Stress axis : x y z
#
# Youngs Moduli (GPa) = 111.56555 102.83468 99.07513
#
# Poissons Ratio (x) = 0.26942 0.33360
# Poissons Ratio (y) = 0.29230 0.09756
# Poissons Ratio (z) = 0.37565 0.10126
#
# Static dielectric constant tensor:
#      x y z
#    x 3.572410 -0.000010 -0.000360 
#    y -0.000010 17.888360 -0.000060 
#    z -0.000360 -0.000060 3.388810 
# 
# 
# High freq. dielectric constant tensor:
#      x y z
#    x 1.828790 0.000000 0.008460 
#    y 0.000000 1.789900 0.000000 
#    z 0.008460 0.000000 1.808310 
# 
# From -- ./inp_files/309104.got.cif
#   From: 2010.06.25/outbox.cif.g09.slc.cpg/sg12_155_cif.got.tgz:309104.got - 2010.06.28 00:19:55.
