data_PCOD8115995
_publ_section_title
;
Structure prediction by ZEFSAII (Michael W. Deem and Ramdas Pophale) SiO2 
 PCOD8115995
Probable space group: C 2/M
;
_chemical_formula_sum "Si O2"
_cell_formula_units_Z 48
_cell_length_a 25.672125
_cell_length_b 13.688423
_cell_length_c 9.570613
_cell_angle_alpha 90.000000
_cell_angle_beta 111.888519
_cell_angle_gamma 90.000000
_cell_volume 3120.766697
_symmetry_space_group_name_H-M "C 2/M"
_symmetry_group_IT_number 12
_symmetry_cell_setting 'monoclinic'
loop_
_space_group_symop_operation_xyz
x,y,z
-x,y,-z
-x,-y,-z
x,-y,z
1/2+x,1/2+y,z
1/2-x,1/2+y,-z
1/2-x,1/2-y,-z
1/2+x,1/2-y,z
loop_
_atom_site_type_symbol
_atom_site_label
_atom_site_fract_x
_atom_site_fract_y
_atom_site_fract_z
Si Si1 0.437688 0.609078 0.603459
Si Si2 0.277187 0.112222 0.615879
Si Si3 0.833772 0.768796 0.171119
Si Si4 0.062312 0.109078 0.728084
Si Si5 0.333772 0.268796 0.496425
Si Si6 0.722813 0.112222 0.061504
O O1 0.426749 0.500000 0.652217
O O2 0.500000 0.644931 0.710543
O O3 0.432655 0.604439 0.432655
O O4 0.391152 0.684133 0.614019
O O5 0.322847 0.169609 0.569933
O O6 0.215166 0.153012 0.524986
O O7 0.293687 0.124724 0.793687
O O8 0.278066 0.000000 0.570128
O O9 0.891152 0.815867 0.168284
O O10 0.838514 0.741721 0.338514
O O11 0.784834 0.846988 0.094655
O O12 0.822847 0.669609 0.075761
O O13 0.073251 0.000000 0.798720
O O14 0.721934 0.000000 0.013996
#
# Coordination Sequence:
#
# PCOD8115995 Si02
#       6
#     8   8   8   8   8   8
#     4   8  13  22  39  63  86 105 127 159 200 242
#     4   9  17  28  41  58  82 110 135 160 195 238
#     4   9  16  26  42  63  83 103 131 166 199 232
#     4   8  13  22  39  63  86 105 127 159 200 242
#     4   9  16  26  42  63  83 103 131 166 199 232
#     4   9  17  28  41  58  82 110 135 160 195 238
#
# _framework density 15.380836
#
# number of rings (size 3 to 8) (size 9 to 14) (size 15 to 20)
#    0.000    3.333    0.000    2.000    0.000    4.667 
#    0.000    0.000    0.000    5.000    0.000    9.333 
#    0.000    0.000    0.000    0.000    0.000    0.000 
#
# Total GULP energy -297506.235962 kJ/mol
# GULP energy per Si atom -12396.093165 kJ/mol
# Density = 1.534583 g / cm^3
# Si number density = 15.380836 Si / 1000 Ang^3
#
#
#
# Elastic Constant Matrix: (Units=GPa)
#
#
# Indices 1 2 3 4 5 6 
#
# 1 99.5770 63.1844 35.3616 0.0000 14.6007 0.0000
# 2 63.1844 127.7018 46.8674 0.0000 7.3503 0.0000
# 3 35.3616 46.8674 42.4919 0.0000 11.1148 0.0000
# 4 0.0000 0.0000 0.0000 24.9998 0.0000 1.7903
# 5 14.6007 7.3503 11.1148 0.0000 17.4721 0.0000
# 6 0.0000 0.0000 0.0000 1.7903 0.0000 28.9741
#
#
#
# Elastic Compliance Matrix: (Units=1/GPa)
#
#
# Indices 1 2 3 4 5 6 
#
# 1 0.016920 -0.005913 -0.005411 0.000000 -0.008209 0.000000
# 2 -0.005913 0.015516 -0.014129 0.000000 0.007402 0.000000
# 3 -0.005411 -0.014129 0.049044 0.000000 -0.020733 0.000000
# 4 0.000000 0.000000 0.000000 0.040178 0.000000 -0.002483
# 5 -0.008209 0.007402 -0.020733 0.000000 0.074170 0.000000
# 6 0.000000 0.000000 0.000000 -0.002483 0.000000 0.034667
#
#
# Mechanical properties :
#
#
# Convention : Reuss Voigt Hill
#
# Bulk Modulus (GPa) = 32.70815 62.28860 47.49837
# Shear Modulus (GPa) = 17.14725 22.57970 19.86347
#
# Velocity S-wave (km/s) = 3.34255 3.83566 3.59756
# Velocity P-wave (km/s) = 6.01735 7.75898 6.94300
#
# Compressibility (1/GPa) = 0.03057342
#
# Stress axis : x y z
#
# Youngs Moduli (GPa) = 59.10209 64.45078 20.38981
#
# Poissons Ratio (x) = 0.38111 0.11034
# Poissons Ratio (y) = 0.34948 0.28808
# Poissons Ratio (z) = 0.31982 0.91061
#
# Static dielectric constant tensor:
#      x y z
#    x 3.039880 0.000000 0.144740 
#    y 0.000000 2.967280 0.000000 
#    z 0.144740 0.000000 2.718580 
# 
# 
# High freq. dielectric constant tensor:
#      x y z
#    x 1.581080 0.000000 0.010010 
#    y 0.000000 1.582560 0.000000 
#    z 0.010010 0.000000 1.558860 
# 
# From -- ./inp_files/78639.got.cif
#   From: 2010.06.25/outbox.cif.g09.slc.cpg/sg12_40_cif.got.tgz:78639.got - 2010.06.28 00:19:55.
