data_PCOD8115317
_publ_section_title
;
Structure prediction by ZEFSAII (Michael W. Deem and Ramdas Pophale) SiO2 
 PCOD8115317
Probable space group: C 2/M
;
_chemical_formula_sum "Si O2"
_cell_formula_units_Z 56
_cell_length_a 9.440128
_cell_length_b 29.332938
_cell_length_c 10.569610
_cell_angle_alpha 90.000000
_cell_angle_beta 63.367505
_cell_angle_gamma 90.000000
_cell_volume 2616.263123
_symmetry_space_group_name_H-M "C 2/M"
_symmetry_group_IT_number 12
_symmetry_cell_setting 'monoclinic'
loop_
_space_group_symop_operation_xyz
x,y,z
-x,y,-z
-x,-y,-z
x,-y,z
1/2+x,1/2+y,z
1/2-x,1/2+y,-z
1/2-x,1/2-y,-z
1/2+x,1/2-y,z
loop_
_atom_site_type_symbol
_atom_site_label
_atom_site_fract_x
_atom_site_fract_y
_atom_site_fract_z
Si Si1 0.901459 0.163143 0.166109
Si Si2 0.314460 0.050173 0.053349
Si Si3 0.328947 0.239005 0.102224
Si Si4 0.784985 0.410015 0.324493
Si Si5 0.671143 0.500000 0.491889
Si Si6 0.847981 0.500000 0.649710
Si Si7 0.643990 0.906265 0.209649
Si Si8 0.907667 0.825813 0.655477
O O1 0.848901 0.215273 0.174917
O O2 0.745647 0.131555 0.241736
O O3 0.989790 0.157874 0.264935
O O4 0.000000 0.149372 0.000000
O O5 0.236754 0.071854 0.206490
O O6 0.240749 0.000000 0.056301
O O7 0.500000 0.044324 0.000000
O O8 0.277659 0.086537 0.958954
O O9 0.229747 0.205678 0.231214
O O10 0.500000 0.216795 0.000000
O O11 0.250000 0.250000 0.000000
O O12 0.763596 0.453558 0.422391
O O13 0.665984 0.368358 0.393149
O O14 0.962099 0.390213 0.270650
O O15 0.500000 0.500000 0.500000
O O16 0.680535 0.500000 0.640143
O O17 0.851585 0.455669 0.732263
O O18 0.000000 0.500000 0.500000
O O19 0.000000 0.801110 0.500000
#
# Coordination Sequence:
#
# PCOD8115317 Si02
#       8
#     8   8   8   8   4   4   8   8
#     4  11  25  47  71 104 142 179 232 296 357 434
#     4   9  17  33  58  91 122 163 228 290 329 385
#     4  11  24  50  82 104 137 190 236 286 361 442
#     4  11  23  41  67  95 134 186 230 282 353 422
#     4  12  26  43  63  88 133 193 236 273 349 421
#     4  12  24  43  64  89 135 187 241 285 338 422
#     4  11  23  40  68  96 133 178 238 295 340 410
#     4  12  28  46  71 109 150 179 232 298 362 430
#
# _framework density 21.404575000000001
#
# number of rings (size 3 to 8) (size 9 to 14) (size 15 to 20)
#    0.000    1.000    5.714    1.286    6.000    1.143 
#    0.000    1.071    0.000    0.000    0.000    0.000 
#    0.000    0.000    0.000    0.000    0.000    0.000 
#
# Total GULP energy -346991.661940 kJ/mol
# GULP energy per Si atom -12392.559355 kJ/mol
# Density = 2.135586 g / cm^3
# Si number density = 21.404575 Si / 1000 Ang^3
#
#
#
# Elastic Constant Matrix: (Units=GPa)
#
#
# Indices 1 2 3 4 5 6 
#
# 1 126.5042 37.3628 36.3947 0.0000 2.7665 0.0000
# 2 37.3628 104.1101 28.2511 0.0000 -13.0485 0.0000
# 3 36.3947 28.2511 104.2769 0.0000 2.1123 0.0000
# 4 0.0000 0.0000 0.0000 3.9970 0.0000 -3.5124
# 5 2.7665 -13.0485 2.1123 0.0000 34.3631 0.0000
# 6 0.0000 0.0000 0.0000 -3.5124 0.0000 28.4943
#
#
#
# Elastic Compliance Matrix: (Units=1/GPa)
#
#
# Indices 1 2 3 4 5 6 
#
# 1 0.009535 -0.002964 -0.002489 0.000000 -0.001740 0.000000
# 2 -0.002964 0.011905 -0.002290 0.000000 0.004900 0.000000
# 3 -0.002489 -0.002290 0.011106 0.000000 -0.001352 0.000000
# 4 0.000000 0.000000 0.000000 0.280578 0.000000 0.034586
# 5 -0.001740 0.004900 -0.001352 0.000000 0.031185 0.000000
# 6 0.000000 0.000000 0.000000 0.034586 0.000000 0.039358
#
#
# Mechanical properties :
#
#
# Convention : Reuss Voigt Hill
#
# Bulk Modulus (GPa) = 58.62215 59.87870 59.25042
# Shear Modulus (GPa) = 12.35056 28.89640 20.62348
#
# Velocity S-wave (km/s) = 2.40470 3.67823 3.10741
# Velocity P-wave (km/s) = 5.92935 6.78783 6.37306
#
# Compressibility (1/GPa) = 0.01705840
#
# Stress axis : x y z
#
# Youngs Moduli (GPa) = 104.88064 84.00149 90.03766
#
# Poissons Ratio (x) = 0.24901 0.22414
# Poissons Ratio (y) = 0.31090 0.20617
# Poissons Ratio (z) = 0.26109 0.19235
#
# Static dielectric constant tensor:
#      x y z
#    x 4.399230 0.000000 0.389780 
#    y 0.000000 3.867730 0.000000 
#    z 0.389780 0.000000 4.265140 
# 
# 
# High freq. dielectric constant tensor:
#      x y z
#    x 1.846090 0.000000 0.009290 
#    y 0.000000 1.837300 0.000000 
#    z 0.009290 0.000000 1.836720 
# 
# From -- ./inp_files/125687.got.cif
#   From: 2010.06.25/outbox.cif.g09.slc.cpg/sg12_63_cif.got.tgz:125687.got - 2010.06.28 00:19:55.
