data_PCOD8115325
_publ_section_title
;
Structure prediction by ZEFSAII (Michael W. Deem and Ramdas Pophale) SiO2 
 PCOD8115325
Probable space group: C 2/M
;
_chemical_formula_sum "Si O2"
_cell_formula_units_Z 52
_cell_length_a 7.593722
_cell_length_b 19.377472
_cell_length_c 20.452506
_cell_angle_alpha 90.000000
_cell_angle_beta 58.973152
_cell_angle_gamma 90.000000
_cell_volume 2578.942108
_symmetry_space_group_name_H-M "C 2/M"
_symmetry_group_IT_number 12
_symmetry_cell_setting 'monoclinic'
loop_
_space_group_symop_operation_xyz
x,y,z
-x,y,-z
-x,-y,-z
x,-y,z
1/2+x,1/2+y,z
1/2-x,1/2+y,-z
1/2-x,1/2-y,-z
1/2+x,1/2-y,z
loop_
_atom_site_type_symbol
_atom_site_label
_atom_site_fract_x
_atom_site_fract_y
_atom_site_fract_z
Si Si1 0.849369 0.579822 0.582387
Si Si2 0.230738 0.577385 0.942709
Si Si3 0.164950 0.678256 0.158348
Si Si4 0.769088 0.169896 0.817965
Si Si5 0.391430 0.578417 0.678232
Si Si6 0.500000 0.370859 0.000000
Si Si7 0.458451 0.080467 0.704552
O O1 0.909840 0.500000 0.576466
O O2 0.614698 0.589737 0.602393
O O3 0.000000 0.615266 0.500000
O O4 0.888195 0.610601 0.647661
O O5 0.239984 0.500000 0.912082
O O6 0.328644 0.631026 0.873210
O O7 0.351652 0.579625 0.987616
O O8 0.000000 0.600508 0.000000
O O9 0.147512 0.752567 0.195440
O O10 0.974056 0.665887 0.147005
O O11 0.165711 0.620567 0.215046
O O12 0.369299 0.676505 0.074811
O O13 0.888028 0.131621 0.737904
O O14 0.374465 0.500000 0.708450
O O15 0.205019 0.592736 0.663653
O O16 0.401645 0.000000 0.723770
#
# Coordination Sequence:
#
# PCOD8115325 Si02
#       7
#     8   8   8   8   8   4   8
#     4   9  18  33  58  92 120 147 187 234 290 351
#     4  11  24  41  60  85 117 152 195 248 299 348
#     4  11  25  39  61  87 117 160 202 248 296 351
#     4  11  23  41  59  86 117 158 201 247 292 353
#     4   9  19  36  59  86 117 154 191 237 293 345
#     4  12  25  42  60  86 117 156 202 248 301 350
#     4   9  20  38  58  86 119 151 193 242 289 348
#
# _framework density 20.163308000000001
#
# number of rings (size 3 to 8) (size 9 to 14) (size 15 to 20)
#    0.000    1.846    1.538    1.615    5.385    3.692 
#    0.000    3.077    0.000    0.923    0.000    0.000 
#    0.000    0.000    0.000    0.000    0.000    0.000 
#
# Total GULP energy -322411.502269 kJ/mol
# GULP energy per Si atom -12400.442395 kJ/mol
# Density = 2.011742 g / cm^3
# Si number density = 20.163308 Si / 1000 Ang^3
#
#
#
# Elastic Constant Matrix: (Units=GPa)
#
#
# Indices 1 2 3 4 5 6 
#
# 1 94.1600 10.5010 41.3496 0.0000 0.7097 0.0000
# 2 10.5010 81.7595 38.2524 0.0000 0.7768 0.0000
# 3 41.3496 38.2524 104.8903 0.0000 -7.0964 0.0000
# 4 0.0000 0.0000 0.0000 8.4866 0.0000 0.0930
# 5 0.7097 0.7768 -7.0964 0.0000 34.2455 0.0000
# 6 0.0000 0.0000 0.0000 0.0930 0.0000 20.2935
#
#
#
# Elastic Compliance Matrix: (Units=1/GPa)
#
#
# Indices 1 2 3 4 5 6 
#
# 1 0.012964 0.000947 -0.005554 0.000000 -0.001441 0.000000
# 2 0.000947 0.014890 -0.005910 0.000000 -0.001582 0.000000
# 3 -0.005554 -0.005910 0.014093 0.000000 0.003170 0.000000
# 4 0.000000 0.000000 0.000000 0.117839 0.000000 -0.000540
# 5 -0.001441 -0.001582 0.003170 0.000000 0.029923 0.000000
# 6 0.000000 0.000000 0.000000 -0.000540 0.000000 0.049279
#
#
# Mechanical properties :
#
#
# Convention : Reuss Voigt Hill
#
# Bulk Modulus (GPa) = 47.81767 51.22397 49.52082
# Shear Modulus (GPa) = 18.72701 25.31890 22.02296
#
# Velocity S-wave (km/s) = 3.05087 3.54742 3.30847
# Velocity P-wave (km/s) = 6.01474 6.49912 6.26162
#
# Compressibility (1/GPa) = 0.02091277
#
# Stress axis : x y z
#
# Youngs Moduli (GPa) = 77.13500 67.16059 70.95732
#
# Poissons Ratio (x) = -0.06359 0.39407
# Poissons Ratio (y) = -0.07304 0.41939
# Poissons Ratio (z) = 0.42837 0.39695
#
# Static dielectric constant tensor:
#      x y z
#    x 3.886100 0.000000 0.040040 
#    y 0.000000 3.405990 0.000000 
#    z 0.040040 0.000000 3.567900 
# 
# 
# High freq. dielectric constant tensor:
#      x y z
#    x 1.806720 0.000000 -0.004250 
#    y 0.000000 1.762670 0.000000 
#    z -0.004250 0.000000 1.770580 
# 
# From -- ./inp_files/301051.got.cif
#   From: 2010.06.25/outbox.cif.g09.slc.cpg/sg12_151_cif.got.tgz:301051.got - 2010.06.28 00:19:55.
