data_PCOD8115680
_publ_section_title
;
Structure prediction by ZEFSAII (Michael W. Deem and Ramdas Pophale) SiO2 
 PCOD8115680
Probable space group: C 2/M
;
_chemical_formula_sum "Si O2"
_cell_formula_units_Z 64
_cell_length_a 30.348176
_cell_length_b 14.612782
_cell_length_c 8.984085
_cell_angle_alpha 90.000000
_cell_angle_beta 135.624780
_cell_angle_gamma 90.000000
_cell_volume 2786.355869
_symmetry_space_group_name_H-M "C 2/M"
_symmetry_group_IT_number 12
_symmetry_cell_setting 'monoclinic'
loop_
_space_group_symop_operation_xyz
x,y,z
-x,y,-z
-x,-y,-z
x,-y,z
1/2+x,1/2+y,z
1/2-x,1/2+y,-z
1/2-x,1/2-y,-z
1/2+x,1/2-y,z
loop_
_atom_site_type_symbol
_atom_site_label
_atom_site_fract_x
_atom_site_fract_y
_atom_site_fract_z
Si Si1 0.181727 0.332953 0.067759
Si Si2 0.489816 0.774595 0.651258
Si Si3 0.350891 0.230112 0.327224
Si Si4 0.684683 0.604054 0.601239
Si Si5 0.194999 0.602546 0.540205
Si Si6 0.088272 0.399379 0.040498
Si Si7 0.029773 0.895502 0.908852
Si Si8 0.173341 0.839128 0.254795
O O1 0.241175 0.398258 0.191783
O O2 0.183101 0.259913 0.206503
O O3 0.170673 0.276739 0.893119
O O4 0.125348 0.401810 0.972261
O O5 0.500000 0.792961 0.500000
O O6 0.420176 0.809881 0.519114
O O7 0.532809 0.826685 0.878080
O O8 0.496406 0.667321 0.703982
O O9 0.349407 0.339834 0.350296
O O10 0.303810 0.173503 0.319653
O O11 0.658315 0.500000 0.524064
O O12 0.672874 0.668518 0.431167
O O13 0.182304 0.500000 0.568719
O O14 0.265174 0.600331 0.638204
O O15 0.138449 0.629205 0.289652
O O16 0.059579 0.500000 0.001984
O O17 0.012050 0.000000 0.831775
O O18 0.104921 0.883813 0.060409
O O19 0.000000 0.869919 0.000000
#
# Coordination Sequence:
#
# PCOD8115680 Si02
#       8
#     8   8   8   8   8   8   8   8
#     4  12  23  45  70  99 140 181 221 284 347 407
#     4  12  26  47  68  95 137 188 230 281 343 406
#     4  12  27  45  68 101 142 180 231 283 349 406
#     4  12  25  43  70 104 140 180 223 279 347 414
#     4  11  25  44  71 105 138 174 225 290 348 408
#     4  11  24  45  72 100 132 179 234 283 341 410
#     4  11  25  44  71 103 136 181 234 281 331 401
#     4  12  22  44  73 100 137 180 229 277 342 409
#
# _framework density 22.969069000000001
#
# number of rings (size 3 to 8) (size 9 to 14) (size 15 to 20)
#    0.000    0.375    5.000    3.750    1.750    3.500 
#    0.000    3.750    0.000    0.000    0.000    0.000 
#    0.000    0.000    0.000    0.000    0.000    0.000 
#
# Total GULP energy -396481.207806 kJ/mol
# GULP energy per Si atom -12390.037744 kJ/mol
# Density = 2.291679 g / cm^3
# Si number density = 22.969069 Si / 1000 Ang^3
#
#
#
# Elastic Constant Matrix: (Units=GPa)
#
#
# Indices 1 2 3 4 5 6 
#
# 1 130.8727 -3.9659 56.5785 0.0000 77.0430 0.0000
# 2 -3.9659 117.8154 16.3970 0.0000 -34.3243 0.0000
# 3 56.5785 16.3970 110.7473 0.0000 46.6574 0.0000
# 4 0.0000 0.0000 0.0000 24.5043 0.0000 -4.0161
# 5 77.0430 -34.3243 46.6574 0.0000 107.0579 0.0000
# 6 0.0000 0.0000 0.0000 -4.0161 0.0000 12.5563
#
#
#
# Elastic Compliance Matrix: (Units=1/GPa)
#
#
# Indices 1 2 3 4 5 6 
#
# 1 0.014732 -0.001959 -0.003068 0.000000 -0.009892 0.000000
# 2 -0.001959 0.010684 -0.003207 0.000000 0.006233 0.000000
# 3 -0.003068 -0.003207 0.012953 0.000000 -0.004465 0.000000
# 4 0.000000 0.000000 0.000000 0.043067 0.000000 0.013775
# 5 -0.009892 0.006233 -0.004465 0.000000 0.020404 0.000000
# 6 0.000000 0.000000 0.000000 0.013775 0.000000 0.084047
#
#
# Mechanical properties :
#
#
# Convention : Reuss Voigt Hill
#
# Bulk Modulus (GPa) = 45.66209 55.27274 50.46742
# Shear Modulus (GPa) = 23.84864 48.18543 36.01704
#
# Velocity S-wave (km/s) = 3.22575 4.58519 3.96418
# Velocity P-wave (km/s) = 5.81351 7.22137 6.55535
#
# Compressibility (1/GPa) = 0.02190000
#
# Stress axis : x y z
#
# Youngs Moduli (GPa) = 67.88113 93.59669 77.20130
#
# Poissons Ratio (x) = 0.18336 0.23689
# Poissons Ratio (y) = 0.13298 0.24758
# Poissons Ratio (z) = 0.20829 0.30016
#
# Static dielectric constant tensor:
#      x y z
#    x 4.388280 0.000000 0.230730 
#    y 0.000000 4.031800 0.000000 
#    z 0.230730 0.000000 4.213770 
# 
# 
# High freq. dielectric constant tensor:
#      x y z
#    x 1.912400 0.000000 0.011830 
#    y 0.000000 1.906110 0.000000 
#    z 0.011830 0.000000 1.902110 
# 
# From -- ./inp_files/112024.got.cif
#   From: 2010.06.25/outbox.cif.g09.slc.cpg/sg12_57_cif.got.tgz:112024.got - 2010.06.28 00:19:55.
