data_PCOD8115798
_publ_section_title
;
Structure prediction by ZEFSAII (Michael W. Deem and Ramdas Pophale) SiO2 
 PCOD8115798
Probable space group: C 2/M
;
_chemical_formula_sum "Si O2"
_cell_formula_units_Z 56
_cell_length_a 30.946450
_cell_length_b 14.174424
_cell_length_c 9.641445
_cell_angle_alpha 90.000000
_cell_angle_beta 61.121247
_cell_angle_gamma 90.000000
_cell_volume 3703.273632
_symmetry_space_group_name_H-M "C 2/M"
_symmetry_group_IT_number 12
_symmetry_cell_setting 'monoclinic'
loop_
_space_group_symop_operation_xyz
x,y,z
-x,y,-z
-x,-y,-z
x,-y,z
1/2+x,1/2+y,z
1/2-x,1/2+y,-z
1/2-x,1/2-y,-z
1/2+x,1/2-y,z
loop_
_atom_site_type_symbol
_atom_site_label
_atom_site_fract_x
_atom_site_fract_y
_atom_site_fract_z
Si Si1 0.694803 0.391773 0.123036
Si Si2 0.033368 0.888656 0.758668
Si Si3 0.797384 0.891495 0.437347
Si Si4 0.625002 0.387765 0.462536
Si Si5 0.929208 0.111905 0.000558
Si Si6 0.219354 0.394786 0.787836
Si Si7 0.825963 0.795793 0.118724
O O1 0.687156 0.500000 0.089678
O O2 0.646116 0.353402 0.281824
O O3 0.741605 0.381198 0.149595
O O4 0.702517 0.329648 0.974673
O O5 0.068144 0.854466 0.576612
O O6 0.058449 0.855585 0.862800
O O7 0.032092 0.000000 0.766981
O O8 0.976381 0.855951 0.832840
O O9 0.841517 0.849317 0.463083
O O10 0.745877 0.880540 0.598229
O O11 0.795728 0.835287 0.296354
O O12 0.808207 0.000000 0.383973
O O13 0.630261 0.500000 0.456456
O O14 0.882104 0.169527 0.022570
O O15 0.918629 0.000000 0.005242
O O16 0.196274 0.500000 0.831152
O O17 0.175955 0.318139 0.871709
#
# Coordination Sequence:
#
# PCOD8115798 Si02
#       7
#     8   8   8   8   8   8   8
#     4   9  18  29  42  61  86 111 135 165 207 250
#     4   8  13  24  39  58  89 119 132 150 198 257
#     4   9  16  27  44  64  84 106 137 168 203 246
#     4   8  13  25  41  57  86 122 135 144 192 261
#     4   9  16  23  38  66  90 106 134 170 200 237
#     4   9  20  34  42  54  82 118 143 167 207 252
#     4  12  18  26  44  66  83 105 142 182 202 227
#
# _framework density 15.121757000000001
#
# number of rings (size 3 to 8) (size 9 to 14) (size 15 to 20)
#    0.000    2.857    1.429    4.714    0.000    0.000 
#    0.000    0.714    0.000    3.429    0.000    2.000 
#    0.000    1.143    0.000    0.000    0.000    0.000 
#
# Total GULP energy -346928.041073 kJ/mol
# GULP energy per Si atom -12390.287181 kJ/mol
# Density = 1.508734 g / cm^3
# Si number density = 15.121757 Si / 1000 Ang^3
#
#
#
# Elastic Constant Matrix: (Units=GPa)
#
#
# Indices 1 2 3 4 5 6 
#
# 1 47.2372 32.3772 28.5956 0.0000 -7.1947 0.0000
# 2 32.3772 72.7575 39.3744 0.0000 -5.3971 0.0000
# 3 28.5956 39.3744 77.6117 0.0000 7.4720 0.0000
# 4 0.0000 0.0000 0.0000 13.4934 0.0000 -2.7199
# 5 -7.1947 -5.3971 7.4720 0.0000 22.6641 0.0000
# 6 0.0000 0.0000 0.0000 -2.7199 0.0000 13.1225
#
#
#
# Elastic Compliance Matrix: (Units=1/GPa)
#
#
# Indices 1 2 3 4 5 6 
#
# 1 0.035269 -0.009878 -0.009124 0.000000 0.011852 0.000000
# 2 -0.009878 0.023202 -0.008636 0.000000 0.005236 0.000000
# 3 -0.009124 -0.008636 0.021796 0.000000 -0.012139 0.000000
# 4 0.000000 0.000000 0.000000 0.077342 0.000000 0.016031
# 5 0.011852 0.005236 -0.012139 0.000000 0.053134 0.000000
# 6 0.000000 0.000000 0.000000 0.016031 0.000000 0.079528
#
#
# Mechanical properties :
#
#
# Convention : Reuss Voigt Hill
#
# Bulk Modulus (GPa) = 40.01379 44.25562 42.13470
# Shear Modulus (GPa) = 14.12925 16.33995 15.23460
#
# Velocity S-wave (km/s) = 3.06006 3.29075 3.17750
# Velocity P-wave (km/s) = 6.24530 6.61577 6.43320
#
# Compressibility (1/GPa) = 0.02499139
#
# Stress axis : x y z
#
# Youngs Moduli (GPa) = 28.35360 43.10045 45.87958
#
# Poissons Ratio (x) = 0.42573 0.41863
# Poissons Ratio (y) = 0.28007 0.39619
# Poissons Ratio (z) = 0.25871 0.37220
#
# Static dielectric constant tensor:
#      x y z
#    x 2.755980 0.000000 -0.124240 
#    y 0.000000 2.573000 0.000000 
#    z -0.124240 0.000000 3.177790 
# 
# 
# High freq. dielectric constant tensor:
#      x y z
#    x 1.557650 0.000000 -0.001070 
#    y 0.000000 1.526240 0.000000 
#    z -0.001070 0.000000 1.589470 
# 
# From -- ./inp_files/103967.got.cif
#   From: 2010.06.25/outbox.cif.g09.slc.cpg/sg12_52_cif.got.tgz:103967.got - 2010.06.28 00:19:55.
