data_PCOD8115789
_publ_section_title
;
Structure prediction by ZEFSAII (Michael W. Deem and Ramdas Pophale) SiO2 
 PCOD8115789
Probable space group: C 2/M
;
_chemical_formula_sum "Si O2"
_cell_formula_units_Z 40
_cell_length_a 16.389992
_cell_length_b 20.854335
_cell_length_c 10.534186
_cell_angle_alpha 90.000000
_cell_angle_beta 148.950714
_cell_angle_gamma 90.000000
_cell_volume 1857.105364
_symmetry_space_group_name_H-M "C 2/M"
_symmetry_group_IT_number 12
_symmetry_cell_setting 'monoclinic'
loop_
_space_group_symop_operation_xyz
x,y,z
-x,y,-z
-x,-y,-z
x,-y,z
1/2+x,1/2+y,z
1/2-x,1/2+y,-z
1/2-x,1/2-y,-z
1/2+x,1/2-y,z
loop_
_atom_site_type_symbol
_atom_site_label
_atom_site_fract_x
_atom_site_fract_y
_atom_site_fract_z
Si Si1 0.907973 0.375488 0.664409
Si Si2 0.760303 0.377828 0.018208
Si Si3 0.783030 0.000000 0.593674
Si Si4 0.500000 0.216639 0.000000
Si Si5 0.856492 0.000000 0.986091
Si Si6 0.216855 0.289850 0.719458
Si Si7 0.000000 0.183125 0.500000
O O1 0.815141 0.438669 0.583767
O O2 0.814384 0.345325 0.422466
O O3 0.898873 0.327307 0.770471
O O4 0.088049 0.392734 0.866927
O O5 0.715663 0.438291 0.043020
O O6 0.612144 0.361987 0.732179
O O7 0.803722 0.317888 0.166277
O O8 0.953531 0.000000 0.753171
O O9 0.797435 0.000000 0.763943
O O10 0.393110 0.263471 0.941442
O O11 0.101242 0.229602 0.543635
#
# Coordination Sequence:
#
# PCOD8115789 Si02
#       7
#     8   8   4   4   4   8   4
#     4  12  25  46  70 101 137 183 224 279 335 402
#     4  12  25  45  73  99 136 181 231 275 333 403
#     4  11  27  46  71 100 135 173 229 284 339 396
#     4  12  28  41  66 109 144 176 218 276 352 394
#     4  11  27  46  71 102 129 179 229 282 337 396
#     4  12  24  44  72 101 140 179 226 276 333 406
#     4  12  24  43  68 105 140 172 224 278 336 404
#
# _framework density 21.538896000000001
#
# number of rings (size 3 to 8) (size 9 to 14) (size 15 to 20)
#    0.000    0.200    6.000    3.000    5.600    1.600 
#    0.000    0.000    0.000    0.000    0.000    0.000 
#    0.000    0.000    0.000    0.000    0.000    0.000 
#
# Total GULP energy -248138.064893 kJ/mol
# GULP energy per Si atom -12406.903245 kJ/mol
# Density = 2.148987 g / cm^3
# Si number density = 21.538896 Si / 1000 Ang^3
#
#
#
# Elastic Constant Matrix: (Units=GPa)
#
#
# Indices 1 2 3 4 5 6 
#
# 1 62.5600 17.2077 6.1323 0.0000 14.0535 0.0000
# 2 17.2077 88.9860 28.3994 0.0000 13.1446 0.0000
# 3 6.1323 28.3994 94.9876 0.0000 0.7671 0.0000
# 4 0.0000 0.0000 0.0000 42.7651 0.0000 7.7158
# 5 14.0535 13.1446 0.7671 0.0000 43.2493 0.0000
# 6 0.0000 0.0000 0.0000 7.7158 0.0000 21.9872
#
#
#
# Elastic Compliance Matrix: (Units=1/GPa)
#
#
# Indices 1 2 3 4 5 6 
#
# 1 0.017859 -0.002608 -0.000333 0.000000 -0.005005 0.000000
# 2 -0.002608 0.013429 -0.003821 0.000000 -0.003166 0.000000
# 3 -0.000333 -0.003821 0.011683 0.000000 0.001062 0.000000
# 4 0.000000 0.000000 0.000000 0.024964 0.000000 -0.008760
# 5 -0.005005 -0.003166 0.001062 0.000000 0.025691 0.000000
# 6 0.000000 0.000000 0.000000 -0.008760 0.000000 0.048555
#
#
# Mechanical properties :
#
#
# Convention : Reuss Voigt Hill
#
# Bulk Modulus (GPa) = 33.95900 38.89026 36.42463
# Shear Modulus (GPa) = 30.20755 34.58660 32.39708
#
# Velocity S-wave (km/s) = 3.74901 4.01156 3.88251
# Velocity P-wave (km/s) = 5.87714 6.28902 6.08656
#
# Compressibility (1/GPa) = 0.02944727
#
# Stress axis : x y z
#
# Youngs Moduli (GPa) = 55.99466 74.46435 85.59423
#
# Poissons Ratio (x) = 0.19420 0.02848
# Poissons Ratio (y) = 0.14603 0.32707
# Poissons Ratio (z) = 0.01863 0.28454
#
# Static dielectric constant tensor:
#      x y z
#    x 3.928710 0.000000 0.147400 
#    y 0.000000 3.964620 0.000000 
#    z 0.147400 0.000000 3.941500 
# 
# 
# High freq. dielectric constant tensor:
#      x y z
#    x 1.846990 0.000000 0.010330 
#    y 0.000000 1.853930 0.000000 
#    z 0.010330 0.000000 1.853990 
# 
# From -- ./inp_files/158516.got.cif
#   From: 2010.06.25/outbox.cif.g09.slc.cpg/sg12_80_cif.got.tgz:158516.got - 2010.06.28 00:19:55.
