data_PCOD8115993
_publ_section_title
;
Structure prediction by ZEFSAII (Michael W. Deem and Ramdas Pophale) SiO2 
 PCOD8115993
Probable space group: C 2/M
;
_chemical_formula_sum "Si O2"
_cell_formula_units_Z 64
_cell_length_a 23.396421
_cell_length_b 9.459442
_cell_length_c 23.052426
_cell_angle_alpha 90.000000
_cell_angle_beta 132.842538
_cell_angle_gamma 90.000000
_cell_volume 3740.838687
_symmetry_space_group_name_H-M "C 2/M"
_symmetry_group_IT_number 12
_symmetry_cell_setting 'monoclinic'
loop_
_space_group_symop_operation_xyz
x,y,z
-x,y,-z
-x,-y,-z
x,-y,z
1/2+x,1/2+y,z
1/2-x,1/2+y,-z
1/2-x,1/2-y,-z
1/2+x,1/2-y,z
loop_
_atom_site_type_symbol
_atom_site_label
_atom_site_fract_x
_atom_site_fract_y
_atom_site_fract_z
Si Si1 0.902276 0.336105 0.066707
Si Si2 0.620593 0.668066 0.602289
Si Si3 0.212695 0.668793 0.242973
Si Si4 0.351182 0.663226 0.136828
Si Si5 0.976709 0.836555 0.701892
Si Si6 0.473779 0.667834 0.570958
Si Si7 0.205829 0.666030 0.109173
Si Si8 0.571466 0.165835 0.224166
O O1 0.887642 0.500000 0.070378
O O2 0.851378 0.248849 0.077221
O O3 0.993434 0.297940 0.133997
O O4 0.871935 0.297546 0.981283
O O5 0.622821 0.500000 0.606851
O O6 0.705538 0.729497 0.676254
O O7 0.556718 0.725622 0.604187
O O8 0.595596 0.716406 0.520110
O O9 0.212431 0.500000 0.242028
O O10 0.198811 0.731267 0.168759
O O11 0.143589 0.723604 0.236491
O O12 0.336484 0.500000 0.111014
O O13 0.431344 0.684646 0.226426
O O14 0.282373 0.725314 0.129483
O O15 0.956497 0.776805 0.623845
O O16 0.927791 0.745939 0.714063
O O17 0.952977 0.000000 0.693002
O O18 0.479664 0.500000 0.576992
O O19 0.216889 0.500000 0.123823
O O20 0.578101 0.000000 0.241626
#
# Coordination Sequence:
#
# PCOD8115993 Si02
#       8
#     8   8   8   8   8   8   8   8
#     4   9  17  28  41  59  84 110 135 166 203 241
#     4   8  13  22  38  62  89 108 126 164 211 245
#     4   9  16  26  40  58  81 108 138 171 204 237
#     4   9  16  26  42  63  84 105 132 167 206 246
#     4   9  16  27  44  63  83 108 136 166 202 243
#     4   8  13  22  39  64  88 106 128 163 208 249
#     4   9  16  25  40  61  81 104 136 172 207 242
#     4   9  18  30  42  58  82 112 142 169 198 235
#
# _framework density 17.108463
#
# number of rings (size 3 to 8) (size 9 to 14) (size 15 to 20)
#    0.000    3.250    0.000    1.875    0.000    3.500 
#    0.000    3.125    0.000    1.500    0.000    6.125 
#    0.000    0.000    0.000    0.000    0.000    0.000 
#
# Total GULP energy -396645.589410 kJ/mol
# GULP energy per Si atom -12395.174669 kJ/mol
# Density = 1.706952 g / cm^3
# Si number density = 17.108463 Si / 1000 Ang^3
#
#
#
# Elastic Constant Matrix: (Units=GPa)
#
#
# Indices 1 2 3 4 5 6 
#
# 1 148.1973 26.9999 91.1155 0.0000 -10.9283 0.0000
# 2 26.9999 20.4243 23.8756 0.0000 -5.2674 0.0000
# 3 91.1155 23.8756 140.9705 0.0000 -19.3715 0.0000
# 4 0.0000 0.0000 0.0000 12.7970 0.0000 -4.3631
# 5 -10.9283 -5.2674 -19.3715 0.0000 24.2389 0.0000
# 6 0.0000 0.0000 0.0000 -4.3631 0.0000 18.6297
#
#
#
# Elastic Compliance Matrix: (Units=1/GPa)
#
#
# Indices 1 2 3 4 5 6 
#
# 1 0.012389 -0.008960 -0.006729 0.000000 -0.001739 0.000000
# 2 -0.008960 0.068218 -0.004808 0.000000 0.006942 0.000000
# 3 -0.006729 -0.004808 0.013140 0.000000 0.006423 0.000000
# 4 0.000000 0.000000 0.000000 0.084925 0.000000 0.019889
# 5 -0.001739 0.006942 0.006423 0.000000 0.047113 0.000000
# 6 0.000000 0.000000 0.000000 0.019889 0.000000 0.058336
#
#
# Mechanical properties :
#
#
# Convention : Reuss Voigt Hill
#
# Bulk Modulus (GPa) = 18.95693 65.95269 42.45481
# Shear Modulus (GPa) = 14.59002 22.30651 18.44827
#
# Velocity S-wave (km/s) = 2.92343 3.61477 3.28733
# Velocity P-wave (km/s) = 4.74339 7.48703 6.26719
#
# Compressibility (1/GPa) = 0.05275116
#
# Stress axis : x y z
#
# Youngs Moduli (GPa) = 80.71543 14.65896 76.10367
#
# Poissons Ratio (x) = 0.13135 0.51211
# Poissons Ratio (y) = 0.72323 0.36594
# Poissons Ratio (z) = 0.54314 0.07049
#
# Static dielectric constant tensor:
#      x y z
#    x 3.295500 0.000000 -0.081320 
#    y 0.000000 2.698280 0.000000 
#    z -0.081320 0.000000 3.458040 
# 
# 
# High freq. dielectric constant tensor:
#      x y z
#    x 1.656090 0.000000 -0.004990 
#    y 0.000000 1.598190 0.000000 
#    z -0.004990 0.000000 1.669590 
# 
# From -- ./inp_files/320967.got.cif
#   From: 2010.06.25/outbox.cif.g09.slc.cpg/sg12_161_cif.got.tgz:320967.got - 2010.06.28 00:19:55.
