data_PCOD8115462
_publ_section_title
;
Structure prediction by ZEFSAII (Michael W. Deem and Ramdas Pophale) SiO2 
 PCOD8115462
Probable space group: C 2/M
;
_chemical_formula_sum "Si O2"
_cell_formula_units_Z 48
_cell_length_a 11.571907
_cell_length_b 14.345070
_cell_length_c 21.328672
_cell_angle_alpha 90.000000
_cell_angle_beta 143.372000
_cell_angle_gamma 90.000000
_cell_volume 2112.356152
_symmetry_space_group_name_H-M "C 2/M"
_symmetry_group_IT_number 12
_symmetry_cell_setting 'monoclinic'
loop_
_space_group_symop_operation_xyz
x,y,z
-x,y,-z
-x,-y,-z
x,-y,z
1/2+x,1/2+y,z
1/2-x,1/2+y,-z
1/2-x,1/2-y,-z
1/2+x,1/2-y,z
loop_
_atom_site_type_symbol
_atom_site_label
_atom_site_fract_x
_atom_site_fract_y
_atom_site_fract_z
Si Si1 0.090914 0.602646 0.600904
Si Si2 0.512401 0.629733 0.278481
Si Si3 0.813400 0.500000 0.638573
Si Si4 0.538927 0.821823 0.706637
Si Si5 0.741083 0.108802 0.048460
Si Si6 0.982096 0.786321 0.923659
Si Si7 0.502240 0.500000 0.391640
O O1 0.000557 0.500000 0.574402
O O2 0.320328 0.586951 0.692254
O O3 0.018104 0.669599 0.623410
O O4 0.000000 0.648768 0.500000
O O5 0.580448 0.736176 0.317374
O O6 0.313534 0.616585 0.152417
O O7 0.499607 0.587651 0.343077
O O8 0.686586 0.500000 0.519249
O O9 0.686020 0.500000 0.646045
O O10 0.960001 0.412991 0.706811
O O11 0.758780 0.791407 0.811401
O O12 0.909905 0.145153 0.076830
O O13 0.685394 0.000000 0.010261
O O14 0.559477 0.178440 0.957412
O O15 0.000000 0.830593 0.000000
#
# Coordination Sequence:
#
# PCOD8115462 Si02
#       7
#     8   8   4   8   8   8   4
#     4  11  23  43  73 104 137 186 247 302 361 435
#     4  12  24  44  75 107 143 191 247 299 366 437
#     4  11  28  49  72 106 157 197 239 301 380 438
#     4  12  26  46  72 105 148 194 241 308 367 438
#     4  11  24  47  75 107 142 187 242 307 372 429
#     4  11  25  47  71 108 145 184 247 302 361 449
#     4  11  26  49  73 111 149 194 248 299 368 460
#
# _framework density 22.723441000000001
#
# number of rings (size 3 to 8) (size 9 to 14) (size 15 to 20)
#    0.000    0.667    5.833    1.000    3.500    3.333 
#    1.500    0.000    0.000    0.000    0.000    0.000 
#    0.000    0.000    0.000    0.000    0.000    0.000 
#
# Total GULP energy -297370.357362 kJ/mol
# GULP energy per Si atom -12390.431557 kJ/mol
# Density = 2.267172 g / cm^3
# Si number density = 22.723441 Si / 1000 Ang^3
#
#
#
# Elastic Constant Matrix: (Units=GPa)
#
#
# Indices 1 2 3 4 5 6 
#
# 1 105.4631 42.3690 13.4081 0.0000 -5.3176 0.0000
# 2 42.3690 177.2643 38.3144 0.0000 -0.8568 0.0000
# 3 13.4081 38.3144 70.0516 0.0001 -3.2960 0.0001
# 4 0.0000 0.0000 0.0001 32.5746 0.0001 -3.5975
# 5 -5.3176 -0.8568 -3.2960 0.0001 42.0016 0.0001
# 6 0.0000 0.0000 0.0001 -3.5975 0.0001 32.7711
#
#
#
# Elastic Compliance Matrix: (Units=1/GPa)
#
#
# Indices 1 2 3 4 5 6 
#
# 1 0.010585 -0.002380 -0.000666 0.000000 0.001239 0.000000
# 2 -0.002380 0.006934 -0.003357 0.000000 -0.000423 0.000000
# 3 -0.000666 -0.003357 0.016292 0.000000 0.001126 0.000000
# 4 0.000000 0.000000 0.000000 0.031075 0.000000 0.003411
# 5 0.001239 -0.000423 0.001126 0.000000 0.024045 0.000000
# 6 0.000000 0.000000 0.000000 0.003411 0.000000 0.030889
#
#
# Mechanical properties :
#
#
# Convention : Reuss Voigt Hill
#
# Bulk Modulus (GPa) = 47.60771 60.10690 53.85730
# Shear Modulus (GPa) = 35.80953 38.71530 37.26241
#
# Velocity S-wave (km/s) = 3.97405 4.13214 4.05387
# Velocity P-wave (km/s) = 6.48489 7.01962 6.75755
#
# Compressibility (1/GPa) = 0.02100500
#
# Stress axis : x y z
#
# Youngs Moduli (GPa) = 94.47024 144.22400 61.38151
#
# Poissons Ratio (x) = 0.34327 0.04088
# Poissons Ratio (y) = 0.22485 0.20604
# Poissons Ratio (z) = 0.06291 0.48411
#
# Static dielectric constant tensor:
#      x y z
#    x 4.247800 0.000000 -0.013090 
#    y 0.000000 4.338510 0.000000 
#    z -0.013090 0.000000 4.001760 
# 
# 
# High freq. dielectric constant tensor:
#      x y z
#    x 1.913270 0.000000 -0.001530 
#    y 0.000000 1.897470 0.000000 
#    z -0.001530 0.000000 1.894070 
# 
# From -- ./inp_files/305722.got.cif
#   From: 2010.06.25/outbox.cif.g09.slc.cpg/sg12_153_cif.got.tgz:305722.got - 2010.06.28 00:19:55.
