data_PCOD8115719
_publ_section_title
;
Structure prediction by ZEFSAII (Michael W. Deem and Ramdas Pophale) SiO2 
 PCOD8115719
Probable space group: C 2/M
;
_chemical_formula_sum "Si O2"
_cell_formula_units_Z 48
_cell_length_a 16.571783
_cell_length_b 18.437504
_cell_length_c 19.808459
_cell_angle_alpha 90.000000
_cell_angle_beta 20.185533
_cell_angle_gamma 90.000000
_cell_volume 2088.421770
_symmetry_space_group_name_H-M "C 2/M"
_symmetry_group_IT_number 12
_symmetry_cell_setting 'monoclinic'
loop_
_space_group_symop_operation_xyz
x,y,z
-x,y,-z
-x,-y,-z
x,-y,z
1/2+x,1/2+y,z
1/2-x,1/2+y,-z
1/2-x,1/2-y,-z
1/2+x,1/2-y,z
loop_
_atom_site_type_symbol
_atom_site_label
_atom_site_fract_x
_atom_site_fract_y
_atom_site_fract_z
Si Si1 0.557095 0.295037 0.607557
Si Si2 0.937362 0.338482 0.472747
Si Si3 0.676205 0.078653 0.671767
Si Si4 0.676636 0.078650 0.171509
Si Si5 0.556962 0.294999 0.107639
Si Si6 0.062916 0.661421 0.027021
O O1 0.750000 0.250000 0.500000
O O2 0.441707 0.235788 0.647994
O O3 0.649431 0.357752 0.485961
O O4 0.344719 0.329071 0.817719
O O5 0.655543 0.328915 0.682059
O O6 0.000000 0.356540 0.500000
O O7 0.032320 0.403952 0.352679
O O8 0.499918 0.070134 0.749996
O O9 0.802344 0.000000 0.583565
O O10 0.531802 0.096008 0.852996
O O11 0.802722 0.000000 0.083356
O O12 0.851134 0.142162 0.013580
O O13 0.750000 0.250000 0.000000
O O14 0.442047 0.235738 0.147635
O O15 0.000000 0.643247 0.000000
#
# Coordination Sequence:
#
# PCOD8115719 Si02
#       6
#     8   8   8   8   8   8
#     4  12  23  42  72 100 128 176 226 274 322 395
#     4  12  25  41  69 101 133 171 223 278 333 389
#     4  11  25  43  66  99 135 173 222 275 331 394
#     4  11  25  43  66  99 135 173 222 275 331 394
#     4  12  23  42  72 100 128 176 226 274 322 395
#     4  12  25  41  69 101 133 171 223 278 333 389
#
# _framework density 22.983862999999999
#
# number of rings (size 3 to 8) (size 9 to 14) (size 15 to 20)
#    0.000    0.333    6.667    2.000    0.000    2.000 
#    0.000    5.000    0.000    0.000    0.000    0.000 
#    0.000    0.000    0.000    0.000    0.000    0.000 
#
# Total GULP energy -297343.683534 kJ/mol
# GULP energy per Si atom -12389.320147 kJ/mol
# Density = 2.293155 g / cm^3
# Si number density = 22.983863 Si / 1000 Ang^3
#
#
#
# Elastic Constant Matrix: (Units=GPa)
#
#
# Indices 1 2 3 4 5 6 
#
# 1 107.5292 53.2126 16.0009 0.5020 23.4902 0.0745
# 2 53.2126 159.8704 41.7945 0.0912 27.3044 0.0842
# 3 16.0009 41.7945 99.3712 1.0265 21.3025 0.2280
# 4 0.5020 0.0912 1.0265 40.7791 -0.2645 21.4948
# 5 23.4902 27.3044 21.3025 -0.2645 41.3419 -0.0069
# 6 0.0745 0.0842 0.2280 21.4948 -0.0069 50.0943
#
#
#
# Elastic Compliance Matrix: (Units=1/GPa)
#
#
# Indices 1 2 3 4 5 6 
#
# 1 0.011904 -0.003261 0.000501 -0.000227 -0.004869 0.000082
# 2 -0.003261 0.008404 -0.002493 0.000087 -0.002412 -0.000036
# 3 0.000501 -0.002493 0.012078 -0.000399 -0.004864 0.000119
# 4 -0.000227 0.000087 -0.000399 0.031709 0.000477 -0.013604
# 5 -0.004869 -0.002412 -0.004864 0.000477 0.031058 -0.000167
# 6 0.000082 -0.000036 0.000119 -0.013604 -0.000167 0.025799
#
#
# Mechanical properties :
#
#
# Convention : Reuss Voigt Hill
#
# Bulk Modulus (GPa) = 45.70703 65.42075 55.56389
# Shear Modulus (GPa) = 36.03552 43.49390 39.76471
#
# Velocity S-wave (km/s) = 3.96392 4.35485 4.16398
# Velocity P-wave (km/s) = 6.39374 7.33566 6.88084
#
# Compressibility (1/GPa) = 0.02187847
#
# Stress axis : x y z
#
# Youngs Moduli (GPa) = 84.00564 118.98494 82.79645
#
# Poissons Ratio (x) = 0.38806 -0.04148
# Poissons Ratio (y) = 0.27398 0.20644
# Poissons Ratio (z) = -0.04208 0.29667
#
# Static dielectric constant tensor:
#      x y z
#    x 4.060520 -0.000960 0.233340 
#    y -0.000960 5.679050 0.000610 
#    z 0.233340 0.000610 4.109710 
# 
# 
# High freq. dielectric constant tensor:
#      x y z
#    x 1.910080 -0.000010 0.027920 
#    y -0.000010 1.903470 0.000060 
#    z 0.027920 0.000060 1.906260 
# 
# From -- ./inp_files/317474.got.cif
#   From: 2010.06.25/outbox.cif.g09.slc.cpg/sg12_159_cif.got.tgz:317474.got - 2010.06.28 00:19:55.
