data_PCOD8115335
_publ_section_title
;
Structure prediction by ZEFSAII (Michael W. Deem and Ramdas Pophale) SiO2 
 PCOD8115335
Probable space group: C 2/M
;
_chemical_formula_sum "Si O2"
_cell_formula_units_Z 56
_cell_length_a 9.152166
_cell_length_b 15.348092
_cell_length_c 19.512470
_cell_angle_alpha 90.000000
_cell_angle_beta 90.000000
_cell_angle_gamma 90.000000
_cell_volume 2740.883212
_symmetry_space_group_name_H-M "C 2/M"
_symmetry_group_IT_number 12
_symmetry_cell_setting 'monoclinic'
loop_
_space_group_symop_operation_xyz
x,y,z
-x,y,-z
-x,-y,-z
x,-y,z
1/2+x,1/2+y,z
1/2-x,1/2+y,-z
1/2-x,1/2-y,-z
1/2+x,1/2-y,z
loop_
_atom_site_type_symbol
_atom_site_label
_atom_site_fract_x
_atom_site_fract_y
_atom_site_fract_z
Si Si1 0.832551 0.000000 0.918893
Si Si2 0.173267 0.337813 0.147288
Si Si3 0.826733 0.337813 0.147288
Si Si4 0.330674 0.098692 0.295481
Si Si5 0.665541 0.603583 0.425435
Si Si6 0.665541 0.603583 0.574564
Si Si7 0.330675 0.901308 0.704519
Si Si8 0.332551 0.500000 0.081107
O O1 0.745999 0.916070 0.893439
O O2 1.000000 0.000000 0.891371
O O3 0.831743 0.000000 1.000000
O O4 0.250000 0.250000 0.120829
O O5 0.206675 0.346654 0.228002
O O6 0.245999 0.416070 0.106561
O O7 0.000000 0.336222 0.132497
O O8 0.793325 0.346654 0.228002
O O9 0.255225 0.143180 0.361737
O O10 0.500000 0.098220 0.311614
O O11 0.274213 0.000000 0.283156
O O12 0.677529 0.500000 0.423273
O O13 0.725158 0.636019 0.500000
O O14 0.500000 0.634553 0.416520
O O15 0.677529 0.500000 0.576726
O O16 0.755225 0.643180 0.638262
O O17 0.274212 0.000000 0.716844
#
# Coordination Sequence:
#
# PCOD8115335 Si02
#       8
#     4   8   8   8   8   8   8   4
#     4  11  25  45  69  97 126 159 200 243 295 360
#     4  11  23  41  64  93 127 163 204 250 300 358
#     4  11  23  41  64  93 127 163 204 250 300 358
#     4   9  17  31  51  77 111 150 194 244 298 353
#     4   8  14  24  40  68 105 144 190 242 295 351
#     4   8  14  24  40  68 105 144 190 242 295 351
#     4   9  17  31  51  77 111 150 194 244 298 353
#     4  11  25  45  69  97 126 159 200 243 295 360
#
# _framework density 20.431369
#
# number of rings (size 3 to 8) (size 9 to 14) (size 15 to 20)
#    0.000    2.429    1.429    2.143    0.000    4.571 
#    0.000    2.857    0.000    0.857    0.000    0.000 
#    0.000    0.000    0.000    0.000    0.000    0.000 
#
# Total GULP energy -347095.732511 kJ/mol
# GULP energy per Si atom -12396.276161 kJ/mol
# Density = 2.038487 g / cm^3
# Si number density = 20.431369 Si / 1000 Ang^3
#
#
#
# Elastic Constant Matrix: (Units=GPa)
#
#
# Indices 1 2 3 4 5 6 
#
# 1 109.0260 56.1251 63.5086 0.0000 0.0000 0.0000
# 2 56.1251 105.6325 37.1985 0.0000 0.0001 0.0000
# 3 63.5086 37.1985 100.3006 0.0000 0.0003 0.0000
# 4 0.0000 0.0000 0.0000 -26.8575 0.0000 0.0004
# 5 0.0000 0.0001 0.0003 0.0000 38.7215 0.0000
# 6 0.0000 0.0000 0.0000 0.0004 0.0000 25.2761
#
#
#
# Elastic Compliance Matrix: (Units=1/GPa)
#
#
# Indices 1 2 3 4 5 6 
#
# 1 0.017464 -0.006194 -0.008761 0.000000 0.000000 0.000000
# 2 -0.006194 0.013086 -0.000931 0.000000 0.000000 0.000000
# 3 -0.008761 -0.000931 0.015863 0.000000 0.000000 0.000000
# 4 0.000000 0.000000 0.000000 -0.037234 0.000000 0.000001
# 5 0.000000 0.000000 0.000000 0.000000 0.025825 0.000000
# 6 0.000000 0.000000 0.000000 0.000001 0.000000 0.039563
#
#
# Mechanical properties :
#
#
# Convention : Reuss Voigt Hill
#
# Bulk Modulus (GPa) = 68.30394 69.84706 69.07550
# Shear Modulus (GPa) = 44.95653 17.96982 31.46317
#
# Velocity S-wave (km/s) = 4.69590 2.96889 3.92847
# Velocity P-wave (km/s) = 7.93129 6.78327 7.37964
#
# Compressibility (1/GPa) = 0.01464044
#
# Stress axis : x y z
#
# Youngs Moduli (GPa) = 57.26131 76.41953 63.04175
#
# Poissons Ratio (x) = 0.47333 0.55229
# Poissons Ratio (y) = 0.35467 0.05871
# Poissons Ratio (z) = 0.50165 0.07116
#
# Static dielectric constant tensor:
#      x y z
#    x 3.759710 0.000000 0.000000 
#    y 0.000000 3.249860 0.000000 
#    z 0.000000 0.000000 4.006210 
# 
# 
# High freq. dielectric constant tensor:
#      x y z
#    x 1.796440 0.000000 0.000000 
#    y 0.000000 1.774730 0.000000 
#    z 0.000000 0.000000 1.806730 
# 
# From -- ./inp_files/300203.got.cif
#   From: 2010.06.25/outbox.cif.g09.slc.cpg/sg12_151_cif.got.tgz:300203.got - 2010.06.28 00:19:55.
