data_PCOD8115868
_publ_section_title
;
Structure prediction by ZEFSAII (Michael W. Deem and Ramdas Pophale) SiO2 
 PCOD8115868
Probable space group: C 2/M
;
_chemical_formula_sum "Si O2"
_cell_formula_units_Z 40
_cell_length_a 25.524512
_cell_length_b 8.624376
_cell_length_c 10.351126
_cell_angle_alpha 90.000000
_cell_angle_beta 76.694983
_cell_angle_gamma 90.000000
_cell_volume 2217.463122
_symmetry_space_group_name_H-M "C 2/M"
_symmetry_group_IT_number 12
_symmetry_cell_setting 'monoclinic'
loop_
_space_group_symop_operation_xyz
x,y,z
-x,y,-z
-x,-y,-z
x,-y,z
1/2+x,1/2+y,z
1/2-x,1/2+y,-z
1/2-x,1/2-y,-z
1/2+x,1/2-y,z
loop_
_atom_site_type_symbol
_atom_site_label
_atom_site_fract_x
_atom_site_fract_y
_atom_site_fract_z
Si Si1 0.997311 0.330335 0.154305
Si Si2 0.113508 0.684509 0.095918
Si Si3 0.726096 0.682845 0.643469
Si Si4 0.618804 0.815385 0.795360
Si Si5 0.217914 0.817363 0.138323
O O1 0.996226 0.500000 0.219463
O O2 0.053393 0.249018 0.166519
O O3 0.939908 0.249219 0.219622
O O4 0.000000 0.351034 0.000000
O O5 0.115715 0.500000 0.114999
O O6 0.155395 0.769438 0.165513
O O7 0.128254 0.726206 0.940012
O O8 0.731921 0.500000 0.641609
O O9 0.750000 0.750000 0.500000
O O10 0.663536 0.730048 0.685696
O O11 0.758817 0.752867 0.743071
O O12 0.621880 0.000000 0.773889
O O13 0.224605 0.000000 0.133663
O O14 0.250000 0.750000 0.000000
#
# Coordination Sequence:
#
# PCOD8115868 Si02
#       5
#     8   8   8   8   8
#     4   7  12  24  46  77 108 141 176 214 262 319
#     4   9  16  29  52  81 112 143 179 220 266 319
#     4  12  25  40  57  79 109 146 186 227 276 329
#     4   9  16  30  53  79 110 144 181 221 265 319
#     4  12  23  36  55  81 112 146 183 227 276 322
#
# _framework density 18.038632
#
# number of rings (size 3 to 8) (size 9 to 14) (size 15 to 20)
#    0.000    2.200    2.000    6.000    0.000    0.000 
#    0.000    1.000    0.000    4.800    0.000    8.400 
#    0.000    0.000    0.000    0.000    0.000    0.000 
#
# Total GULP energy -247809.245704 kJ/mol
# GULP energy per Si atom -12390.462285 kJ/mol
# Density = 1.799758 g / cm^3
# Si number density = 18.038632 Si / 1000 Ang^3
#
#
#
# Elastic Constant Matrix: (Units=GPa)
#
#
# Indices 1 2 3 4 5 6 
#
# 1 189.6464 58.6606 68.9693 0.0000 -13.1379 0.0000
# 2 58.6606 100.7523 44.0510 0.0000 -4.2809 0.0000
# 3 68.9693 44.0510 95.0981 0.0000 -5.2596 0.0000
# 4 0.0000 0.0000 0.0000 21.9567 0.0000 -0.4382
# 5 -13.1379 -4.2809 -5.2596 0.0000 20.3366 0.0000
# 6 0.0000 0.0000 0.0000 -0.4382 0.0000 24.8387
#
#
#
# Elastic Compliance Matrix: (Units=1/GPa)
#
#
# Indices 1 2 3 4 5 6 
#
# 1 0.007877 -0.002540 -0.004346 0.000000 0.003430 0.000000
# 2 -0.002540 0.013291 -0.004312 0.000000 0.000042 0.000000
# 3 -0.004346 -0.004312 0.015684 0.000000 0.000341 0.000000
# 4 0.000000 0.000000 0.000000 0.045560 0.000000 0.000804
# 5 0.003430 0.000042 0.000341 0.000000 0.051485 0.000000
# 6 0.000000 0.000000 0.000000 0.000804 0.000000 0.040274
#
#
# Mechanical properties :
#
#
# Convention : Reuss Voigt Hill
#
# Bulk Modulus (GPa) = 69.18118 80.98428 75.08273
# Shear Modulus (GPa) = 24.82776 27.68080 26.25428
#
# Velocity S-wave (km/s) = 3.71397 3.92156 3.81917
# Velocity P-wave (km/s) = 7.53832 8.09303 7.82060
#
# Compressibility (1/GPa) = 0.01445480
#
# Stress axis : x y z
#
# Youngs Moduli (GPa) = 126.95298 75.23639 63.75915
#
# Poissons Ratio (x) = 0.19111 0.27712
# Poissons Ratio (y) = 0.32247 0.27495
# Poissons Ratio (z) = 0.55179 0.32444
#
# Static dielectric constant tensor:
#      x y z
#    x 3.996580 0.000000 -0.347300 
#    y 0.000000 3.150620 0.000000 
#    z -0.347300 0.000000 1.367740 
# 
# 
# High freq. dielectric constant tensor:
#      x y z
#    x 1.730870 0.000000 -0.008450 
#    y 0.000000 1.677020 0.000000 
#    z -0.008450 0.000000 1.647830 
# 
# From -- ./inp_files/101025.got.cif
#   From: 2010.06.25/outbox.cif.g09.slc.cpg/sg12_51_cif.got.tgz:101025.got - 2010.06.28 00:19:55.
