data_PCOD8115370
_publ_section_title
;
Structure prediction by ZEFSAII (Michael W. Deem and Ramdas Pophale) SiO2 
 PCOD8115370
Probable space group: C 2/M
;
_chemical_formula_sum "Si O2"
_cell_formula_units_Z 48
_cell_length_a 17.384854
_cell_length_b 27.457510
_cell_length_c 10.638461
_cell_angle_alpha 90.000000
_cell_angle_beta 24.294017
_cell_angle_gamma 90.000000
_cell_volume 2089.274691
_symmetry_space_group_name_H-M "C 2/M"
_symmetry_group_IT_number 12
_symmetry_cell_setting 'monoclinic'
loop_
_space_group_symop_operation_xyz
x,y,z
-x,y,-z
-x,-y,-z
x,-y,z
1/2+x,1/2+y,z
1/2-x,1/2+y,-z
1/2-x,1/2-y,-z
1/2+x,1/2-y,z
loop_
_atom_site_type_symbol
_atom_site_label
_atom_site_fract_x
_atom_site_fract_y
_atom_site_fract_z
Si Si1 0.019104 0.209280 0.621100
Si Si2 0.286005 0.054790 0.802439
Si Si3 0.075981 0.893905 0.616664
Si Si4 0.773122 0.396400 0.584416
Si Si5 0.820418 0.304293 0.687758
Si Si6 0.599633 0.053116 0.981949
O O1 0.127678 0.161130 0.503061
O O2 0.137475 0.258635 0.468118
O O3 0.000000 0.206252 0.500000
O O4 0.829508 0.211884 0.984041
O O5 0.500000 0.072827 0.500000
O O6 0.231293 0.057604 0.736947
O O7 0.258741 0.000000 0.893007
O O8 0.141393 0.091834 0.087206
O O9 0.127184 0.898729 0.687865
O O10 0.190645 0.929440 0.355382
O O11 0.749883 0.347354 0.701825
O O12 0.988410 0.404576 0.221320
O O13 0.000000 0.321179 0.500000
O O14 0.604971 0.000000 0.044224
O O15 0.500000 0.044710 0.000000
#
# Coordination Sequence:
#
# PCOD8115370 Si02
#       6
#     8   8   8   8   8   8
#     4  11  25  42  67  96 130 178 226 273 340 405
#     4  11  24  42  66  98 136 180 225 273 332 399
#     4  11  24  41  67 103 134 176 224 279 337 398
#     4  11  23  41  68  99 137 175 222 279 339 396
#     4  11  24  43  68  96 132 179 223 277 336 411
#     4   9  20  38  61  93 133 176 216 263 328 393
#
# _framework density 22.974481000000001
#
# number of rings (size 3 to 8) (size 9 to 14) (size 15 to 20)
#    0.000    1.333    1.667    4.000    4.667    3.333 
#    0.000    0.000    0.000    4.000    0.000    0.000 
#    0.000    0.000    0.000    0.000    0.000    0.000 
#
# Total GULP energy -297357.402252 kJ/mol
# GULP energy per Si atom -12389.891760 kJ/mol
# Density = 2.292219 g / cm^3
# Si number density = 22.974481 Si / 1000 Ang^3
#
#
#
# Elastic Constant Matrix: (Units=GPa)
#
#
# Indices 1 2 3 4 5 6 
#
# 1 55.6873 31.7388 35.3975 -0.0064 4.0074 -0.0006
# 2 31.7388 128.0553 49.8600 -0.0013 -4.1068 -0.0014
# 3 35.3975 49.8600 155.4198 -0.0167 -5.4271 0.0017
# 4 -0.0064 -0.0013 -0.0167 59.6444 0.0057 2.6195
# 5 4.0074 -4.1068 -5.4271 0.0057 37.0524 0.0003
# 6 -0.0006 -0.0014 0.0017 2.6195 0.0003 21.1667
#
#
#
# Elastic Compliance Matrix: (Units=1/GPa)
#
#
# Indices 1 2 3 4 5 6 
#
# 1 0.023232 -0.004301 -0.004036 0.000002 -0.003581 0.000001
# 2 -0.004301 0.009732 -0.002099 -0.000001 0.001236 0.000001
# 3 -0.004036 -0.002099 0.008075 0.000002 0.001387 -0.000001
# 4 0.000002 -0.000001 0.000002 0.016858 -0.000003 -0.002086
# 5 -0.003581 0.001236 0.001387 -0.000003 0.027716 0.000000
# 6 0.000001 0.000001 -0.000001 -0.002086 0.000000 0.047502
#
#
# Mechanical properties :
#
#
# Convention : Reuss Voigt Hill
#
# Bulk Modulus (GPa) = 49.58893 63.68387 56.63640
# Shear Modulus (GPa) = 31.11148 38.38378 34.74763
#
# Velocity S-wave (km/s) = 3.68390 4.09187 3.89324
# Velocity P-wave (km/s) = 6.30286 7.07843 6.70187
#
# Compressibility (1/GPa) = 0.02016579
#
# Stress axis : x y z
#
# Youngs Moduli (GPa) = 43.04337 102.75056 123.83287
#
# Poissons Ratio (x) = 0.44197 0.49984
# Poissons Ratio (y) = 0.18515 0.25997
# Poissons Ratio (z) = 0.17374 0.21571
#
# Static dielectric constant tensor:
#      x y z
#    x 3.938260 -0.000010 0.190630 
#    y -0.000010 4.551520 0.000010 
#    z 0.190630 0.000010 4.450470 
# 
# 
# High freq. dielectric constant tensor:
#      x y z
#    x 1.884820 0.000000 0.011920 
#    y 0.000000 1.916780 0.000000 
#    z 0.011920 0.000000 1.924350 
# 
# From -- ./inp_files/170796.got.cif
#   From: 2010.06.25/outbox.cif.g09.slc.cpg/sg12_86_cif.got.tgz:170796.got - 2010.06.28 00:19:55.
