data_PCOD8115279
_publ_section_title
;
Structure prediction by ZEFSAII (Michael W. Deem and Ramdas Pophale) SiO2 
 PCOD8115279
Probable space group: C 2/M
;
_chemical_formula_sum "Si O2"
_cell_formula_units_Z 32
_cell_length_a 4.878610
_cell_length_b 24.535747
_cell_length_c 12.185318
_cell_angle_alpha 90.000000
_cell_angle_beta 94.608761
_cell_angle_gamma 90.000000
_cell_volume 1453.870527
_symmetry_space_group_name_H-M "C 2/M"
_symmetry_group_IT_number 12
_symmetry_cell_setting 'monoclinic'
loop_
_space_group_symop_operation_xyz
x,y,z
-x,y,-z
-x,-y,-z
x,-y,z
1/2+x,1/2+y,z
1/2-x,1/2+y,-z
1/2-x,1/2-y,-z
1/2+x,1/2-y,z
loop_
_atom_site_type_symbol
_atom_site_label
_atom_site_fract_x
_atom_site_fract_y
_atom_site_fract_z
Si Si1 0.282002 0.213498 0.727189
Si Si2 0.266574 0.360686 0.073817
Si Si3 0.064912 0.393642 0.376823
Si Si4 0.473917 0.437633 0.744166
O O1 0.469346 0.266082 0.711582
O O2 0.331423 0.187305 0.848245
O O3 0.332818 0.168479 0.635047
O O4 0.390089 0.411898 0.143450
O O5 0.500000 0.337612 0.000000
O O6 0.000000 0.381587 0.000000
O O7 0.799693 0.403949 0.292773
O O8 0.000000 0.406160 0.500000
O O9 0.310483 0.433849 0.349110
O O10 0.396115 0.500000 0.764511
#
# Coordination Sequence:
#
# PCOD8115279 Si02
#       4
#     8   8   8   8
#     4  11  23  40  62  90 123 160 204 251 301 360
#     4  11  23  40  62  90 125 162 204 251 301 360
#     4  11  24  42  64  92 125 160 203 253 303 362
#     4  11  24  42  64  92 125 160 203 253 303 362
#
# _framework density 22.010214000000001
#
# number of rings (size 3 to 8) (size 9 to 14) (size 15 to 20)
#    0.000    1.000    0.000    9.000    0.000    8.000 
#    0.000    0.000    0.000    0.000    0.000    0.000 
#    0.000    0.000    0.000    0.000    0.000    0.000 
#
# Total GULP energy -198489.669349 kJ/mol
# GULP energy per Si atom -12405.604334 kJ/mol
# Density = 2.196012 g / cm^3
# Si number density = 22.010214 Si / 1000 Ang^3
#
#
#
# Elastic Constant Matrix: (Units=GPa)
#
#
# Indices 1 2 3 4 5 6 
#
# 1 108.0356 21.3664 9.0854 0.0000 -4.0870 0.0000
# 2 21.3664 90.4641 1.1893 0.0000 5.9842 0.0000
# 3 9.0854 1.1893 34.8293 0.0000 -3.1847 0.0000
# 4 0.0000 0.0000 0.0000 12.9626 0.0000 -4.6936
# 5 -4.0870 5.9842 -3.1847 0.0000 39.3290 0.0000
# 6 0.0000 0.0000 0.0000 -4.6936 0.0000 31.6800
#
#
#
# Elastic Compliance Matrix: (Units=1/GPa)
#
#
# Indices 1 2 3 4 5 6 
#
# 1 0.009980 -0.002405 -0.002411 0.000000 0.001208 0.000000
# 2 -0.002405 0.011756 0.000040 0.000000 -0.002036 0.000000
# 3 -0.002411 0.000040 0.029534 0.000000 0.002135 0.000000
# 4 0.000000 0.000000 0.000000 0.081518 0.000000 0.012078
# 5 0.001208 -0.002036 0.002135 0.000000 0.026035 0.000000
# 6 0.000000 0.000000 0.000000 0.012078 0.000000 0.033355
#
#
# Mechanical properties :
#
#
# Convention : Reuss Voigt Hill
#
# Bulk Modulus (GPa) = 23.97036 32.95679 28.46357
# Shear Modulus (GPa) = 23.18702 30.24017 26.71359
#
# Velocity S-wave (km/s) = 3.24924 3.71066 3.48759
# Velocity P-wave (km/s) = 4.99909 5.77621 5.40164
#
# Compressibility (1/GPa) = 0.04171820
#
# Stress axis : x y z
#
# Youngs Moduli (GPa) = 100.19664 85.06027 33.85905
#
# Poissons Ratio (x) = 0.20461 0.08163
# Poissons Ratio (y) = 0.24102 -0.00135
# Poissons Ratio (z) = 0.24156 -0.00339
#
# Static dielectric constant tensor:
#      x y z
#    x 4.200300 0.000000 -0.223780 
#    y 0.000000 3.748840 0.000000 
#    z -0.223780 0.000000 3.874590 
# 
# 
# High freq. dielectric constant tensor:
#      x y z
#    x 1.889250 0.000000 -0.012140 
#    y 0.000000 1.857160 0.000000 
#    z -0.012140 0.000000 1.860370 
# 
# From -- ./inp_files/114511.got.cif
#   From: 2010.06.25/outbox.cif.g09.slc.cpg/sg12_58_cif.got.tgz:114511.got - 2010.06.28 00:19:55.
