data_PCOD8115753
_publ_section_title
;
Structure prediction by ZEFSAII (Michael W. Deem and Ramdas Pophale) SiO2 
 PCOD8115753
Probable space group: C 2/M
;
_chemical_formula_sum "Si O2"
_cell_formula_units_Z 40
_cell_length_a 15.369126
_cell_length_b 8.668130
_cell_length_c 14.207354
_cell_angle_alpha 90.000000
_cell_angle_beta 88.227028
_cell_angle_gamma 90.000000
_cell_volume 1891.820067
_symmetry_space_group_name_H-M "C 2/M"
_symmetry_group_IT_number 12
_symmetry_cell_setting 'monoclinic'
loop_
_space_group_symop_operation_xyz
x,y,z
-x,y,-z
-x,-y,-z
x,-y,z
1/2+x,1/2+y,z
1/2-x,1/2+y,-z
1/2-x,1/2-y,-z
1/2+x,1/2-y,z
loop_
_atom_site_type_symbol
_atom_site_label
_atom_site_fract_x
_atom_site_fract_y
_atom_site_fract_z
Si Si1 0.159939 0.178727 0.783177
Si Si2 0.897138 0.322965 0.398242
Si Si3 0.502382 0.178906 0.109413
Si Si4 0.336720 0.678703 0.795079
Si Si5 0.101479 0.677132 0.389898
O O1 0.154581 0.215064 0.672074
O O2 0.239079 0.273281 0.827631
O O3 0.070632 0.222225 0.836524
O O4 0.179054 0.000000 0.796552
O O5 0.871554 0.500000 0.379852
O O6 0.871723 0.274700 0.505201
O O7 0.999256 0.300214 0.378456
O O8 0.596633 0.222327 0.145650
O O9 0.484302 0.000000 0.130493
O O10 0.500000 0.218159 0.000000
O O11 0.351864 0.500000 0.815748
O O12 0.348232 0.713084 0.683808
O O13 0.127213 0.500000 0.369499
#
# Coordination Sequence:
#
# PCOD8115753 Si02
#       5
#     8   8   8   8   8
#     4  12  25  41  65  96 130 169 211 259 311 373
#     4   9  18  35  61  91 127 170 212 257 309 367
#     4  11  25  47  72  95 124 161 203 260 324 381
#     4  12  25  41  65  96 130 169 211 259 311 373
#     4   9  18  35  61  91 127 170 212 257 309 367
#
# _framework density 21.143661999999999
#
# number of rings (size 3 to 8) (size 9 to 14) (size 15 to 20)
#    0.000    1.400    2.000    5.400    0.000    4.000 
#    0.000    2.000    0.000    0.000    0.000    0.000 
#    0.000    0.000    0.000    0.000    0.000    0.000 
#
# Total GULP energy -248103.682454 kJ/mol
# GULP energy per Si atom -12405.184123 kJ/mol
# Density = 2.109554 g / cm^3
# Si number density = 21.143662 Si / 1000 Ang^3
#
#
#
# Elastic Constant Matrix: (Units=GPa)
#
#
# Indices 1 2 3 4 5 6 
#
# 1 86.8906 9.6782 32.8114 0.0000 16.1038 0.0000
# 2 9.6782 74.3795 32.9397 0.0000 0.8278 0.0000
# 3 32.8114 32.9397 101.5850 0.0000 11.3304 0.0000
# 4 0.0000 0.0000 0.0000 28.2619 0.0000 1.3320
# 5 16.1038 0.8278 11.3304 0.0000 9.0019 0.0000
# 6 0.0000 0.0000 0.0000 1.3320 0.0000 34.0393
#
#
#
# Elastic Compliance Matrix: (Units=1/GPa)
#
#
# Indices 1 2 3 4 5 6 
#
# 1 0.017834 -0.001029 -0.002186 0.000000 -0.029059 0.000000
# 2 -0.001029 0.016021 -0.005704 0.000000 0.007548 0.000000
# 3 -0.002186 -0.005704 0.013849 0.000000 -0.012997 0.000000
# 4 0.000000 0.000000 0.000000 0.035449 0.000000 -0.001387
# 5 -0.029059 0.007548 -0.012997 0.000000 0.178737 0.000000
# 6 0.000000 0.000000 0.000000 -0.001387 0.000000 0.029432
#
#
# Mechanical properties :
#
#
# Convention : Reuss Voigt Hill
#
# Bulk Modulus (GPa) = 33.48284 45.96819 39.72551
# Shear Modulus (GPa) = 15.66834 26.75567 21.21200
#
# Velocity S-wave (km/s) = 2.72516 3.56114 3.17082
# Velocity P-wave (km/s) = 5.07664 6.22069 5.67756
#
# Compressibility (1/GPa) = 0.02986604
#
# Stress axis : x y z
#
# Youngs Moduli (GPa) = 56.07191 62.41939 72.20648
#
# Poissons Ratio (x) = 0.06425 0.15781
# Poissons Ratio (y) = 0.05771 0.41188
# Poissons Ratio (z) = 0.12255 0.35605
#
# Static dielectric constant tensor:
#      x y z
#    x 3.753020 0.000000 0.054140 
#    y 0.000000 3.652180 0.000000 
#    z 0.054140 0.000000 3.902360 
# 
# 
# High freq. dielectric constant tensor:
#      x y z
#    x 1.833170 0.000000 0.004670 
#    y 0.000000 1.822900 0.000000 
#    z 0.004670 0.000000 1.828130 
# 
# From -- ./inp_files/211357.got.cif
#   From: 2010.06.25/outbox.cif.g09.slc.cpg/sg12_106_cif.got.tgz:211357.got - 2010.06.28 00:19:55.
