data_PCOD8115685
_publ_section_title
;
Structure prediction by ZEFSAII (Michael W. Deem and Ramdas Pophale) SiO2 
 PCOD8115685
Probable space group: C 2/M
;
_chemical_formula_sum "Si O2"
_cell_formula_units_Z 36
_cell_length_a 5.664014
_cell_length_b 19.219855
_cell_length_c 16.342594
_cell_angle_alpha 90.000000
_cell_angle_beta 65.135460
_cell_angle_gamma 90.000000
_cell_volume 1614.166916
_symmetry_space_group_name_H-M "C 2/M"
_symmetry_group_IT_number 12
_symmetry_cell_setting 'monoclinic'
loop_
_space_group_symop_operation_xyz
x,y,z
-x,y,-z
-x,-y,-z
x,-y,z
1/2+x,1/2+y,z
1/2-x,1/2+y,-z
1/2-x,1/2-y,-z
1/2+x,1/2-y,z
loop_
_atom_site_type_symbol
_atom_site_label
_atom_site_fract_x
_atom_site_fract_y
_atom_site_fract_z
Si Si1 0.484877 0.000000 0.232976
Si Si2 0.760851 0.500000 0.093152
Si Si3 0.784810 0.500000 0.429963
Si Si4 0.000000 0.789166 0.000000
Si Si5 0.328722 0.708107 0.331300
Si Si6 0.500000 0.878435 0.500000
Si Si7 0.611721 0.380024 0.834418
O O1 0.314645 0.000000 0.179390
O O2 0.643334 0.929003 0.216140
O O3 0.274783 0.000000 0.334614
O O4 0.615479 0.428606 0.097542
O O5 0.000000 0.500000 0.000000
O O6 0.500000 0.500000 0.500000
O O7 0.914643 0.571542 0.439218
O O8 0.147023 0.828517 0.904946
O O9 0.750000 0.750000 0.000000
O O10 0.576012 0.753272 0.327230
O O11 0.446348 0.658566 0.243148
O O12 0.229499 0.668237 0.427250
#
# Coordination Sequence:
#
# PCOD8115685 Si02
#       7
#     4   4   4   4   8   4   8
#     4  11  24  45  75 105 143 189 237 315 361 433
#     4  11  26  44  77 106 145 187 238 315 371 433
#     4  11  26  42  76 107 143 191 241 313 369 427
#     4  12  28  47  74 105 148 194 240 298 360 438
#     4  12  28  47  74 106 148 198 245 298 359 439
#     4  11  26  46  70 106 148 189 248 302 370 433
#     4  11  26  46  72 107 142 188 249 296 372 431
#
# _framework density 22.302526
#
# number of rings (size 3 to 8) (size 9 to 14) (size 15 to 20)
#    0.000    0.667    2.222    3.333   14.000    1.778 
#    0.000    0.000    0.000    0.000    0.000    0.000 
#    0.000    0.000    0.000    0.000    0.000    0.000 
#
# Total GULP energy -223009.186489 kJ/mol
# GULP energy per Si atom -12389.399249 kJ/mol
# Density = 2.225176 g / cm^3
# Si number density = 22.302526 Si / 1000 Ang^3
#
#
#
# Elastic Constant Matrix: (Units=GPa)
#
#
# Indices 1 2 3 4 5 6 
#
# 1 118.6342 43.6245 23.7377 0.0000 -2.3837 0.0000
# 2 43.6245 115.5783 46.1686 0.0000 -1.4984 0.0000
# 3 23.7377 46.1686 167.1056 0.0000 -3.9776 0.0000
# 4 0.0000 0.0000 0.0000 -231.8789 0.0000 -63.9893
# 5 -2.3837 -1.4984 -3.9776 0.0000 43.3595 0.0000
# 6 0.0000 0.0000 0.0000 -63.9893 0.0000 350.4929
#
#
#
# Elastic Compliance Matrix: (Units=1/GPa)
#
#
# Indices 1 2 3 4 5 6 
#
# 1 0.009820 -0.003538 -0.000408 0.000000 0.000380 0.000000
# 2 -0.003538 0.011001 -0.002538 0.000000 -0.000047 0.000000
# 3 -0.000408 -0.002538 0.006756 0.000000 0.000510 0.000000
# 4 0.000000 0.000000 0.000000 -0.004106 0.000000 -0.000750
# 5 0.000380 -0.000047 0.000510 0.000000 0.023129 0.000000
# 6 0.000000 0.000000 0.000000 -0.000750 0.000000 0.002716
#
#
# Mechanical properties :
#
#
# Convention : Reuss Voigt Hill
#
# Bulk Modulus (GPa) = 68.45984 69.81994 69.13989
# Shear Modulus (GPa) = 74.45598 51.58051 63.01825
#
# Velocity S-wave (km/s) = 5.78420 4.81434 5.32141
# Velocity P-wave (km/s) = 8.68171 7.89162 8.29607
#
# Compressibility (1/GPa) = 0.01460710
#
# Stress axis : x y z
#
# Youngs Moduli (GPa) = 101.83551 90.90204 148.02687
#
# Poissons Ratio (x) = 0.32165 0.06043
# Poissons Ratio (y) = 0.36034 0.37567
# Poissons Ratio (z) = 0.04158 0.23070
#
# Static dielectric constant tensor:
#      x y z
#    x 3.805360 0.000000 0.028070 
#    y 0.000000 4.054450 0.000000 
#    z 0.028070 0.000000 4.216620 
# 
# 
# High freq. dielectric constant tensor:
#      x y z
#    x 1.873120 0.000000 0.000350 
#    y 0.000000 1.895380 0.000000 
#    z 0.000350 0.000000 1.910330 
# 
# From -- ./inp_files/252532.got.cif
#   From: 2010.06.25/outbox.cif.g09.slc.cpg/sg12_127_cif.got.tgz:252532.got - 2010.06.28 00:19:55.
