data_PCOD8115093
_publ_section_title
;
Structure prediction by ZEFSAII (Michael W. Deem and Ramdas Pophale) SiO2 
 PCOD8115093
Probable space group: C 2/M
;
_chemical_formula_sum "Si O2"
_cell_formula_units_Z 64
_cell_length_a 18.949120
_cell_length_b 27.988299
_cell_length_c 8.956635
_cell_angle_alpha 90.000000
_cell_angle_beta 140.036189
_cell_angle_gamma 90.000000
_cell_volume 3051.060411
_symmetry_space_group_name_H-M "C 2/M"
_symmetry_group_IT_number 12
_symmetry_cell_setting 'monoclinic'
loop_
_space_group_symop_operation_xyz
x,y,z
-x,y,-z
-x,-y,-z
x,-y,z
1/2+x,1/2+y,z
1/2-x,1/2+y,-z
1/2-x,1/2-y,-z
1/2+x,1/2-y,z
loop_
_atom_site_type_symbol
_atom_site_label
_atom_site_fract_x
_atom_site_fract_y
_atom_site_fract_z
Si Si1 0.977465 0.448228 0.289303
Si Si2 0.107135 0.883278 0.272082
Si Si3 0.398566 0.554602 0.440351
Si Si4 0.270662 0.206144 0.923272
Si Si5 0.173995 0.392059 0.549700
Si Si6 0.154003 0.223264 0.429803
Si Si7 0.274930 0.894926 0.025575
Si Si8 0.511710 0.189376 0.189839
O O1 0.936945 0.500000 0.163098
O O2 0.891388 0.404752 0.131044
O O3 0.000000 0.453094 0.500000
O O4 0.086049 0.433748 0.372560
O O5 0.096658 0.909331 0.413003
O O6 0.222380 0.899973 0.388447
O O7 0.117197 0.826486 0.299558
O O8 0.000000 0.896529 0.000000
O O9 0.500000 0.564926 0.500000
O O10 0.394555 0.500000 0.492263
O O11 0.298027 0.564248 0.167112
O O12 0.195381 0.216314 0.662309
O O13 0.250000 0.250000 0.000000
O O14 0.224763 0.157475 0.919522
O O15 0.396512 0.192696 0.089651
O O16 0.218293 0.400249 0.787104
O O17 0.107697 0.341775 0.425600
O O18 0.250000 0.250000 0.500000
O O19 0.046870 0.255617 0.250081
O O20 0.500000 0.170901 0.000000
#
# Coordination Sequence:
#
# PCOD8115093 Si02
#       8
#     8   8   8   8   8   8   8   8
#     4   9  19  36  63  96 129 169 215 270 336 404
#     4  12  26  45  71 103 136 181 237 290 345 426
#     4  11  26  49  73  98 138 185 231 295 365 421
#     4  12  26  41  66 103 139 181 234 290 342 412
#     4  11  23  40  70  98 141 177 226 287 349 414
#     4  12  24  43  65  97 138 186 232 274 348 419
#     4  11  22  43  67 101 138 177 231 286 348 418
#     4  12  24  42  68  93 140 191 226 274 349 415
#
# _framework density 20.976313000000001
#
# number of rings (size 3 to 8) (size 9 to 14) (size 15 to 20)
#    0.000    0.750    5.000    2.250    0.000    3.750 
#    0.000    0.000    0.000    1.875    0.000    0.000 
#    0.000    0.000    0.000    0.000    0.000    0.000 
#
# Total GULP energy -396601.261316 kJ/mol
# GULP energy per Si atom -12393.789416 kJ/mol
# Density = 2.092857 g / cm^3
# Si number density = 20.976313 Si / 1000 Ang^3
#
#
#
# Elastic Constant Matrix: (Units=GPa)
#
#
# Indices 1 2 3 4 5 6 
#
# 1 99.0241 42.0965 34.3025 0.0000 10.9225 0.0000
# 2 42.0965 124.9929 22.3649 0.0000 -1.7582 0.0000
# 3 34.3025 22.3649 102.3870 0.0000 -5.0047 0.0000
# 4 0.0000 0.0000 0.0000 35.3752 0.0000 1.9177
# 5 10.9225 -1.7582 -5.0047 0.0000 30.3363 0.0000
# 6 0.0000 0.0000 0.0000 1.9177 0.0000 28.5504
#
#
#
# Elastic Compliance Matrix: (Units=1/GPa)
#
#
# Indices 1 2 3 4 5 6 
#
# 1 0.013865 -0.004027 -0.004054 0.000000 -0.005894 0.000000
# 2 -0.004027 0.009497 -0.000632 0.000000 0.001896 0.000000
# 3 -0.004054 -0.000632 0.011425 0.000000 0.003308 0.000000
# 4 0.000000 0.000000 0.000000 0.028372 0.000000 -0.001906
# 5 -0.005894 0.001896 0.003308 0.000000 0.035742 0.000000
# 6 0.000000 0.000000 0.000000 -0.001906 0.000000 0.035154
#
#
# Mechanical properties :
#
#
# Convention : Reuss Voigt Hill
#
# Bulk Modulus (GPa) = 57.60439 58.21465 57.90952
# Shear Modulus (GPa) = 31.79320 34.02839 32.91079
#
# Velocity S-wave (km/s) = 3.89739 4.03206 3.96530
# Velocity P-wave (km/s) = 6.91188 7.03488 6.97365
#
# Compressibility (1/GPa) = 0.01735979
#
# Stress axis : x y z
#
# Youngs Moduli (GPa) = 72.12473 105.30066 87.52929
#
# Poissons Ratio (x) = 0.42406 0.35480
# Poissons Ratio (y) = 0.29046 0.05536
# Poissons Ratio (z) = 0.29236 0.06660
#
# Static dielectric constant tensor:
#      x y z
#    x 3.846640 0.000000 0.189360 
#    y 0.000000 3.939030 0.000000 
#    z 0.189360 0.000000 4.030740 
# 
# 
# High freq. dielectric constant tensor:
#      x y z
#    x 1.818610 0.000000 0.007510 
#    y 0.000000 1.833550 0.000000 
#    z 0.007510 0.000000 1.829580 
# 
# From -- ./inp_files/80793.got.cif
#   From: 2010.06.25/outbox.cif.g09.slc.cpg/sg12_41_cif.got.tgz:80793.got - 2010.06.28 00:19:55.
