data_PCOD8115177
_publ_section_title
;
Structure prediction by ZEFSAII (Michael W. Deem and Ramdas Pophale) SiO2 
 PCOD8115177
Probable space group: C 2/M
;
_chemical_formula_sum "Si O2"
_cell_formula_units_Z 48
_cell_length_a 17.876790
_cell_length_b 7.790744
_cell_length_c 17.126850
_cell_angle_alpha 90.000000
_cell_angle_beta 90.664758
_cell_angle_gamma 90.000000
_cell_volume 2385.155705
_symmetry_space_group_name_H-M "C 2/M"
_symmetry_group_IT_number 12
_symmetry_cell_setting 'monoclinic'
loop_
_space_group_symop_operation_xyz
x,y,z
-x,y,-z
-x,-y,-z
x,-y,z
1/2+x,1/2+y,z
1/2-x,1/2+y,-z
1/2-x,1/2-y,-z
1/2+x,1/2-y,z
loop_
_atom_site_type_symbol
_atom_site_label
_atom_site_fract_x
_atom_site_fract_y
_atom_site_fract_z
Si Si1 0.583220 0.693795 0.992990
Si Si2 0.409609 0.802951 0.695778
Si Si3 0.676341 0.192753 0.852597
Si Si4 0.414947 0.803484 0.299996
Si Si5 0.587498 0.500000 0.589253
Si Si6 0.589858 0.500000 0.415326
Si Si7 0.161018 0.692382 0.143581
O O1 0.578129 0.500000 0.961351
O O2 0.629058 0.803700 0.931368
O O3 0.500000 0.772311 0.000000
O O4 0.625224 0.690967 0.076333
O O5 0.497192 0.781951 0.713733
O O6 0.382756 0.673833 0.627363
O O7 0.365713 0.742915 0.772302
O O8 0.390299 0.000000 0.671862
O O9 0.625052 0.252735 0.780231
O O10 0.749250 0.310138 0.859794
O O11 0.704597 0.000000 0.839380
O O12 0.386071 0.673418 0.366433
O O13 0.396010 0.000000 0.324237
O O14 0.623496 0.500000 0.503235
O O15 0.498899 0.500000 0.581975
O O16 0.131618 0.500000 0.129576
#
# Coordination Sequence:
#
# PCOD8115177 Si02
#       7
#     8   8   8   8   4   4   8
#     4  11  24  39  58  83 113 149 190 235 282 331
#     4   9  19  35  56  83 113 148 190 235 286 341
#     4  11  23  38  57  82 112 152 190 235 282 335
#     4   9  19  35  56  83 113 148 190 235 286 341
#     4   9  18  32  56  87 115 145 181 233 291 341
#     4   9  18  32  56  87 115 145 181 233 291 341
#     4  11  23  38  57  82 112 152 190 235 282 335
#
# _framework density 20.124471
#
# number of rings (size 3 to 8) (size 9 to 14) (size 15 to 20)
#    0.000    2.000    0.000    3.000    4.667    3.333 
#    0.000    3.333    0.000    1.000    0.000    0.000 
#    0.000    0.000    0.000    0.000    0.000    0.000 
#
# Total GULP energy -297652.069635 kJ/mol
# GULP energy per Si atom -12402.169568 kJ/mol
# Density = 2.007867 g / cm^3
# Si number density = 20.124471 Si / 1000 Ang^3
#
#
#
# Elastic Constant Matrix: (Units=GPa)
#
#
# Indices 1 2 3 4 5 6 
#
# 1 80.8452 23.4791 49.1666 0.0000 -4.2883 0.0000
# 2 23.4791 94.2145 60.1322 0.0000 -0.0865 0.0000
# 3 49.1666 60.1322 165.3022 0.0000 -10.3615 0.0000
# 4 0.0000 0.0000 0.0000 32.1261 0.0000 -3.6767
# 5 -4.2883 -0.0865 -10.3615 0.0000 6.7556 0.0000
# 6 0.0000 0.0000 0.0000 -3.6767 0.0000 16.4859
#
#
#
# Elastic Compliance Matrix: (Units=1/GPa)
#
#
# Indices 1 2 3 4 5 6 
#
# 1 0.015287 -0.001378 -0.003804 0.000000 0.003852 0.000000
# 2 -0.001378 0.014386 -0.005384 0.000000 -0.008949 0.000000
# 3 -0.003804 -0.005384 0.009940 0.000000 0.012761 0.000000
# 4 0.000000 0.000000 0.000000 0.031943 0.000000 0.007124
# 5 0.003852 -0.008949 0.012761 0.000000 0.169929 0.000000
# 6 0.000000 0.000000 0.000000 0.007124 0.000000 0.062247
#
#
# Mechanical properties :
#
#
# Convention : Reuss Voigt Hill
#
# Bulk Modulus (GPa) = 54.11370 67.32419 60.71894
# Shear Modulus (GPa) = 15.10464 24.91245 20.00854
#
# Velocity S-wave (km/s) = 2.74261 3.52222 3.15658
# Velocity P-wave (km/s) = 6.08088 7.07587 6.59716
#
# Compressibility (1/GPa) = 0.01847961
#
# Stress axis : x y z
#
# Youngs Moduli (GPa) = 65.41311 69.51346 100.60843
#
# Poissons Ratio (x) = 0.09580 0.38274
# Poissons Ratio (y) = 0.09015 0.54169
# Poissons Ratio (z) = 0.24885 0.37427
#
# Static dielectric constant tensor:
#      x y z
#    x 3.387990 0.000000 -0.020470 
#    y 0.000000 3.658540 0.000000 
#    z -0.020470 0.000000 3.706590 
# 
# 
# High freq. dielectric constant tensor:
#      x y z
#    x 1.763720 0.000000 -0.001430 
#    y 0.000000 1.795730 0.000000 
#    z -0.001430 0.000000 1.780260 
# 
# From -- ./inp_files/221762.got.cif
#   From: 2010.06.25/outbox.cif.g09.slc.cpg/sg12_111_cif.got.tgz:221762.got - 2010.06.28 00:19:55.
