data_PCOD8115734
_publ_section_title
;
Structure prediction by ZEFSAII (Michael W. Deem and Ramdas Pophale) SiO2 
 PCOD8115734
Probable space group: C 2/M
;
_chemical_formula_sum "Si O2"
_cell_formula_units_Z 48
_cell_length_a 9.211352
_cell_length_b 18.541788
_cell_length_c 14.612343
_cell_angle_alpha 90.000000
_cell_angle_beta 69.020419
_cell_angle_gamma 90.000000
_cell_volume 2330.268507
_symmetry_space_group_name_H-M "C 2/M"
_symmetry_group_IT_number 12
_symmetry_cell_setting 'monoclinic'
loop_
_space_group_symop_operation_xyz
x,y,z
-x,y,-z
-x,-y,-z
x,-y,z
1/2+x,1/2+y,z
1/2-x,1/2+y,-z
1/2-x,1/2-y,-z
1/2+x,1/2-y,z
loop_
_atom_site_type_symbol
_atom_site_label
_atom_site_fract_x
_atom_site_fract_y
_atom_site_fract_z
Si Si1 0.394858 0.322697 0.783527
Si Si2 0.316344 0.325201 0.516770
Si Si3 0.343296 0.678398 0.995200
Si Si4 0.682221 0.914743 0.185500
Si Si5 0.395992 0.820121 0.265376
Si Si6 0.848339 0.915378 0.337541
O O1 0.381459 0.355657 0.888108
O O2 0.499143 0.250955 0.745394
O O3 0.220121 0.304679 0.792174
O O4 0.475341 0.386025 0.707339
O O5 0.500000 0.321997 0.500000
O O6 0.250000 0.250000 0.500000
O O7 0.212461 0.345253 0.626903
O O8 0.274782 0.381883 0.445894
O O9 0.500000 0.708966 0.000000
O O10 0.250000 0.750000 0.000000
O O11 0.269479 0.620068 0.079495
O O12 0.505267 0.888330 0.220976
O O13 0.755895 0.891124 0.266653
O O14 0.689591 0.000000 0.171439
O O15 0.849569 0.000000 0.349329
#
# Coordination Sequence:
#
# PCOD8115734 Si02
#       6
#     8   8   8   8   8   8
#     4  12  23  42  70 101 133 182 224 284 334 405
#     4  12  25  42  71 102 133 180 230 284 335 406
#     4  12  24  41  73 102 133 176 232 279 336 407
#     4  11  27  47  68 100 141 181 226 283 344 404
#     4  12  24  43  70 100 139 176 233 279 342 395
#     4  11  25  45  67  99 137 180 227 278 343 405
#
# _framework density 20.598483999999999
#
# number of rings (size 3 to 8) (size 9 to 14) (size 15 to 20)
#    0.000    0.333    6.667    2.000    2.333    2.667 
#    0.000    2.500    0.000    0.000    0.000    0.000 
#    0.000    0.000    0.000    0.000    0.000    0.000 
#
# Total GULP energy -297519.170469 kJ/mol
# GULP energy per Si atom -12396.632103 kJ/mol
# Density = 2.055160 g / cm^3
# Si number density = 20.598484 Si / 1000 Ang^3
#
#
#
# Elastic Constant Matrix: (Units=GPa)
#
#
# Indices 1 2 3 4 5 6 
#
# 1 152.3772 58.6591 55.8909 0.0000 -2.1280 0.0000
# 2 58.6591 116.8806 57.5259 0.0000 3.1178 0.0000
# 3 55.8909 57.5259 161.7442 0.0000 -1.2110 0.0000
# 4 0.0000 0.0000 0.0000 38.3772 0.0000 0.0001
# 5 -2.1280 3.1178 -1.2110 0.0000 35.7394 0.0000
# 6 0.0000 0.0000 0.0000 0.0001 0.0000 29.8594
#
#
#
# Elastic Compliance Matrix: (Units=1/GPa)
#
#
# Indices 1 2 3 4 5 6 
#
# 1 0.008533 -0.003460 -0.001713 0.000000 0.000752 0.000000
# 2 -0.003460 0.011812 -0.003016 0.000000 -0.001339 0.000000
# 3 -0.001713 -0.003016 0.007850 0.000000 0.000427 0.000000
# 4 0.000000 0.000000 0.000000 0.026057 0.000000 0.000000
# 5 0.000752 -0.001339 0.000427 0.000000 0.028156 0.000000
# 6 0.000000 0.000000 0.000000 0.000000 0.000000 0.033490
#
#
# Mechanical properties :
#
#
# Convention : Reuss Voigt Hill
#
# Bulk Modulus (GPa) = 84.60536 86.12819 85.36677
# Shear Modulus (GPa) = 36.70681 38.05694 37.38188
#
# Velocity S-wave (km/s) = 4.22597 4.30299 4.26465
# Velocity P-wave (km/s) = 8.06068 8.16035 8.11067
#
# Compressibility (1/GPa) = 0.01181958
#
# Stress axis : x y z
#
# Youngs Moduli (GPa) = 117.18981 84.65976 127.38741
#
# Poissons Ratio (x) = 0.29290 0.21815
# Poissons Ratio (y) = 0.40545 0.38414
# Poissons Ratio (z) = 0.20069 0.25530
#
# Static dielectric constant tensor:
#      x y z
#    x 3.275030 0.000000 2.012200 
#    y 0.000000 3.685970 0.000000 
#    z 2.012200 0.000000 -0.658490 
# 
# 
# High freq. dielectric constant tensor:
#      x y z
#    x 1.818470 0.000000 0.001160 
#    y 0.000000 1.791560 0.000000 
#    z 0.001160 0.000000 1.830090 
# 
# From -- ./inp_files/196898.got.cif
#   From: 2010.06.25/outbox.cif.g09.slc.cpg/sg12_99_cif.got.tgz:196898.got - 2010.06.28 00:19:55.
