data_PCOD8115748
_publ_section_title
;
Structure prediction by ZEFSAII (Michael W. Deem and Ramdas Pophale) SiO2 
 PCOD8115748
Probable space group: C 2/M
;
_chemical_formula_sum "Si O2"
_cell_formula_units_Z 52
_cell_length_a 11.179494
_cell_length_b 23.527526
_cell_length_c 11.539994
_cell_angle_alpha 90.000000
_cell_angle_beta 50.841477
_cell_angle_gamma 90.000000
_cell_volume 2353.589984
_symmetry_space_group_name_H-M "C 2/M"
_symmetry_group_IT_number 12
_symmetry_cell_setting 'monoclinic'
loop_
_space_group_symop_operation_xyz
x,y,z
-x,y,-z
-x,-y,-z
x,-y,z
1/2+x,1/2+y,z
1/2-x,1/2+y,-z
1/2-x,1/2-y,-z
1/2+x,1/2-y,z
loop_
_atom_site_type_symbol
_atom_site_label
_atom_site_fract_x
_atom_site_fract_y
_atom_site_fract_z
Si Si1 0.293368 0.815281 0.836549
Si Si2 0.898194 0.500000 0.749997
Si Si3 0.867857 0.190529 0.826589
Si Si4 0.879275 0.000000 0.238779
Si Si5 0.668975 0.098627 0.848384
Si Si6 0.179604 0.871658 0.668617
Si Si7 0.782716 0.000000 0.920739
Si Si8 0.573451 0.108402 0.659441
O O1 0.365306 0.753066 0.771740
O O2 0.216527 0.845481 0.772238
O O3 0.436783 0.852477 0.792752
O O4 0.164838 0.811137 0.015408
O O5 0.723796 0.500000 0.812041
O O6 0.994800 0.553854 0.647152
O O7 0.871050 0.500000 0.905342
O O8 0.730182 0.160766 0.841233
O O9 0.032026 0.160510 0.705888
O O10 0.842170 0.940248 0.326226
O O11 0.060990 0.000000 0.098380
O O12 0.785258 0.054715 0.837318
O O13 0.676203 0.089413 0.705849
O O14 0.500000 0.088106 0.000000
O O15 0.325283 0.858218 0.497042
#
# Coordination Sequence:
#
# PCOD8115748 Si02
#       8
#     8   4   8   4   8   8   4   8
#     4  11  25  46  74 100 137 187 241 294 344 417
#     4  12  23  42  73 106 144 186 235 291 358 434
#     4  11  26  46  73 103 135 186 241 296 347 408
#     4  12  26  42  73 110 147 182 230 303 363 430
#     4  12  23  44  71  99 138 184 238 285 346 431
#     4  12  27  48  70 109 150 183 236 294 364 428
#     4  12  23  43  71 108 136 184 242 296 353 415
#     4  12  26  44  71 105 142 192 228 287 361 430
#
# _framework density 22.093907999999999
#
# number of rings (size 3 to 8) (size 9 to 14) (size 15 to 20)
#    0.000    0.308    6.154    2.308    2.154    3.077 
#    2.769    0.769    0.000    0.000    0.000    0.000 
#    0.000    0.000    0.000    0.000    0.000    0.000 
#
# Total GULP energy -322397.572277 kJ/mol
# GULP energy per Si atom -12399.906626 kJ/mol
# Density = 2.204362 g / cm^3
# Si number density = 22.093908 Si / 1000 Ang^3
#
#
#
# Elastic Constant Matrix: (Units=GPa)
#
#
# Indices 1 2 3 4 5 6 
#
# 1 115.8884 41.1009 29.2602 0.0000 -7.9458 0.0000
# 2 41.1009 149.9379 16.0890 0.0000 -13.1328 0.0000
# 3 29.2602 16.0890 80.5306 0.0000 -7.7228 0.0000
# 4 0.0000 0.0000 0.0000 22.1537 0.0000 -4.7956
# 5 -7.9458 -13.1328 -7.7228 0.0000 23.9280 0.0000
# 6 0.0000 0.0000 0.0000 -4.7956 0.0000 33.5134
#
#
#
# Elastic Compliance Matrix: (Units=1/GPa)
#
#
# Indices 1 2 3 4 5 6 
#
# 1 0.010359 -0.002403 -0.003179 0.000000 0.001095 0.000000
# 2 -0.002403 0.007653 -0.000340 0.000000 0.003293 0.000000
# 3 -0.003179 -0.000340 0.013953 0.000000 0.003261 0.000000
# 4 0.000000 0.000000 0.000000 0.046582 0.000000 0.006666
# 5 0.001095 0.003293 0.003261 0.000000 0.045015 0.000000
# 6 0.000000 0.000000 0.000000 0.006666 0.000000 0.030793
#
#
# Mechanical properties :
#
#
# Convention : Reuss Voigt Hill
#
# Bulk Modulus (GPa) = 49.69694 57.69524 53.69609
# Shear Modulus (GPa) = 28.91754 33.24614 31.08184
#
# Velocity S-wave (km/s) = 3.62172 3.88334 3.75481
# Velocity P-wave (km/s) = 6.32705 6.80275 6.56921
#
# Compressibility (1/GPa) = 0.02012196
#
# Stress axis : x y z
#
# Youngs Moduli (GPa) = 96.53676 130.66924 71.66748
#
# Poissons Ratio (x) = 0.31393 0.22781
# Poissons Ratio (y) = 0.23193 0.02439
# Poissons Ratio (z) = 0.30687 0.04446
#
# Static dielectric constant tensor:
#      x y z
#    x 3.993890 0.000000 -0.086490 
#    y 0.000000 4.170040 0.000000 
#    z -0.086490 0.000000 3.670580 
# 
# 
# High freq. dielectric constant tensor:
#      x y z
#    x 1.879650 0.000000 -0.007090 
#    y 0.000000 1.878980 0.000000 
#    z -0.007090 0.000000 1.850960 
# 
# From -- ./inp_files/135905.got.cif
#   From: 2010.06.25/outbox.cif.g09.slc.cpg/sg12_68_cif.got.tgz:135905.got - 2010.06.28 00:19:55.
