data_PCOD8115815
_publ_section_title
;
Structure prediction by ZEFSAII (Michael W. Deem and Ramdas Pophale) SiO2 
 PCOD8115815
Probable space group: C 2/M
;
_chemical_formula_sum "Si O2"
_cell_formula_units_Z 40
_cell_length_a 17.413276
_cell_length_b 20.839385
_cell_length_c 9.395739
_cell_angle_alpha 90.000000
_cell_angle_beta 146.269275
_cell_angle_gamma 90.000000
_cell_volume 1893.287458
_symmetry_space_group_name_H-M "C 2/M"
_symmetry_group_IT_number 12
_symmetry_cell_setting 'monoclinic'
loop_
_space_group_symop_operation_xyz
x,y,z
-x,y,-z
-x,-y,-z
x,-y,z
1/2+x,1/2+y,z
1/2-x,1/2+y,-z
1/2-x,1/2-y,-z
1/2+x,1/2-y,z
loop_
_atom_site_type_symbol
_atom_site_label
_atom_site_fract_x
_atom_site_fract_y
_atom_site_fract_z
Si Si1 0.000000 0.221063 0.000000
Si Si2 0.500000 0.277629 0.500000
Si Si3 0.030289 0.310559 0.790805
Si Si4 0.558500 0.500000 0.436657
Si Si5 0.249891 0.366843 0.607708
Si Si6 0.136337 0.000000 0.121703
Si Si7 0.786031 0.867755 0.333324
O O1 0.969034 0.264549 0.817542
O O2 0.872092 0.177614 0.854865
O O3 0.416966 0.231315 0.262512
O O4 0.399229 0.320334 0.441193
O O5 0.894967 0.351148 0.539185
O O6 0.149208 0.359320 0.026467
O O7 0.500000 0.500000 0.500000
O O8 0.656807 0.439249 0.569818
O O9 0.419479 0.500000 0.126058
O O10 0.274575 0.439049 0.696463
O O11 0.245055 0.352376 0.431515
O O12 0.000000 0.000000 0.000000
#
# Coordination Sequence:
#
# PCOD8115815 Si02
#       7
#     4   4   8   4   8   4   8
#     4  12  20  39  68  91 132 182 216 264 328 402
#     4  12  26  43  66 101 140 180 224 268 338 412
#     4  12  26  41  66 102 139 173 220 278 343 392
#     4  12  26  45  71 101 133 176 226 275 336 396
#     4  12  23  43  72  99 135 175 228 281 327 392
#     4  12  24  43  71 101 125 176 232 273 320 406
#     4  12  23  44  69 101 134 179 224 278 330 399
#
# _framework density 21.127272999999999
#
# number of rings (size 3 to 8) (size 9 to 14) (size 15 to 20)
#    0.000    0.000    8.000    2.400    0.000    2.400 
#    0.000    2.000    0.000    2.400    0.000    0.000 
#    0.000    0.000    0.000    0.000    0.000    0.000 
#
# Total GULP energy -247919.330174 kJ/mol
# GULP energy per Si atom -12395.966509 kJ/mol
# Density = 2.107919 g / cm^3
# Si number density = 21.127273 Si / 1000 Ang^3
#
#
#
# Elastic Constant Matrix: (Units=GPa)
#
#
# Indices 1 2 3 4 5 6 
#
# 1 70.6670 26.1878 31.4136 0.0000 -8.0252 0.0000
# 2 26.1878 122.7558 57.6358 0.0000 2.3806 0.0000
# 3 31.4136 57.6358 120.5989 0.0000 9.3366 0.0000
# 4 0.0000 0.0000 0.0000 38.6486 0.0000 -4.1659
# 5 -8.0252 2.3806 9.3366 0.0000 45.1371 0.0000
# 6 0.0000 0.0000 0.0000 -4.1659 0.0000 7.3577
#
#
#
# Elastic Compliance Matrix: (Units=1/GPa)
#
#
# Indices 1 2 3 4 5 6 
#
# 1 0.017000 -0.001910 -0.003819 0.000000 0.003913 0.000000
# 2 -0.001910 0.010728 -0.004634 0.000000 0.000053 0.000000
# 3 -0.003819 -0.004634 0.011723 0.000000 -0.002859 0.000000
# 4 0.000000 0.000000 0.000000 0.027556 0.000000 0.015602
# 5 0.003913 0.000053 -0.002859 0.000000 0.023439 0.000000
# 6 0.000000 0.000000 0.000000 0.015602 0.000000 0.144745
#
#
# Mechanical properties :
#
#
# Convention : Reuss Voigt Hill
#
# Bulk Modulus (GPa) = 53.39888 60.49958 56.94923
# Shear Modulus (GPa) = 19.07247 31.48099 25.27673
#
# Velocity S-wave (km/s) = 3.00783 3.86432 3.46266
# Velocity P-wave (km/s) = 6.11493 6.97199 6.55748
#
# Compressibility (1/GPa) = 0.01872698
#
# Stress axis : x y z
#
# Youngs Moduli (GPa) = 58.82190 93.21125 85.30560
#
# Poissons Ratio (x) = 0.17801 0.32574
# Poissons Ratio (y) = 0.11234 0.39529
# Poissons Ratio (z) = 0.22461 0.43193
#
# Static dielectric constant tensor:
#      x y z
#    x 3.918090 0.000000 -0.172910 
#    y 0.000000 3.737450 0.000000 
#    z -0.172910 0.000000 3.720200 
# 
# 
# High freq. dielectric constant tensor:
#      x y z
#    x 1.826500 0.000000 -0.005700 
#    y 0.000000 1.836240 0.000000 
#    z -0.005700 0.000000 1.835840 
# 
# From -- ./inp_files/77828.got.cif
#   From: 2010.06.25/outbox.cif.g09.slc.cpg/sg12_39_cif.got.tgz:77828.got - 2010.06.28 00:19:55.
