data_PCOD8115958
_publ_section_title
;
Structure prediction by ZEFSAII (Michael W. Deem and Ramdas Pophale) SiO2 
 PCOD8115958
Probable space group: C 2/M
;
_chemical_formula_sum "Si O2"
_cell_formula_units_Z 40
_cell_length_a 27.936074
_cell_length_b 9.106495
_cell_length_c 26.135767
_cell_angle_alpha 90.000000
_cell_angle_beta 20.681481
_cell_angle_gamma 90.000000
_cell_volume 2348.219675
_symmetry_space_group_name_H-M "C 2/M"
_symmetry_group_IT_number 12
_symmetry_cell_setting 'monoclinic'
loop_
_space_group_symop_operation_xyz
x,y,z
-x,y,-z
-x,-y,-z
x,-y,z
1/2+x,1/2+y,z
1/2-x,1/2+y,-z
1/2-x,1/2-y,-z
1/2+x,1/2-y,z
loop_
_atom_site_type_symbol
_atom_site_label
_atom_site_fract_x
_atom_site_fract_y
_atom_site_fract_z
Si Si1 0.538297 0.325708 0.848186
Si Si2 0.038283 0.674287 0.575238
Si Si3 0.249995 0.175469 0.832692
Si Si4 0.749996 0.826107 0.445846
Si Si5 0.750011 0.674660 0.717791
O O1 0.538940 0.500000 0.848473
O O2 0.616215 0.273460 0.719104
O O3 0.616980 0.269857 0.820206
O O4 0.383864 0.265826 0.003899
O O5 0.038942 0.500000 0.573650
O O6 0.116205 0.726541 0.548478
O O7 0.116958 0.730140 0.445857
O O8 0.883849 0.734154 0.728395
O O9 0.250012 0.239518 0.774964
O O10 0.249984 0.000000 0.830996
O O11 0.750000 0.750000 0.500000
O O12 0.749997 0.000000 0.453452
O O13 0.750008 0.500000 0.720400
#
# Coordination Sequence:
#
# PCOD8115958 Si02
#       5
#     8   8   8   8   8
#     4   8  14  22  33  52  77 102 127 156 189 226
#     4   8  14  22  33  52  77 102 127 156 189 226
#     4   9  13  18  31  52  79 106 126 148 186 233
#     4   9  17  30  44  56  74 101 132 164 196 228
#     4   8  12  18  29  48  77 109 130 144 177 233
#
# _framework density 17.034182000000001
#
# number of rings (size 3 to 8) (size 9 to 14) (size 15 to 20)
#    0.000    3.600    0.000    3.600    0.000    4.800 
#    0.000    1.000    0.000    0.000    0.000    0.000 
#    0.000   25.600    0.000    0.000    0.000    0.000 
#
# Total GULP energy -247773.169691 kJ/mol
# GULP energy per Si atom -12388.658485 kJ/mol
# Density = 1.699541 g / cm^3
# Si number density = 17.034182 Si / 1000 Ang^3
#
#
#
# Elastic Constant Matrix: (Units=GPa)
#
#
# Indices 1 2 3 4 5 6 
#
# 1 145.0917 16.0621 96.2625 0.0040 5.2022 0.0019
# 2 16.0621 6.2135 11.0942 0.0338 1.4566 -0.0092
# 3 96.2625 11.0942 182.0140 0.0092 -16.0552 -0.0051
# 4 0.0040 0.0338 0.0092 5.1987 -0.0025 3.4717
# 5 5.2022 1.4566 -16.0552 -0.0025 21.7851 -0.0034
# 6 0.0019 -0.0092 -0.0051 3.4717 -0.0034 17.0240
#
#
#
# Elastic Compliance Matrix: (Units=1/GPa)
#
#
# Indices 1 2 3 4 5 6 
#
# 1 0.014081 -0.022971 -0.006640 0.000183 -0.006720 -0.000055
# 2 -0.022971 0.228099 -0.002798 -0.001790 -0.011828 0.000488
# 3 -0.006640 -0.002798 0.009982 0.000009 0.009129 0.000002
# 4 0.000183 -0.001790 0.000009 0.222697 0.000101 -0.045415
# 5 -0.006720 -0.011828 0.009129 0.000101 0.055026 -0.000013
# 6 -0.000055 0.000488 0.000002 -0.045415 -0.000013 0.068002
#
#
# Mechanical properties :
#
#
# Convention : Reuss Voigt Hill
#
# Bulk Modulus (GPa) = 5.33774 64.46184 34.89979
# Shear Modulus (GPa) = 6.89509 22.79491 14.84500
#
# Velocity S-wave (km/s) = 2.01410 3.66209 2.95529
# Velocity P-wave (km/s) = 2.92389 7.47034 5.67253
#
# Compressibility (1/GPa) = 0.18734512
#
# Stress axis : x y z
#
# Youngs Moduli (GPa) = 71.01538 4.38406 100.18471
#
# Poissons Ratio (x) = 0.10071 0.66522
# Poissons Ratio (y) = 1.63130 0.28027
# Poissons Ratio (z) = 0.47154 0.01226
#
# Static dielectric constant tensor:
#      x y z
#    x 3.234800 0.000000 -0.152950 
#    y 0.000000 2.359420 0.000010 
#    z -0.152950 0.000010 3.755530 
# 
# 
# High freq. dielectric constant tensor:
#      x y z
#    x 1.650470 0.000000 -0.006020 
#    y 0.000000 1.565000 0.000000 
#    z -0.006020 0.000000 1.670950 
# 
# From -- ./inp_files/93641.got.cif
#   From: 2010.06.25/outbox.cif.g09.slc.cpg/sg12_47_cif.got.tgz:93641.got - 2010.06.28 00:19:55.
