data_PCOD8115523
_publ_section_title
;
Structure prediction by ZEFSAII (Michael W. Deem and Ramdas Pophale) SiO2 
 PCOD8115523
Probable space group: C 2/M
;
_chemical_formula_sum "Si O2"
_cell_formula_units_Z 40
_cell_length_a 20.403861
_cell_length_b 8.766834
_cell_length_c 14.433729
_cell_angle_alpha 90.000000
_cell_angle_beta 59.577567
_cell_angle_gamma 90.000000
_cell_volume 2226.382947
_symmetry_space_group_name_H-M "C 2/M"
_symmetry_group_IT_number 12
_symmetry_cell_setting 'monoclinic'
loop_
_space_group_symop_operation_xyz
x,y,z
-x,y,-z
-x,-y,-z
x,-y,z
1/2+x,1/2+y,z
1/2-x,1/2+y,-z
1/2-x,1/2-y,-z
1/2+x,1/2-y,z
loop_
_atom_site_type_symbol
_atom_site_label
_atom_site_fract_x
_atom_site_fract_y
_atom_site_fract_z
Si Si1 0.337603 0.681187 0.726383
Si Si2 0.785419 0.179522 0.066256
Si Si3 0.052378 0.323783 0.050370
Si Si4 0.575621 0.332984 0.505305
Si Si5 0.484898 0.681424 0.737095
O O1 0.325870 0.500000 0.729531
O O2 0.259925 0.762389 0.811097
O O3 0.362008 0.747426 0.606568
O O4 0.401906 0.721204 0.755951
O O5 0.779135 0.000000 0.062505
O O6 0.750000 0.250000 0.000000
O O7 0.872401 0.224946 0.015879
O O8 0.074655 0.500000 0.046103
O O9 0.005112 0.267278 0.173295
O O10 0.000000 0.295297 0.000000
O O11 0.500000 0.353117 0.500000
O O12 0.607498 0.500000 0.507369
O O13 0.551289 0.253370 0.619913
O O14 0.493324 0.500000 0.743406
#
# Coordination Sequence:
#
# PCOD8115523 Si02
#       5
#     8   8   8   8   8
#     4   9  16  29  51  79 109 138 169 211 260 312
#     4  12  23  35  54  79 108 140 176 220 265 312
#     4  11  24  39  54  75 106 143 180 220 267 315
#     4   7  12  24  45  75 106 135 168 205 256 312
#     4   9  16  29  52  78 105 139 175 213 256 310
#
# _framework density 17.966362
#
# number of rings (size 3 to 8) (size 9 to 14) (size 15 to 20)
#    0.000    2.400    2.000    4.800    0.000    1.600 
#    0.000    1.000    0.000    4.800    0.000    0.000 
#    0.000    0.000    0.000    0.000    0.000    0.000 
#
# Total GULP energy -247812.712050 kJ/mol
# GULP energy per Si atom -12390.635602 kJ/mol
# Density = 1.792547 g / cm^3
# Si number density = 17.966362 Si / 1000 Ang^3
#
#
#
# Elastic Constant Matrix: (Units=GPa)
#
#
# Indices 1 2 3 4 5 6 
#
# 1 49.6711 29.5938 47.2429 0.0000 2.9975 0.0000
# 2 29.5938 71.4650 52.0869 0.0000 1.6172 0.0000
# 3 47.2429 52.0869 192.2399 0.0000 2.0609 0.0000
# 4 0.0000 0.0000 0.0000 23.1239 0.0000 -0.7613
# 5 2.9975 1.6172 2.0609 0.0000 21.4105 0.0000
# 6 0.0000 0.0000 0.0000 -0.7613 0.0000 19.9894
#
#
#
# Elastic Compliance Matrix: (Units=1/GPa)
#
#
# Indices 1 2 3 4 5 6 
#
# 1 0.030376 -0.008837 -0.005037 0.000000 -0.003100 0.000000
# 2 -0.008837 0.020023 -0.003254 0.000000 0.000038 0.000000
# 3 -0.005037 -0.003254 0.007319 0.000000 0.000247 0.000000
# 4 0.000000 0.000000 0.000000 0.043300 0.000000 0.001649
# 5 -0.003100 0.000038 0.000247 0.000000 0.047114 0.000000
# 6 0.000000 0.000000 0.000000 0.001649 0.000000 0.050089
#
#
# Mechanical properties :
#
#
# Convention : Reuss Voigt Hill
#
# Bulk Modulus (GPa) = 42.62392 63.46923 53.04658
# Shear Modulus (GPa) = 20.80763 25.20157 23.00460
#
# Velocity S-wave (km/s) = 3.40684 3.74934 3.58219
# Velocity P-wave (km/s) = 6.26508 7.35845 6.83367
#
# Compressibility (1/GPa) = 0.02346100
#
# Stress axis : x y z
#
# Youngs Moduli (GPa) = 32.92121 49.94244 136.63621
#
# Poissons Ratio (x) = 0.44135 0.68826
# Poissons Ratio (y) = 0.29093 0.44460
# Poissons Ratio (z) = 0.16583 0.16251
#
# Static dielectric constant tensor:
#      x y z
#    x 2.934980 0.000000 -0.041430 
#    y 0.000000 3.105930 0.000000 
#    z -0.041430 0.000000 3.991570 
# 
# 
# High freq. dielectric constant tensor:
#      x y z
#    x 1.639780 0.000000 -0.002930 
#    y 0.000000 1.673140 0.000000 
#    z -0.002930 0.000000 1.728340 
# 
# From -- ./inp_files/162735.got.cif
#   From: 2010.06.25/outbox.cif.g09.slc.cpg/sg12_82_cif.got.tgz:162735.got - 2010.06.28 00:19:55.
