data_PCOD8115298
_publ_section_title
;
Structure prediction by ZEFSAII (Michael W. Deem and Ramdas Pophale) SiO2 
 PCOD8115298
Probable space group: C 2/M
;
_chemical_formula_sum "Si O2"
_cell_formula_units_Z 36
_cell_length_a 18.012065
_cell_length_b 16.249505
_cell_length_c 6.827160
_cell_angle_alpha 90.000000
_cell_angle_beta 62.962223
_cell_angle_gamma 90.000000
_cell_volume 1779.830266
_symmetry_space_group_name_H-M "C 2/M"
_symmetry_group_IT_number 12
_symmetry_cell_setting 'monoclinic'
loop_
_space_group_symop_operation_xyz
x,y,z
-x,y,-z
-x,-y,-z
x,-y,z
1/2+x,1/2+y,z
1/2-x,1/2+y,-z
1/2-x,1/2-y,-z
1/2+x,1/2-y,z
loop_
_atom_site_type_symbol
_atom_site_label
_atom_site_fract_x
_atom_site_fract_y
_atom_site_fract_z
Si Si1 0.640347 0.908066 0.442365
Si Si2 0.500000 0.786862 0.500000
Si Si3 0.716088 0.404965 0.039846
Si Si4 0.423327 0.298270 0.955533
Si Si5 0.209346 0.315604 0.694204
O O1 0.565970 0.843897 0.529473
O O2 0.686420 0.895635 0.594407
O O3 0.604210 0.000000 0.479024
O O4 0.701513 0.892739 0.187692
O O5 0.542816 0.728082 0.293962
O O6 0.703567 0.500000 0.115041
O O7 0.637147 0.376091 0.006603
O O8 0.725824 0.346320 0.218249
O O9 0.500000 0.326299 0.000000
O O10 0.373188 0.222672 0.110740
O O11 0.250000 0.250000 0.500000
#
# Coordination Sequence:
#
# PCOD8115298 Si02
#       5
#     8   4   8   8   8
#     4  11  23  40  65  96 134 171 210 270 330 383
#     4  12  23  42  63  98 134 170 216 262 325 392
#     4  11  25  44  66  96 132 172 217 266 322 382
#     4  12  25  41  66  97 129 174 217 265 319 383
#     4  12  22  42  68  97 124 167 227 264 316 383
#
# _framework density 20.226648000000001
#
# number of rings (size 3 to 8) (size 9 to 14) (size 15 to 20)
#    0.000    0.444    6.667    3.000    0.000    0.444 
#    0.000    1.667    0.000    0.000    0.000    0.000 
#    0.000    0.000    0.000    0.000    0.000    0.000 
#
# Total GULP energy -223270.203902 kJ/mol
# GULP energy per Si atom -12403.900217 kJ/mol
# Density = 2.018061 g / cm^3
# Si number density = 20.226648 Si / 1000 Ang^3
#
#
#
# Elastic Constant Matrix: (Units=GPa)
#
#
# Indices 1 2 3 4 5 6 
#
# 1 94.0161 29.9950 -0.2691 0.0000 17.0435 0.0000
# 2 29.9950 89.2401 29.4101 0.0000 1.4767 0.0000
# 3 -0.2691 29.4101 88.2514 0.0000 2.3594 0.0000
# 4 0.0000 0.0000 0.0000 35.2876 0.0000 -2.4433
# 5 17.0435 1.4767 2.3594 0.0000 37.4303 0.0000
# 6 0.0000 0.0000 0.0000 -2.4433 0.0000 188.1708
#
#
#
# Elastic Compliance Matrix: (Units=1/GPa)
#
#
# Indices 1 2 3 4 5 6 
#
# 1 0.013320 -0.004992 0.001864 0.000000 -0.005985 0.000000
# 2 -0.004992 0.014461 -0.004888 0.000000 0.002011 0.000000
# 3 0.001864 -0.004888 0.013005 0.000000 -0.001476 0.000000
# 4 0.000000 0.000000 0.000000 0.028364 0.000000 0.000368
# 5 -0.005985 0.002011 -0.001476 0.000000 0.029455 0.000000
# 6 0.000000 0.000000 0.000000 0.000368 0.000000 0.005319
#
#
# Mechanical properties :
#
#
# Convention : Reuss Voigt Hill
#
# Bulk Modulus (GPa) = 40.39753 43.30882 41.85318
# Shear Modulus (GPa) = 38.99884 66.33585 52.66734
#
# Velocity S-wave (km/s) = 4.39577 5.73302 5.10834
# Velocity P-wave (km/s) = 6.76605 8.07970 7.45188
#
# Compressibility (1/GPa) = 0.02475399
#
# Stress axis : x y z
#
# Youngs Moduli (GPa) = 75.07721 69.14948 76.89085
#
# Poissons Ratio (x) = 0.34521 -0.14335
# Poissons Ratio (y) = 0.37481 0.37587
# Poissons Ratio (z) = -0.13997 0.33802
#
# Static dielectric constant tensor:
#      x y z
#    x 3.844140 0.000000 0.083370 
#    y 0.000000 3.591300 0.000000 
#    z 0.083370 0.000000 3.843020 
# 
# 
# High freq. dielectric constant tensor:
#      x y z
#    x 1.795420 0.000000 0.006750 
#    y 0.000000 1.784670 0.000000 
#    z 0.006750 0.000000 1.803160 
# 
# From -- ./inp_files/15048.got.cif
#   From: 2010.06.25/outbox.cif.g09.slc.cpg/sg12_8_cif.got.tgz:15048.got - 2010.06.28 00:19:55.
