data_PCOD8115828
_publ_section_title
;
Structure prediction by ZEFSAII (Michael W. Deem and Ramdas Pophale) SiO2 
 PCOD8115828
Probable space group: C 2/M
;
_chemical_formula_sum "Si O2"
_cell_formula_units_Z 64
_cell_length_a 17.437424
_cell_length_b 18.900565
_cell_length_c 9.630140
_cell_angle_alpha 90.000000
_cell_angle_beta 89.152371
_cell_angle_gamma 90.000000
_cell_volume 3173.526936
_symmetry_space_group_name_H-M "C 2/M"
_symmetry_group_IT_number 12
_symmetry_cell_setting 'monoclinic'
loop_
_space_group_symop_operation_xyz
x,y,z
-x,y,-z
-x,-y,-z
x,-y,z
1/2+x,1/2+y,z
1/2-x,1/2+y,-z
1/2-x,1/2-y,-z
1/2+x,1/2-y,z
loop_
_atom_site_type_symbol
_atom_site_label
_atom_site_fract_x
_atom_site_fract_y
_atom_site_fract_z
Si Si1 0.331746 0.226555 0.310809
Si Si2 0.294642 0.922059 0.268843
Si Si3 0.614369 0.576931 0.301315
Si Si4 0.920140 0.773324 0.055976
Si Si5 0.417779 0.280100 0.560367
Si Si6 0.829163 0.719507 0.807551
Si Si7 0.788947 0.578252 0.949178
Si Si8 0.390825 0.576881 0.018409
O O1 0.331701 0.143116 0.352328
O O2 0.399483 0.235090 0.198271
O O3 0.351437 0.271733 0.446326
O O4 0.251257 0.251093 0.247265
O O5 0.205385 0.918072 0.301990
O O6 0.325978 0.000000 0.313205
O O7 0.314325 0.908477 0.106718
O O8 0.588361 0.500000 0.360210
O O9 0.577233 0.637880 0.395966
O O10 0.588718 0.584859 0.143596
O O11 0.931366 0.856974 0.092301
O O12 0.852320 0.764197 0.943898
O O13 0.000000 0.740489 0.000000
O O14 0.500000 0.255287 0.500000
O O15 0.395225 0.230953 0.691365
O O16 0.825232 0.636628 0.846075
O O17 0.816599 0.500000 0.900030
O O18 0.698078 0.582156 0.944492
O O19 0.421554 0.500000 0.070634
#
# Coordination Sequence:
#
# PCOD8115828 Si02
#       8
#     8   8   8   8   8   8   8   8
#     4  12  23  38  64  92 116 160 207 248 294 351
#     4   9  17  33  61  94 119 146 197 251 296 354
#     4   9  18  35  60  85 118 163 200 230 292 370
#     4  12  23  36  60  92 124 157 195 248 305 352
#     4  12  26  41  58  87 127 162 199 250 304 354
#     4  12  21  40  64  86 118 160 204 252 289 352
#     4   9  17  33  61  95 119 147 194 254 301 342
#     4   9  17  33  58  89 122 156 194 236 296 362
#
# _framework density 20.166837000000001
#
# number of rings (size 3 to 8) (size 9 to 14) (size 15 to 20)
#    0.000    1.500    5.000    3.750    0.000    0.500 
#    0.000    1.875    0.000    4.500    0.000    0.000 
#    0.000    0.000    0.000    0.000    0.000    0.000 
#
# Total GULP energy -396628.320430 kJ/mol
# GULP energy per Si atom -12394.635013 kJ/mol
# Density = 2.012094 g / cm^3
# Si number density = 20.166837 Si / 1000 Ang^3
#
#
#
# Elastic Constant Matrix: (Units=GPa)
#
#
# Indices 1 2 3 4 5 6 
#
# 1 42.0896 33.3457 11.0501 0.0000 -9.9333 0.0000
# 2 33.3457 134.0797 22.2736 0.0000 -15.3518 0.0000
# 3 11.0501 22.2736 56.5269 0.0000 -14.4384 0.0000
# 4 0.0000 0.0000 0.0000 37.5679 0.0000 -4.9166
# 5 -9.9333 -15.3518 -14.4384 0.0000 28.5762 0.0000
# 6 0.0000 0.0000 0.0000 -4.9166 0.0000 16.4304
#
#
#
# Elastic Compliance Matrix: (Units=1/GPa)
#
#
# Indices 1 2 3 4 5 6 
#
# 1 0.031020 -0.006694 -0.001826 0.000000 0.006264 0.000000
# 2 -0.006694 0.009672 -0.002032 0.000000 0.001842 0.000000
# 3 -0.001826 -0.002032 0.021135 0.000000 0.008952 0.000000
# 4 0.000000 0.000000 0.000000 0.027703 0.000000 0.008290
# 5 0.006264 0.001842 0.008952 0.000000 0.042684 0.000000
# 6 0.000000 0.000000 0.000000 0.008290 0.000000 0.063343
#
#
# Mechanical properties :
#
#
# Convention : Reuss Voigt Hill
#
# Bulk Modulus (GPa) = 24.55660 40.67056 32.61358
# Shear Modulus (GPa) = 21.71682 27.58335 24.65008
#
# Velocity S-wave (km/s) = 3.28511 3.70233 3.49994
# Velocity P-wave (km/s) = 5.15679 6.20380 5.70437
#
# Compressibility (1/GPa) = 0.04072225
#
# Stress axis : x y z
#
# Youngs Moduli (GPa) = 32.23719 103.39615 47.31499
#
# Poissons Ratio (x) = 0.69215 0.08641
# Poissons Ratio (y) = 0.21580 0.09613
# Poissons Ratio (z) = 0.05887 0.21008
#
# Static dielectric constant tensor:
#      x y z
#    x 3.436620 0.000000 -0.049640 
#    y 0.000000 3.902000 0.000000 
#    z -0.049640 0.000000 3.515700 
# 
# 
# High freq. dielectric constant tensor:
#      x y z
#    x 1.764760 0.000000 -0.011290 
#    y 0.000000 1.800690 0.000000 
#    z -0.011290 0.000000 1.759610 
# 
# From -- ./inp_files/77522.got.cif
#   From: 2010.06.25/outbox.cif.g09.slc.cpg/sg12_39_cif.got.tgz:77522.got - 2010.06.28 00:19:55.
