data_PCOD8115599
_publ_section_title
;
Structure prediction by ZEFSAII (Michael W. Deem and Ramdas Pophale) SiO2 
 PCOD8115599
Probable space group: C 2/M
;
_chemical_formula_sum "Si O2"
_cell_formula_units_Z 64
_cell_length_a 14.013751
_cell_length_b 17.329412
_cell_length_c 17.596232
_cell_angle_alpha 90.000000
_cell_angle_beta 136.554802
_cell_angle_gamma 90.000000
_cell_volume 2938.542358
_symmetry_space_group_name_H-M "C 2/M"
_symmetry_group_IT_number 12
_symmetry_cell_setting 'monoclinic'
loop_
_space_group_symop_operation_xyz
x,y,z
-x,y,-z
-x,-y,-z
x,-y,z
1/2+x,1/2+y,z
1/2-x,1/2+y,-z
1/2-x,1/2-y,-z
1/2+x,1/2-y,z
loop_
_atom_site_type_symbol
_atom_site_label
_atom_site_fract_x
_atom_site_fract_y
_atom_site_fract_z
Si Si1 0.390345 0.787807 0.495780
Si Si2 0.155192 0.748366 0.097721
Si Si3 0.916890 0.121809 0.528213
Si Si4 0.895531 0.336322 0.150023
Si Si5 0.521534 0.583009 0.267488
Si Si6 0.361010 0.724869 0.744504
Si Si7 0.297088 0.088295 0.943430
Si Si8 0.117979 0.588145 0.383793
O O1 0.500000 0.822632 0.500000
O O2 0.448968 0.711437 0.570620
O O3 0.257801 0.745241 0.380404
O O4 0.349371 0.857873 0.525440
O O5 0.260132 0.790868 0.101104
O O6 0.206254 0.771204 0.211067
O O7 0.147201 0.655205 0.081025
O O8 0.000000 0.782590 0.000000
O O9 0.968555 0.081492 0.634953
O O10 0.758659 0.096116 0.416285
O O11 0.000000 0.098034 0.500000
O O12 0.998043 0.273259 0.173682
O O13 0.978163 0.383031 0.262137
O O14 0.852041 0.396488 0.060257
O O15 0.572398 0.500000 0.268917
O O16 0.616944 0.639237 0.274100
O O17 0.366113 0.597806 0.151621
O O18 0.341018 0.000000 0.944657
O O19 0.093684 0.500000 0.395095
#
# Coordination Sequence:
#
# PCOD8115599 Si02
#       8
#     8   8   8   8   8   8   8   8
#     4  11  24  42  67 100 135 182 234 282 341 416
#     4  12  25  43  74 104 130 187 240 285 338 419
#     4  11  24  42  70 101 137 183 236 282 339 423
#     4  12  24  47  70 100 142 183 237 283 343 424
#     4  11  24  43  68  97 136 181 227 287 346 401
#     4  12  23  43  71  99 137 185 236 284 338 411
#     4  11  25  45  70 103 143 180 223 293 358 406
#     4  12  25  43  69 103 144 183 224 290 356 405
#
# _framework density 21.779505
#
# number of rings (size 3 to 8) (size 9 to 14) (size 15 to 20)
#    0.000    0.500    5.000    3.750    3.500    1.500 
#    0.000    3.750    0.000    3.375    0.000    0.000 
#    0.000    0.000    0.000    0.000    0.000    0.000 
#
# Total GULP energy -396594.349692 kJ/mol
# GULP energy per Si atom -12393.573428 kJ/mol
# Density = 2.172993 g / cm^3
# Si number density = 21.779505 Si / 1000 Ang^3
#
#
#
# Elastic Constant Matrix: (Units=GPa)
#
#
# Indices 1 2 3 4 5 6 
#
# 1 102.4788 35.5598 29.2068 0.0000 3.1572 0.0000
# 2 35.5598 101.1883 32.8406 0.0000 -4.0892 0.0001
# 3 29.2068 32.8406 113.2360 0.0001 -1.9073 0.0000
# 4 0.0000 0.0000 0.0001 95.9930 0.0001 -31.0285
# 5 3.1572 -4.0892 -1.9073 0.0001 37.6897 -0.0001
# 6 0.0000 0.0001 0.0000 -31.0285 -0.0001 26.9355
#
#
#
# Elastic Compliance Matrix: (Units=1/GPa)
#
#
# Indices 1 2 3 4 5 6 
#
# 1 0.011580 -0.003478 -0.002003 0.000000 -0.001449 0.000000
# 2 -0.003478 0.011994 -0.002557 0.000000 0.001463 0.000000
# 3 -0.002003 -0.002557 0.010096 0.000000 0.000401 0.000000
# 4 0.000000 0.000000 0.000000 0.016598 0.000000 0.019120
# 5 -0.001449 0.001463 0.000401 0.000000 0.026833 0.000000
# 6 0.000000 0.000000 0.000000 0.019120 0.000000 0.059151
#
#
# Mechanical properties :
#
#
# Convention : Reuss Voigt Hill
#
# Bulk Modulus (GPa) = 56.83375 56.90195 56.86785
# Shear Modulus (GPa) = 31.60732 46.74338 39.17535
#
# Velocity S-wave (km/s) = 3.81365 4.63775 4.24574
# Velocity P-wave (km/s) = 6.74860 7.40684 7.08537
#
# Compressibility (1/GPa) = 0.01759518
#
# Stress axis : x y z
#
# Youngs Moduli (GPa) = 86.35262 83.37649 99.05044
#
# Poissons Ratio (x) = 0.29000 0.19836
# Poissons Ratio (y) = 0.30035 0.25324
# Poissons Ratio (z) = 0.17293 0.21316
#
# Static dielectric constant tensor:
#      x y z
#    x 3.827780 0.000000 0.125520 
#    y 0.000000 3.990440 0.000000 
#    z 0.125520 0.000000 4.092140 
# 
# 
# High freq. dielectric constant tensor:
#      x y z
#    x 1.846480 0.000000 0.010990 
#    y 0.000000 1.858010 0.000000 
#    z 0.010990 0.000000 1.872260 
# 
# From -- ./inp_files/271748.got.cif
#   From: 2010.06.25/outbox.cif.g09.slc.cpg/sg12_136_cif.got.tgz:271748.got - 2010.06.28 00:19:55.
