data_PCOD8115973
_publ_section_title
;
Structure prediction by ZEFSAII (Michael W. Deem and Ramdas Pophale) SiO2 
 PCOD8115973
Probable space group: C 2/M
;
_chemical_formula_sum "Si O2"
_cell_formula_units_Z 48
_cell_length_a 27.878593
_cell_length_b 9.417518
_cell_length_c 13.716124
_cell_angle_alpha 90.000000
_cell_angle_beta 119.471905
_cell_angle_gamma 90.000000
_cell_volume 3135.132536
_symmetry_space_group_name_H-M "C 2/M"
_symmetry_group_IT_number 12
_symmetry_cell_setting 'monoclinic'
loop_
_space_group_symop_operation_xyz
x,y,z
-x,y,-z
-x,-y,-z
x,-y,z
1/2+x,1/2+y,z
1/2-x,1/2+y,-z
1/2-x,1/2-y,-z
1/2+x,1/2-y,z
loop_
_atom_site_type_symbol
_atom_site_label
_atom_site_fract_x
_atom_site_fract_y
_atom_site_fract_z
Si Si1 0.265360 0.836398 0.655953
Si Si2 0.439712 0.831461 0.329929
Si Si3 0.939712 0.668539 0.549495
Si Si4 0.765360 0.336398 0.874768
Si Si5 0.329792 0.833495 0.125958
Si Si6 0.670208 0.833495 0.466374
O O1 0.286493 0.805096 0.786493
O O2 0.314785 0.797605 0.630803
O O3 0.211962 0.742877 0.581229
O O4 0.248100 0.000000 0.625796
O O5 0.500000 0.774574 0.355584
O O6 0.427569 0.777434 0.427569
O O7 0.391569 0.776508 0.209613
O O8 0.440811 0.000000 0.330381
O O9 0.940810 0.500000 0.551242
O O10 0.891569 0.723493 0.573524
O O11 0.748099 0.500000 0.870402
O O12 0.711961 0.242878 0.842693
O O13 0.814785 0.297607 0.998767
O O14 0.325251 0.000000 0.143347
O O15 0.674749 0.000000 0.492844
#
# Coordination Sequence:
#
# PCOD8115973 Si02
#       6
#     8   8   8   8   8   8
#     4   9  17  27  38  55  80 104 123 151 192 227
#     4   8  13  21  35  56  77  94 118 156 193 218
#     4   8  13  21  35  56  77  94 118 156 193 218
#     4   9  17  27  38  55  80 104 123 151 192 227
#     4   9  16  26  41  58  75  99 130 157 182 221
#     4   9  16  26  41  58  75  99 130 157 182 221
#
# _framework density 15.310358000000001
#
# number of rings (size 3 to 8) (size 9 to 14) (size 15 to 20)
#    0.000    3.333    0.000    2.000    0.000    2.000 
#    0.000    0.000    0.000    2.000    0.000   11.667 
#    0.000    0.000    0.000   16.667    0.000   18.000 
#
# Total GULP energy -297398.573156 kJ/mol
# GULP energy per Si atom -12391.607215 kJ/mol
# Density = 1.527551 g / cm^3
# Si number density = 15.310358 Si / 1000 Ang^3
#
#
#
# Elastic Constant Matrix: (Units=GPa)
#
#
# Indices 1 2 3 4 5 6 
#
# 1 143.4773 23.5208 80.2652 0.0000 11.4219 0.0000
# 2 23.5208 19.0695 22.1578 0.0000 1.0160 0.0000
# 3 80.2652 22.1578 117.4169 0.0000 8.0025 0.0000
# 4 0.0000 0.0000 0.0000 14.8012 0.0000 0.4223
# 5 11.4219 1.0160 8.0025 0.0000 26.4932 0.0000
# 6 0.0000 0.0000 0.0000 0.4223 0.0000 15.3679
#
#
#
# Elastic Compliance Matrix: (Units=1/GPa)
#
#
# Indices 1 2 3 4 5 6 
#
# 1 0.012136 -0.006923 -0.006791 0.000000 -0.002915 0.000000
# 2 -0.006923 0.071159 -0.008897 0.000000 0.002943 0.000000
# 3 -0.006791 -0.008897 0.014922 0.000000 -0.001238 0.000000
# 4 0.000000 0.000000 0.000000 0.067615 0.000000 -0.001858
# 5 -0.002915 0.002943 -0.001238 0.000000 0.039264 0.000000
# 6 0.000000 0.000000 0.000000 -0.001858 0.000000 0.065122
#
#
# Mechanical properties :
#
#
# Convention : Reuss Voigt Hill
#
# Bulk Modulus (GPa) = 18.86915 59.09461 38.98188
# Shear Modulus (GPa) = 15.01035 21.60043 18.30539
#
# Velocity S-wave (km/s) = 3.13454 3.76019 3.46153
# Velocity P-wave (km/s) = 5.04496 7.58509 6.44148
#
# Compressibility (1/GPa) = 0.05299656
#
# Stress axis : x y z
#
# Youngs Moduli (GPa) = 82.40217 14.05300 67.01463
#
# Poissons Ratio (x) = 0.09728 0.45508
# Poissons Ratio (y) = 0.57043 0.59622
# Poissons Ratio (z) = 0.55957 0.12503
#
# Static dielectric constant tensor:
#      x y z
#    x 3.230070 0.000000 0.108050 
#    y 0.000000 2.680370 0.000000 
#    z 0.108050 0.000000 3.085110 
# 
# 
# High freq. dielectric constant tensor:
#      x y z
#    x 1.581060 0.000000 0.001060 
#    y 0.000000 1.555130 0.000000 
#    z 0.001060 0.000000 1.579640 
# 
# From -- ./inp_files/79467.got.cif
#   From: 2010.06.25/outbox.cif.g09.slc.cpg/sg12_40_cif.got.tgz:79467.got - 2010.06.28 00:19:55.
