data_PCOD8115466
_publ_section_title
;
Structure prediction by ZEFSAII (Michael W. Deem and Ramdas Pophale) SiO2 
 PCOD8115466
Probable space group: C 2/M
;
_chemical_formula_sum "Si O2"
_cell_formula_units_Z 40
_cell_length_a 9.222700
_cell_length_b 27.137264
_cell_length_c 12.480949
_cell_angle_alpha 90.000000
_cell_angle_beta 33.949702
_cell_angle_gamma 90.000000
_cell_volume 1744.486593
_symmetry_space_group_name_H-M "C 2/M"
_symmetry_group_IT_number 12
_symmetry_cell_setting 'monoclinic'
loop_
_space_group_symop_operation_xyz
x,y,z
-x,y,-z
-x,-y,-z
x,-y,z
1/2+x,1/2+y,z
1/2-x,1/2+y,-z
1/2-x,1/2-y,-z
1/2+x,1/2-y,z
loop_
_atom_site_type_symbol
_atom_site_label
_atom_site_fract_x
_atom_site_fract_y
_atom_site_fract_z
Si Si1 0.265631 0.727327 0.215722
Si Si2 0.818098 0.394227 0.018024
Si Si3 0.473979 0.687796 0.305408
Si Si4 0.351690 0.444914 0.202473
Si Si5 0.004803 0.630080 0.677581
O O1 0.323263 0.716107 0.303532
O O2 0.049698 0.770364 0.344993
O O3 0.178228 0.677505 0.211365
O O4 0.500000 0.747433 0.000000
O O5 0.992986 0.392858 0.803597
O O6 0.729158 0.339021 0.103279
O O7 0.557444 0.426917 0.165474
O O8 0.000000 0.416696 0.000000
O O9 0.295680 0.646218 0.470245
O O10 0.257532 0.500000 0.288615
O O11 0.099418 0.409577 0.346427
O O12 0.500000 0.442950 0.000000
#
# Coordination Sequence:
#
# PCOD8115466 Si02
#       5
#     8   8   8   8   8
#     4  12  23  43  64  92 136 177 224 270 319 384
#     4  11  24  43  65  96 136 170 214 274 328 386
#     4  12  26  42  64  95 134 179 224 267 322 387
#     4   9  19  42  74  99 126 170 218 270 330 390
#     4  11  23  44  65  95 134 173 219 272 322 389
#
# _framework density 22.929383000000001
#
# number of rings (size 3 to 8) (size 9 to 14) (size 15 to 20)
#    0.000    1.000    4.000    3.000    2.800    1.200 
#    0.000    2.000    0.000    0.000    0.000    7.000 
#    0.000    0.000    0.000    0.000    0.000    0.000 
#
# Total GULP energy -248033.386369 kJ/mol
# GULP energy per Si atom -12401.669318 kJ/mol
# Density = 2.287719 g / cm^3
# Si number density = 22.929383 Si / 1000 Ang^3
#
#
#
# Elastic Constant Matrix: (Units=GPa)
#
#
# Indices 1 2 3 4 5 6 
#
# 1 129.1169 41.6421 39.4890 0.0000 -14.9380 0.0000
# 2 41.6421 143.9572 31.8332 0.0000 -16.8434 0.0000
# 3 39.4890 31.8332 79.3595 0.0000 1.7473 0.0000
# 4 0.0000 0.0000 0.0000 19.9389 0.0000 -12.0415
# 5 -14.9380 -16.8434 1.7473 0.0000 31.9826 0.0000
# 6 0.0000 0.0000 0.0000 -12.0415 0.0000 19.7354
#
#
#
# Elastic Compliance Matrix: (Units=1/GPa)
#
#
# Indices 1 2 3 4 5 6 
#
# 1 0.010077 -0.001419 -0.004538 0.000000 0.004207 0.000000
# 2 -0.001419 0.008427 -0.002760 0.000000 0.003926 0.000000
# 3 -0.004538 -0.002760 0.016064 0.000000 -0.004451 0.000000
# 4 0.000000 0.000000 0.000000 0.079417 0.000000 0.048456
# 5 0.004207 0.003926 -0.004451 0.000000 0.035543 0.000000
# 6 0.000000 0.000000 0.000000 0.048456 0.000000 0.080236
#
#
# Mechanical properties :
#
#
# Convention : Reuss Voigt Hill
#
# Bulk Modulus (GPa) = 58.36595 64.26246 61.31420
# Shear Modulus (GPa) = 19.76994 30.29599 25.03297
#
# Velocity S-wave (km/s) = 2.93953 3.63888 3.30774
# Velocity P-wave (km/s) = 6.08531 6.76331 6.43325
#
# Compressibility (1/GPa) = 0.01713328
#
# Stress axis : x y z
#
# Youngs Moduli (GPa) = 99.23366 118.66873 62.25068
#
# Poissons Ratio (x) = 0.16843 0.28247
# Poissons Ratio (y) = 0.14085 0.17184
# Poissons Ratio (z) = 0.45029 0.32757
#
# Static dielectric constant tensor:
#      x y z
#    x 4.084970 0.000000 -0.144190 
#    y 0.000000 4.141160 0.000000 
#    z -0.144190 0.000000 4.028760 
# 
# 
# High freq. dielectric constant tensor:
#      x y z
#    x 1.901540 0.000000 0.001440 
#    y 0.000000 1.890450 0.000000 
#    z 0.001440 0.000000 1.906770 
# 
# From -- ./inp_files/201124.got.cif
#   From: 2010.06.25/outbox.cif.g09.slc.cpg/sg12_101_cif.got.tgz:201124.got - 2010.06.28 00:19:55.
