data_PCOD8115001
_publ_section_title
;
Structure prediction by ZEFSAII (Michael W. Deem and Ramdas Pophale) SiO2 
 PCOD8115001
Probable space group: C 2/M
;
_chemical_formula_sum "Si O2"
_cell_formula_units_Z 48
_cell_length_a 11.698217
_cell_length_b 16.971739
_cell_length_c 11.186907
_cell_angle_alpha 90.000000
_cell_angle_beta 76.439061
_cell_angle_gamma 90.000000
_cell_volume 2159.118141
_symmetry_space_group_name_H-M "C 2/M"
_symmetry_group_IT_number 12
_symmetry_cell_setting 'monoclinic'
loop_
_space_group_symop_operation_xyz
x,y,z
-x,y,-z
-x,-y,-z
x,-y,z
1/2+x,1/2+y,z
1/2-x,1/2+y,-z
1/2-x,1/2-y,-z
1/2+x,1/2-y,z
loop_
_atom_site_type_symbol
_atom_site_label
_atom_site_fract_x
_atom_site_fract_y
_atom_site_fract_z
Si Si1 0.551816 0.407598 0.800573
Si Si2 0.901034 0.813341 0.429538
Si Si3 0.200086 0.845671 0.121949
Si Si4 0.280780 0.837787 0.856485
Si Si5 0.970484 0.588252 0.635320
Si Si6 0.694309 0.843935 0.652006
O O1 0.578492 0.500000 0.811481
O O2 0.549566 0.385082 0.660992
O O3 0.423328 0.386521 0.882059
O O4 0.649597 0.354741 0.842450
O O5 0.788113 0.849073 0.523136
O O6 0.866459 0.742409 0.346645
O O7 0.000000 0.785256 0.500000
O O8 0.185964 0.752532 0.136937
O O9 0.248863 0.870071 0.237611
O O10 0.287633 0.871198 0.991326
O O11 0.371225 0.870281 0.737513
O O12 0.925507 0.500000 0.624907
O O13 0.000000 0.630006 0.500000
O O14 0.094642 0.589586 0.671288
#
# Coordination Sequence:
#
# PCOD8115001 Si02
#       6
#     8   8   8   8   8   8
#     4  12  25  44  70 102 139 178 228 287 346 405
#     4  11  22  40  68 101 136 181 226 284 342 403
#     4  11  25  44  69  99 133 177 228 282 333 401
#     4  11  25  46  70  96 134 181 230 272 334 411
#     4  11  25  44  68  97 136 179 223 277 338 410
#     4  11  23  40  68 101 132 175 231 281 334 407
#
# _framework density 22.231300000000001
#
# number of rings (size 3 to 8) (size 9 to 14) (size 15 to 20)
#    0.000    0.833    3.333    3.500    2.333    5.667 
#    0.000    0.833    0.000    0.000    0.000    0.000 
#    0.000    0.000    0.000    0.000    0.000    0.000 
#
# Total GULP energy -297386.770408 kJ/mol
# GULP energy per Si atom -12391.115434 kJ/mol
# Density = 2.218070 g / cm^3
# Si number density = 22.231300 Si / 1000 Ang^3
#
#
#
# Elastic Constant Matrix: (Units=GPa)
#
#
# Indices 1 2 3 4 5 6 
#
# 1 94.3451 4.0498 31.0186 0.0000 -12.4944 0.0000
# 2 4.0498 62.7863 25.7515 0.0000 -9.7842 0.0000
# 3 31.0186 25.7515 165.8535 0.0000 -21.3976 0.0000
# 4 0.0000 0.0000 0.0000 -11.2492 0.0000 -39.4668
# 5 -12.4944 -9.7842 -21.3976 0.0000 31.8266 0.0000
# 6 0.0000 0.0000 0.0000 -39.4668 0.0000 -32.7959
#
#
#
# Elastic Compliance Matrix: (Units=1/GPa)
#
#
# Indices 1 2 3 4 5 6 
#
# 1 0.011636 0.000539 -0.001806 0.000000 0.003520 0.000000
# 2 0.000539 0.017461 -0.002291 0.000000 0.004039 0.000000
# 3 -0.001806 -0.002291 0.007162 0.000000 0.003402 0.000000
# 4 0.000000 0.000000 0.000000 0.027590 0.000000 -0.033202
# 5 0.003520 0.004039 0.003402 0.000000 0.036331 0.000000
# 6 0.000000 0.000000 0.000000 -0.033202 0.000000 0.009463
#
#
# Mechanical properties :
#
#
# Convention : Reuss Voigt Hill
#
# Bulk Modulus (GPa) = 34.31340 49.40274 41.85807
# Shear Modulus (GPa) = 39.53406 15.03397 27.28402
#
# Velocity S-wave (km/s) = 4.22157 2.60331 3.50706
# Velocity P-wave (km/s) = 6.26342 5.59524 5.93873
#
# Compressibility (1/GPa) = 0.02914313
#
# Stress axis : x y z
#
# Youngs Moduli (GPa) = 85.93970 57.26954 139.63165
#
# Poissons Ratio (x) = -0.03084 0.25214
# Poissons Ratio (y) = -0.04628 0.31986
# Poissons Ratio (z) = 0.15519 0.13119
#
# Static dielectric constant tensor:
#      x y z
#    x 4.075040 0.000000 0.045880 
#    y 0.000000 3.824120 0.000000 
#    z 0.045880 0.000000 4.571470 
# 
# 
# High freq. dielectric constant tensor:
#      x y z
#    x 1.878050 0.000000 -0.001940 
#    y 0.000000 1.853570 0.000000 
#    z -0.001940 0.000000 1.897450 
# 
# From -- ./inp_files/131679.got.cif
#   From: 2010.06.25/outbox.cif.g09.slc.cpg/sg12_66_cif.got.tgz:131679.got - 2010.06.28 00:19:55.
