data_PCOD8115232
_publ_section_title
;
Structure prediction by ZEFSAII (Michael W. Deem and Ramdas Pophale) SiO2 
 PCOD8115232
Probable space group: C 2/M
;
_chemical_formula_sum "Si O2"
_cell_formula_units_Z 56
_cell_length_a 19.078625
_cell_length_b 18.283041
_cell_length_c 8.473853
_cell_angle_alpha 90.000000
_cell_angle_beta 63.630831
_cell_angle_gamma 90.000000
_cell_volume 2648.260092
_symmetry_space_group_name_H-M "C 2/M"
_symmetry_group_IT_number 12
_symmetry_cell_setting 'monoclinic'
loop_
_space_group_symop_operation_xyz
x,y,z
-x,y,-z
-x,-y,-z
x,-y,z
1/2+x,1/2+y,z
1/2-x,1/2+y,-z
1/2-x,1/2-y,-z
1/2+x,1/2-y,z
loop_
_atom_site_type_symbol
_atom_site_label
_atom_site_fract_x
_atom_site_fract_y
_atom_site_fract_z
Si Si1 0.643939 0.666654 0.538842
Si Si2 0.589576 0.185308 0.094010
Si Si3 0.288806 0.915796 0.894541
Si Si4 0.356061 0.666653 0.826722
Si Si5 0.211195 0.415796 0.472154
Si Si6 1.000000 0.913795 0.822676
Si Si7 0.410424 0.814693 0.273161
O O1 0.637023 0.686796 0.362976
O O2 0.726428 0.628829 0.488452
O O3 0.576476 0.610656 0.653860
O O4 0.637313 0.740893 0.644507
O O5 0.626087 0.117939 0.154728
O O6 0.637311 0.259109 0.080867
O O7 0.500000 0.195782 0.238471
O O8 0.595151 0.166748 0.904850
O O9 0.267768 0.908236 0.732232
O O10 0.288641 0.000000 0.947696
O O11 0.226430 0.871171 0.058690
O O12 0.423521 0.610651 0.806817
O O13 0.211361 0.500000 0.524977
O O14 0.126088 0.382062 0.593099
O O15 0.000004 0.000000 0.831828
O O16 0.000000 0.880141 0.000000
#
# Coordination Sequence:
#
# PCOD8115232 Si02
#       7
#     8   8   8   8   8   8   8
#     4  12  24  40  65  95 129 167 213 265 316 380
#     4  11  24  43  68  95 128 169 214 265 320 382
#     4  11  25  44  66  93 129 171 214 265 323 381
#     4  12  24  40  65  95 129 167 213 265 316 380
#     4  11  25  44  66  93 129 171 214 265 323 381
#     4  11  23  39  61  91 130 171 210 257 317 381
#     4  11  24  43  68  95 128 169 214 265 320 382
#
# _framework density 21.145959999999999
#
# number of rings (size 3 to 8) (size 9 to 14) (size 15 to 20)
#    0.000    0.714    1.429    6.429    0.000    9.143 
#    0.000    2.857    0.000    0.000    0.000    0.000 
#    0.000    0.000    0.000    0.000    0.000    0.000 
#
# Total GULP energy -347453.027130 kJ/mol
# GULP energy per Si atom -12409.036683 kJ/mol
# Density = 2.109783 g / cm^3
# Si number density = 21.145960 Si / 1000 Ang^3
#
#
#
# Elastic Constant Matrix: (Units=GPa)
#
#
# Indices 1 2 3 4 5 6 
#
# 1 91.4403 51.1100 25.2435 0.0000 -4.0122 0.0000
# 2 51.1100 108.2352 20.2270 0.0000 -17.9353 0.0000
# 3 25.2435 20.2270 75.5003 0.0000 -5.2458 0.0000
# 4 0.0000 0.0000 0.0000 28.9041 0.0000 11.7438
# 5 -4.0122 -17.9353 -5.2458 0.0000 28.9302 0.0000
# 6 0.0000 0.0000 0.0000 11.7438 0.0000 8.6846
#
#
#
# Elastic Compliance Matrix: (Units=1/GPa)
#
#
# Indices 1 2 3 4 5 6 
#
# 1 0.015884 -0.007331 -0.003554 0.000000 -0.002987 0.000000
# 2 -0.007331 0.014108 -0.000801 0.000000 0.007584 0.000000
# 3 -0.003554 -0.000801 0.014765 0.000000 0.001688 0.000000
# 4 0.000000 0.000000 0.000000 0.076785 0.000000 -0.103834
# 5 -0.002987 0.007584 0.001688 0.000000 0.039159 0.000000
# 6 0.000000 0.000000 0.000000 -0.103834 0.000000 0.255557
#
#
# Mechanical properties :
#
#
# Convention : Reuss Voigt Hill
#
# Bulk Modulus (GPa) = 46.76599 52.03743 49.40171
# Shear Modulus (GPa) = 11.19171 25.21013 18.20092
#
# Velocity S-wave (km/s) = 2.30306 3.45657 2.93700
# Velocity P-wave (km/s) = 5.40703 6.37123 5.90883
#
# Compressibility (1/GPa) = 0.02138306
#
# Stress axis : x y z
#
# Youngs Moduli (GPa) = 62.95623 70.88402 67.72650
#
# Poissons Ratio (x) = 0.51967 0.24072
# Poissons Ratio (y) = 0.46155 0.05427
# Poissons Ratio (z) = 0.22376 0.05680
#
# Static dielectric constant tensor:
#      x y z
#    x 3.832650 0.000000 0.006890 
#    y 0.000000 3.850710 0.000000 
#    z 0.006890 0.000000 3.844600 
# 
# 
# High freq. dielectric constant tensor:
#      x y z
#    x 1.837840 0.000000 -0.000210 
#    y 0.000000 1.835800 0.000000 
#    z -0.000210 0.000000 1.837480 
# 
# From -- ./inp_files/75900.got.cif
#   From: 2010.06.25/outbox.cif.g09.slc.cpg/sg12_38_cif.got.tgz:75900.got - 2010.06.28 00:19:55.
