data_PCOD8115855
_publ_section_title
;
Structure prediction by ZEFSAII (Michael W. Deem and Ramdas Pophale) SiO2 
 PCOD8115855
Probable space group: C 2/M
;
_chemical_formula_sum "Si O2"
_cell_formula_units_Z 56
_cell_length_a 8.062262
_cell_length_b 17.945254
_cell_length_c 16.834109
_cell_angle_alpha 90.000000
_cell_angle_beta 101.775323
_cell_angle_gamma 90.000000
_cell_volume 2384.292576
_symmetry_space_group_name_H-M "C 2/M"
_symmetry_group_IT_number 12
_symmetry_cell_setting 'monoclinic'
loop_
_space_group_symop_operation_xyz
x,y,z
-x,y,-z
-x,-y,-z
x,-y,z
1/2+x,1/2+y,z
1/2-x,1/2+y,-z
1/2-x,1/2-y,-z
1/2+x,1/2-y,z
loop_
_atom_site_type_symbol
_atom_site_label
_atom_site_fract_x
_atom_site_fract_y
_atom_site_fract_z
Si Si1 0.451556 0.163271 0.409365
Si Si2 0.379492 0.126011 0.837861
Si Si3 0.696132 0.668451 0.966023
Si Si4 0.452413 0.320023 0.636943
Si Si5 0.755295 0.915397 0.873999
Si Si6 0.072288 0.795245 0.190782
Si Si7 0.234824 0.583276 0.336428
O O1 0.500000 0.129936 0.500000
O O2 0.515200 0.248375 0.414180
O O3 0.246379 0.155846 0.379952
O O4 0.562114 0.120964 0.353129
O O5 0.322172 0.120974 0.923497
O O6 0.556189 0.085552 0.862412
O O7 0.361177 0.212426 0.812106
O O8 0.271033 0.083073 0.760546
O O9 0.538829 0.683781 0.894975
O O10 0.750000 0.750000 0.000000
O O11 0.656222 0.616723 0.037636
O O12 0.515423 0.301055 0.732307
O O13 0.586244 0.380989 0.617142
O O14 0.784668 0.859829 0.801644
O O15 0.819685 0.000000 0.864091
O O16 0.238260 0.500000 0.369447
#
# Coordination Sequence:
#
# PCOD8115855 Si02
#       7
#     8   8   8   8   8   8   8
#     4  12  26  47  84 119 148 191 246 297 364 450
#     4  12  22  44  69  95 133 189 246 293 353 436
#     4  12  24  40  66  98 134 181 243 293 360 430
#     4  12  25  47  79 112 147 195 250 301 360 443
#     4  12  28  42  63 101 141 180 237 315 369 409
#     4  12  23  43  72  96 133 190 244 290 357 435
#     4  12  28  48  74 113 155 195 245 308 369 437
#
# _framework density 23.487051999999998
#
# number of rings (size 3 to 8) (size 9 to 14) (size 15 to 20)
#    0.000    0.000    7.143    2.571    0.000    4.286 
#    0.000    0.714    0.000    0.000    0.000    0.000 
#    0.000    0.000    0.000    0.000    0.000    0.000 
#
# Total GULP energy -346885.862055 kJ/mol
# GULP energy per Si atom -12388.780788 kJ/mol
# Density = 2.343359 g / cm^3
# Si number density = 23.487052 Si / 1000 Ang^3
#
#
#
# Elastic Constant Matrix: (Units=GPa)
#
#
# Indices 1 2 3 4 5 6 
#
# 1 183.9562 50.3387 19.5604 0.0000 -2.7272 0.0000
# 2 50.3387 143.5828 12.1037 0.0000 -6.9596 0.0000
# 3 19.5604 12.1037 83.3812 0.0000 -1.5654 0.0000
# 4 0.0000 0.0000 0.0000 20.9541 0.0000 8.5272
# 5 -2.7272 -6.9596 -1.5654 0.0000 42.2140 0.0000
# 6 0.0000 0.0000 0.0000 8.5272 0.0000 44.9375
#
#
#
# Elastic Compliance Matrix: (Units=1/GPa)
#
#
# Indices 1 2 3 4 5 6 
#
# 1 0.006118 -0.002048 -0.001138 0.000000 0.000015 0.000000
# 2 -0.002048 0.007790 -0.000629 0.000000 0.001129 0.000000
# 3 -0.001138 -0.000629 0.012357 0.000000 0.000281 0.000000
# 4 0.000000 0.000000 0.000000 0.051717 0.000000 -0.009814
# 5 0.000015 0.001129 0.000281 0.000000 0.023886 0.000000
# 6 0.000000 0.000000 0.000000 -0.009814 0.000000 0.024115
#
#
# Mechanical properties :
#
#
# Convention : Reuss Voigt Hill
#
# Bulk Modulus (GPa) = 53.66274 63.88063 58.77169
# Shear Modulus (GPa) = 35.75903 43.54894 39.65398
#
# Velocity S-wave (km/s) = 3.90616 4.31068 4.11339
# Velocity P-wave (km/s) = 6.57582 7.21340 6.90198
#
# Compressibility (1/GPa) = 0.01863490
#
# Stress axis : x y z
#
# Youngs Moduli (GPa) = 163.45912 128.36241 80.92855
#
# Poissons Ratio (x) = 0.26291 0.09206
# Poissons Ratio (y) = 0.33479 0.05092
# Poissons Ratio (z) = 0.18594 0.08077
#
# Static dielectric constant tensor:
#      x y z
#    x 5.312250 0.000000 -0.406640 
#    y 0.000000 4.052980 0.000000 
#    z -0.406640 0.000000 4.420630 
# 
# 
# High freq. dielectric constant tensor:
#      x y z
#    x 1.944360 0.000000 -0.002390 
#    y 0.000000 1.910120 0.000000 
#    z -0.002390 0.000000 1.932470 
# 
# From -- ./inp_files/257138.got.cif
#   From: 2010.06.25/outbox.cif.g09.slc.cpg/sg12_129_cif.got.tgz:257138.got - 2010.06.28 00:19:55.
