data_PCOD8115115
_publ_section_title
;
Structure prediction by ZEFSAII (Michael W. Deem and Ramdas Pophale) SiO2 
 PCOD8115115
Probable space group: C 2/M
;
_chemical_formula_sum "Si O2"
_cell_formula_units_Z 48
_cell_length_a 30.239763
_cell_length_b 17.307537
_cell_length_c 9.058331
_cell_angle_alpha 90.000000
_cell_angle_beta 29.571656
_cell_angle_gamma 90.000000
_cell_volume 2339.695098
_symmetry_space_group_name_H-M "C 2/M"
_symmetry_group_IT_number 12
_symmetry_cell_setting 'monoclinic'
loop_
_space_group_symop_operation_xyz
x,y,z
-x,y,-z
-x,-y,-z
x,-y,z
1/2+x,1/2+y,z
1/2-x,1/2+y,-z
1/2-x,1/2-y,-z
1/2+x,1/2-y,z
loop_
_atom_site_type_symbol
_atom_site_label
_atom_site_fract_x
_atom_site_fract_y
_atom_site_fract_z
Si Si1 0.975013 0.411624 0.735330
Si Si2 0.468593 0.500000 0.330843
Si Si3 0.429055 0.661014 0.586263
Si Si4 0.643335 0.500000 0.638802
Si Si5 0.256347 0.702168 0.257766
Si Si6 0.726318 0.134577 0.660747
Si Si7 0.564166 0.787883 0.679259
O O1 0.005262 0.500000 0.667212
O O2 0.000000 0.381463 0.500000
O O3 0.029303 0.362956 0.696525
O O4 0.869861 0.404852 0.069569
O O5 0.451962 0.573579 0.480800
O O6 0.400863 0.500000 0.392042
O O7 0.570769 0.500000 0.979496
O O8 0.500000 0.692455 0.500000
O O9 0.436610 0.712795 0.419598
O O10 0.329258 0.664798 0.939368
O O11 0.702983 0.576188 0.475665
O O12 0.278577 0.792003 0.217487
O O13 0.259478 0.657487 0.402716
O O14 0.161806 0.691605 0.453943
O O15 0.500000 0.766222 0.000000
#
# Coordination Sequence:
#
# PCOD8115115 Si02
#       7
#     8   4   8   4   8   8   8
#     4  11  24  45  69 100 136 182 232 288 349 410
#     4  11  27  44  68 104 134 181 229 297 356 409
#     4  12  26  46  70 101 139 180 231 290 349 420
#     4  11  24  42  71  97 141 178 227 287 349 432
#     4  11  25  42  70  99 138 181 232 280 342 420
#     4  11  22  44  68 101 133 184 229 277 349 417
#     4  12  25  43  69 103 139 181 230 287 347 417
#
# _framework density 20.515494
#
# number of rings (size 3 to 8) (size 9 to 14) (size 15 to 20)
#    0.000    0.667    2.500    5.250    7.000    2.333 
#    3.000    0.000    0.000    0.000    0.000    0.000 
#    0.000    0.000    0.000    0.000    0.000    0.000 
#
# Total GULP energy -297817.694899 kJ/mol
# GULP energy per Si atom -12409.070621 kJ/mol
# Density = 2.046880 g / cm^3
# Si number density = 20.515494 Si / 1000 Ang^3
#
#
#
# Elastic Constant Matrix: (Units=GPa)
#
#
# Indices 1 2 3 4 5 6 
#
# 1 72.8067 5.8576 26.0392 0.0000 -10.0464 0.0000
# 2 5.8576 70.8256 20.4940 0.0000 4.4176 0.0000
# 3 26.0392 20.4940 120.8555 0.0000 1.2194 0.0000
# 4 0.0000 0.0000 0.0000 37.5864 0.0000 23.7875
# 5 -10.0464 4.4176 1.2194 0.0000 42.9323 0.0000
# 6 0.0000 0.0000 0.0000 23.7875 0.0000 147.5886
#
#
#
# Elastic Compliance Matrix: (Units=1/GPa)
#
#
# Indices 1 2 3 4 5 6 
#
# 1 0.015473 -0.000567 -0.003276 0.000000 0.003772 0.000000
# 2 -0.000567 0.014960 -0.002398 0.000000 -0.001604 0.000000
# 3 -0.003276 -0.002398 0.009395 0.000000 -0.000787 0.000000
# 4 0.000000 0.000000 0.000000 0.029627 0.000000 -0.004775
# 5 0.003772 -0.001604 -0.000787 0.000000 0.024363 0.000000
# 6 0.000000 0.000000 0.000000 -0.004775 0.000000 0.007545
#
#
# Mechanical properties :
#
#
# Convention : Reuss Voigt Hill
#
# Bulk Modulus (GPa) = 36.56954 41.02994 38.79974
# Shear Modulus (GPa) = 40.66355 59.76125 50.21240
#
# Velocity S-wave (km/s) = 4.45690 5.40306 4.95262
# Velocity P-wave (km/s) = 6.65952 7.67900 7.18736
#
# Compressibility (1/GPa) = 0.02734516
#
# Stress axis : x y z
#
# Youngs Moduli (GPa) = 64.63026 66.84420 106.44237
#
# Poissons Ratio (x) = 0.03791 0.34866
# Poissons Ratio (y) = 0.03665 0.25530
# Poissons Ratio (z) = 0.21170 0.16033
#
# Static dielectric constant tensor:
#      x y z
#    x 3.826310 0.000000 0.011850 
#    y 0.000000 3.767220 0.000000 
#    z 0.011850 0.000000 3.863790 
# 
# 
# High freq. dielectric constant tensor:
#      x y z
#    x 1.815690 0.000000 -0.000550 
#    y 0.000000 1.812720 0.000000 
#    z -0.000550 0.000000 1.818800 
# 
# From -- ./inp_files/112767.got.cif
#   From: 2010.06.25/outbox.cif.g09.slc.cpg/sg12_57_cif.got.tgz:112767.got - 2010.06.28 00:19:55.
