data_PCOD8115611
_publ_section_title
;
Structure prediction by ZEFSAII (Michael W. Deem and Ramdas Pophale) SiO2 
 PCOD8115611
Probable space group: C 2/M
;
_chemical_formula_sum "Si O2"
_cell_formula_units_Z 40
_cell_length_a 7.695472
_cell_length_b 18.199261
_cell_length_c 14.877775
_cell_angle_alpha 90.000000
_cell_angle_beta 61.358993
_cell_angle_gamma 90.000000
_cell_volume 1828.704291
_symmetry_space_group_name_H-M "C 2/M"
_symmetry_group_IT_number 12
_symmetry_cell_setting 'monoclinic'
loop_
_space_group_symop_operation_xyz
x,y,z
-x,y,-z
-x,-y,-z
x,-y,z
1/2+x,1/2+y,z
1/2-x,1/2+y,-z
1/2-x,1/2-y,-z
1/2+x,1/2-y,z
loop_
_atom_site_type_symbol
_atom_site_label
_atom_site_fract_x
_atom_site_fract_y
_atom_site_fract_z
Si Si1 0.215718 0.914499 0.110993
Si Si2 0.370109 0.585522 0.324534
Si Si3 0.440024 0.832498 0.696358
Si Si4 0.609489 0.686131 0.385724
Si Si5 0.396615 0.087528 0.885481
O O1 0.385786 0.885694 0.136273
O O2 0.001163 0.895523 0.203321
O O3 0.256835 0.000000 0.096480
O O4 0.240923 0.887646 0.001760
O O5 0.344997 0.500000 0.347349
O O6 0.154893 0.621402 0.362587
O O7 0.478763 0.617770 0.384767
O O8 0.381521 0.747362 0.695296
O O9 0.675421 0.842770 0.639185
O O10 0.344812 0.864355 0.811211
O O11 0.500000 0.720211 0.500000
O O12 0.384542 0.000000 0.865482
#
# Coordination Sequence:
#
# PCOD8115611 Si02
#       5
#     8   8   8   8   8
#     4   8  16  34  61  97 135 172 208 255 324 390
#     4  11  24  42  70 104 133 166 220 275 319 387
#     4  12  24  42  70  95 127 175 224 263 325 397
#     4  12  27  47  70  90 129 178 220 269 339 398
#     4   9  17  34  66  98 131 172 214 261 318 385
#
# _framework density 21.87341
#
# number of rings (size 3 to 8) (size 9 to 14) (size 15 to 20)
#    0.000    1.600    4.000    2.400    0.000    2.000 
#    0.000    5.000    4.400    0.000    0.000    0.000 
#    0.000    0.000    0.000    0.000    0.000    0.000 
#
# Total GULP energy -247938.952028 kJ/mol
# GULP energy per Si atom -12396.947601 kJ/mol
# Density = 2.182363 g / cm^3
# Si number density = 21.873410 Si / 1000 Ang^3
#
#
#
# Elastic Constant Matrix: (Units=GPa)
#
#
# Indices 1 2 3 4 5 6 
#
# 1 156.0703 53.1536 26.8964 0.0000 8.2771 0.0000
# 2 53.1536 100.4633 31.2820 0.0000 6.3653 0.0000
# 3 26.8964 31.2820 68.1401 0.0000 0.6867 0.0000
# 4 0.0000 0.0000 0.0000 28.5093 0.0000 10.9978
# 5 8.2771 6.3653 0.6867 0.0000 8.8464 0.0000
# 6 0.0000 0.0000 0.0000 10.9978 0.0000 33.8688
#
#
#
# Elastic Compliance Matrix: (Units=1/GPa)
#
#
# Indices 1 2 3 4 5 6 
#
# 1 0.008132 -0.003505 -0.001551 0.000000 -0.004966 0.000000
# 2 -0.003505 0.013711 -0.004849 0.000000 -0.006210 0.000000
# 3 -0.001551 -0.004849 0.017478 0.000000 0.003583 0.000000
# 4 0.000000 0.000000 0.000000 0.040099 0.000000 -0.013021
# 5 -0.004966 -0.006210 0.003583 0.000000 0.121877 0.000000
# 6 0.000000 0.000000 0.000000 -0.013021 0.000000 0.033754
#
#
# Mechanical properties :
#
#
# Convention : Reuss Voigt Hill
#
# Bulk Modulus (GPa) = 51.24977 60.81530 56.03254
# Shear Modulus (GPa) = 19.13048 28.46768 23.79908
#
# Velocity S-wave (km/s) = 2.96057 3.61151 3.30212
# Velocity P-wave (km/s) = 5.93023 6.72713 6.34121
#
# Compressibility (1/GPa) = 0.01951228
#
# Stress axis : x y z
#
# Youngs Moduli (GPa) = 122.97645 72.93154 57.21607
#
# Poissons Ratio (x) = 0.25561 0.08872
# Poissons Ratio (y) = 0.43101 0.27742
# Poissons Ratio (z) = 0.19070 0.35362
#
# Static dielectric constant tensor:
#      x y z
#    x 4.009870 0.000000 0.064340 
#    y 0.000000 3.627870 0.000000 
#    z 0.064340 0.000000 4.034260 
# 
# 
# High freq. dielectric constant tensor:
#      x y z
#    x 1.871990 0.000000 0.005930 
#    y 0.000000 1.832690 0.000000 
#    z 0.005930 0.000000 1.853180 
# 
# From -- ./inp_files/195307.got.cif
#   From: 2010.06.25/outbox.cif.g09.slc.cpg/sg12_98_cif.got.tgz:195307.got - 2010.06.28 00:19:55.
