data_PCOD8115026
_publ_section_title
;
Structure prediction by ZEFSAII (Michael W. Deem and Ramdas Pophale) SiO2 
 PCOD8115026
Probable space group: C 2/M
;
_chemical_formula_sum "Si O2"
_cell_formula_units_Z 40
_cell_length_a 14.694698
_cell_length_b 29.181310
_cell_length_c 8.241924
_cell_angle_alpha 90.000000
_cell_angle_beta 149.562004
_cell_angle_gamma 90.000000
_cell_volume 1790.457718
_symmetry_space_group_name_H-M "C 2/M"
_symmetry_group_IT_number 12
_symmetry_cell_setting 'monoclinic'
loop_
_space_group_symop_operation_xyz
x,y,z
-x,y,-z
-x,-y,-z
x,-y,z
1/2+x,1/2+y,z
1/2-x,1/2+y,-z
1/2-x,1/2-y,-z
1/2+x,1/2-y,z
loop_
_atom_site_type_symbol
_atom_site_label
_atom_site_fract_x
_atom_site_fract_y
_atom_site_fract_z
Si Si1 0.136641 0.316449 0.087201
Si Si2 0.804619 0.660591 0.162558
Si Si3 0.006588 0.220054 0.194427
Si Si4 0.821538 0.075108 0.829413
Si Si5 0.332667 0.000000 0.624649
Si Si6 0.523276 0.500000 0.723608
O O1 0.305864 0.295327 0.440660
O O2 0.197641 0.350622 0.035723
O O3 0.000000 0.343241 0.000000
O O4 0.015362 0.274776 0.829749
O O5 0.772575 0.618944 0.237084
O O6 0.000000 0.681171 0.500000
O O7 0.655957 0.699035 0.954449
O O8 0.000000 0.201973 0.000000
O O9 0.678545 0.046178 0.502048
O O10 0.871768 0.045131 0.062083
O O11 0.000000 0.088240 0.000000
O O12 0.165977 0.000000 0.484282
O O13 0.500000 0.000000 0.000000
O O14 0.500000 0.500000 0.500000
#
# Coordination Sequence:
#
# PCOD8115026 Si02
#       6
#     8   8   8   8   4   4
#     4  11  23  41  64  90 121 165 216 263 315 374
#     4  12  24  39  59  90 127 165 206 259 314 370
#     4  11  22  41  65  89 120 163 213 269 316 370
#     4   9  21  42  64  89 125 163 202 249 307 371
#     4   9  19  41  70  96 121 158 203 252 306 372
#     4   9  19  37  64  92 120 158 199 242 299 372
#
# _framework density 22.340655000000002
#
# number of rings (size 3 to 8) (size 9 to 14) (size 15 to 20)
#    0.000    1.600    0.000    7.800    0.000    3.200 
#    0.000   11.000    0.000    0.000    0.000    2.100 
#    0.000    0.000    0.000    0.000    0.000    0.000 
#
# Total GULP energy -247874.714462 kJ/mol
# GULP energy per Si atom -12393.735723 kJ/mol
# Density = 2.228981 g / cm^3
# Si number density = 22.340655 Si / 1000 Ang^3
#
#
#
# Elastic Constant Matrix: (Units=GPa)
#
#
# Indices 1 2 3 4 5 6 
#
# 1 159.9350 42.5817 36.1572 0.0000 -14.8196 0.0000
# 2 42.5817 52.6601 16.5149 0.0000 -0.3623 0.0000
# 3 36.1572 16.5149 133.6256 0.0000 -8.6007 0.0000
# 4 0.0000 0.0000 0.0000 14.6991 0.0000 -4.4999
# 5 -14.8196 -0.3623 -8.6007 0.0000 46.1932 0.0000
# 6 0.0000 0.0000 0.0000 -4.4999 0.0000 21.5068
#
#
#
# Elastic Compliance Matrix: (Units=1/GPa)
#
#
# Indices 1 2 3 4 5 6 
#
# 1 0.008493 -0.006428 -0.001348 0.000000 0.002423 0.000000
# 2 -0.006428 0.024625 -0.001442 0.000000 -0.002138 0.000000
# 3 -0.001348 -0.001442 0.008095 0.000000 0.001064 0.000000
# 4 0.000000 0.000000 0.000000 0.072687 0.000000 0.015209
# 5 0.002423 -0.002138 0.001064 0.000000 0.022607 0.000000
# 6 0.000000 0.000000 0.000000 0.015209 0.000000 0.049679
#
#
# Mechanical properties :
#
#
# Convention : Reuss Voigt Hill
#
# Bulk Modulus (GPa) = 43.90213 59.63647 51.76930
# Shear Modulus (GPa) = 23.56102 33.21095 28.38599
#
# Velocity S-wave (km/s) = 3.25102 3.85979 3.56841
# Velocity P-wave (km/s) = 5.81258 6.82760 6.34043
#
# Compressibility (1/GPa) = 0.02277794
#
# Stress axis : x y z
#
# Youngs Moduli (GPa) = 117.73952 40.60868 123.53490
#
# Poissons Ratio (x) = 0.26105 0.16649
# Poissons Ratio (y) = 0.75689 0.17809
# Poissons Ratio (z) = 0.15868 0.05854
#
# Static dielectric constant tensor:
#      x y z
#    x 4.516990 0.000000 -0.003730 
#    y 0.000000 3.735510 0.000000 
#    z -0.003730 0.000000 3.997780 
# 
# 
# High freq. dielectric constant tensor:
#      x y z
#    x 1.905250 0.000000 -0.000980 
#    y 0.000000 1.846860 0.000000 
#    z -0.000980 0.000000 1.888950 
# 
# From -- ./inp_files/68789.got.cif
#   From: 2010.06.25/outbox.cif.g09.slc.cpg/sg12_35_cif.got.tgz:68789.got - 2010.06.28 00:19:55.
