data_PCOD8115696
_publ_section_title
;
Structure prediction by ZEFSAII (Michael W. Deem and Ramdas Pophale) SiO2 
 PCOD8115696
Probable space group: C 2/M
;
_chemical_formula_sum "Si O2"
_cell_formula_units_Z 40
_cell_length_a 11.897798
_cell_length_b 24.783405
_cell_length_c 12.742494
_cell_angle_alpha 90.000000
_cell_angle_beta 157.009048
_cell_angle_gamma 90.000000
_cell_volume 1467.568592
_symmetry_space_group_name_H-M "C 2/M"
_symmetry_group_IT_number 12
_symmetry_cell_setting 'monoclinic'
loop_
_space_group_symop_operation_xyz
x,y,z
-x,y,-z
-x,-y,-z
x,-y,z
1/2+x,1/2+y,z
1/2-x,1/2+y,-z
1/2-x,1/2-y,-z
1/2+x,1/2-y,z
loop_
_atom_site_type_symbol
_atom_site_label
_atom_site_fract_x
_atom_site_fract_y
_atom_site_fract_z
Si Si1 0.403861 0.404391 0.133272
Si Si2 0.507497 0.208685 0.819497
Si Si3 0.820749 0.000000 0.743539
Si Si4 0.263868 0.935894 0.623741
Si Si5 0.500000 0.127844 0.000000
Si Si6 0.288034 0.187282 0.409923
O O1 0.622191 0.447179 0.273504
O O2 0.483997 0.346470 0.147288
O O3 0.498322 0.406223 0.336827
O O4 0.072719 0.421633 0.834446
O O5 0.612591 0.165537 0.998730
O O6 0.415810 0.176590 0.636076
O O7 0.256177 0.248242 0.647206
O O8 0.750000 0.250000 0.000000
O O9 0.500000 0.000000 0.500000
O O10 0.000000 0.000000 0.000000
O O11 0.219095 0.000000 0.589965
O O12 0.263598 0.911343 0.742219
O O13 0.500000 0.166361 0.500000
#
# Coordination Sequence:
#
# PCOD8115696 Si02
#       6
#     8   8   4   8   4   8
#     4  12  25  48  74 108 156 196 254 316 382 451
#     4  11  24  48  71 107 148 194 251 318 384 456
#     4  12  24  44  72 105 146 201 254 308 371 445
#     4  12  25  49  76 110 151 202 253 320 381 455
#     4  12  25  46  78 110 150 203 260 316 386 462
#     4  11  25  44  72 105 147 198 251 312 385 457
#
# _framework density 27.255965
#
# number of rings (size 3 to 8) (size 9 to 14) (size 15 to 20)
#    0.000    0.400    4.000    4.500    0.000    2.400 
#    9.000    2.000    0.000    0.000    0.000    0.000 
#    0.000    0.000    0.000    0.000    0.000    0.000 
#
# Total GULP energy -247861.907218 kJ/mol
# GULP energy per Si atom -12393.095361 kJ/mol
# Density = 2.719393 g / cm^3
# Si number density = 27.255965 Si / 1000 Ang^3
#
#
#
# Elastic Constant Matrix: (Units=GPa)
#
#
# Indices 1 2 3 4 5 6 
#
# 1 122.6640 24.7055 -17.4137 0.0053 -6.5646 0.0015
# 2 24.7055 190.4334 15.9069 0.0112 -16.8131 0.0065
# 3 -17.4137 15.9069 73.4859 -0.0069 -14.6072 -0.0041
# 4 0.0053 0.0112 -0.0069 41.5368 -0.0168 -19.0719
# 5 -6.5646 -16.8131 -14.6072 -0.0168 41.9714 -0.0104
# 6 0.0015 0.0065 -0.0041 -19.0719 -0.0104 31.4303
#
#
#
# Elastic Compliance Matrix: (Units=1/GPa)
#
#
# Indices 1 2 3 4 5 6 
#
# 1 0.008886 -0.001218 0.002738 0.000001 0.001855 0.000001
# 2 -0.001218 0.005655 -0.001182 -0.000002 0.001663 -0.000002
# 3 0.002738 -0.001182 0.015582 0.000009 0.005378 0.000009
# 4 0.000001 -0.000002 0.000009 0.033373 0.000021 0.020251
# 5 0.001855 0.001663 0.005378 0.000021 0.026654 0.000022
# 6 0.000001 -0.000002 0.000009 0.020251 0.000022 0.044105
#
#
# Mechanical properties :
#
#
# Convention : Reuss Voigt Hill
#
# Bulk Modulus (GPa) = 32.46928 48.10895 40.28912
# Shear Modulus (GPa) = 34.76000 47.21334 40.98667
#
# Velocity S-wave (km/s) = 3.57503 4.16651 3.88205
# Velocity P-wave (km/s) = 5.38328 6.39027 5.90827
#
# Compressibility (1/GPa) = 0.03079834
#
# Stress axis : x y z
#
# Youngs Moduli (GPa) = 112.54238 176.84277 64.17825
#
# Poissons Ratio (x) = 0.21534 -0.17571
# Poissons Ratio (y) = 0.13704 0.07586
# Poissons Ratio (z) = -0.30812 0.20902
#
# Static dielectric constant tensor:
#      x y z
#    x 5.275280 0.000100 0.030950 
#    y 0.000100 5.886900 0.000160 
#    z 0.030950 0.000160 5.254700 
# 
# 
# High freq. dielectric constant tensor:
#      x y z
#    x 2.117870 0.000000 0.010680 
#    y 0.000000 2.123760 0.000000 
#    z 0.010680 0.000000 2.102080 
# 
# From -- ./inp_files/137199.got.cif
#   From: 2010.06.25/outbox.cif.g09.slc.cpg/sg12_69_cif.got.tgz:137199.got - 2010.06.28 00:19:55.
