data_PCOD8115263
_publ_section_title
;
Structure prediction by ZEFSAII (Michael W. Deem and Ramdas Pophale) SiO2 
 PCOD8115263
Probable space group: C 2/M
;
_chemical_formula_sum "Si O2"
_cell_formula_units_Z 48
_cell_length_a 29.282723
_cell_length_b 8.405834
_cell_length_c 20.268197
_cell_angle_alpha 90.000000
_cell_angle_beta 28.118394
_cell_angle_gamma 90.000000
_cell_volume 2351.257885
_symmetry_space_group_name_H-M "C 2/M"
_symmetry_group_IT_number 12
_symmetry_cell_setting 'monoclinic'
loop_
_space_group_symop_operation_xyz
x,y,z
-x,y,-z
-x,-y,-z
x,-y,z
1/2+x,1/2+y,z
1/2-x,1/2+y,-z
1/2-x,1/2-y,-z
1/2+x,1/2-y,z
loop_
_atom_site_type_symbol
_atom_site_label
_atom_site_fract_x
_atom_site_fract_y
_atom_site_fract_z
Si Si1 0.497279 0.185703 0.816368
Si Si2 0.685010 0.815317 0.141586
Si Si3 0.213091 0.684991 0.865326
Si Si4 0.989783 0.182430 0.342541
Si Si5 0.179954 0.187657 0.645672
Si Si6 0.291752 0.815989 0.633202
O O1 0.525106 0.281068 0.715359
O O2 0.575361 0.229163 0.772738
O O3 0.499975 0.000000 0.796179
O O4 0.392065 0.238658 0.975208
O O5 0.708392 0.720963 0.178465
O O6 0.572715 0.792714 0.267688
O O7 0.707693 0.000000 0.123067
O O8 0.750000 0.750000 0.000000
O O9 0.215657 0.500000 0.843679
O O10 0.235675 0.787617 0.772355
O O11 0.890205 0.214933 0.507730
O O12 0.019905 0.000000 0.313652
O O13 0.250000 0.250000 0.500000
O O14 0.222384 0.238750 0.662150
O O15 0.167755 0.000000 0.654870
O O16 0.319421 0.000000 0.590085
#
# Coordination Sequence:
#
# PCOD8115263 Si02
#       6
#     8   8   8   8   8   8
#     4  11  23  40  65  95 130 168 215 267 319 380
#     4  12  24  41  67  97 130 169 215 265 319 381
#     4  11  25  44  66  95 132 171 214 267 324 383
#     4  12  24  40  67  97 128 169 217 265 319 383
#     4  11  23  39  65  95 128 169 217 267 320 381
#     4  11  25  44  65  94 133 171 213 269 326 382
#
# _framework density 20.414605000000002
#
# number of rings (size 3 to 8) (size 9 to 14) (size 15 to 20)
#    0.000    0.667    3.333    5.000    0.000    5.333 
#    0.000    6.667    0.000    0.000    0.000    0.000 
#    0.000    0.000    0.000    0.000    0.000    0.000 
#
# Total GULP energy -297822.845886 kJ/mol
# GULP energy per Si atom -12409.285245 kJ/mol
# Density = 2.036814 g / cm^3
# Si number density = 20.414605 Si / 1000 Ang^3
#
#
#
# Elastic Constant Matrix: (Units=GPa)
#
#
# Indices 1 2 3 4 5 6 
#
# 1 126.8362 11.8649 39.5563 0.0013 -1.5037 -0.0019
# 2 11.8649 63.4227 25.4593 0.0031 -2.9122 -0.0049
# 3 39.5563 25.4593 85.9059 -0.0040 1.3465 -0.0010
# 4 0.0013 0.0031 -0.0040 34.2415 -0.0018 -1.9362
# 5 -1.5037 -2.9122 1.3465 -0.0018 42.5834 0.0019
# 6 -0.0019 -0.0049 -0.0010 -1.9362 0.0019 36.1435
#
#
#
# Elastic Compliance Matrix: (Units=1/GPa)
#
#
# Indices 1 2 3 4 5 6 
#
# 1 0.009215 0.000004 -0.004252 -0.000001 0.000460 0.000000
# 2 0.000004 0.017979 -0.005352 -0.000002 0.001399 0.000002
# 3 -0.004252 -0.005352 0.015200 0.000002 -0.000997 0.000000
# 4 -0.000001 -0.000002 0.000002 0.029293 0.000001 0.001569
# 5 0.000460 0.001399 -0.000997 0.000001 0.023627 -0.000001
# 6 0.000000 0.000002 0.000000 0.001569 -0.000001 0.027752
#
#
# Mechanical properties :
#
#
# Convention : Reuss Voigt Hill
#
# Bulk Modulus (GPa) = 43.11291 47.76953 45.44122
# Shear Modulus (GPa) = 33.33395 35.87929 34.60662
#
# Velocity S-wave (km/s) = 4.04524 4.19684 4.12173
# Velocity P-wave (km/s) = 6.55615 6.85092 6.70515
#
# Compressibility (1/GPa) = 0.02319491
#
# Stress axis : x y z
#
# Youngs Moduli (GPa) = 108.51606 55.61988 65.78890
#
# Poissons Ratio (x) = -0.00022 0.27971
# Poissons Ratio (y) = -0.00042 0.35211
# Poissons Ratio (z) = 0.46137 0.29768
#
# Static dielectric constant tensor:
#      x y z
#    x 3.884750 0.000040 -0.152180 
#    y 0.000040 3.701730 0.000030 
#    z -0.152180 0.000030 3.637210 
# 
# 
# High freq. dielectric constant tensor:
#      x y z
#    x 1.808590 0.000000 -0.009010 
#    y 0.000000 1.809990 0.000000 
#    z -0.009010 0.000000 1.796690 
# 
# From -- ./inp_files/295373.got.cif
#   From: 2010.06.25/outbox.cif.g09.slc.cpg/sg12_148_cif.got.tgz:295373.got - 2010.06.28 00:19:55.
