data_PCOD8115023
_publ_section_title
;
Structure prediction by ZEFSAII (Michael W. Deem and Ramdas Pophale) SiO2 
 PCOD8115023
Probable space group: C 2/M
;
_chemical_formula_sum "Si O2"
_cell_formula_units_Z 48
_cell_length_a 9.918895
_cell_length_b 15.686626
_cell_length_c 31.946287
_cell_angle_alpha 90.000000
_cell_angle_beta 152.027425
_cell_angle_gamma 90.000000
_cell_volume 2331.478032
_symmetry_space_group_name_H-M "C 2/M"
_symmetry_group_IT_number 12
_symmetry_cell_setting 'monoclinic'
loop_
_space_group_symop_operation_xyz
x,y,z
-x,y,-z
-x,-y,-z
x,-y,z
1/2+x,1/2+y,z
1/2-x,1/2+y,-z
1/2-x,1/2-y,-z
1/2+x,1/2-y,z
loop_
_atom_site_type_symbol
_atom_site_label
_atom_site_fract_x
_atom_site_fract_y
_atom_site_fract_z
Si Si1 0.278584 0.903938 0.057801
Si Si2 0.356801 0.500000 0.626056
Si Si3 0.121408 0.804450 0.260271
Si Si4 0.245468 0.177868 0.534703
Si Si5 0.296382 0.000000 0.510996
Si Si6 0.720354 0.652686 0.752472
Si Si7 0.366483 0.101666 0.919835
O O1 0.527488 0.904706 0.160055
O O2 0.399402 0.861297 0.048758
O O3 0.186010 0.000000 0.021337
O O4 0.000000 0.854398 0.000000
O O5 0.228654 0.500000 0.545296
O O6 0.523780 0.588046 0.673783
O O7 0.144674 0.500000 0.608622
O O8 0.448582 0.834344 0.358273
O O9 0.139925 0.713298 0.243657
O O10 0.952905 0.797650 0.258274
O O11 0.950469 0.864149 0.179899
O O12 0.250000 0.250000 0.500000
O O13 0.158252 0.084956 0.492886
O O14 0.000000 0.206482 0.500000
O O15 0.341597 0.000000 0.911667
O O16 0.500000 0.134495 0.000000
#
# Coordination Sequence:
#
# PCOD8115023 Si02
#       7
#     8   4   8   8   4   8   8
#     4   9  18  34  60  87 117 159 206 254 307 373
#     4  11  22  42  69  92 122 173 222 257 323 397
#     4  11  24  39  66  92 129 165 215 264 324 379
#     4  12  26  44  68  99 136 174 219 275 330 393
#     4  11  25  42  68  94 128 169 221 271 328 390
#     4  11  22  41  63  93 126 167 211 263 318 384
#     4   9  20  39  63  90 125 168 212 261 321 385
#
# _framework density 20.587800000000001
#
# number of rings (size 3 to 8) (size 9 to 14) (size 15 to 20)
#    0.000    1.500    2.500    2.250    4.667    2.000 
#    0.000    3.333    1.833    0.000    0.000    0.000 
#    0.000    0.000    0.000    0.000    0.000    0.000 
#
# Total GULP energy -297397.600319 kJ/mol
# GULP energy per Si atom -12391.566680 kJ/mol
# Density = 2.054094 g / cm^3
# Si number density = 20.587800 Si / 1000 Ang^3
#
#
#
# Elastic Constant Matrix: (Units=GPa)
#
#
# Indices 1 2 3 4 5 6 
#
# 1 119.7526 51.6434 56.5896 -0.0025 9.4201 0.0043
# 2 51.6434 99.3567 20.5182 -0.0009 -4.4970 0.0004
# 3 56.5896 20.5182 121.5373 -0.1384 4.8261 0.2193
# 4 -0.0025 -0.0009 -0.1384-1202.6029 -0.0184 1908.9588
# 5 9.4201 -4.4970 4.8261 -0.0184 36.1088 0.0283
# 6 0.0043 0.0004 0.2193 1908.9588 0.0283-2925.2334
#
#
#
# Elastic Compliance Matrix: (Units=1/GPa)
#
#
# Indices 1 2 3 4 5 6 
#
# 1 0.013813 -0.006267 -0.005227 0.000000 -0.003686 0.000000
# 2 -0.006267 0.013358 0.000535 0.000000 0.003227 0.000000
# 3 -0.005227 0.000535 0.010571 -0.000001 0.000017 0.000000
# 4 0.000000 0.000000 -0.000001 0.023174 0.000000 0.015123
# 5 -0.003686 0.003227 0.000017 0.000000 0.029055 0.000000
# 6 0.000000 0.000000 0.000000 0.015123 0.000000 0.009527
#
#
# Mechanical properties :
#
#
# Convention : Reuss Voigt Hill
#
# Bulk Modulus (GPa) = 63.19997 66.46099 64.83048
# Shear Modulus (GPa) = 39.46579 -804.21915 -382.37668
#
# Velocity S-wave (km/s) = 4.38305 -19.78578 -13.64305
# Velocity P-wave (km/s) = 7.50861 22.12730 14.71799
#
# Compressibility (1/GPa) = 0.01582279
#
# Stress axis : x y z
#
# Youngs Moduli (GPa) = 72.39347 74.86198 94.59969
#
# Poissons Ratio (x) = 0.46918 0.49450
# Poissons Ratio (y) = 0.45371 -0.05060
# Poissons Ratio (z) = 0.37842 -0.04004
#
# Static dielectric constant tensor:
#      x y z
#    x 3.987670 0.000000 0.069970 
#    y 0.000000 3.510710 0.000000 
#    z 0.069970 0.000000 3.933470 
# 
# 
# High freq. dielectric constant tensor:
#      x y z
#    x 1.810000 0.000000 -0.000760 
#    y 0.000000 1.794070 0.000000 
#    z -0.000760 0.000000 1.814790 
# 
# From -- ./inp_files/196022.got.cif
#   From: 2010.06.25/outbox.cif.g09.slc.cpg/sg12_99_cif.got.tgz:196022.got - 2010.06.28 00:19:55.
