data_PCOD8115476
_publ_section_title
;
Structure prediction by ZEFSAII (Michael W. Deem and Ramdas Pophale) SiO2 
 PCOD8115476
Probable space group: C 2/M
;
_chemical_formula_sum "Si O2"
_cell_formula_units_Z 48
_cell_length_a 9.732589
_cell_length_b 21.890334
_cell_length_c 11.425126
_cell_angle_alpha 90.000000
_cell_angle_beta 111.564479
_cell_angle_gamma 90.000000
_cell_volume 2263.741506
_symmetry_space_group_name_H-M "C 2/M"
_symmetry_group_IT_number 12
_symmetry_cell_setting 'monoclinic'
loop_
_space_group_symop_operation_xyz
x,y,z
-x,y,-z
-x,-y,-z
x,-y,z
1/2+x,1/2+y,z
1/2-x,1/2+y,-z
1/2-x,1/2-y,-z
1/2+x,1/2-y,z
loop_
_atom_site_type_symbol
_atom_site_label
_atom_site_fract_x
_atom_site_fract_y
_atom_site_fract_z
Si Si1 0.369881 0.428602 0.169703
Si Si2 0.655501 0.068763 0.891330
Si Si3 0.137160 0.360856 0.229670
Si Si4 0.661136 0.740659 0.089094
Si Si5 0.844949 0.689278 0.509482
Si Si6 0.688926 0.372687 0.255612
O O1 0.409434 0.500000 0.191410
O O2 0.269672 0.408958 0.249030
O O3 0.517551 0.388528 0.216150
O O4 0.282016 0.412773 0.023392
O O5 0.515804 0.112208 0.866697
O O6 0.724394 0.072641 0.782335
O O7 0.600998 0.000000 0.896069
O O8 0.173444 0.300187 0.171210
O O9 0.122461 0.346468 0.361240
O O10 0.724109 0.685803 0.185904
O O11 0.500000 0.722465 0.000000
O O12 0.750000 0.750000 0.000000
O O13 0.750000 0.750000 0.500000
O O14 0.755784 0.640659 0.403515
O O15 0.000000 0.708658 0.500000
#
# Coordination Sequence:
#
# PCOD8115476 Si02
#       6
#     8   8   8   8   8   8
#     4  11  25  44  70 103 138 184 230 285 350 406
#     4  11  23  44  70  99 140 183 226 284 345 408
#     4  12  24  44  69 101 140 179 234 278 346 411
#     4  12  24  37  64 101 135 167 214 283 348 402
#     4  12  28  48  70  99 139 189 227 280 348 414
#     4  12  24  44  68 100 139 178 234 280 344 411
#
# _framework density 21.203835000000002
#
# number of rings (size 3 to 8) (size 9 to 14) (size 15 to 20)
#    0.000    0.333    3.333    7.000    2.333    2.667 
#    0.000    5.000    0.000    0.000    0.000    0.000 
#    0.000    0.000    0.000    0.000    0.000    0.000 
#
# Total GULP energy -297751.914277 kJ/mol
# GULP energy per Si atom -12406.329762 kJ/mol
# Density = 2.115557 g / cm^3
# Si number density = 21.203835 Si / 1000 Ang^3
#
#
#
# Elastic Constant Matrix: (Units=GPa)
#
#
# Indices 1 2 3 4 5 6 
#
# 1 154.5543 43.1413 46.1505 0.0000 -3.5695 0.0000
# 2 43.1413 91.0170 51.3737 0.0000 3.8571 0.0000
# 3 46.1505 51.3737 122.5086 0.0000 -9.3285 0.0000
# 4 0.0000 0.0000 0.0000 23.8879 0.0000 -3.7470
# 5 -3.5695 3.8571 -9.3285 0.0000 36.0188 0.0000
# 6 0.0000 0.0000 0.0000 -3.7470 0.0000 28.9443
#
#
#
# Elastic Compliance Matrix: (Units=1/GPa)
#
#
# Indices 1 2 3 4 5 6 
#
# 1 0.007763 -0.002727 -0.001735 0.000000 0.000612 0.000000
# 2 -0.002727 0.015715 -0.005826 0.000000 -0.003462 0.000000
# 3 -0.001735 -0.005826 0.011521 0.000000 0.003436 0.000000
# 4 0.000000 0.000000 0.000000 0.042730 0.000000 0.005532
# 5 0.000612 -0.003462 0.003436 0.000000 0.029085 0.000000
# 6 0.000000 0.000000 0.000000 0.005532 0.000000 0.035265
#
#
# Mechanical properties :
#
#
# Convention : Reuss Voigt Hill
#
# Bulk Modulus (GPa) = 69.32906 72.15676 70.74291
# Shear Modulus (GPa) = 29.85756 32.93118 31.39437
#
# Velocity S-wave (km/s) = 3.75656 3.94518 3.85203
# Velocity P-wave (km/s) = 7.18214 7.40652 7.29519
#
# Compressibility (1/GPa) = 0.01442397
#
# Stress axis : x y z
#
# Youngs Moduli (GPa) = 128.80955 63.63458 86.79798
#
# Poissons Ratio (x) = 0.17351 0.15055
# Poissons Ratio (y) = 0.35122 0.50572
# Poissons Ratio (z) = 0.22342 0.37076
#
# Static dielectric constant tensor:
#      x y z
#    x 3.978810 0.000000 -0.098560 
#    y 0.000000 3.938420 0.000000 
#    z -0.098560 0.000000 3.920520 
# 
# 
# High freq. dielectric constant tensor:
#      x y z
#    x 1.851410 0.000000 -0.005010 
#    y 0.000000 1.837880 0.000000 
#    z -0.005010 0.000000 1.827170 
# 
# From -- ./inp_files/122570.got.cif
#   From: 2010.06.25/outbox.cif.g09.slc.cpg/sg12_62_cif.got.tgz:122570.got - 2010.06.28 00:19:55.
