data_PCOD8115818
_publ_section_title
;
Structure prediction by ZEFSAII (Michael W. Deem and Ramdas Pophale) SiO2 
 PCOD8115818
Probable space group: C 2/M
;
_chemical_formula_sum "Si O2"
_cell_formula_units_Z 32
_cell_length_a 15.088958
_cell_length_b 15.099861
_cell_length_c 10.193288
_cell_angle_alpha 90.000000
_cell_angle_beta 144.168007
_cell_angle_gamma 90.000000
_cell_volume 1359.586921
_symmetry_space_group_name_H-M "C 2/M"
_symmetry_group_IT_number 12
_symmetry_cell_setting 'monoclinic'
loop_
_space_group_symop_operation_xyz
x,y,z
-x,y,-z
-x,-y,-z
x,-y,z
1/2+x,1/2+y,z
1/2-x,1/2+y,-z
1/2-x,1/2-y,-z
1/2+x,1/2-y,z
loop_
_atom_site_type_symbol
_atom_site_label
_atom_site_fract_x
_atom_site_fract_y
_atom_site_fract_z
Si Si1 0.374271 0.597811 0.097789
Si Si2 0.828642 0.097778 0.683467
Si Si3 0.821855 0.718182 0.285346
Si Si4 0.840820 0.097937 0.403097
O O1 0.300621 0.500000 0.007539
O O2 0.487044 0.608311 0.106707
O O3 0.473172 0.609634 0.351419
O O4 0.247202 0.673480 0.929402
O O5 0.746156 0.172129 0.667683
O O6 0.767245 0.104951 0.459598
O O7 0.788883 0.000000 0.691591
O O8 0.776161 0.822424 0.235938
O O9 0.000000 0.702840 0.500000
O O10 0.804151 0.000000 0.299804
#
# Coordination Sequence:
#
# PCOD8115818 Si02
#       4
#     8   8   8   8
#     4   8  18  36  56  73  98 140 177 201 244 311
#     4   8  17  36  56  72  99 140 175 202 245 310
#     4  12  21  28  53  88 106 122 166 226 263 284
#     4   8  19  38  56  69  98 146 181 196 237 317
#
# _framework density 23.536559
#
# number of rings (size 3 to 8) (size 9 to 14) (size 15 to 20)
#    1.500    1.500    0.000    2.250    0.000    5.500 
#    0.000    0.000    0.000    6.000    0.000    0.000 
#    0.000    0.000    0.000    0.000    0.000    0.000 
#
# Total GULP energy -198214.112394 kJ/mol
# GULP energy per Si atom -12388.382025 kJ/mol
# Density = 2.348299 g / cm^3
# Si number density = 23.536559 Si / 1000 Ang^3
#
#
#
# Elastic Constant Matrix: (Units=GPa)
#
#
# Indices 1 2 3 4 5 6 
#
# 1 62.7116 50.2381 13.1832 0.0000 1.8071 0.0000
# 2 50.2381 239.5426 73.7064 0.0000 -5.6677 0.0000
# 3 13.1832 73.7064 91.1350 0.0000 -8.1532 0.0000
# 4 0.0000 0.0000 0.0000 27.2209 0.0000 7.6927
# 5 1.8071 -5.6677 -8.1532 0.0000 24.0145 0.0000
# 6 0.0000 0.0000 0.0000 7.6927 0.0000 27.8569
#
#
#
# Elastic Compliance Matrix: (Units=1/GPa)
#
#
# Indices 1 2 3 4 5 6 
#
# 1 0.019317 -0.004237 0.000426 0.000000 -0.002309 0.000000
# 2 -0.004237 0.006488 -0.004609 0.000000 0.000285 0.000000
# 3 0.000426 -0.004609 0.014994 0.000000 0.003971 0.000000
# 4 0.000000 0.000000 0.000000 0.039846 0.000000 -0.011004
# 5 -0.002309 0.000285 0.003971 0.000000 0.043231 0.000000
# 6 0.000000 0.000000 0.000000 -0.011004 0.000000 0.038936
#
#
# Mechanical properties :
#
#
# Convention : Reuss Voigt Hill
#
# Bulk Modulus (GPa) = 41.73788 74.18271 57.96029
# Shear Modulus (GPa) = 26.64691 32.90257 29.77474
#
# Velocity S-wave (km/s) = 3.36839 3.74295 3.56060
# Velocity P-wave (km/s) = 5.73584 7.08986 6.44848
#
# Compressibility (1/GPa) = 0.02395905
#
# Stress axis : x y z
#
# Youngs Moduli (GPa) = 51.76716 154.12817 66.69391
#
# Poissons Ratio (x) = 0.65303 -0.02839
# Poissons Ratio (y) = 0.21933 0.30739
# Poissons Ratio (z) = -0.02204 0.71036
#
# Static dielectric constant tensor:
#      x y z
#    x 4.273790 0.000000 -0.302810 
#    y 0.000000 4.261820 0.000000 
#    z -0.302810 0.000000 3.775130 
# 
# 
# High freq. dielectric constant tensor:
#      x y z
#    x 1.951900 0.000000 -0.045350 
#    y 0.000000 1.945610 0.000000 
#    z -0.045350 0.000000 1.880970 
# 
# From -- ./inp_files/73838.got.cif
#   From: 2010.06.25/outbox.cif.g09.slc.cpg/sg12_37_cif.got.tgz:73838.got - 2010.06.28 00:19:55.
