data_PCOD8115380
_publ_section_title
;
Structure prediction by ZEFSAII (Michael W. Deem and Ramdas Pophale) SiO2 
 PCOD8115380
Probable space group: C 2/M
;
_chemical_formula_sum "Si O2"
_cell_formula_units_Z 32
_cell_length_a 10.027043
_cell_length_b 16.653903
_cell_length_c 8.362244
_cell_angle_alpha 90.000000
_cell_angle_beta 76.789380
_cell_angle_gamma 90.000000
_cell_volume 1359.452412
_symmetry_space_group_name_H-M "C 2/M"
_symmetry_group_IT_number 12
_symmetry_cell_setting 'monoclinic'
loop_
_space_group_symop_operation_xyz
x,y,z
-x,y,-z
-x,-y,-z
x,-y,z
1/2+x,1/2+y,z
1/2-x,1/2+y,-z
1/2-x,1/2-y,-z
1/2+x,1/2-y,z
loop_
_atom_site_type_symbol
_atom_site_label
_atom_site_fract_x
_atom_site_fract_y
_atom_site_fract_z
Si Si1 0.503751 0.591242 0.683419
Si Si2 0.766286 0.798788 0.834164
Si Si3 0.069090 0.593219 0.719764
Si Si4 0.200293 0.642570 0.350773
O O1 0.500000 0.618773 0.500000
O O2 0.453302 0.500000 0.713223
O O3 0.401309 0.646795 0.811545
O O4 0.654702 0.599618 0.716011
O O5 0.632543 0.854857 0.846600
O O6 0.783352 0.737890 0.680027
O O7 0.750000 0.750000 0.000000
O O8 0.100003 0.500000 0.741101
O O9 0.146469 0.623316 0.540869
O O10 0.906638 0.607510 0.750219
#
# Coordination Sequence:
#
# PCOD8115380 Si02
#       4
#     8   8   8   8
#     4  11  23  43  73 105 137 184 242 295 349 419
#     4  12  27  45  67 103 147 191 233 292 366 431
#     4  11  23  44  71 103 141 183 238 297 356 422
#     4  11  23  41  72 107 138 184 240 295 355 424
#
# _framework density 23.538889999999999
#
# number of rings (size 3 to 8) (size 9 to 14) (size 15 to 20)
#    0.000    0.750    2.500    6.000    3.500    4.000 
#    0.000   10.000    0.000    0.000    0.000    0.000 
#    0.000    0.000    0.000    0.000    0.000    0.000 
#
# Total GULP energy -198481.838404 kJ/mol
# GULP energy per Si atom -12405.114900 kJ/mol
# Density = 2.348531 g / cm^3
# Si number density = 23.538890 Si / 1000 Ang^3
#
#
#
# Elastic Constant Matrix: (Units=GPa)
#
#
# Indices 1 2 3 4 5 6 
#
# 1 202.4378 72.4680 64.1128 0.0000 2.9123 0.0000
# 2 72.4680 179.9000 59.5104 0.0000 6.7015 0.0000
# 3 64.1128 59.5104 77.3020 0.0000 5.5346 0.0000
# 4 0.0000 0.0000 0.0000 24.0158 0.0000 -1.5122
# 5 2.9123 6.7015 5.5346 0.0000 26.7885 0.0000
# 6 0.0000 0.0000 0.0000 -1.5122 0.0000 41.9545
#
#
#
# Elastic Compliance Matrix: (Units=1/GPa)
#
#
# Indices 1 2 3 4 5 6 
#
# 1 0.006891 -0.001198 -0.004833 0.000000 0.000549 0.000000
# 2 -0.001198 0.007679 -0.004862 0.000000 -0.000786 0.000000
# 3 -0.004833 -0.004862 0.020871 0.000000 -0.002570 0.000000
# 4 0.000000 0.000000 0.000000 0.041734 0.000000 0.001504
# 5 0.000549 -0.000786 -0.002570 0.000000 0.037997 0.000000
# 6 0.000000 0.000000 0.000000 0.001504 0.000000 0.023890
#
#
# Mechanical properties :
#
#
# Convention : Reuss Voigt Hill
#
# Bulk Modulus (GPa) = 73.22330 94.64691 83.93510
# Shear Modulus (GPa) = 30.23007 36.12167 33.17587
#
# Velocity S-wave (km/s) = 3.58755 3.92159 3.75828
# Velocity P-wave (km/s) = 6.95238 7.79751 7.38704
#
# Compressibility (1/GPa) = 0.01365686
#
# Stress axis : x y z
#
# Youngs Moduli (GPa) = 145.11323 130.23140 47.91314
#
# Poissons Ratio (x) = 0.15599 0.23155
# Poissons Ratio (y) = 0.17381 0.23294
# Poissons Ratio (z) = 0.70128 0.63314
#
# Static dielectric constant tensor:
#      x y z
#    x 4.750630 0.000000 0.031410 
#    y 0.000000 4.417440 0.000000 
#    z 0.031410 0.000000 3.829660 
# 
# 
# High freq. dielectric constant tensor:
#      x y z
#    x 1.953390 0.000000 0.000600 
#    y 0.000000 1.947640 0.000000 
#    z 0.000600 0.000000 1.899240 
# 
# From -- ./inp_files/45232.got.cif
#   From: 2010.06.25/outbox.cif.g09.slc.cpg/sg12_23_cif.got.tgz:45232.got - 2010.06.28 00:19:55.
