data_PCOD8115081
_publ_section_title
;
Structure prediction by ZEFSAII (Michael W. Deem and Ramdas Pophale) SiO2 
 PCOD8115081
Probable space group: C 2/M
;
_chemical_formula_sum "Si O2"
_cell_formula_units_Z 40
_cell_length_a 20.005227
_cell_length_b 11.309323
_cell_length_c 13.151340
_cell_angle_alpha 90.000000
_cell_angle_beta 41.476145
_cell_angle_gamma 90.000000
_cell_volume 1970.653214
_symmetry_space_group_name_H-M "C 2/M"
_symmetry_group_IT_number 12
_symmetry_cell_setting 'monoclinic'
loop_
_space_group_symop_operation_xyz
x,y,z
-x,y,-z
-x,-y,-z
x,-y,z
1/2+x,1/2+y,z
1/2-x,1/2+y,-z
1/2-x,1/2-y,-z
1/2+x,1/2-y,z
loop_
_atom_site_type_symbol
_atom_site_label
_atom_site_fract_x
_atom_site_fract_y
_atom_site_fract_z
Si Si1 0.274687 0.755410 0.589451
Si Si2 0.425210 0.000000 0.717624
Si Si3 0.888454 0.363172 0.084265
Si Si4 0.019425 0.862482 0.591247
Si Si5 0.159982 0.500000 0.398545
Si Si6 0.864976 0.733172 0.895681
O O1 0.250000 0.750000 0.500000
O O2 0.191812 0.677182 0.740785
O O3 0.383899 0.700246 0.475187
O O4 0.278630 0.888383 0.628073
O O5 0.408564 0.886695 0.803531
O O6 0.542540 0.000000 0.558434
O O7 0.342862 0.000000 0.720694
O O8 0.866115 0.500000 0.080111
O O9 0.877974 0.273470 0.001885
O O10 0.000000 0.349451 0.000000
O O11 0.000000 0.810455 0.500000
O O12 0.926080 0.840307 0.773848
O O13 0.040678 0.000000 0.559707
O O14 0.750000 0.750000 0.000000
#
# Coordination Sequence:
#
# PCOD8115081 Si02
#       6
#     8   4   8   8   4   8
#     4  12  26  44  70  96 131 176 223 273 326 393
#     4  11  22  42  68  95 131 171 222 276 329 386
#     4  11  25  45  68  96 132 171 218 271 333 398
#     4  11  24  43  68  98 134 174 222 273 325 387
#     4  11  24  42  68  98 130 170 227 278 320 386
#     4  12  24  40  67  99 134 173 218 272 332 394
#
# _framework density 20.297837999999999
#
# number of rings (size 3 to 8) (size 9 to 14) (size 15 to 20)
#    0.000    0.600    3.000    5.400    4.200    1.600 
#    1.800    0.500    0.000    0.000    0.000    0.000 
#    0.000    0.000    0.000    0.000    0.000    0.000 
#
# Total GULP energy -248057.794358 kJ/mol
# GULP energy per Si atom -12402.889718 kJ/mol
# Density = 2.025164 g / cm^3
# Si number density = 20.297838 Si / 1000 Ang^3
#
#
#
# Elastic Constant Matrix: (Units=GPa)
#
#
# Indices 1 2 3 4 5 6 
#
# 1 138.5483 28.8974 46.3609 0.0000 8.6681 0.0000
# 2 28.8974 67.6371 9.8667 0.0000 -3.6725 0.0000
# 3 46.3609 9.8667 110.6697 0.0000 2.9968 0.0000
# 4 0.0000 0.0000 0.0000 37.8324 0.0000 -2.2068
# 5 8.6681 -3.6725 2.9968 0.0000 48.9224 0.0000
# 6 0.0000 0.0000 0.0000 -2.2068 0.0000 36.5691
#
#
#
# Elastic Compliance Matrix: (Units=1/GPa)
#
#
# Indices 1 2 3 4 5 6 
#
# 1 0.009232 -0.003524 -0.003508 0.000000 -0.001685 0.000000
# 2 -0.003524 0.016396 -0.000036 0.000000 0.001857 0.000000
# 3 -0.003508 -0.000036 0.010509 0.000000 -0.000025 0.000000
# 4 0.000000 0.000000 0.000000 0.026526 0.000000 0.001601
# 5 -0.001685 0.001857 -0.000025 0.000000 0.020880 0.000000
# 6 0.000000 0.000000 0.000000 0.001601 0.000000 0.027442
#
#
# Mechanical properties :
#
#
# Convention : Reuss Voigt Hill
#
# Bulk Modulus (GPa) = 45.44919 54.12279 49.78599
# Shear Modulus (GPa) = 37.74884 40.11346 38.93115
#
# Velocity S-wave (km/s) = 4.31716 4.45032 4.38424
# Velocity P-wave (km/s) = 6.87679 7.28899 7.08588
#
# Compressibility (1/GPa) = 0.02200259
#
# Stress axis : x y z
#
# Youngs Moduli (GPa) = 108.32071 60.98869 95.15560
#
# Poissons Ratio (x) = 0.21493 0.33376
# Poissons Ratio (y) = 0.38173 0.00341
# Poissons Ratio (z) = 0.37994 0.00219
#
# Static dielectric constant tensor:
#      x y z
#    x 3.805060 0.000000 0.110550 
#    y 0.000000 3.645640 0.000000 
#    z 0.110550 0.000000 3.903320 
# 
# 
# High freq. dielectric constant tensor:
#      x y z
#    x 1.805720 0.000000 0.001950 
#    y 0.000000 1.800460 0.000000 
#    z 0.001950 0.000000 1.806880 
# 
# From -- ./inp_files/165389.got.cif
#   From: 2010.06.25/outbox.cif.g09.slc.cpg/sg12_83_cif.got.tgz:165389.got - 2010.06.28 00:19:55.
