data_PCOD8115533
_publ_section_title
;
Structure prediction by ZEFSAII (Michael W. Deem and Ramdas Pophale) SiO2 
 PCOD8115533
Probable space group: C 2/M
;
_chemical_formula_sum "Si O2"
_cell_formula_units_Z 48
_cell_length_a 22.937857
_cell_length_b 10.876400
_cell_length_c 25.476610
_cell_angle_alpha 90.000000
_cell_angle_beta 157.852701
_cell_angle_gamma 90.000000
_cell_volume 2396.118741
_symmetry_space_group_name_H-M "C 2/M"
_symmetry_group_IT_number 12
_symmetry_cell_setting 'monoclinic'
loop_
_space_group_symop_operation_xyz
x,y,z
-x,y,-z
-x,-y,-z
x,-y,z
1/2+x,1/2+y,z
1/2-x,1/2+y,-z
1/2-x,1/2-y,-z
1/2+x,1/2-y,z
loop_
_atom_site_type_symbol
_atom_site_label
_atom_site_fract_x
_atom_site_fract_y
_atom_site_fract_z
Si Si1 0.678083 0.363875 0.159970
Si Si2 0.456217 0.860482 0.725244
Si Si3 0.877199 0.639791 0.037070
Si Si4 0.799616 0.638908 0.747879
Si Si5 0.622237 0.214709 0.764095
Si Si6 0.855489 0.859715 0.491677
O O1 0.697556 0.500000 0.203063
O O2 0.743284 0.249308 0.248067
O O3 0.771500 0.371791 0.183091
O O4 0.500000 0.338099 0.000000
O O5 0.576557 0.800543 0.867574
O O6 0.513435 0.860173 0.713323
O O7 0.284515 0.802699 0.589393
O O8 0.436438 0.000000 0.729043
O O9 0.826992 0.500000 0.002432
O O10 0.021813 0.654270 0.118606
O O11 0.728179 0.702895 0.889147
O O12 0.775312 0.500000 0.751615
O O13 0.686413 0.655297 0.604277
O O14 0.513909 0.290547 0.634845
O O15 0.886202 0.000000 0.532553
#
# Coordination Sequence:
#
# PCOD8115533 Si02
#       6
#     8   8   8   8   8   8
#     4  11  24  40  57  85 122 155 189 239 288 338
#     4   9  19  36  54  78 114 153 185 233 292 345
#     4   9  18  33  56  83 110 140 191 247 289 330
#     4   9  19  40  62  83 112 155 194 235 290 340
#     4  12  20  33  57  86 110 152 194 230 282 348
#     4   9  20  37  59  85 116 143 185 247 295 334
#
# _framework density 20.032397
#
# number of rings (size 3 to 8) (size 9 to 14) (size 15 to 20)
#    0.000    2.167    1.667    4.000    0.000    2.333 
#    0.000    4.167    0.000    4.000    0.000    0.000 
#    0.000    0.000    0.000    0.000    0.000    0.000 
#
# Total GULP energy -297407.732376 kJ/mol
# GULP energy per Si atom -12391.988849 kJ/mol
# Density = 1.998680 g / cm^3
# Si number density = 20.032397 Si / 1000 Ang^3
#
#
#
# Elastic Constant Matrix: (Units=GPa)
#
#
# Indices 1 2 3 4 5 6 
#
# 1 99.8772 36.8767 19.2426 -0.0023 3.6489 0.0104
# 2 36.8767 92.4925 31.6859 -0.0045 -9.3696 0.0114
# 3 19.2426 31.6859 107.2466 -0.0027 -1.7007 0.0131
# 4 -0.0023 -0.0045 -0.0027 22.2709 0.0003 3.6656
# 5 3.6489 -9.3696 -1.7007 0.0003 21.0094 0.0083
# 6 0.0104 0.0114 0.0131 3.6656 0.0083 37.4894
#
#
#
# Elastic Compliance Matrix: (Units=1/GPa)
#
#
# Indices 1 2 3 4 5 6 
#
# 1 0.012184 -0.005044 -0.000766 0.000000 -0.004427 -0.000001
# 2 -0.005044 0.014685 -0.003320 0.000003 0.007156 -0.000004
# 3 -0.000766 -0.003320 0.010435 0.000001 -0.000503 -0.000002
# 4 0.000000 0.000003 0.000001 0.045636 0.000002 -0.004462
# 5 -0.004427 0.007156 -0.000503 0.000002 0.051517 -0.000012
# 6 -0.000001 -0.000004 -0.000002 -0.004462 -0.000012 0.027110
#
#
# Mechanical properties :
#
#
# Convention : Reuss Voigt Hill
#
# Bulk Modulus (GPa) = 52.51146 52.80296 52.65721
# Shear Modulus (GPa) = 26.85636 30.27470 28.56553
#
# Velocity S-wave (km/s) = 3.66546 3.89174 3.78029
# Velocity P-wave (km/s) = 6.64712 6.82717 6.73775
#
# Compressibility (1/GPa) = 0.01904346
#
# Stress axis : x y z
#
# Youngs Moduli (GPa) = 82.07543 68.09669 95.83367
#
# Poissons Ratio (x) = 0.34346 0.07342
# Poissons Ratio (y) = 0.41397 0.31819
# Poissons Ratio (z) = 0.06288 0.22610
#
# Static dielectric constant tensor:
#      x y z
#    x 3.512630 -0.000010 0.043830 
#    y -0.000010 3.428350 -0.000020 
#    z 0.043830 -0.000020 3.600500 
# 
# 
# High freq. dielectric constant tensor:
#      x y z
#    x 1.779270 0.000000 0.006260 
#    y 0.000000 1.759670 0.000000 
#    z 0.006260 0.000000 1.787540 
# 
# From -- ./inp_files/94410.got.cif
#   From: 2010.06.25/outbox.cif.g09.slc.cpg/sg12_48_cif.got.tgz:94410.got - 2010.06.28 00:19:55.
