data_PCOD8115645
_publ_section_title
;
Structure prediction by ZEFSAII (Michael W. Deem and Ramdas Pophale) SiO2 
 PCOD8115645
Probable space group: C 2/M
;
_chemical_formula_sum "Si O2"
_cell_formula_units_Z 36
_cell_length_a 13.697177
_cell_length_b 25.643624
_cell_length_c 8.689527
_cell_angle_alpha 90.000000
_cell_angle_beta 148.017226
_cell_angle_gamma 90.000000
_cell_volume 1616.617539
_symmetry_space_group_name_H-M "C 2/M"
_symmetry_group_IT_number 12
_symmetry_cell_setting 'monoclinic'
loop_
_space_group_symop_operation_xyz
x,y,z
-x,y,-z
-x,-y,-z
x,-y,z
1/2+x,1/2+y,z
1/2-x,1/2+y,-z
1/2-x,1/2-y,-z
1/2+x,1/2-y,z
loop_
_atom_site_type_symbol
_atom_site_label
_atom_site_fract_x
_atom_site_fract_y
_atom_site_fract_z
Si Si1 0.846791 0.000000 0.659948
Si Si2 0.369375 0.388068 0.549308
Si Si3 0.268173 0.108794 0.964248
Si Si4 0.702149 0.296355 0.324711
Si Si5 0.500000 0.826712 0.500000
Si Si6 0.441152 0.000000 0.247836
O O1 0.872161 0.948798 0.592851
O O2 0.633508 0.000000 0.418056
O O3 0.000000 0.000000 0.000000
O O4 0.243413 0.376969 0.231582
O O5 0.581122 0.373872 0.799002
O O6 0.290804 0.353023 0.583104
O O7 0.432651 0.139100 0.266171
O O8 0.309769 0.047927 0.032116
O O9 0.750000 0.250000 0.500000
O O10 0.836373 0.292791 0.355505
O O11 0.500000 0.284173 0.000000
O O12 0.500000 0.000000 0.500000
#
# Coordination Sequence:
#
# PCOD8115645 Si02
#       6
#     4   8   8   8   4   4
#     4  12  25  40  71 102 148 196 240 303 363 430
#     4  11  25  47  71 107 148 186 247 300 364 431
#     4  11  24  43  72 104 146 194 239 302 359 436
#     4  12  29  51  76 109 146 190 243 303 366 433
#     4  12  26  47  78 104 146 189 244 296 368 432
#     4  12  23  38  61 105 145 192 246 285 357 429
#
# _framework density 22.268716999999999
#
# number of rings (size 3 to 8) (size 9 to 14) (size 15 to 20)
#    0.000    0.444    3.333    4.667    3.111    8.000 
#    0.000    0.000    0.000    0.000    0.000    0.000 
#    0.000    0.000    0.000    0.000    0.000    0.000 
#
# Total GULP energy -223221.513123 kJ/mol
# GULP energy per Si atom -12401.195173 kJ/mol
# Density = 2.221803 g / cm^3
# Si number density = 22.268717 Si / 1000 Ang^3
#
#
#
# Elastic Constant Matrix: (Units=GPa)
#
#
# Indices 1 2 3 4 5 6 
#
# 1 134.2105 33.6540 52.8303 0.0000 8.1833 0.0001
# 2 33.6540 103.8873 35.5185 0.0000 0.3972 0.0000
# 3 52.8303 35.5185 153.4640 0.0000 -4.6977 0.0001
# 4 0.0000 0.0000 0.0000 29.2714 0.0000 -15.5159
# 5 8.1833 0.3972 -4.6977 0.0000 28.6176 0.0001
# 6 0.0001 0.0000 0.0001 -15.5159 0.0001 52.2067
#
#
#
# Elastic Compliance Matrix: (Units=1/GPa)
#
#
# Indices 1 2 3 4 5 6 
#
# 1 0.009253 -0.002025 -0.002811 0.000000 -0.003079 0.000000
# 2 -0.002025 0.010904 -0.001823 0.000000 0.000128 0.000000
# 3 -0.002811 -0.001823 0.007971 0.000000 0.002138 0.000000
# 4 0.000000 0.000000 0.000000 0.040551 0.000000 0.012052
# 5 -0.003079 0.000128 0.002138 0.000000 0.036173 0.000000
# 6 0.000000 0.000000 0.000000 0.012052 0.000000 0.022736
#
#
# Mechanical properties :
#
#
# Convention : Reuss Voigt Hill
#
# Bulk Modulus (GPa) = 67.51477 70.61859 69.06668
# Shear Modulus (GPa) = 34.28322 39.98973 37.13647
#
# Velocity S-wave (km/s) = 3.92793 4.24226 4.08812
# Velocity P-wave (km/s) = 7.13832 7.46837 7.30521
#
# Compressibility (1/GPa) = 0.01481157
#
# Stress axis : x y z
#
# Youngs Moduli (GPa) = 108.07375 91.70594 125.45144
#
# Poissons Ratio (x) = 0.18567 0.35265
# Poissons Ratio (y) = 0.21881 0.22868
# Poissons Ratio (z) = 0.30380 0.16717
#
# Static dielectric constant tensor:
#      x y z
#    x 4.158900 0.000000 0.029970 
#    y 0.000000 3.874040 0.000000 
#    z 0.029970 0.000000 4.124390 
# 
# 
# High freq. dielectric constant tensor:
#      x y z
#    x 1.888760 0.000000 0.003190 
#    y 0.000000 1.867670 0.000000 
#    z 0.003190 0.000000 1.900820 
# 
# From -- ./inp_files/67265.got.cif
#   From: 2010.06.25/outbox.cif.g09.slc.cpg/sg12_34_cif.got.tgz:67265.got - 2010.06.28 00:19:55.
