data_PCOD8115594
_publ_section_title
;
Structure prediction by ZEFSAII (Michael W. Deem and Ramdas Pophale) SiO2 
 PCOD8115594
Probable space group: C 2/M
;
_chemical_formula_sum "Si O2"
_cell_formula_units_Z 48
_cell_length_a 10.863686
_cell_length_b 30.657423
_cell_length_c 12.706986
_cell_angle_alpha 90.000000
_cell_angle_beta 148.899823
_cell_angle_gamma 90.000000
_cell_volume 2186.029283
_symmetry_space_group_name_H-M "C 2/M"
_symmetry_group_IT_number 12
_symmetry_cell_setting 'monoclinic'
loop_
_space_group_symop_operation_xyz
x,y,z
-x,y,-z
-x,-y,-z
x,-y,z
1/2+x,1/2+y,z
1/2-x,1/2+y,-z
1/2-x,1/2-y,-z
1/2+x,1/2-y,z
loop_
_atom_site_type_symbol
_atom_site_label
_atom_site_fract_x
_atom_site_fract_y
_atom_site_fract_z
Si Si1 0.945614 0.000000 0.331301
Si Si2 0.378702 0.800194 0.690020
Si Si3 0.500000 0.429707 0.000000
Si Si4 0.239061 0.908228 0.843154
Si Si5 0.783173 0.000000 0.686126
Si Si6 0.234332 0.794106 0.351435
Si Si7 0.500000 0.641606 0.500000
Si Si8 0.329885 0.642926 0.999324
O O1 0.779703 0.960038 0.178120
O O2 0.000000 0.000000 0.500000
O O3 0.166318 0.000000 0.404823
O O4 0.230543 0.801459 0.473635
O O5 0.393327 0.752883 0.755776
O O6 0.238492 0.829955 0.669666
O O7 0.638424 0.818809 0.856848
O O8 0.600199 0.457901 0.170809
O O9 0.297492 0.394054 0.885443
O O10 0.024391 0.889675 0.616652
O O11 0.189058 0.888881 0.917917
O O12 0.500000 0.893222 0.000000
O O13 0.500000 0.000000 0.500000
O O14 0.500000 0.793125 0.500000
O O15 0.084303 0.831605 0.182284
#
# Coordination Sequence:
#
# PCOD8115594 Si02
#       8
#     4   8   4   8   4   8   4   8
#     4  12  26  49  74 107 143 183 242 300 368 441
#     4  11  24  42  67  97 139 184 232 290 350 413
#     4  11  26  46  70 104 142 180 242 290 350 441
#     4  12  25  43  70  99 136 179 230 292 359 428
#     4  11  27  49  75 104 144 194 230 298 374 430
#     4  11  24  42  65 100 141 183 235 293 346 417
#     4  12  22  43  66  98 134 180 224 287 354 418
#     4  12  24  43  70 101 137 187 239 285 351 426
#
# _framework density 21.957621
#
# number of rings (size 3 to 8) (size 9 to 14) (size 15 to 20)
#    0.000    0.500    6.667    1.750    0.000    4.667 
#    0.000    0.000    0.000    0.000    0.000    0.000 
#    0.000    0.000    0.000    0.000    0.000    0.000 
#
# Total GULP energy -297334.851414 kJ/mol
# GULP energy per Si atom -12388.952142 kJ/mol
# Density = 2.190764 g / cm^3
# Si number density = 21.957621 Si / 1000 Ang^3
#
#
#
# Elastic Constant Matrix: (Units=GPa)
#
#
# Indices 1 2 3 4 5 6 
#
# 1 105.1909 46.6625 27.1655 0.0000 15.2233 0.0000
# 2 46.6625 168.9314 50.7139 0.0000 7.4505 0.0000
# 3 27.1655 50.7139 74.3275 0.0000 14.1945 0.0000
# 4 0.0000 0.0000 0.0000 27.3430 0.0000 3.1911
# 5 15.2233 7.4505 14.1945 0.0000 37.0572 0.0000
# 6 0.0000 0.0000 0.0000 3.1911 0.0000 42.2122
#
#
#
# Elastic Compliance Matrix: (Units=1/GPa)
#
#
# Indices 1 2 3 4 5 6 
#
# 1 0.011607 -0.002489 -0.001865 0.000000 -0.003553 0.000000
# 2 -0.002489 0.007986 -0.004777 0.000000 0.001247 0.000000
# 3 -0.001865 -0.004777 0.018412 0.000000 -0.005326 0.000000
# 4 0.000000 0.000000 0.000000 0.036898 0.000000 -0.002789
# 5 -0.003553 0.001247 -0.005326 0.000000 0.030234 0.000000
# 6 0.000000 0.000000 0.000000 -0.002789 0.000000 0.023901
#
#
# Mechanical properties :
#
#
# Convention : Reuss Voigt Hill
#
# Bulk Modulus (GPa) = 50.65383 66.39261 58.52322
# Shear Modulus (GPa) = 32.49228 36.24968 34.37098
#
# Velocity S-wave (km/s) = 3.85095 4.06753 3.96072
# Velocity P-wave (km/s) = 6.54921 7.23616 6.90124
#
# Compressibility (1/GPa) = 0.01974184
#
# Stress axis : x y z
#
# Youngs Moduli (GPa) = 86.15727 125.21270 54.31133
#
# Poissons Ratio (x) = 0.31171 0.10129
# Poissons Ratio (y) = 0.21448 0.25947
# Poissons Ratio (z) = 0.16068 0.59820
#
# Static dielectric constant tensor:
#      x y z
#    x 4.122750 0.000000 -0.161870 
#    y 0.000000 4.247540 0.000000 
#    z -0.161870 0.000000 3.545540 
# 
# 
# High freq. dielectric constant tensor:
#      x y z
#    x 1.881500 0.000000 -0.001200 
#    y 0.000000 1.889740 0.000000 
#    z -0.001200 0.000000 1.839490 
# 
# From -- ./inp_files/209955.got.cif
#   From: 2010.06.25/outbox.cif.g09.slc.cpg/sg12_105_cif.got.tgz:209955.got - 2010.06.28 00:19:55.
