data_PCOD8115904
_publ_section_title
;
Structure prediction by ZEFSAII (Michael W. Deem and Ramdas Pophale) SiO2 
 PCOD8115904
Probable space group: C 2/M
;
_chemical_formula_sum "Si O2"
_cell_formula_units_Z 40
_cell_length_a 8.503603
_cell_length_b 25.431168
_cell_length_c 9.034316
_cell_angle_alpha 90.000000
_cell_angle_beta 91.320233
_cell_angle_gamma 90.000000
_cell_volume 1953.211422
_symmetry_space_group_name_H-M "C 2/M"
_symmetry_group_IT_number 12
_symmetry_cell_setting 'monoclinic'
loop_
_space_group_symop_operation_xyz
x,y,z
-x,y,-z
-x,-y,-z
x,-y,z
1/2+x,1/2+y,z
1/2-x,1/2+y,-z
1/2-x,1/2-y,-z
1/2+x,1/2-y,z
loop_
_atom_site_type_symbol
_atom_site_label
_atom_site_fract_x
_atom_site_fract_y
_atom_site_fract_z
Si Si1 0.376856 0.137125 0.237216
Si Si2 0.659630 0.294407 0.085622
Si Si3 0.403821 0.226676 0.638778
Si Si4 0.184862 0.140396 0.522724
Si Si5 0.903458 0.559156 0.650602
O O1 0.270352 0.153378 0.092831
O O2 0.493037 0.185470 0.269155
O O3 0.259935 0.126890 0.368441
O O4 0.483433 0.084831 0.219513
O O5 0.633525 0.275945 0.255322
O O6 0.500000 0.309878 0.000000
O O7 0.750000 0.250000 0.000000
O O8 0.500000 0.248187 0.500000
O O9 0.242812 0.197936 0.581534
O O10 0.244992 0.094168 0.634720
O O11 0.000000 0.138674 0.500000
O O12 0.858428 0.500000 0.695757
O O13 0.000000 0.561004 0.500000
#
# Coordination Sequence:
#
# PCOD8115904 Si02
#       5
#     8   8   8   8   8
#     4   9  19  35  50  76 108 145 186 220 276 337
#     4  12  24  37  53  79 112 153 193 231 272 322
#     4   9  20  38  53  73 112 157 187 220 272 336
#     4   9  18  29  52  82 109 139 182 230 274 321
#     4   8  15  32  55  77 106 142 180 228 283 335
#
# _framework density 20.479094
#
# number of rings (size 3 to 8) (size 9 to 14) (size 15 to 20)
#    0.000    2.600    2.000    2.400    2.800    4.400 
#    0.000    3.000    0.000    0.600    0.000   11.200 
#    0.000    0.000    0.000    0.800    0.000    0.000 
#
# Total GULP energy -247853.564512 kJ/mol
# GULP energy per Si atom -12392.678226 kJ/mol
# Density = 2.043248 g / cm^3
# Si number density = 20.479094 Si / 1000 Ang^3
#
#
#
# Elastic Constant Matrix: (Units=GPa)
#
#
# Indices 1 2 3 4 5 6 
#
# 1 160.4518 63.1056 32.1714 0.0000 45.4070 0.0000
# 2 63.1056 121.2708 28.4893 0.0000 20.6164 0.0000
# 3 32.1714 28.4893 60.3363 0.0000 19.9189 0.0000
# 4 0.0000 0.0000 0.0000 18.0914 0.0000 6.4191
# 5 45.4070 20.6164 19.9189 0.0000 33.3416 0.0000
# 6 0.0000 0.0000 0.0000 6.4191 0.0000 21.9628
#
#
#
# Elastic Compliance Matrix: (Units=1/GPa)
#
#
# Indices 1 2 3 4 5 6 
#
# 1 0.011454 -0.003704 0.000044 0.000000 -0.013335 0.000000
# 2 -0.003704 0.010895 -0.003252 0.000000 0.000250 0.000000
# 3 0.000044 -0.003252 0.021727 0.000000 -0.011029 0.000000
# 4 0.000000 0.000000 0.000000 0.061670 0.000000 -0.018024
# 5 -0.013335 0.000250 -0.011029 0.000000 0.054587 0.000000
# 6 0.000000 0.000000 0.000000 -0.018024 0.000000 0.050800
#
#
# Mechanical properties :
#
#
# Convention : Reuss Voigt Hill
#
# Bulk Modulus (GPa) = 33.05579 65.51017 49.28298
# Shear Modulus (GPa) = 21.27298 29.23200 25.25249
#
# Velocity S-wave (km/s) = 3.22649 3.78220 3.51534
# Velocity P-wave (km/s) = 5.48239 7.15064 6.37135
#
# Compressibility (1/GPa) = 0.03025188
#
# Stress axis : x y z
#
# Youngs Moduli (GPa) = 87.30622 91.78769 46.02589
#
# Poissons Ratio (x) = 0.33994 -0.00201
# Poissons Ratio (y) = 0.32335 0.14968
# Poissons Ratio (z) = -0.00382 0.29849
#
# Static dielectric constant tensor:
#      x y z
#    x 3.557050 0.000000 0.555050 
#    y 0.000000 3.888470 0.000000 
#    z 0.555050 0.000000 3.392340 
# 
# 
# High freq. dielectric constant tensor:
#      x y z
#    x 1.817090 0.000000 0.020090 
#    y 0.000000 1.774560 0.000000 
#    z 0.020090 0.000000 1.764910 
# 
# From -- ./inp_files/39363.got.cif
#   From: 2010.06.25/outbox.cif.g09.slc.cpg/sg12_20_cif.got.tgz:39363.got - 2010.06.28 00:19:55.
