data_PCOD8115067
_publ_section_title
;
Structure prediction by ZEFSAII (Michael W. Deem and Ramdas Pophale) SiO2 
 PCOD8115067
Probable space group: C 2/M
;
_chemical_formula_sum "Si O2"
_cell_formula_units_Z 40
_cell_length_a 11.342722
_cell_length_b 18.645212
_cell_length_c 17.253353
_cell_angle_alpha 90.000000
_cell_angle_beta 147.170765
_cell_angle_gamma 90.000000
_cell_volume 1978.186342
_symmetry_space_group_name_H-M "C 2/M"
_symmetry_group_IT_number 12
_symmetry_cell_setting 'monoclinic'
loop_
_space_group_symop_operation_xyz
x,y,z
-x,y,-z
-x,-y,-z
x,-y,z
1/2+x,1/2+y,z
1/2-x,1/2+y,-z
1/2-x,1/2-y,-z
1/2+x,1/2-y,z
loop_
_atom_site_type_symbol
_atom_site_label
_atom_site_fract_x
_atom_site_fract_y
_atom_site_fract_z
Si Si1 0.238253 0.638166 0.151842
Si Si2 0.000000 0.617882 0.500000
Si Si3 0.165346 0.000000 0.898207
Si Si4 0.154443 0.771196 0.364266
Si Si5 0.457211 0.000000 0.210684
Si Si6 0.810639 0.500000 0.294887
Si Si7 0.753547 0.872915 0.338717
O O1 0.294606 0.570448 0.129978
O O2 0.405724 0.703485 0.233262
O O3 0.240264 0.611649 0.240715
O O4 0.000000 0.668587 0.000000
O O5 0.791697 0.664615 0.404810
O O6 0.944736 0.569883 0.394969
O O7 0.327039 0.000000 0.059401
O O8 0.921999 0.000000 0.793920
O O9 0.250000 0.750000 0.500000
O O10 0.163198 0.705409 0.309738
O O11 0.608037 0.069484 0.302623
O O12 0.290595 0.000000 0.190887
O O13 0.000000 0.881696 0.500000
#
# Coordination Sequence:
#
# PCOD8115067 Si02
#       7
#     8   4   4   8   4   4   8
#     4  12  25  46  73 101 140 185 229 283 348 413
#     4  11  22  42  66 103 136 174 232 281 348 408
#     4  12  24  48  69  95 142 184 226 288 346 410
#     4  12  23  44  71 102 143 178 225 289 344 412
#     4  12  26  45  66 101 138 181 233 284 346 417
#     4  11  25  40  71 101 134 182 231 285 347 411
#     4  12  25  43  71 105 134 181 233 286 345 407
#
# _framework density 20.220542999999999
#
# number of rings (size 3 to 8) (size 9 to 14) (size 15 to 20)
#    0.000    0.200    7.000    2.700    0.000    0.800 
#    0.000    0.000    0.000    0.000    0.000    0.000 
#    0.000    0.000    0.000    0.000    0.000    0.000 
#
# Total GULP energy -248127.858055 kJ/mol
# GULP energy per Si atom -12406.392903 kJ/mol
# Density = 2.017452 g / cm^3
# Si number density = 20.220543 Si / 1000 Ang^3
#
#
#
# Elastic Constant Matrix: (Units=GPa)
#
#
# Indices 1 2 3 4 5 6 
#
# 1 137.7595 57.8574 61.6715 0.0001 -7.5637 -0.0001
# 2 57.8574 138.4095 57.6987 -0.0004 2.7387 -0.0003
# 3 61.6715 57.6987 141.2715 -0.0034 9.5206 0.0017
# 4 0.0001 -0.0004 -0.0034 40.0829 -0.0008 6.4976
# 5 -7.5637 2.7387 9.5206 -0.0008 42.7169 0.0004
# 6 -0.0001 -0.0003 0.0017 6.4976 0.0004 32.8165
#
#
#
# Elastic Compliance Matrix: (Units=1/GPa)
#
#
# Indices 1 2 3 4 5 6 
#
# 1 0.010157 -0.002862 -0.003450 0.000000 0.002751 0.000000
# 2 -0.002862 0.009516 -0.002601 0.000000 -0.000537 0.000000
# 3 -0.003450 -0.002601 0.009825 0.000001 -0.002634 -0.000001
# 4 0.000000 0.000000 0.000001 0.025776 0.000000 -0.005103
# 5 0.002751 -0.000537 -0.002634 0.000000 0.024518 0.000000
# 6 0.000000 0.000000 -0.000001 -0.005103 0.000000 0.031483
#
#
# Mechanical properties :
#
#
# Convention : Reuss Voigt Hill
#
# Bulk Modulus (GPa) = 85.68315 85.76617 85.72466
# Shear Modulus (GPa) = 37.59642 39.13745 38.36694
#
# Velocity S-wave (km/s) = 4.31666 4.40424 4.36067
# Velocity P-wave (km/s) = 8.20433 8.26865 8.23655
#
# Compressibility (1/GPa) = 0.01167091
#
# Stress axis : x y z
#
# Youngs Moduli (GPa) = 98.45806 105.08466 101.78406
#
# Poissons Ratio (x) = 0.30072 0.35120
# Poissons Ratio (y) = 0.28176 0.26476
# Poissons Ratio (z) = 0.33972 0.27334
#
# Static dielectric constant tensor:
#      x y z
#    x 3.862890 0.000000 0.109780 
#    y 0.000000 3.832660 -0.000020 
#    z 0.109780 -0.000020 3.705970 
# 
# 
# High freq. dielectric constant tensor:
#      x y z
#    x 1.808200 0.000000 0.003170 
#    y 0.000000 1.798110 0.000000 
#    z 0.003170 0.000000 1.797480 
# 
# From -- ./inp_files/265204.got.cif
#   From: 2010.06.25/outbox.cif.g09.slc.cpg/sg12_133_cif.got.tgz:265204.got - 2010.06.28 00:19:55.
