data_PCOD8115869
_publ_section_title
;
Structure prediction by ZEFSAII (Michael W. Deem and Ramdas Pophale) SiO2 
 PCOD8115869
Probable space group: C 2/M
;
_chemical_formula_sum "Si O2"
_cell_formula_units_Z 48
_cell_length_a 17.689762
_cell_length_b 15.296790
_cell_length_c 17.390176
_cell_angle_alpha 90.000000
_cell_angle_beta 31.147031
_cell_angle_gamma 90.000000
_cell_volume 2433.968938
_symmetry_space_group_name_H-M "C 2/M"
_symmetry_group_IT_number 12
_symmetry_cell_setting 'monoclinic'
loop_
_space_group_symop_operation_xyz
x,y,z
-x,y,-z
-x,-y,-z
x,-y,z
1/2+x,1/2+y,z
1/2-x,1/2+y,-z
1/2-x,1/2-y,-z
1/2+x,1/2-y,z
loop_
_atom_site_type_symbol
_atom_site_label
_atom_site_fract_x
_atom_site_fract_y
_atom_site_fract_z
Si Si1 0.296724 0.500000 0.398808
Si Si2 0.687356 0.000000 0.653726
Si Si3 0.153590 0.000000 0.327773
Si Si4 0.793606 0.347405 0.841939
Si Si5 0.472195 0.000000 0.613583
Si Si6 0.982800 0.146638 0.824364
Si Si7 0.976097 0.658284 0.835457
Si Si8 0.205085 0.848342 0.165433
O O1 0.311915 0.500000 0.479089
O O2 0.376384 0.584512 0.294214
O O3 0.125108 0.500000 0.526312
O O4 0.599824 0.911817 0.714751
O O5 0.732056 0.000000 0.702817
O O6 0.167286 0.087485 0.267004
O O7 0.000000 0.000000 0.500000
O O8 0.874006 0.415755 0.717512
O O9 0.870660 0.339528 0.855629
O O10 0.803096 0.251138 0.795575
O O11 0.627434 0.375582 0.008685
O O12 0.500000 0.000000 0.500000
O O13 0.043932 0.244763 0.784150
O O14 0.903720 0.134454 0.811030
O O15 0.873600 0.632720 0.996414
#
# Coordination Sequence:
#
# PCOD8115869 Si02
#       8
#     4   4   4   8   4   8   8   8
#     4  12  23  39  58  92 116 150 194 251 298 353
#     4  12  23  36  59  88 129 156 190 242 302 352
#     4  12  25  38  50  88 132 166 191 231 305 366
#     4   9  18  41  65  85 113 158 199 242 284 353
#     4  12  25  41  58  84 116 151 195 242 313 353
#     4   9  19  37  67  89 113 152 205 243 284 339
#     4   9  18  37  63  91 109 153 204 243 282 343
#     4   9  19  37  63  87 117 157 203 233 283 349
#
# _framework density 19.720877000000002
#
# number of rings (size 3 to 8) (size 9 to 14) (size 15 to 20)
#    0.000    2.000    1.667    4.500    0.000    5.333 
#    6.000    1.667    0.000    0.000    0.000    0.000 
#    0.000    0.000    0.000    0.000    0.000    0.000 
#
# Total GULP energy -297485.575121 kJ/mol
# GULP energy per Si atom -12395.232297 kJ/mol
# Density = 1.967599 g / cm^3
# Si number density = 19.720877 Si / 1000 Ang^3
#
#
#
# Elastic Constant Matrix: (Units=GPa)
#
#
# Indices 1 2 3 4 5 6 
#
# 1 44.4361 31.4016 29.4271 0.0000 11.5643 0.0001
# 2 31.4016 162.2036 96.2517 -0.0004 11.5426 0.0002
# 3 29.4271 96.2517 135.1594 -0.0019 16.5092 0.0018
# 4 0.0000 -0.0004 -0.0019 20.0772 0.0007 -32.6335
# 5 11.5643 11.5426 16.5092 0.0007 29.4646 -0.0005
# 6 0.0001 0.0002 0.0018 -32.6335 -0.0005 72.1783
#
#
#
# Elastic Compliance Matrix: (Units=1/GPa)
#
#
# Indices 1 2 3 4 5 6 
#
# 1 0.028955 -0.003249 -0.002961 0.000000 -0.008433 0.000000
# 2 -0.003249 0.011042 -0.007282 -0.000001 0.001029 0.000000
# 3 -0.002961 -0.007282 0.013674 0.000003 -0.003647 0.000001
# 4 0.000000 -0.000001 0.000003 0.187871 -0.000004 0.084941
# 5 -0.008433 0.001029 -0.003647 -0.000004 0.038889 -0.000001
# 6 0.000000 0.000000 0.000001 0.084941 -0.000001 0.052259
#
#
# Mechanical properties :
#
#
# Convention : Reuss Voigt Hill
#
# Bulk Modulus (GPa) = 37.46816 72.88445 55.17631
# Shear Modulus (GPa) = 13.56601 36.65860 25.11230
#
# Velocity S-wave (km/s) = 2.62563 4.31614 3.57233
# Velocity P-wave (km/s) = 5.31342 7.86620 6.71228
#
# Compressibility (1/GPa) = 0.02668933
#
# Stress axis : x y z
#
# Youngs Moduli (GPa) = 34.53613 90.56630 73.13017
#
# Poissons Ratio (x) = 0.29421 0.21652
# Poissons Ratio (y) = 0.11219 0.53250
# Poissons Ratio (z) = 0.10225 0.65947
#
# Static dielectric constant tensor:
#      x y z
#    x 3.146790 0.000000 0.077740 
#    y 0.000000 3.913480 0.000000 
#    z 0.077740 0.000000 3.865240 
# 
# 
# High freq. dielectric constant tensor:
#      x y z
#    x 1.732810 0.000000 0.005100 
#    y 0.000000 1.785860 0.000000 
#    z 0.005100 0.000000 1.776100 
# 
# From -- ./inp_files/278092.got.cif
#   From: 2010.06.25/outbox.cif.g09.slc.cpg/sg12_140_cif.got.tgz:278092.got - 2010.06.28 00:19:55.
