data_PCOD8115314
_publ_section_title
;
Structure prediction by ZEFSAII (Michael W. Deem and Ramdas Pophale) SiO2 
 PCOD8115314
Probable space group: C 2/M
;
_chemical_formula_sum "Si O2"
_cell_formula_units_Z 64
_cell_length_a 7.658512
_cell_length_b 17.197246
_cell_length_c 29.290843
_cell_angle_alpha 90.000000
_cell_angle_beta 45.232452
_cell_angle_gamma 90.000000
_cell_volume 2738.892587
_symmetry_space_group_name_H-M "C 2/M"
_symmetry_group_IT_number 12
_symmetry_cell_setting 'monoclinic'
loop_
_space_group_symop_operation_xyz
x,y,z
-x,y,-z
-x,-y,-z
x,-y,z
1/2+x,1/2+y,z
1/2-x,1/2+y,-z
1/2-x,1/2-y,-z
1/2+x,1/2-y,z
loop_
_atom_site_type_symbol
_atom_site_label
_atom_site_fract_x
_atom_site_fract_y
_atom_site_fract_z
Si Si1 0.592987 0.909236 0.165444
Si Si2 0.734615 0.195719 0.061949
Si Si3 0.352719 0.311812 0.572323
Si Si4 0.732138 0.411540 0.560588
Si Si5 0.676907 0.157100 0.365132
Si Si6 0.978305 0.154289 0.144769
Si Si7 0.556734 0.591973 0.228366
Si Si8 0.731213 0.081218 0.985809
O O1 0.757279 0.874810 0.093399
O O2 0.681204 0.862053 0.195418
O O3 0.305599 0.892934 0.210321
O O4 0.639428 0.000000 0.162177
O O5 0.547523 0.258006 0.117584
O O6 0.648459 0.155212 0.031267
O O7 0.000000 0.232449 0.000000
O O8 0.500000 0.284661 0.500000
O O9 0.515993 0.368012 0.573588
O O10 0.281322 0.239394 0.617319
O O11 0.105196 0.353826 0.599486
O O12 0.712286 0.500000 0.548041
O O13 0.721229 0.406749 0.617599
O O14 0.000000 0.375257 0.500000
O O15 0.843322 0.143739 0.290200
O O16 0.092181 0.128938 0.171783
O O17 0.059569 0.097304 0.089629
O O18 0.491789 0.500000 0.237458
O O19 0.799451 0.000000 0.000059
O O20 0.500000 0.059904 0.000000
#
# Coordination Sequence:
#
# PCOD8115314 Si02
#       8
#     8   8   8   8   8   8   8   8
#     4  11  26  48  75 100 139 193 241 294 370 443
#     4  12  26  43  68 108 148 174 230 308 374 446
#     4  12  24  45  78 116 156 200 247 302 373 445
#     4  11  24  43  73 115 160 201 246 308 369 428
#     4  12  25  46  76 108 151 200 254 307 364 431
#     4  12  26  46  72 103 139 187 237 303 370 432
#     4  11  28  52  74 102 145 193 253 309 354 432
#     4  11  23  40  68 100 137 183 230 287 370 451
#
# _framework density 23.367108999999999
#
# number of rings (size 3 to 8) (size 9 to 14) (size 15 to 20)
#    0.000    0.500    3.750    4.125    3.500    5.750 
#    0.000    0.000    0.000    0.000    0.000    0.000 
#    0.000    0.000    0.000    0.000    0.000    0.000 
#
# Total GULP energy -396448.186760 kJ/mol
# GULP energy per Si atom -12389.005836 kJ/mol
# Density = 2.331392 g / cm^3
# Si number density = 23.367109 Si / 1000 Ang^3
#
#
#
# Elastic Constant Matrix: (Units=GPa)
#
#
# Indices 1 2 3 4 5 6 
#
# 1 150.9629 62.3283 32.9824 -0.0096 -3.1424 0.0065
# 2 62.3283 147.3282 51.9587 -0.0060 3.2620 0.0050
# 3 32.9824 51.9587 91.0391 -0.0089 -2.0315 0.0076
# 4 -0.0096 -0.0060 -0.0089 28.9983 0.0114 2.3142
# 5 -3.1424 3.2620 -2.0315 0.0114 27.0349 -0.0081
# 6 0.0065 0.0050 0.0076 2.3142 -0.0081 30.3667
#
#
#
# Elastic Compliance Matrix: (Units=1/GPa)
#
#
# Indices 1 2 3 4 5 6 
#
# 1 0.008175 -0.003069 -0.001183 0.000001 0.001232 -0.000001
# 2 -0.003069 0.009703 -0.004467 0.000000 -0.001863 0.000000
# 3 -0.001183 -0.004467 0.013995 0.000003 0.001453 -0.000002
# 4 0.000001 0.000000 0.000003 0.034696 -0.000015 -0.002644
# 5 0.001232 -0.001863 0.001453 -0.000015 0.037466 0.000011
# 6 -0.000001 0.000000 -0.000002 -0.002644 0.000011 0.033132
#
#
# Mechanical properties :
#
#
# Convention : Reuss Voigt Hill
#
# Bulk Modulus (GPa) = 69.27712 75.98546 72.63129
# Shear Modulus (GPa) = 31.36437 33.41739 32.39088
#
# Velocity S-wave (km/s) = 3.66764 3.78577 3.72718
# Velocity P-wave (km/s) = 6.90269 7.19014 7.04788
#
# Compressibility (1/GPa) = 0.01443478
#
# Stress axis : x y z
#
# Youngs Moduli (GPa) = 122.32142 103.06560 71.45445
#
# Poissons Ratio (x) = 0.31627 0.08452
# Poissons Ratio (y) = 0.37536 0.31921
# Poissons Ratio (z) = 0.14470 0.46043
#
# Static dielectric constant tensor:
#      x y z
#    x 4.707670 -0.000030 -0.028890 
#    y -0.000030 4.179300 0.000020 
#    z -0.028890 0.000020 4.031250 
# 
# 
# High freq. dielectric constant tensor:
#      x y z
#    x 1.954720 0.000000 -0.002990 
#    y 0.000000 1.934800 0.000000 
#    z -0.002990 0.000000 1.895970 
# 
# From -- ./inp_files/372881.got.cif
#   From: 2010.06.25/outbox.cif.g09.slc.cpg/sg12_187_cif.got.tgz:372881.got - 2010.06.28 00:19:55.
