data_PCOD8115671
_publ_section_title
;
Structure prediction by ZEFSAII (Michael W. Deem and Ramdas Pophale) SiO2 
 PCOD8115671
Probable space group: C 2/M
;
_chemical_formula_sum "Si O2"
_cell_formula_units_Z 24
_cell_length_a 8.535974
_cell_length_b 14.681752
_cell_length_c 8.022825
_cell_angle_alpha 90.000000
_cell_angle_beta 91.961167
_cell_angle_gamma 90.000000
_cell_volume 1004.855987
_symmetry_space_group_name_H-M "C 2/M"
_symmetry_group_IT_number 12
_symmetry_cell_setting 'monoclinic'
loop_
_space_group_symop_operation_xyz
x,y,z
-x,y,-z
-x,-y,-z
x,-y,z
1/2+x,1/2+y,z
1/2-x,1/2+y,-z
1/2-x,1/2-y,-z
1/2+x,1/2-y,z
loop_
_atom_site_type_symbol
_atom_site_label
_atom_site_fract_x
_atom_site_fract_y
_atom_site_fract_z
Si Si1 0.144500 0.500000 0.744786
Si Si2 0.721772 0.314538 0.156700
Si Si3 0.589039 0.673337 0.674667
Si Si4 0.214596 0.500000 0.365209
O O1 0.197022 0.413089 0.855871
O O2 0.228147 0.500000 0.566960
O O3 0.959946 0.500000 0.710607
O O4 0.536831 0.325552 0.180106
O O5 0.805022 0.264330 0.316826
O O6 0.750000 0.250000 0.000000
O O7 0.500000 0.666960 0.500000
O O8 0.700461 0.587531 0.706538
#
# Coordination Sequence:
#
# PCOD8115671 Si02
#       4
#     4   8   8   4
#     4  11  25  47  74 110 148 190 248 299 374 431
#     4  12  27  46  73 109 153 195 239 305 371 440
#     4  12  24  45  73 109 146 194 249 297 365 433
#     4  11  24  44  79 112 143 188 247 316 351 435
#
# _framework density 23.884018000000001
#
# number of rings (size 3 to 8) (size 9 to 14) (size 15 to 20)
#    0.000    0.333    3.333    5.500    4.667    1.333 
#    0.000    8.333    0.000    0.000    0.000    0.000 
#    0.000    0.000    0.000    0.000    0.000    0.000 
#
# Total GULP energy -148871.719820 kJ/mol
# GULP energy per Si atom -12405.976652 kJ/mol
# Density = 2.382966 g / cm^3
# Si number density = 23.884018 Si / 1000 Ang^3
#
#
#
# Elastic Constant Matrix: (Units=GPa)
#
#
# Indices 1 2 3 4 5 6 
#
# 1 153.5657 75.2568 40.0755 0.0000 -19.1238 0.0000
# 2 75.2568 224.0358 43.2433 0.0000 1.7502 0.0000
# 3 40.0755 43.2433 69.4025 0.0000 -16.6657 0.0000
# 4 0.0000 0.0000 0.0000 41.0485 0.0000 4.4460
# 5 -19.1238 1.7502 -16.6657 0.0000 31.7940 0.0000
# 6 0.0000 0.0000 0.0000 4.4460 0.0000 48.8630
#
#
#
# Elastic Compliance Matrix: (Units=1/GPa)
#
#
# Indices 1 2 3 4 5 6 
#
# 1 0.008950 -0.002540 -0.002584 0.000000 0.004169 0.000000
# 2 -0.002540 0.005935 -0.003062 0.000000 -0.003460 0.000000
# 3 -0.002584 -0.003062 0.019992 0.000000 0.009094 0.000000
# 4 0.000000 0.000000 0.000000 0.024604 0.000000 -0.002239
# 5 0.004169 -0.003460 0.009094 0.000000 0.038917 0.000000
# 6 0.000000 0.000000 0.000000 -0.002239 0.000000 0.020669
#
#
# Mechanical properties :
#
#
# Convention : Reuss Voigt Hill
#
# Bulk Modulus (GPa) = 54.04046 84.90615 69.47330
# Shear Modulus (GPa) = 35.30851 43.56967 39.43909
#
# Velocity S-wave (km/s) = 3.84908 4.27572 4.06800
# Velocity P-wave (km/s) = 6.51377 7.74611 7.15652
#
# Compressibility (1/GPa) = 0.01850465
#
# Stress axis : x y z
#
# Youngs Moduli (GPa) = 111.72752 168.49456 50.01884
#
# Poissons Ratio (x) = 0.42802 0.12927
# Poissons Ratio (y) = 0.28382 0.15315
# Poissons Ratio (z) = 0.28875 0.51590
#
# Static dielectric constant tensor:
#      x y z
#    x 4.802330 0.000000 0.023000 
#    y 0.000000 4.556810 0.000000 
#    z 0.023000 0.000000 4.175280 
# 
# 
# High freq. dielectric constant tensor:
#      x y z
#    x 1.970510 0.000000 0.007500 
#    y 0.000000 1.960260 0.000000 
#    z 0.007500 0.000000 1.941330 
# 
# From -- ./inp_files/35715.got.cif
#   From: 2010.06.25/outbox.cif.g09.slc.cpg/sg12_18_cif.got.tgz:35715.got - 2010.06.28 00:19:55.
