data_PCOD8115543
_publ_section_title
;
Structure prediction by ZEFSAII (Michael W. Deem and Ramdas Pophale) SiO2 
 PCOD8115543
Probable space group: C 2/M
;
_chemical_formula_sum "Si O2"
_cell_formula_units_Z 64
_cell_length_a 33.925002
_cell_length_b 13.387351
_cell_length_c 9.809730
_cell_angle_alpha 90.000000
_cell_angle_beta 43.228278
_cell_angle_gamma 90.000000
_cell_volume 3051.427563
_symmetry_space_group_name_H-M "C 2/M"
_symmetry_group_IT_number 12
_symmetry_cell_setting 'monoclinic'
loop_
_space_group_symop_operation_xyz
x,y,z
-x,y,-z
-x,-y,-z
x,-y,z
1/2+x,1/2+y,z
1/2-x,1/2+y,-z
1/2-x,1/2-y,-z
1/2+x,1/2-y,z
loop_
_atom_site_type_symbol
_atom_site_label
_atom_site_fract_x
_atom_site_fract_y
_atom_site_fract_z
Si Si1 0.458609 0.268373 0.222126
Si Si2 0.738476 0.617899 0.881416
Si Si3 0.776097 0.888370 0.784713
Si Si4 0.978884 0.886410 0.701672
Si Si5 0.869933 0.383750 0.573266
Si Si6 0.142462 0.610759 0.082285
Si Si7 0.639874 0.305543 0.944814
Si Si8 0.639181 0.617463 0.652838
O O1 0.494798 0.309068 0.257688
O O2 0.415852 0.180470 0.374394
O O3 0.424471 0.362208 0.243686
O O4 0.500000 0.224769 0.000000
O O5 0.730598 0.500000 0.893610
O O6 0.805157 0.646736 0.691550
O O7 0.717466 0.660632 0.081655
O O8 0.700262 0.672084 0.865743
O O9 0.816122 0.837518 0.570434
O O10 0.799640 0.000000 0.739404
O O11 0.711002 0.887215 0.900411
O O12 0.909604 0.881256 0.881130
O O13 0.000000 0.853742 0.500000
O O14 0.997877 0.000000 0.686427
O O15 0.880386 0.500000 0.513877
O O16 0.878494 0.364110 0.712530
O O17 0.120395 0.500000 0.095185
O O18 0.118985 0.692921 0.034983
O O19 0.650351 0.316827 0.758552
O O20 0.647112 0.500000 0.665295
#
# Coordination Sequence:
#
# PCOD8115543 Si02
#       8
#     8   8   8   8   8   8   8   8
#     4  12  25  43  65  89 124 174 215 256 314 379
#     4   9  19  37  64  97 128 159 204 263 318 374
#     4   8  18  36  59  89 124 164 204 247 307 376
#     4  11  25  43  64  94 127 161 215 274 314 367
#     4   9  21  43  68  94 124 161 213 270 318 367
#     4   9  20  40  63  92 128 162 206 264 312 366
#     4  12  23  37  63  93 127 171 205 255 315 384
#     4  11  24  40  59  89 131 172 206 248 308 380
#
# _framework density 20.973790000000001
#
# number of rings (size 3 to 8) (size 9 to 14) (size 15 to 20)
#    0.000    1.875    1.250    3.750    5.250    2.250 
#    0.000    1.250    0.000    2.250    0.000    0.000 
#    0.000    0.000    0.000    0.000    0.000    0.000 
#
# Total GULP energy -396733.282428 kJ/mol
# GULP energy per Si atom -12397.915076 kJ/mol
# Density = 2.092605 g / cm^3
# Si number density = 20.973790 Si / 1000 Ang^3
#
#
#
# Elastic Constant Matrix: (Units=GPa)
#
#
# Indices 1 2 3 4 5 6 
#
# 1 84.3769 58.2315 56.0309 0.0000 17.6817 0.0000
# 2 58.2315 99.8112 56.2565 0.0000 8.4620 0.0000
# 3 56.0309 56.2565 162.5584 0.0000 1.1020 0.0000
# 4 0.0000 0.0000 0.0000 23.8043 0.0000 0.3178
# 5 17.6817 8.4620 1.1020 0.0000 18.2925 0.0000
# 6 0.0000 0.0000 0.0000 0.3178 0.0000 24.1019
#
#
#
# Elastic Compliance Matrix: (Units=1/GPa)
#
#
# Indices 1 2 3 4 5 6 
#
# 1 0.027765 -0.011282 -0.005521 0.000000 -0.021286 0.000000
# 2 -0.011282 0.017610 -0.002225 0.000000 0.002893 0.000000
# 3 -0.005521 -0.002225 0.008785 0.000000 0.005837 0.000000
# 4 0.000000 0.000000 0.000000 0.042017 0.000000 -0.000554
# 5 -0.021286 0.002893 0.005837 0.000000 0.073553 0.000000
# 6 0.000000 0.000000 0.000000 -0.000554 0.000000 0.041498
#
#
# Mechanical properties :
#
#
# Convention : Reuss Voigt Hill
#
# Bulk Modulus (GPa) = 62.10010 76.42046 69.26028
# Shear Modulus (GPa) = 19.63471 24.98823 22.31147
#
# Velocity S-wave (km/s) = 3.06298 3.45541 3.26510
# Velocity P-wave (km/s) = 6.49476 7.24121 6.87812
#
# Compressibility (1/GPa) = 0.01610303
#
# Stress axis : x y z
#
# Youngs Moduli (GPa) = 36.01713 56.78661 113.82682
#
# Poissons Ratio (x) = 0.64065 0.62848
# Poissons Ratio (y) = 0.40633 0.25329
# Poissons Ratio (z) = 0.19886 0.12636
#
# Static dielectric constant tensor:
#      x y z
#    x 3.612650 0.000000 0.035970 
#    y 0.000000 3.904380 0.000000 
#    z 0.035970 0.000000 3.919210 
# 
# 
# High freq. dielectric constant tensor:
#      x y z
#    x 1.802600 0.000000 0.002510 
#    y 0.000000 1.827440 0.000000 
#    z 0.002510 0.000000 1.827720 
# 
# From -- ./inp_files/111955.got.cif
#   From: 2010.06.25/outbox.cif.g09.slc.cpg/sg12_56_cif.got.tgz:111955.got - 2010.06.28 00:19:55.
