data_PCOD8115694
_publ_section_title
;
Structure prediction by ZEFSAII (Michael W. Deem and Ramdas Pophale) SiO2 
 PCOD8115694
Probable space group: C 2/M
;
_chemical_formula_sum "Si O2"
_cell_formula_units_Z 40
_cell_length_a 8.687094
_cell_length_b 24.932291
_cell_length_c 8.845663
_cell_angle_alpha 90.000000
_cell_angle_beta 85.203819
_cell_angle_gamma 90.000000
_cell_volume 1909.166119
_symmetry_space_group_name_H-M "C 2/M"
_symmetry_group_IT_number 12
_symmetry_cell_setting 'monoclinic'
loop_
_space_group_symop_operation_xyz
x,y,z
-x,y,-z
-x,-y,-z
x,-y,z
1/2+x,1/2+y,z
1/2-x,1/2+y,-z
1/2-x,1/2-y,-z
1/2+x,1/2-y,z
loop_
_atom_site_type_symbol
_atom_site_label
_atom_site_fract_x
_atom_site_fract_y
_atom_site_fract_z
Si Si1 0.401335 0.869665 0.149045
Si Si2 0.914663 0.182226 0.858492
Si Si3 0.588607 0.212931 0.338012
Si Si4 0.162553 0.437808 0.564332
Si Si5 0.123044 0.144824 0.611024
O O1 0.252325 0.841319 0.088194
O O2 0.501544 0.828536 0.237380
O O3 0.344410 0.917469 0.262726
O O4 0.500000 0.892767 0.000000
O O5 0.890864 0.231059 0.746610
O O6 0.023609 0.136161 0.772988
O O7 0.000000 0.203785 0.000000
O O8 0.500000 0.220550 0.500000
O O9 0.758113 0.192479 0.367356
O O10 0.204325 0.500000 0.561880
O O11 0.294213 0.409010 0.454025
O O12 0.000000 0.425376 0.500000
O O13 0.000000 0.165864 0.500000
#
# Coordination Sequence:
#
# PCOD8115694 Si02
#       5
#     8   8   8   8   8
#     4  12  24  44  68  94 137 177 219 269 329 400
#     4  12  27  41  63 101 138 177 218 270 328 385
#     4  12  23  42  67  97 135 182 223 260 321 398
#     4  11  24  47  74 100 125 168 227 277 336 395
#     4  12  22  43  68  99 132 173 218 276 328 383
#
# _framework density 20.951556
#
# number of rings (size 3 to 8) (size 9 to 14) (size 15 to 20)
#    0.000    0.200    6.000    3.600    0.000    5.600 
#    0.000    2.000    0.000    1.200    0.000    0.000 
#    0.000    0.000    0.000    0.000    0.000    0.000 
#
# Total GULP energy -248024.528240 kJ/mol
# GULP energy per Si atom -12401.226412 kJ/mol
# Density = 2.090387 g / cm^3
# Si number density = 20.951556 Si / 1000 Ang^3
#
#
#
# Elastic Constant Matrix: (Units=GPa)
#
#
# Indices 1 2 3 4 5 6 
#
# 1 150.1869 47.0323 48.5544 0.0000 5.4414 0.0000
# 2 47.0323 92.0192 49.3799 0.0000 -5.8484 0.0000
# 3 48.5544 49.3799 112.0336 0.0000 -10.3212 0.0000
# 4 0.0000 0.0000 0.0000 17.6407 0.0000 -3.0601
# 5 5.4414 -5.8484 -10.3212 0.0000 46.7482 0.0000
# 6 0.0000 0.0000 0.0000 -3.0601 0.0000 12.4734
#
#
#
# Elastic Compliance Matrix: (Units=1/GPa)
#
#
# Indices 1 2 3 4 5 6 
#
# 1 0.008515 -0.003142 -0.002483 0.000000 -0.001933 0.000000
# 2 -0.003142 0.015401 -0.005323 0.000000 0.001117 0.000000
# 3 -0.002483 -0.005323 0.012569 0.000000 0.002398 0.000000
# 4 0.000000 0.000000 0.000000 0.059207 0.000000 0.014525
# 5 -0.001933 0.001117 0.002398 0.000000 0.022285 0.000000
# 6 0.000000 0.000000 0.000000 0.014525 0.000000 0.083734
#
#
# Mechanical properties :
#
#
# Convention : Reuss Voigt Hill
#
# Bulk Modulus (GPa) = 68.55236 71.57479 70.06358
# Shear Modulus (GPa) = 21.88441 29.32399 25.60420
#
# Velocity S-wave (km/s) = 3.23542 3.74519 3.49960
# Velocity P-wave (km/s) = 6.83723 7.27586 7.05995
#
# Compressibility (1/GPa) = 0.01458739
#
# Stress axis : x y z
#
# Youngs Moduli (GPa) = 117.43472 64.93041 79.55786
#
# Poissons Ratio (x) = 0.20404 0.19758
# Poissons Ratio (y) = 0.36903 0.42351
# Poissons Ratio (z) = 0.29164 0.34565
#
# Static dielectric constant tensor:
#      x y z
#    x 4.501230 0.000000 0.506170 
#    y 0.000000 3.522090 0.000000 
#    z 0.506170 0.000000 5.504650 
# 
# 
# High freq. dielectric constant tensor:
#      x y z
#    x 1.847440 0.000000 -0.001460 
#    y 0.000000 1.787900 0.000000 
#    z -0.001460 0.000000 1.835000 
# 
# From -- ./inp_files/39181.got.cif
#   From: 2010.06.25/outbox.cif.g09.slc.cpg/sg12_20_cif.got.tgz:39181.got - 2010.06.28 00:19:55.
