data_PCOD8115703
_publ_section_title
;
Structure prediction by ZEFSAII (Michael W. Deem and Ramdas Pophale) SiO2 
 PCOD8115703
Probable space group: C 2/M
;
_chemical_formula_sum "Si O2"
_cell_formula_units_Z 48
_cell_length_a 9.442063
_cell_length_b 29.595807
_cell_length_c 17.863427
_cell_angle_alpha 90.000000
_cell_angle_beta 152.071037
_cell_angle_gamma 90.000000
_cell_volume 2338.067014
_symmetry_space_group_name_H-M "C 2/M"
_symmetry_group_IT_number 12
_symmetry_cell_setting 'monoclinic'
loop_
_space_group_symop_operation_xyz
x,y,z
-x,y,-z
-x,-y,-z
x,-y,z
1/2+x,1/2+y,z
1/2-x,1/2+y,-z
1/2-x,1/2-y,-z
1/2+x,1/2-y,z
loop_
_atom_site_type_symbol
_atom_site_label
_atom_site_fract_x
_atom_site_fract_y
_atom_site_fract_z
Si Si1 0.417150 0.417312 0.342434
Si Si2 0.334557 0.169802 0.847678
Si Si3 0.837823 0.320542 0.148844
Si Si4 0.317382 0.742000 0.615978
Si Si5 0.433497 0.500000 0.674538
Si Si6 0.828989 0.500000 0.292264
Si Si7 0.485540 0.083914 0.707296
O O1 0.352079 0.370825 0.272657
O O2 0.391141 0.455014 0.266479
O O3 0.183752 0.432986 0.297332
O O4 0.746059 0.407883 0.529907
O O5 0.588293 0.182003 0.904759
O O6 0.098687 0.208836 0.758781
O O7 0.500000 0.154804 0.000000
O O8 0.092163 0.289912 0.306113
O O9 0.839723 0.370037 0.189398
O O10 0.500000 0.300769 0.000000
O O11 0.250000 0.750000 0.500000
O O12 0.000000 0.723148 0.500000
O O13 0.420699 0.500000 0.758935
O O14 0.134222 0.500000 0.483395
O O15 0.796149 0.544144 0.222867
#
# Coordination Sequence:
#
# PCOD8115703 Si02
#       7
#     8   8   8   8   4   4   8
#     4   9  18  36  60  85 117 161 204 249 296 359
#     4  11  25  43  61  92 128 163 203 250 310 368
#     4  11  25  42  63  91 127 164 203 252 306 367
#     4  12  25  44  69  94 120 157 207 258 305 361
#     4   9  17  31  52  89 126 149 194 253 306 348
#     4   9  17  31  52  91 122 151 196 255 300 351
#     4   9  18  35  62  84 116 159 209 246 295 356
#
# _framework density 20.529779000000001
#
# number of rings (size 3 to 8) (size 9 to 14) (size 15 to 20)
#    0.000    1.833    1.667    2.000    4.667    4.667 
#    6.000    0.833    0.000    0.000    0.000    0.000 
#    0.000    0.000    0.000    0.000    0.000    0.000 
#
# Total GULP energy -297469.867041 kJ/mol
# GULP energy per Si atom -12394.577793 kJ/mol
# Density = 2.048305 g / cm^3
# Si number density = 20.529779 Si / 1000 Ang^3
#
#
#
# Elastic Constant Matrix: (Units=GPa)
#
#
# Indices 1 2 3 4 5 6 
#
# 1 140.4108 49.6154 41.1339 0.0002 -7.1681 0.0000
# 2 49.6154 79.6226 13.8366 0.0000 0.3157 0.0000
# 3 41.1339 13.8366 60.0581 0.0002 0.8109 0.0000
# 4 0.0002 0.0000 0.0002 -14.0738 0.0002 9.2105
# 5 -7.1681 0.3157 0.8109 0.0002 37.0223 0.0000
# 6 0.0000 0.0000 0.0000 9.2105 0.0000 31.1884
#
#
#
# Elastic Compliance Matrix: (Units=1/GPa)
#
#
# Indices 1 2 3 4 5 6 
#
# 1 0.011171 -0.005870 -0.006330 0.000000 0.002352 0.000000
# 2 -0.005870 0.016168 0.000313 0.000000 -0.001281 0.000000
# 3 -0.006330 0.000313 0.020937 0.000000 -0.001687 0.000000
# 4 0.000000 0.000000 0.000000 -0.059546 0.000000 0.017585
# 5 0.002352 -0.001281 -0.001687 0.000000 0.027514 0.000000
# 6 0.000000 0.000000 0.000000 0.017585 0.000000 0.026870
#
#
# Mechanical properties :
#
#
# Convention : Reuss Voigt Hill
#
# Bulk Modulus (GPa) = 40.81548 54.36258 47.58903
# Shear Modulus (GPa) = 66.61770 22.52776 44.57273
#
# Velocity S-wave (km/s) = 5.70261 3.31618 4.66459
# Velocity P-wave (km/s) = 7.95512 6.41873 7.22786
#
# Compressibility (1/GPa) = 0.02450051
#
# Stress axis : x y z
#
# Youngs Moduli (GPa) = 89.51972 61.85132 47.76278
#
# Poissons Ratio (x) = 0.36307 0.30235
# Poissons Ratio (y) = 0.52549 -0.01495
# Poissons Ratio (z) = 0.56668 -0.01935
#
# Static dielectric constant tensor:
#      x y z
#    x 3.986490 0.000000 -0.159810 
#    y 0.000000 3.765450 0.000000 
#    z -0.159810 0.000000 3.383400 
# 
# 
# High freq. dielectric constant tensor:
#      x y z
#    x 1.814540 0.000000 -0.007540 
#    y 0.000000 1.805520 0.000000 
#    z -0.007540 0.000000 1.785550 
# 
# From -- ./inp_files/260462.got.cif
#   From: 2010.06.25/outbox.cif.g09.slc.cpg/sg12_131_cif.got.tgz:260462.got - 2010.06.28 00:19:55.
