data_PCOD8115832
_publ_section_title
;
Structure prediction by ZEFSAII (Michael W. Deem and Ramdas Pophale) SiO2 
 PCOD8115832
Probable space group: C 2/M
;
_chemical_formula_sum "Si O2"
_cell_formula_units_Z 32
_cell_length_a 13.325582
_cell_length_b 22.232149
_cell_length_c 13.258230
_cell_angle_alpha 90.000000
_cell_angle_beta 158.671997
_cell_angle_gamma 90.000000
_cell_volume 1428.579116
_symmetry_space_group_name_H-M "C 2/M"
_symmetry_group_IT_number 12
_symmetry_cell_setting 'monoclinic'
loop_
_space_group_symop_operation_xyz
x,y,z
-x,y,-z
-x,-y,-z
x,-y,z
1/2+x,1/2+y,z
1/2-x,1/2+y,-z
1/2-x,1/2-y,-z
1/2+x,1/2-y,z
loop_
_atom_site_type_symbol
_atom_site_label
_atom_site_fract_x
_atom_site_fract_y
_atom_site_fract_z
Si Si1 0.787269 0.500000 0.597244
Si Si2 0.630800 0.369923 0.515250
Si Si3 0.854029 0.000000 0.024762
Si Si4 0.734111 0.880807 0.800322
Si Si5 0.326949 0.181543 0.054790
O O1 0.709157 0.440440 0.586953
O O2 0.114409 0.500000 0.885019
O O3 0.644800 0.500000 0.354820
O O4 0.500000 0.353472 0.500000
O O5 0.898660 0.327429 0.754834
O O6 0.420698 0.355349 0.228300
O O7 0.845052 0.056382 0.944060
O O8 0.500000 0.890954 0.500000
O O9 0.606509 0.843526 0.772386
O O10 0.000000 0.847248 0.000000
O O11 0.250000 0.250000 0.000000
#
# Coordination Sequence:
#
# PCOD8115832 Si02
#       5
#     4   8   4   8   8
#     4  12  21  43  72 103 140 179 218 289 355 410
#     4  12  25  46  74 104 137 181 229 287 351 410
#     4  12  22  41  69  97 146 177 221 281 350 406
#     4  12  24  42  68 100 135 180 226 278 343 405
#     4  12  27  48  69  99 140 185 234 287 334 405
#
# _framework density 22.39988
#
# number of rings (size 3 to 8) (size 9 to 14) (size 15 to 20)
#    0.000    0.000    5.000    5.625    0.000    3.000 
#    0.000    3.750    0.000    0.000    0.000    0.000 
#    0.000    0.000    0.000    0.000    0.000    0.000 
#
# Total GULP energy -198506.283753 kJ/mol
# GULP energy per Si atom -12406.642735 kJ/mol
# Density = 2.234890 g / cm^3
# Si number density = 22.399880 Si / 1000 Ang^3
#
#
#
# Elastic Constant Matrix: (Units=GPa)
#
#
# Indices 1 2 3 4 5 6 
#
# 1 124.8930 52.1487 23.5962 -0.0002 19.8388 0.0003
# 2 52.1487 121.0451 16.5780 -0.0038 4.7246 -0.0103
# 3 23.5962 16.5780 88.9860 -0.0051 15.6237 -0.0090
# 4 -0.0002 -0.0038 -0.0051 15.0633 -0.0010 21.6662
# 5 19.8388 4.7246 15.6237 -0.0010 46.7589 -0.0112
# 6 0.0003 -0.0103 -0.0090 21.6662 -0.0112 -13.0876
#
#
#
# Elastic Compliance Matrix: (Units=1/GPa)
#
#
# Indices 1 2 3 4 5 6 
#
# 1 0.010614 -0.004241 -0.001390 -0.000004 -0.003610 0.000001
# 2 -0.004241 0.010178 -0.000963 0.000004 0.001093 -0.000001
# 3 -0.001390 -0.000963 0.012392 0.000003 -0.003453 0.000000
# 4 -0.000004 0.000004 0.000003 0.019634 0.000008 0.032504
# 5 -0.003610 0.001093 -0.003453 0.000008 0.023961 -0.000005
# 6 0.000001 -0.000001 0.000000 0.032504 -0.000005 -0.022598
#
#
# Mechanical properties :
#
#
# Convention : Reuss Voigt Hill
#
# Bulk Modulus (GPa) = 50.01576 57.73002 53.87289
# Shear Modulus (GPa) = 67.53420 25.92035 46.72727
#
# Velocity S-wave (km/s) = 5.49680 3.40540 4.57228
# Velocity P-wave (km/s) = 7.91603 6.42579 7.20952
#
# Compressibility (1/GPa) = 0.01999370
#
# Stress axis : x y z
#
# Youngs Moduli (GPa) = 94.21529 98.25178 80.69579
#
# Poissons Ratio (x) = 0.41672 0.11221
# Poissons Ratio (y) = 0.39960 0.07774
# Poissons Ratio (z) = 0.13100 0.09465
#
# Static dielectric constant tensor:
#      x y z
#    x 4.244710 0.000050 0.149160 
#    y 0.000050 5.750460 0.000070 
#    z 0.149160 0.000070 4.150180 
# 
# 
# High freq. dielectric constant tensor:
#      x y z
#    x 1.895560 0.000000 0.007200 
#    y 0.000000 1.877790 0.000000 
#    z 0.007200 0.000000 1.897200 
# 
# From -- ./inp_files/6095.got.cif
#   From: 2010.06.25/outbox.cif.g09.slc.cpg/sg12_4_cif.got.tgz:6095.got - 2010.06.28 00:19:55.
