data_PCOD8115698
_publ_section_title
;
Structure prediction by ZEFSAII (Michael W. Deem and Ramdas Pophale) SiO2 
 PCOD8115698
Probable space group: C 2/M
;
_chemical_formula_sum "Si O2"
_cell_formula_units_Z 20
_cell_length_a 11.252847
_cell_length_b 9.522226
_cell_length_c 9.646332
_cell_angle_alpha 90.000000
_cell_angle_beta 47.311854
_cell_angle_gamma 90.000000
_cell_volume 759.771278
_symmetry_space_group_name_H-M "C 2/M"
_symmetry_group_IT_number 12
_symmetry_cell_setting 'monoclinic'
loop_
_space_group_symop_operation_xyz
x,y,z
-x,y,-z
-x,-y,-z
x,-y,z
1/2+x,1/2+y,z
1/2-x,1/2+y,-z
1/2-x,1/2-y,-z
1/2+x,1/2-y,z
loop_
_atom_site_type_symbol
_atom_site_label
_atom_site_fract_x
_atom_site_fract_y
_atom_site_fract_z
Si Si1 0.906989 0.000000 0.719094
Si Si2 0.685296 0.000000 0.324025
Si Si3 0.058900 0.796309 0.804904
Si Si4 0.082241 0.500000 0.104611
O O1 0.000000 0.000000 0.500000
O O2 0.956265 0.859490 0.760756
O O3 0.708607 0.000000 0.873452
O O4 0.500000 0.000000 0.500000
O O5 0.758466 0.859152 0.340277
O O6 0.699795 0.000000 0.145353
O O7 0.041679 0.629819 0.805149
O O8 0.000000 0.852785 0.000000
#
# Coordination Sequence:
#
# PCOD8115698 Si02
#       4
#     4   4   8   4
#     4  11  24  48  84 119 160 208 265 324 394 468
#     4  11  26  50  79 114 161 209 262 329 386 461
#     4  11  24  52  80 112 157 209 265 315 393 473
#     4  12  25  49  84 115 159 212 256 329 393 462
#
# _framework density 26.323709999999998
#
# number of rings (size 3 to 8) (size 9 to 14) (size 15 to 20)
#    0.000    0.800    4.000    3.000    0.000    3.200 
#   14.400    1.000    0.000    0.000    0.000    0.000 
#    0.000    0.000    0.000    0.000    0.000    0.000 
#
# Total GULP energy -123924.873911 kJ/mol
# GULP energy per Si atom -12392.487391 kJ/mol
# Density = 2.626380 g / cm^3
# Si number density = 26.323710 Si / 1000 Ang^3
#
#
#
# Elastic Constant Matrix: (Units=GPa)
#
#
# Indices 1 2 3 4 5 6 
#
# 1 131.2927 113.7975 30.6052 0.0000 -10.4056 0.0000
# 2 113.7975 242.8161 76.5935 0.0000 -22.2779 0.0000
# 3 30.6052 76.5935 126.0317 0.0000 -7.5560 0.0000
# 4 0.0000 0.0000 0.0000 -103.7301 0.0000 -103.4765
# 5 -10.4056 -22.2779 -7.5560 0.0000 63.4174 0.0000
# 6 0.0000 0.0000 0.0000 -103.4765 0.0000 -45.6269
#
#
#
# Elastic Compliance Matrix: (Units=1/GPa)
#
#
# Indices 1 2 3 4 5 6 
#
# 1 0.012872 -0.006244 0.000669 0.000000 -0.000002 0.000000
# 2 -0.006244 0.008256 -0.003413 0.000000 0.001469 0.000000
# 3 0.000669 -0.003413 0.009851 0.000000 0.000084 0.000000
# 4 0.000000 0.000000 0.000000 0.007637 0.000000 -0.017320
# 5 -0.000002 0.001469 0.000084 0.000000 0.016294 0.000000
# 6 0.000000 0.000000 0.000000 -0.017320 0.000000 0.017362
#
#
# Mechanical properties :
#
#
# Convention : Reuss Voigt Hill
#
# Bulk Modulus (GPa) = 76.90444 104.68144 90.79294
# Shear Modulus (GPa) = 52.86291 1.42171 27.14231
#
# Velocity S-wave (km/s) = 4.48614 0.73570 3.21455
# Velocity P-wave (km/s) = 7.49081 6.36985 6.95296
#
# Compressibility (1/GPa) = 0.01300315
#
# Stress axis : x y z
#
# Youngs Moduli (GPa) = 77.68583 121.12501 101.50758
#
# Poissons Ratio (x) = 0.75628 -0.06786
# Poissons Ratio (y) = 0.48505 0.34646
# Poissons Ratio (z) = -0.05194 0.41341
#
# Static dielectric constant tensor:
#      x y z
#    x 5.343720 0.000000 0.794470 
#    y 0.000000 4.579870 0.000000 
#    z 0.794470 0.000000 5.232660 
# 
# 
# High freq. dielectric constant tensor:
#      x y z
#    x 2.074480 0.000000 0.010540 
#    y 0.000000 2.058320 0.000000 
#    z 0.010540 0.000000 2.046700 
# 
# From -- ./inp_files/42934.got.cif
#   From: 2010.06.25/outbox.cif.g09.slc.cpg/sg12_22_cif.got.tgz:42934.got - 2010.06.28 00:19:55.
