data_PCOD8115879
_publ_section_title
;
Structure prediction by ZEFSAII (Michael W. Deem and Ramdas Pophale) SiO2 
 PCOD8115879
Probable space group: C 2/M
;
_chemical_formula_sum "Si O2"
_cell_formula_units_Z 40
_cell_length_a 9.913240
_cell_length_b 24.411229
_cell_length_c 7.775236
_cell_angle_alpha 90.000000
_cell_angle_beta 95.377275
_cell_angle_gamma 90.000000
_cell_volume 1873.282990
_symmetry_space_group_name_H-M "C 2/M"
_symmetry_group_IT_number 12
_symmetry_cell_setting 'monoclinic'
loop_
_space_group_symop_operation_xyz
x,y,z
-x,y,-z
-x,-y,-z
x,-y,z
1/2+x,1/2+y,z
1/2-x,1/2+y,-z
1/2-x,1/2-y,-z
1/2+x,1/2-y,z
loop_
_atom_site_type_symbol
_atom_site_label
_atom_site_fract_x
_atom_site_fract_y
_atom_site_fract_z
Si Si1 0.298864 0.562908 0.339125
Si Si2 0.644391 0.664790 0.086206
Si Si3 0.624202 0.846263 0.138259
Si Si4 0.102413 0.937717 0.272613
Si Si5 0.383865 0.254093 0.620328
O O1 0.261977 0.500000 0.293382
O O2 0.181615 0.600968 0.246157
O O3 0.309279 0.571378 0.545287
O O4 0.445093 0.578545 0.279182
O O5 0.659769 0.599768 0.126184
O O6 0.655163 0.695265 0.266121
O O7 0.500000 0.682768 0.000000
O O8 0.759015 0.681623 0.963766
O O9 0.576348 0.800653 0.269213
O O10 0.500000 0.863888 0.000000
O O11 0.114695 0.000000 0.211680
O O12 0.500000 0.269902 0.500000
O O13 0.250000 0.250000 0.500000
#
# Coordination Sequence:
#
# PCOD8115879 Si02
#       5
#     8   8   8   8   8
#     4   9  19  38  64  93 126 167 211 255 304 370
#     4  12  23  39  66  95 124 161 210 263 316 366
#     4  12  25  42  60  94 137 164 199 261 323 373
#     4   9  19  37  65  97 124 157 214 268 303 356
#     4  12  26  44  66  88 121 170 219 256 306 376
#
# _framework density 21.352886999999999
#
# number of rings (size 3 to 8) (size 9 to 14) (size 15 to 20)
#    0.000    1.200    2.000    6.000    2.800    1.600 
#    0.000    0.000    0.000    3.000    0.000    0.000 
#    0.000    0.000    0.000    0.000    0.000    0.000 
#
# Total GULP energy -248016.239333 kJ/mol
# GULP energy per Si atom -12400.811967 kJ/mol
# Density = 2.130429 g / cm^3
# Si number density = 21.352887 Si / 1000 Ang^3
#
#
#
# Elastic Constant Matrix: (Units=GPa)
#
#
# Indices 1 2 3 4 5 6 
#
# 1 85.2888 2.8336 26.1088 0.0000 14.4280 0.0000
# 2 2.8336 76.2824 16.4916 0.0000 8.4387 0.0000
# 3 26.1088 16.4916 75.3593 0.0000 13.3313 0.0000
# 4 0.0000 0.0000 0.0000 31.1889 0.0000 -15.0203
# 5 14.4280 8.4387 13.3313 0.0000 51.6822 0.0000
# 6 0.0000 0.0000 0.0000 -15.0203 0.0000 0.4509
#
#
#
# Elastic Compliance Matrix: (Units=1/GPa)
#
#
# Indices 1 2 3 4 5 6 
#
# 1 0.013500 0.000745 -0.004351 0.000000 -0.002768 0.000000
# 2 0.000745 0.013919 -0.003002 0.000000 -0.001706 0.000000
# 3 -0.004351 -0.003002 0.015856 0.000000 -0.002385 0.000000
# 4 0.000000 0.000000 0.000000 -0.002132 0.000000 -0.071003
# 5 -0.002768 -0.001706 -0.002385 0.000000 0.021016 0.000000
# 6 0.000000 0.000000 0.000000 -0.071003 0.000000 -0.147434
#
#
# Mechanical properties :
#
#
# Convention : Reuss Voigt Hill
#
# Bulk Modulus (GPa) = 33.26668 36.42206 34.84437
# Shear Modulus (GPa) = -80.59450 29.43083 -25.58183
#
# Velocity S-wave (km/s) = -6.15029 3.71658 -3.46504
# Velocity P-wave (km/s) = 5.90097 5.95916 0.58744
#
# Compressibility (1/GPa) = 0.03006011
#
# Stress axis : x y z
#
# Youngs Moduli (GPa) = 74.07278 71.84237 63.06723
#
# Poissons Ratio (x) = -0.05355 0.27438
# Poissons Ratio (y) = -0.05521 0.18936
# Poissons Ratio (z) = 0.32226 0.21570
#
# Static dielectric constant tensor:
#      x y z
#    x 3.638350 0.000000 0.060480 
#    y 0.000000 3.996500 0.000000 
#    z 0.060480 0.000000 4.032310 
# 
# 
# High freq. dielectric constant tensor:
#      x y z
#    x 1.814460 0.000000 0.008960 
#    y 0.000000 1.844450 0.000000 
#    z 0.008960 0.000000 1.859440 
# 
# From -- ./inp_files/39432.got.cif
#   From: 2010.06.25/outbox.cif.g09.slc.cpg/sg12_20_cif.got.tgz:39432.got - 2010.06.28 00:19:55.
