data_PCOD8115259
_publ_section_title
;
Structure prediction by ZEFSAII (Michael W. Deem and Ramdas Pophale) SiO2 
 PCOD8115259
Probable space group: C 2/M
;
_chemical_formula_sum "Si O2"
_cell_formula_units_Z 48
_cell_length_a 29.511135
_cell_length_b 15.439075
_cell_length_c 14.799313
_cell_angle_alpha 90.000000
_cell_angle_beta 19.824971
_cell_angle_gamma 90.000000
_cell_volume 2286.851372
_symmetry_space_group_name_H-M "C 2/M"
_symmetry_group_IT_number 12
_symmetry_cell_setting 'monoclinic'
loop_
_space_group_symop_operation_xyz
x,y,z
-x,y,-z
-x,-y,-z
x,-y,z
1/2+x,1/2+y,z
1/2-x,1/2+y,-z
1/2-x,1/2-y,-z
1/2+x,1/2-y,z
loop_
_atom_site_type_symbol
_atom_site_label
_atom_site_fract_x
_atom_site_fract_y
_atom_site_fract_z
Si Si1 0.549711 0.903409 0.210101
Si Si2 0.223771 0.144635 0.353076
Si Si3 0.649530 0.101353 0.699186
Si Si4 0.215253 0.344401 0.381850
Si Si5 0.566267 0.403648 0.154230
Si Si6 0.893245 0.242215 0.775405
O O1 0.403809 0.897089 0.440672
O O2 0.568503 0.834423 0.254009
O O3 0.566340 0.000000 0.219666
O O4 0.654529 0.890610 0.933544
O O5 0.252134 0.123437 0.403692
O O6 0.203917 0.245578 0.372282
O O7 0.090151 0.097421 0.572825
O O8 0.708846 0.150655 0.501742
O O9 0.646802 0.000000 0.683313
O O10 0.500000 0.135578 0.000000
O O11 0.355430 0.383504 0.085452
O O12 0.602327 0.500000 0.121663
O O13 0.611188 0.334200 0.143776
O O14 0.000000 0.215973 0.500000
O O15 0.750000 0.250000 0.000000
#
# Coordination Sequence:
#
# PCOD8115259 Si02
#       6
#     8   8   8   8   8   8
#     4  12  24  45  74 100 132 182 229 274 338 412
#     4  12  23  44  68  99 140 184 226 277 335 399
#     4  11  23  39  65 103 136 179 238 277 317 392
#     4  12  23  44  68  99 140 182 226 282 331 391
#     4  12  26  45  70 102 138 178 223 280 347 404
#     4  12  26  46  72  99 138 171 220 290 346 407
#
# _framework density 20.989557999999999
#
# number of rings (size 3 to 8) (size 9 to 14) (size 15 to 20)
#    0.000    0.167    5.000    5.500    0.000    2.000 
#    0.000    1.667    0.000    0.000    0.000    0.000 
#    0.000    0.000    0.000    0.000    0.000    0.000 
#
# Total GULP energy -297790.764362 kJ/mol
# GULP energy per Si atom -12407.948515 kJ/mol
# Density = 2.094178 g / cm^3
# Si number density = 20.989558 Si / 1000 Ang^3
#
#
#
# Elastic Constant Matrix: (Units=GPa)
#
#
# Indices 1 2 3 4 5 6 
#
# 1 98.7011 24.5113 16.5938 0.0005 -5.5540 -0.0001
# 2 24.5113 144.9536 23.2753 0.0002 10.4530 0.0000
# 3 16.5938 23.2753 77.1854 0.0007 5.7871 -0.0001
# 4 0.0005 0.0002 0.0007 15.2126 -0.0002 -11.6349
# 5 -5.5540 10.4530 5.7871 -0.0002 33.2527 0.0000
# 6 -0.0001 0.0000 -0.0001 -11.6349 0.0000 -2.0318
#
#
#
# Elastic Compliance Matrix: (Units=1/GPa)
#
#
# Indices 1 2 3 4 5 6 
#
# 1 0.011065 -0.001739 -0.002061 0.000000 0.002753 0.000000
# 2 -0.001739 0.007647 -0.001753 0.000000 -0.002389 0.000000
# 3 -0.002061 -0.001753 0.014096 0.000000 -0.002246 0.000001
# 4 0.000000 0.000000 0.000000 0.012219 0.000000 -0.069971
# 5 0.002753 -0.002389 -0.002246 0.000000 0.031674 0.000000
# 6 0.000000 0.000000 0.000001 -0.069971 0.000000 -0.091487
#
#
# Mechanical properties :
#
#
# Convention : Reuss Voigt Hill
#
# Bulk Modulus (GPa) = 46.07816 49.95564 48.01690
# Shear Modulus (GPa) = 1407.36721 26.38401 716.87561
#
# Velocity S-wave (km/s) = 25.92227 3.54927 18.50083
# Velocity P-wave (km/s) = 30.29773 6.37561 21.89293
#
# Compressibility (1/GPa) = 0.02170225
#
# Stress axis : x y z
#
# Youngs Moduli (GPa) = 90.37673 130.77871 70.94259
#
# Poissons Ratio (x) = 0.22738 0.14621
# Poissons Ratio (y) = 0.15713 0.12436
# Poissons Ratio (z) = 0.18626 0.22924
#
# Static dielectric constant tensor:
#      x y z
#    x 3.724520 0.000000 0.057940 
#    y 0.000000 4.067330 0.000000 
#    z 0.057940 0.000000 3.979310 
# 
# 
# High freq. dielectric constant tensor:
#      x y z
#    x 1.817540 0.000000 0.000770 
#    y 0.000000 1.838010 0.000000 
#    z 0.000770 0.000000 1.838780 
# 
# From -- ./inp_files/251396.got.cif
#   From: 2010.06.25/outbox.cif.g09.slc.cpg/sg12_126_cif.got.tgz:251396.got - 2010.06.28 00:19:55.
