data_PCOD8115188
_publ_section_title
;
Structure prediction by ZEFSAII (Michael W. Deem and Ramdas Pophale) SiO2 
 PCOD8115188
Probable space group: C 2/M
;
_chemical_formula_sum "Si O2"
_cell_formula_units_Z 64
_cell_length_a 29.684829
_cell_length_b 8.712289
_cell_length_c 14.722461
_cell_angle_alpha 90.000000
_cell_angle_beta 51.816688
_cell_angle_gamma 90.000000
_cell_volume 2992.886274
_symmetry_space_group_name_H-M "C 2/M"
_symmetry_group_IT_number 12
_symmetry_cell_setting 'monoclinic'
loop_
_space_group_symop_operation_xyz
x,y,z
-x,y,-z
-x,-y,-z
x,-y,z
1/2+x,1/2+y,z
1/2-x,1/2+y,-z
1/2-x,1/2-y,-z
1/2+x,1/2-y,z
loop_
_atom_site_type_symbol
_atom_site_label
_atom_site_fract_x
_atom_site_fract_y
_atom_site_fract_z
Si Si1 0.809402 0.671622 0.912640
Si Si2 0.138174 0.330742 0.335253
Si Si3 0.386325 0.319547 0.962465
Si Si4 0.500328 0.819036 0.764768
Si Si5 0.302458 0.321141 0.581696
Si Si6 0.372638 0.180121 0.333761
Si Si7 0.961757 0.832406 0.633688
Si Si8 0.820034 0.181225 0.225632
O O1 0.810689 0.500000 0.951903
O O2 0.811234 0.666372 0.801038
O O3 0.859859 0.767237 0.898878
O O4 0.750000 0.750000 0.000000
O O5 0.128865 0.500000 0.390433
O O6 0.149649 0.210238 0.401085
O O7 0.085533 0.287608 0.337437
O O8 0.395086 0.500000 0.951769
O O9 0.449160 0.242367 0.893317
O O10 0.344360 0.269336 0.096708
O O11 0.561725 0.773207 0.729829
O O12 0.498389 0.740624 0.668889
O O13 0.493990 0.000000 0.761719
O O14 0.287990 0.500000 0.593885
O O15 0.327465 0.266495 0.454776
O O16 0.245930 0.229093 0.680884
O O17 0.359295 0.230532 0.248498
O O18 0.362725 0.000000 0.358776
O O19 0.000000 0.861962 0.500000
O O20 0.937088 0.000000 0.695140
O O21 0.824971 0.000000 0.234612
#
# Coordination Sequence:
#
# PCOD8115188 Si02
#       8
#     8   8   8   8   8   8   8   8
#     4  11  23  38  60  90 126 167 211 258 312 374
#     4  11  23  39  60  90 126 166 209 252 308 375
#     4  11  24  42  66  94 130 172 217 270 324 386
#     4  11  24  42  65  94 130 172 217 268 325 387
#     4  12  25  42  67  98 132 170 215 271 329 390
#     4  11  25  45  69  96 128 170 217 271 332 392
#     4  11  23  38  60  91 126 166 212 259 311 375
#     4  11  25  45  68  96 129 169 217 271 332 392
#
# _framework density 21.384041
#
# number of rings (size 3 to 8) (size 9 to 14) (size 15 to 20)
#    0.000    0.875    1.250    5.625    0.000   12.000 
#    0.000    2.500    0.000    0.000    0.000    0.000 
#    0.000    0.000    0.000    0.000    0.000    0.000 
#
# Total GULP energy -396851.293631 kJ/mol
# GULP energy per Si atom -12401.602926 kJ/mol
# Density = 2.133537 g / cm^3
# Si number density = 21.384041 Si / 1000 Ang^3
#
#
#
# Elastic Constant Matrix: (Units=GPa)
#
#
# Indices 1 2 3 4 5 6 
#
# 1 91.7675 20.5915 16.9658 0.0000 1.8984 0.0000
# 2 20.5915 99.2313 25.7671 -0.0001 -3.3948 0.0000
# 3 16.9658 25.7671 95.4281 0.0000 -2.3798 0.0000
# 4 0.0000 -0.0001 0.0000 38.7190 0.0000 -0.0904
# 5 1.8984 -3.3948 -2.3798 0.0000 37.0119 0.0000
# 6 0.0000 0.0000 0.0000 -0.0904 0.0000 37.1916
#
#
#
# Elastic Compliance Matrix: (Units=1/GPa)
#
#
# Indices 1 2 3 4 5 6 
#
# 1 0.011660 -0.002050 -0.001542 0.000000 -0.000885 0.000000
# 2 -0.002050 0.011222 -0.002642 0.000000 0.000965 0.000000
# 3 -0.001542 -0.002642 0.011481 0.000000 0.000575 0.000000
# 4 0.000000 0.000000 0.000000 0.025827 0.000000 0.000063
# 5 -0.000885 0.000965 0.000575 0.000000 0.027189 0.000000
# 6 0.000000 0.000000 0.000000 0.000063 0.000000 0.026888
#
#
# Mechanical properties :
#
#
# Convention : Reuss Voigt Hill
#
# Bulk Modulus (GPa) = 45.66819 45.89728 45.78274
# Shear Modulus (GPa) = 37.30451 37.45800 37.38125
#
# Velocity S-wave (km/s) = 4.18126 4.18985 4.18555
# Velocity P-wave (km/s) = 6.68678 6.70197 6.69438
#
# Compressibility (1/GPa) = 0.02189708
#
# Stress axis : x y z
#
# Youngs Moduli (GPa) = 85.76071 89.11292 87.10197
#
# Poissons Ratio (x) = 0.18265 0.13428
# Poissons Ratio (y) = 0.17578 0.23009
# Poissons Ratio (z) = 0.13222 0.23540
#
# Static dielectric constant tensor:
#      x y z
#    x 4.048210 0.000000 -0.370760 
#    y 0.000000 4.732440 0.000000 
#    z -0.370760 0.000000 3.939280 
# 
# 
# High freq. dielectric constant tensor:
#      x y z
#    x 1.839310 0.000000 -0.002440 
#    y 0.000000 1.853330 0.000000 
#    z -0.002440 0.000000 1.850990 
# 
# From -- ./inp_files/249758.got.cif
#   From: 2010.06.25/outbox.cif.g09.slc.cpg/sg12_125_cif.got.tgz:249758.got - 2010.06.28 00:19:55.
