data_PCOD8115830
_publ_section_title
;
Structure prediction by ZEFSAII (Michael W. Deem and Ramdas Pophale) SiO2 
 PCOD8115830
Probable space group: C 2/M
;
_chemical_formula_sum "Si O2"
_cell_formula_units_Z 32
_cell_length_a 7.532063
_cell_length_b 17.472070
_cell_length_c 11.004265
_cell_angle_alpha 90.000000
_cell_angle_beta 68.821953
_cell_angle_gamma 90.000000
_cell_volume 1350.363289
_symmetry_space_group_name_H-M "C 2/M"
_symmetry_group_IT_number 12
_symmetry_cell_setting 'monoclinic'
loop_
_space_group_symop_operation_xyz
x,y,z
-x,y,-z
-x,-y,-z
x,-y,z
1/2+x,1/2+y,z
1/2-x,1/2+y,-z
1/2-x,1/2-y,-z
1/2+x,1/2-y,z
loop_
_atom_site_type_symbol
_atom_site_label
_atom_site_fract_x
_atom_site_fract_y
_atom_site_fract_z
Si Si1 0.350994 0.088596 0.718768
Si Si2 0.182724 0.697774 0.627532
Si Si3 0.011450 0.158871 0.259608
Si Si4 0.701769 0.838618 0.008913
O O1 0.538353 0.131279 0.621604
O O2 0.171849 0.104099 0.673337
O O3 0.401495 0.000000 0.713126
O O4 0.284768 0.121035 0.865020
O O5 0.250000 0.750000 0.500000
O O6 0.364030 0.660735 0.648373
O O7 0.067577 0.754415 0.748449
O O8 0.135866 0.125512 0.118426
O O9 0.500000 0.857061 0.000000
O O10 0.750000 0.750000 0.000000
#
# Coordination Sequence:
#
# PCOD8115830 Si02
#       4
#     8   8   8   8
#     4  12  28  46  73 117 157 192 247 324 387 441
#     4  12  25  46  77 108 141 201 263 312 365 456
#     4  12  23  43  75 107 141 199 255 303 371 454
#     4  12  21  41  72 109 151 197 250 303 370 460
#
# _framework density 23.697327000000001
#
# number of rings (size 3 to 8) (size 9 to 14) (size 15 to 20)
#    0.000    0.000    7.500    3.000    0.000    3.500 
#    0.000    2.500    0.000    3.000    0.000    0.000 
#    0.000    0.000    0.000    0.000    0.000    0.000 
#
# Total GULP energy -198421.162910 kJ/mol
# GULP energy per Si atom -12401.322682 kJ/mol
# Density = 2.364339 g / cm^3
# Si number density = 23.697327 Si / 1000 Ang^3
#
#
#
# Elastic Constant Matrix: (Units=GPa)
#
#
# Indices 1 2 3 4 5 6 
#
# 1 209.4247 59.7003 68.0052 0.0000 -5.2584 0.0000
# 2 59.7003 148.9608 46.4901 0.0000 -19.4446 0.0000
# 3 68.0052 46.4901 106.0339 0.0000 -9.9335 0.0000
# 4 0.0000 0.0000 0.0000 26.9960 0.0000 -4.8626
# 5 -5.2584 -19.4446 -9.9335 0.0000 32.8024 0.0000
# 6 0.0000 0.0000 0.0000 -4.8626 0.0000 30.7891
#
#
#
# Elastic Compliance Matrix: (Units=1/GPa)
#
#
# Indices 1 2 3 4 5 6 
#
# 1 0.006323 -0.001583 -0.003452 0.000000 -0.000970 0.000000
# 2 -0.001583 0.008631 -0.002381 0.000000 0.004142 0.000000
# 3 -0.003452 -0.002381 0.012870 0.000000 0.001933 0.000000
# 4 0.000000 0.000000 0.000000 0.038127 0.000000 0.006022
# 5 -0.000970 0.004142 0.001933 0.000000 0.033370 0.000000
# 6 0.000000 0.000000 0.000000 0.006022 0.000000 0.033430
#
#
# Mechanical properties :
#
#
# Convention : Reuss Voigt Hill
#
# Bulk Modulus (GPa) = 76.97184 90.31231 83.64207
# Shear Modulus (GPa) = 32.91320 37.46576 35.18948
#
# Velocity S-wave (km/s) = 3.73084 3.98051 3.85769
# Velocity P-wave (km/s) = 7.14917 7.70191 7.43068
#
# Compressibility (1/GPa) = 0.01299176
#
# Stress axis : x y z
#
# Youngs Moduli (GPa) = 158.15485 115.85476 77.70148
#
# Poissons Ratio (x) = 0.18345 0.26822
# Poissons Ratio (y) = 0.25043 0.18500
# Poissons Ratio (z) = 0.54593 0.27584
#
# Static dielectric constant tensor:
#      x y z
#    x 4.864740 0.000000 -0.348850 
#    y 0.000000 4.385300 0.000000 
#    z -0.348850 0.000000 4.621580 
# 
# 
# High freq. dielectric constant tensor:
#      x y z
#    x 1.970740 0.000000 -0.013310 
#    y 0.000000 1.887940 0.000000 
#    z -0.013310 0.000000 1.946830 
# 
# From -- ./inp_files/118129.got.cif
#   From: 2010.06.25/outbox.cif.g09.slc.cpg/sg12_60_cif.got.tgz:118129.got - 2010.06.28 00:19:55.
