data_PCOD8115498
_publ_section_title
;
Structure prediction by ZEFSAII (Michael W. Deem and Ramdas Pophale) SiO2 
 PCOD8115498
Probable space group: C 2/M
;
_chemical_formula_sum "Si O2"
_cell_formula_units_Z 56
_cell_length_a 8.846084
_cell_length_b 27.409140
_cell_length_c 20.919578
_cell_angle_alpha 90.000000
_cell_angle_beta 149.920919
_cell_angle_gamma 90.000000
_cell_volume 2542.178094
_symmetry_space_group_name_H-M "C 2/M"
_symmetry_group_IT_number 12
_symmetry_cell_setting 'monoclinic'
loop_
_space_group_symop_operation_xyz
x,y,z
-x,y,-z
-x,-y,-z
x,-y,z
1/2+x,1/2+y,z
1/2-x,1/2+y,-z
1/2-x,1/2-y,-z
1/2+x,1/2-y,z
loop_
_atom_site_type_symbol
_atom_site_label
_atom_site_fract_x
_atom_site_fract_y
_atom_site_fract_z
Si Si1 0.353428 0.500000 0.109415
Si Si2 0.345607 0.667200 0.645054
Si Si3 0.235541 0.911095 0.737152
Si Si4 0.349723 0.944585 0.642176
Si Si5 0.853681 0.000000 0.646930
Si Si6 0.254507 0.861213 0.255555
Si Si7 0.186498 0.729121 0.407445
Si Si8 0.136071 0.088270 0.979884
O O1 0.573568 0.500000 0.251295
O O2 0.444479 0.545560 0.099035
O O3 0.000000 0.500000 0.000000
O O4 0.557541 0.640307 0.670506
O O5 0.417203 0.642434 0.739625
O O6 0.416464 0.724888 0.673749
O O7 0.000000 0.658626 0.500000
O O8 0.401243 0.922723 0.731469
O O9 0.503599 0.906647 0.886827
O O10 0.000055 0.953083 0.667766
O O11 0.526000 0.908420 0.659244
O O12 0.000000 0.943660 0.500000
O O13 0.474575 0.000000 0.682118
O O14 0.500000 0.000000 0.500000
O O15 0.434204 0.811386 0.311414
O O16 0.018141 0.864623 0.110082
O O17 0.500000 0.705107 0.500000
O O18 0.250000 0.750000 0.500000
O O19 0.000000 0.078183 0.000000
#
# Coordination Sequence:
#
# PCOD8115498 Si02
#       8
#     4   8   8   8   4   8   8   8
#     4  12  25  46  77 101 145 209 249 300 365 441
#     4  11  24  43  72 108 141 180 238 302 380 442
#     4  12  24  47  67  99 154 195 244 312 356 435
#     4  11  25  42  65 104 148 190 240 302 379 424
#     4  12  26  46  71 111 150 192 259 315 376 430
#     4  12  25  43  73 105 141 190 245 300 363 447
#     4  11  23  45  74 109 144 180 239 310 383 449
#     4  12  27  46  70 102 145 202 262 291 359 447
#
# _framework density 22.028354
#
# number of rings (size 3 to 8) (size 9 to 14) (size 15 to 20)
#    0.000    0.429    6.429    2.786    3.000    1.143 
#    1.286    0.714    0.000    0.000    0.000    0.000 
#    0.000    0.000    0.000    0.000    0.000    0.000 
#
# Total GULP energy -347222.474289 kJ/mol
# GULP energy per Si atom -12400.802653 kJ/mol
# Density = 2.197822 g / cm^3
# Si number density = 22.028354 Si / 1000 Ang^3
#
#
#
# Elastic Constant Matrix: (Units=GPa)
#
#
# Indices 1 2 3 4 5 6 
#
# 1 98.6064 40.2401 19.2197 -0.0001 -17.4181 0.0007
# 2 40.2401 137.2880 46.8490 -0.0017 5.3817 0.0001
# 3 19.2197 46.8490 131.8844 -0.0086 -1.2855 -0.0034
# 4 -0.0001 -0.0017 -0.0086 29.7249 0.0011 -4.0443
# 5 -17.4181 5.3817 -1.2855 0.0011 36.4819 0.0001
# 6 0.0007 0.0001 -0.0034 -4.0443 0.0001 33.0873
#
#
#
# Elastic Compliance Matrix: (Units=1/GPa)
#
#
# Indices 1 2 3 4 5 6 
#
# 1 0.013032 -0.003938 -0.000434 -0.000001 0.006788 0.000000
# 2 -0.003938 0.009543 -0.002849 0.000000 -0.003388 0.000000
# 3 -0.000434 -0.002849 0.008663 0.000002 0.000518 0.000001
# 4 -0.000001 0.000000 0.000002 0.034211 -0.000001 0.004182
# 5 0.006788 -0.003388 0.000518 -0.000001 0.031170 0.000000
# 6 0.000000 0.000000 0.000001 0.004182 0.000000 0.030734
#
#
# Mechanical properties :
#
#
# Convention : Reuss Voigt Hill
#
# Bulk Modulus (GPa) = 59.53881 64.48848 62.01365
# Shear Modulus (GPa) = 33.92289 37.29015 35.60652
#
# Velocity S-wave (km/s) = 3.92850 4.11886 4.02480
# Velocity P-wave (km/s) = 6.90394 7.20824 7.05773
#
# Compressibility (1/GPa) = 0.01679577
#
# Stress axis : x y z
#
# Youngs Moduli (GPa) = 76.73520 104.78667 115.43548
#
# Poissons Ratio (x) = 0.41261 0.05013
# Poissons Ratio (y) = 0.30215 0.32890
# Poissons Ratio (z) = 0.03332 0.29856
#
# Static dielectric constant tensor:
#      x y z
#    x 4.255430 0.000080 -0.041020 
#    y 0.000080 5.021000 -0.000040 
#    z -0.041020 -0.000040 4.119210 
# 
# 
# High freq. dielectric constant tensor:
#      x y z
#    x 1.883010 0.000000 0.003770 
#    y 0.000000 1.863510 0.000000 
#    z 0.003770 0.000000 1.866630 
# 
# From -- ./inp_files/303098.got.cif
#   From: 2010.06.25/outbox.cif.g09.slc.cpg/sg12_152_cif.got.tgz:303098.got - 2010.06.28 00:19:55.
