data_PCOD8115091
_publ_section_title
;
Structure prediction by ZEFSAII (Michael W. Deem and Ramdas Pophale) SiO2 
 PCOD8115091
Probable space group: C 2/M
;
_chemical_formula_sum "Si O2"
_cell_formula_units_Z 40
_cell_length_a 10.261586
_cell_length_b 25.396452
_cell_length_c 14.614949
_cell_angle_alpha 90.000000
_cell_angle_beta 29.471402
_cell_angle_gamma 90.000000
_cell_volume 1873.873648
_symmetry_space_group_name_H-M "C 2/M"
_symmetry_group_IT_number 12
_symmetry_cell_setting 'monoclinic'
loop_
_space_group_symop_operation_xyz
x,y,z
-x,y,-z
-x,-y,-z
x,-y,z
1/2+x,1/2+y,z
1/2-x,1/2+y,-z
1/2-x,1/2-y,-z
1/2+x,1/2-y,z
loop_
_atom_site_type_symbol
_atom_site_label
_atom_site_fract_x
_atom_site_fract_y
_atom_site_fract_z
Si Si1 0.026668 0.560610 0.380306
Si Si2 0.306417 0.188792 0.951326
Si Si3 0.500000 0.122296 0.000000
Si Si4 0.819248 0.792232 0.532558
Si Si5 0.500000 0.624170 0.000000
Si Si6 0.994828 0.904203 0.397322
O O1 0.112321 0.500000 0.332144
O O2 0.248778 0.589602 0.184233
O O3 0.000000 0.583428 0.500000
O O4 0.740339 0.565164 0.508202
O O5 0.559382 0.181666 0.732701
O O6 0.250000 0.250000 0.000000
O O7 0.355018 0.159983 0.016461
O O8 0.064345 0.160964 0.047405
O O9 0.281072 0.082999 0.177880
O O10 0.750000 0.750000 0.500000
O O11 0.000000 0.764512 0.500000
O O12 0.976354 0.841045 0.393507
O O13 0.000000 0.920703 0.500000
#
# Coordination Sequence:
#
# PCOD8115091 Si02
#       6
#     8   8   4   8   4   8
#     4  11  25  45  71 101 130 172 228 285 342 405
#     4  12  25  38  62  96 133 175 225 266 323 400
#     4  12  21  42  63  87 128 175 211 275 328 388
#     4  11  23  41  60  90 133 174 223 272 325 392
#     4  12  24  46  68  97 138 183 217 277 342 394
#     4  11  22  43  64  94 129 170 219 274 335 400
#
# _framework density 21.346157000000002
#
# number of rings (size 3 to 8) (size 9 to 14) (size 15 to 20)
#    0.000    0.600    6.000    3.300    2.800    1.200 
#    0.000    0.500    0.000    0.000    0.000    0.000 
#    0.000    0.000    0.000    0.000    0.000    0.000 
#
# Total GULP energy -248047.435865 kJ/mol
# GULP energy per Si atom -12402.371793 kJ/mol
# Density = 2.129757 g / cm^3
# Si number density = 21.346157 Si / 1000 Ang^3
#
#
#
# Elastic Constant Matrix: (Units=GPa)
#
#
# Indices 1 2 3 4 5 6 
#
# 1 155.3421 34.4864 36.1306 -0.0002 -7.9729 -0.0006
# 2 34.4864 63.7037 23.7343 -0.0004 -1.5837 -0.0007
# 3 36.1306 23.7343 149.9790 -0.0051 5.6682 -0.0071
# 4 -0.0002 -0.0004 -0.0051 23.5323 0.0008 -3.8082
# 5 -7.9729 -1.5837 5.6682 0.0008 37.9289 0.0016
# 6 -0.0006 -0.0007 -0.0071 -3.8082 0.0016 17.1881
#
#
#
# Elastic Compliance Matrix: (Units=1/GPa)
#
#
# Indices 1 2 3 4 5 6 
#
# 1 0.007630 -0.003593 -0.001332 0.000000 0.001653 -0.000001
# 2 -0.003593 0.018419 -0.002061 0.000000 0.000322 0.000000
# 3 -0.001332 -0.002061 0.007370 0.000002 -0.001467 0.000004
# 4 0.000000 0.000000 0.000002 0.044075 -0.000002 0.009765
# 5 0.001653 0.000322 -0.001467 -0.000002 0.026945 -0.000003
# 6 -0.000001 0.000000 0.000004 0.009765 -0.000003 0.060343
#
#
# Mechanical properties :
#
#
# Convention : Reuss Voigt Hill
#
# Bulk Modulus (GPa) = 51.42446 61.96968 56.69707
# Shear Modulus (GPa) = 26.99247 34.04145 30.51696
#
# Velocity S-wave (km/s) = 3.55986 3.99774 3.78514
# Velocity P-wave (km/s) = 6.40623 7.09952 6.76177
#
# Compressibility (1/GPa) = 0.01944600
#
# Stress axis : x y z
#
# Youngs Moduli (GPa) = 131.06700 54.29235 135.68279
#
# Poissons Ratio (x) = 0.19508 0.18071
# Poissons Ratio (y) = 0.47093 0.27969
# Poissons Ratio (z) = 0.17457 0.11192
#
# Static dielectric constant tensor:
#      x y z
#    x 4.041190 0.000010 -0.049460 
#    y 0.000010 2.696420 -0.000050 
#    z -0.049460 -0.000050 4.263510 
# 
# 
# High freq. dielectric constant tensor:
#      x y z
#    x 1.855810 0.000000 -0.002100 
#    y 0.000000 1.812010 0.000000 
#    z -0.002100 0.000000 1.856110 
# 
# From -- ./inp_files/201147.got.cif
#   From: 2010.06.25/outbox.cif.g09.slc.cpg/sg12_101_cif.got.tgz:201147.got - 2010.06.28 00:19:55.
