data_PCOD8115639
_publ_section_title
;
Structure prediction by ZEFSAII (Michael W. Deem and Ramdas Pophale) SiO2 
 PCOD8115639
Probable space group: C 2/M
;
_chemical_formula_sum "Si O2"
_cell_formula_units_Z 32
_cell_length_a 20.623790
_cell_length_b 7.594951
_cell_length_c 9.917800
_cell_angle_alpha 90.000000
_cell_angle_beta 82.217124
_cell_angle_gamma 90.000000
_cell_volume 1539.181005
_symmetry_space_group_name_H-M "C 2/M"
_symmetry_group_IT_number 12
_symmetry_cell_setting 'monoclinic'
loop_
_space_group_symop_operation_xyz
x,y,z
-x,y,-z
-x,-y,-z
x,-y,z
1/2+x,1/2+y,z
1/2-x,1/2+y,-z
1/2-x,1/2-y,-z
1/2+x,1/2-y,z
loop_
_atom_site_type_symbol
_atom_site_label
_atom_site_fract_x
_atom_site_fract_y
_atom_site_fract_z
Si Si1 0.306240 0.705823 0.588905
Si Si2 0.904548 0.000000 0.932016
Si Si3 0.560449 0.198771 0.573957
Si Si4 0.550177 0.500000 0.786398
Si Si5 0.192036 0.699801 0.115198
O O1 0.319998 0.500000 0.591493
O O2 0.250000 0.750000 0.500000
O O3 0.373489 0.801390 0.531507
O O4 0.282300 0.777315 0.739762
O O5 0.869734 0.175984 0.891319
O O6 0.974824 0.000000 0.845197
O O7 0.905457 0.000000 0.093224
O O8 0.500000 0.265653 0.500000
O O9 0.568479 0.325199 0.699328
O O10 0.547088 0.000000 0.628961
O O11 0.169897 0.500000 0.094608
O O12 0.250000 0.750000 0.000000
#
# Coordination Sequence:
#
# PCOD8115639 Si02
#       5
#     8   4   8   4   8
#     4  12  25  43  69 104 138 175 231 288 342 409
#     4  11  26  46  68 104 132 188 233 271 349 407
#     4  11  24  43  70 102 139 181 228 285 347 404
#     4  11  25  44  72  96 143 180 231 286 329 417
#     4  12  25  45  69  97 139 182 225 280 343 408
#
# _framework density 20.790279000000002
#
# number of rings (size 3 to 8) (size 9 to 14) (size 15 to 20)
#    0.000    0.500    3.750    4.125    3.500    4.000 
#    0.000    2.500    0.000    0.000    0.000    0.000 
#    0.000    0.000    0.000    0.000    0.000    0.000 
#
# Total GULP energy -198528.039333 kJ/mol
# GULP energy per Si atom -12408.002458 kJ/mol
# Density = 2.074296 g / cm^3
# Si number density = 20.790279 Si / 1000 Ang^3
#
#
#
# Elastic Constant Matrix: (Units=GPa)
#
#
# Indices 1 2 3 4 5 6 
#
# 1 110.7046 18.3489 54.0668 0.0000 7.3991 0.0000
# 2 18.3489 160.7207 44.9460 0.0000 11.3611 0.0000
# 3 54.0668 44.9460 165.3235 0.0000 2.9059 0.0000
# 4 0.0000 0.0000 0.0000 30.1365 0.0000 1.5171
# 5 7.3991 11.3611 2.9059 0.0000 31.9624 0.0000
# 6 0.0000 0.0000 0.0000 1.5171 0.0000 31.0369
#
#
#
# Elastic Compliance Matrix: (Units=1/GPa)
#
#
# Indices 1 2 3 4 5 6 
#
# 1 0.010905 -0.000114 -0.003497 0.000000 -0.002166 0.000000
# 2 -0.000114 0.006898 -0.001798 0.000000 -0.002262 0.000000
# 3 -0.003497 -0.001798 0.007668 0.000000 0.000752 0.000000
# 4 0.000000 0.000000 0.000000 0.033264 0.000000 -0.001626
# 5 -0.002166 -0.002262 0.000752 0.000000 0.032524 0.000000
# 6 0.000000 0.000000 0.000000 -0.001626 0.000000 0.032299
#
#
# Mechanical properties :
#
#
# Convention : Reuss Voigt Hill
#
# Bulk Modulus (GPa) = 68.25043 74.60800 71.42922
# Shear Modulus (GPa) = 35.90395 39.91964 37.91179
#
# Velocity S-wave (km/s) = 4.16018 4.38666 4.27492
# Velocity P-wave (km/s) = 7.48167 7.84990 7.66800
#
# Compressibility (1/GPa) = 0.01465192
#
# Stress axis : x y z
#
# Youngs Moduli (GPa) = 91.70384 144.97458 130.40963
#
# Poissons Ratio (x) = 0.01650 0.45607
# Poissons Ratio (y) = 0.01044 0.23451
# Poissons Ratio (z) = 0.32071 0.26071
#
# Static dielectric constant tensor:
#      x y z
#    x 3.766610 0.000000 -0.003450 
#    y 0.000000 3.853610 0.000000 
#    z -0.003450 0.000000 3.975670 
# 
# 
# High freq. dielectric constant tensor:
#      x y z
#    x 1.818090 0.000000 -0.004320 
#    y 0.000000 1.834110 0.000000 
#    z -0.004320 0.000000 1.824420 
# 
# From -- ./inp_files/81807.got.cif
#   From: 2010.06.25/outbox.cif.g09.slc.cpg/sg12_41_cif.got.tgz:81807.got - 2010.06.28 00:19:55.
