data_PCOD8115749
_publ_section_title
;
Structure prediction by ZEFSAII (Michael W. Deem and Ramdas Pophale) SiO2 
 PCOD8115749
Probable space group: C 2/M
;
_chemical_formula_sum "Si O2"
_cell_formula_units_Z 40
_cell_length_a 8.926449
_cell_length_b 24.282721
_cell_length_c 8.412459
_cell_angle_alpha 90.000000
_cell_angle_beta 91.528591
_cell_angle_gamma 90.000000
_cell_volume 1822.822842
_symmetry_space_group_name_H-M "C 2/M"
_symmetry_group_IT_number 12
_symmetry_cell_setting 'monoclinic'
loop_
_space_group_symop_operation_xyz
x,y,z
-x,y,-z
-x,-y,-z
x,-y,z
1/2+x,1/2+y,z
1/2-x,1/2+y,-z
1/2-x,1/2-y,-z
1/2+x,1/2-y,z
loop_
_atom_site_type_symbol
_atom_site_label
_atom_site_fract_x
_atom_site_fract_y
_atom_site_fract_z
Si Si1 0.797371 0.603832 0.138355
Si Si2 0.200076 0.000000 0.642208
Si Si3 0.871665 0.000000 0.727761
Si Si4 0.364276 0.214402 0.605859
Si Si5 0.137267 0.604439 0.228793
Si Si6 0.859205 0.786555 0.895713
O O1 0.694137 0.553746 0.189989
O O2 0.723960 0.661627 0.185590
O O3 0.957362 0.601099 0.228711
O O4 0.807479 0.603411 0.949411
O O5 0.164140 0.000000 0.457269
O O6 0.300064 0.052689 0.677677
O O7 0.052044 0.000000 0.749027
O O8 0.500000 0.196317 0.500000
O O9 0.250000 0.250000 0.500000
O O10 0.297184 0.158265 0.679290
O O11 0.424810 0.250481 0.754009
O O12 0.750000 0.750000 0.000000
O O13 0.000000 0.807918 0.000000
#
# Coordination Sequence:
#
# PCOD8115749 Si02
#       6
#     8   4   4   8   8   8
#     4  11  25  46  75 101 138 186 241 287 345 421
#     4  11  28  47  70 104 147 176 230 293 362 424
#     4  11  28  47  70 108 139 182 230 295 359 417
#     4  12  27  44  69 106 145 185 234 291 354 422
#     4  11  25  47  72 103 138 186 235 290 348 424
#     4  12  25  46  72 105 143 189 236 295 353 420
#
# _framework density 21.943987
#
# number of rings (size 3 to 8) (size 9 to 14) (size 15 to 20)
#    0.000    0.600    2.000    4.800    8.400    3.200 
#    0.000    0.000    0.000    0.000    0.000    0.000 
#    0.000    0.000    0.000    0.000    0.000    0.000 
#
# Total GULP energy -248097.447563 kJ/mol
# GULP energy per Si atom -12404.872378 kJ/mol
# Density = 2.189404 g / cm^3
# Si number density = 21.943987 Si / 1000 Ang^3
#
#
#
# Elastic Constant Matrix: (Units=GPa)
#
#
# Indices 1 2 3 4 5 6 
#
# 1 125.4126 72.1180 47.0895 0.0000 4.2869 0.0000
# 2 72.1180 205.2964 58.4528 0.0000 1.3144 0.0000
# 3 47.0895 58.4528 101.2371 0.0000 -2.7967 0.0000
# 4 0.0000 0.0000 0.0000 50.9710 0.0000 1.7054
# 5 4.2869 1.3144 -2.7967 0.0000 37.9901 0.0000
# 6 0.0000 0.0000 0.0000 1.7054 0.0000 47.8036
#
#
#
# Elastic Compliance Matrix: (Units=1/GPa)
#
#
# Indices 1 2 3 4 5 6 
#
# 1 0.010974 -0.002850 -0.003497 0.000000 -0.001397 0.000000
# 2 -0.002850 0.006577 -0.002474 0.000000 -0.000088 0.000000
# 3 -0.003497 -0.002474 0.012973 0.000000 0.001435 0.000000
# 4 0.000000 0.000000 0.000000 0.019642 0.000000 -0.000701
# 5 -0.001397 -0.000088 0.001435 0.000000 0.026589 0.000000
# 6 0.000000 0.000000 0.000000 -0.000701 0.000000 0.020944
#
#
# Mechanical properties :
#
#
# Convention : Reuss Voigt Hill
#
# Bulk Modulus (GPa) = 77.63844 87.47408 82.55626
# Shear Modulus (GPa) = 41.79350 44.30532 43.04941
#
# Velocity S-wave (km/s) = 4.36885 4.49822 4.43401
# Velocity P-wave (km/s) = 7.80425 8.18093 7.99481
#
# Compressibility (1/GPa) = 0.01288022
#
# Stress axis : x y z
#
# Youngs Moduli (GPa) = 91.12833 152.03789 77.08450
#
# Poissons Ratio (x) = 0.43334 0.26958
# Poissons Ratio (y) = 0.25973 0.19073
# Poissons Ratio (z) = 0.31869 0.37619
#
# Static dielectric constant tensor:
#      x y z
#    x 3.932270 0.000000 -0.078970 
#    y 0.000000 4.133400 0.000000 
#    z -0.078970 0.000000 4.211740 
# 
# 
# High freq. dielectric constant tensor:
#      x y z
#    x 1.864170 0.000000 -0.000790 
#    y 0.000000 1.878270 0.000000 
#    z -0.000790 0.000000 1.879620 
# 
# From -- ./inp_files/39382.got.cif
#   From: 2010.06.25/outbox.cif.g09.slc.cpg/sg12_20_cif.got.tgz:39382.got - 2010.06.28 00:19:55.
