data_PCOD8115656
_publ_section_title
;
Structure prediction by ZEFSAII (Michael W. Deem and Ramdas Pophale) SiO2 
 PCOD8115656
Probable space group: C 2/M
;
_chemical_formula_sum "Si O2"
_cell_formula_units_Z 40
_cell_length_a 9.716325
_cell_length_b 9.308092
_cell_length_c 21.297788
_cell_angle_alpha 90.000000
_cell_angle_beta 76.768706
_cell_angle_gamma 90.000000
_cell_volume 1875.049123
_symmetry_space_group_name_H-M "C 2/M"
_symmetry_group_IT_number 12
_symmetry_cell_setting 'monoclinic'
loop_
_space_group_symop_operation_xyz
x,y,z
-x,y,-z
-x,-y,-z
x,-y,z
1/2+x,1/2+y,z
1/2-x,1/2+y,-z
1/2-x,1/2-y,-z
1/2+x,1/2-y,z
loop_
_atom_site_type_symbol
_atom_site_label
_atom_site_fract_x
_atom_site_fract_y
_atom_site_fract_z
Si Si1 0.955501 0.665200 0.136871
Si Si2 0.373313 0.500000 0.561611
Si Si3 0.929961 0.752903 0.650387
Si Si4 0.362657 0.340027 0.264029
Si Si5 0.934469 0.500000 0.438695
Si Si6 0.266970 0.666079 0.062521
O O1 0.906966 0.500000 0.133485
O O2 0.902036 0.720265 0.209249
O O3 0.893240 0.760403 0.087366
O O4 0.124513 0.678023 0.118089
O O5 0.500000 0.500000 0.500000
O O6 0.371624 0.362053 0.605538
O O7 0.233337 0.500000 0.534032
O O8 0.798395 0.680753 0.698784
O O9 0.022260 0.637519 0.604920
O O10 0.031361 0.831581 0.688838
O O11 0.376179 0.500000 0.233261
O O12 0.000000 0.500000 0.500000
O O13 0.305024 0.500000 0.045028
O O14 0.250000 0.750000 0.000000
#
# Coordination Sequence:
#
# PCOD8115656 Si02
#       6
#     8   4   8   8   4   8
#     4  11  26  43  68 103 138 180 232 286 340 399
#     4  12  28  46  72 102 136 174 229 277 340 416
#     4  12  26  45  69 100 134 177 224 281 344 406
#     4  12  26  44  69  98 135 177 228 280 341 409
#     4  12  28  46  72 100 138 176 221 285 340 406
#     4  11  24  44  69 102 143 185 231 282 340 404
#
# _framework density 21.332774000000001
#
# number of rings (size 3 to 8) (size 9 to 14) (size 15 to 20)
#    0.000    0.400    4.000    3.600    5.600   10.400 
#    0.000    0.000    0.000    0.000    0.000    0.000 
#    0.000    0.000    0.000    0.000    0.000    0.000 
#
# Total GULP energy -248148.289367 kJ/mol
# GULP energy per Si atom -12407.414468 kJ/mol
# Density = 2.128422 g / cm^3
# Si number density = 21.332774 Si / 1000 Ang^3
#
#
#
# Elastic Constant Matrix: (Units=GPa)
#
#
# Indices 1 2 3 4 5 6 
#
# 1 99.3504 31.7616 14.0732 0.0000 -13.7318 0.0000
# 2 31.7616 156.2454 32.6067 0.0000 0.3353 0.0000
# 3 14.0732 32.6067 89.0268 0.0000 -5.3850 0.0000
# 4 0.0000 0.0000 0.0000 40.7017 0.0000 3.2918
# 5 -13.7318 0.3353 -5.3850 0.0000 26.9928 0.0000
# 6 0.0000 0.0000 0.0000 3.2918 0.0000 32.7961
#
#
#
# Elastic Compliance Matrix: (Units=1/GPa)
#
#
# Indices 1 2 3 4 5 6 
#
# 1 0.011686 -0.002248 -0.000671 0.000000 0.005839 0.000000
# 2 -0.002248 0.007372 -0.002449 0.000000 -0.001724 0.000000
# 3 -0.000671 -0.002449 0.012366 0.000000 0.002156 0.000000
# 4 0.000000 0.000000 0.000000 0.024770 0.000000 -0.002486
# 5 0.005839 -0.001724 0.002156 0.000000 0.040469 0.000000
# 6 0.000000 0.000000 0.000000 -0.002486 0.000000 0.030741
#
#
# Mechanical properties :
#
#
# Convention : Reuss Voigt Hill
#
# Bulk Modulus (GPa) = 48.33604 55.72286 52.02945
# Shear Modulus (GPa) = 34.47426 37.84354 36.15890
#
# Velocity S-wave (km/s) = 4.02434 4.21641 4.12150
# Velocity P-wave (km/s) = 6.65590 7.06269 6.86231
#
# Compressibility (1/GPa) = 0.02068850
#
# Stress axis : x y z
#
# Youngs Moduli (GPa) = 85.57133 135.64928 80.86719
#
# Poissons Ratio (x) = 0.30496 0.05424
# Poissons Ratio (y) = 0.19237 0.19804
# Poissons Ratio (z) = 0.05740 0.33219
#
# Static dielectric constant tensor:
#      x y z
#    x 4.045570 0.000000 0.028320 
#    y 0.000000 3.288270 0.000000 
#    z 0.028320 0.000000 3.912330 
# 
# 
# High freq. dielectric constant tensor:
#      x y z
#    x 1.853700 0.000000 -0.000280 
#    y 0.000000 1.856750 0.000000 
#    z -0.000280 0.000000 1.843630 
# 
# From -- ./inp_files/331778.got.cif
#   From: 2010.06.25/outbox.cif.g09.slc.cpg/sg12_166_cif.got.tgz:331778.got - 2010.06.28 00:19:55.
