data_PCOD8115651
_publ_section_title
;
Structure prediction by ZEFSAII (Michael W. Deem and Ramdas Pophale) SiO2 
 PCOD8115651
Probable space group: C 2/M
;
_chemical_formula_sum "Si O2"
_cell_formula_units_Z 48
_cell_length_a 13.956732
_cell_length_b 28.999129
_cell_length_c 13.971329
_cell_angle_alpha 90.000000
_cell_angle_beta 158.059019
_cell_angle_gamma 90.000000
_cell_volume 2112.870792
_symmetry_space_group_name_H-M "C 2/M"
_symmetry_group_IT_number 12
_symmetry_cell_setting 'monoclinic'
loop_
_space_group_symop_operation_xyz
x,y,z
-x,y,-z
-x,-y,-z
x,-y,z
1/2+x,1/2+y,z
1/2-x,1/2+y,-z
1/2-x,1/2-y,-z
1/2+x,1/2-y,z
loop_
_atom_site_type_symbol
_atom_site_label
_atom_site_fract_x
_atom_site_fract_y
_atom_site_fract_z
Si Si1 0.722397 0.853924 0.016485
Si Si2 0.618204 0.353115 0.209231
Si Si3 0.432243 0.211739 0.624790
Si Si4 0.149405 0.549376 0.909223
Si Si5 0.215171 0.950116 0.348057
Si Si6 0.782129 0.218980 0.219571
O O1 0.482155 0.823891 0.756945
O O2 0.633752 0.905785 0.963806
O O3 0.836483 0.829315 0.215395
O O4 0.916249 0.856599 0.107731
O O5 0.826617 0.315419 0.434023
O O6 0.739313 0.404602 0.303321
O O7 0.500000 0.335674 0.000000
O O8 0.250000 0.250000 0.500000
O O9 0.690012 0.238155 0.828592
O O10 0.104515 0.500000 0.921512
O O11 0.927256 0.556077 0.625918
O O12 0.429469 0.548157 0.123480
O O13 0.263461 0.000000 0.339671
O O14 0.000000 0.223302 0.500000
O O15 0.500000 0.220219 0.000000
#
# Coordination Sequence:
#
# PCOD8115651 Si02
#       6
#     8   8   8   8   8   8
#     4  11  24  44  67  96 136 173 225 279 338 404
#     4  11  25  40  65  99 135 179 225 276 335 399
#     4  12  25  44  67  94 136 181 229 284 337 398
#     4   9  18  36  67  96 126 169 216 268 335 399
#     4   9  18  37  60  91 131 172 216 265 323 397
#     4  12  29  45  70  99 133 180 232 286 344 402
#
# _framework density 22.717905999999999
#
# number of rings (size 3 to 8) (size 9 to 14) (size 15 to 20)
#    0.000    1.333    3.333    1.500    4.667    0.333 
#    0.000    0.000    0.000    6.000    0.000    0.000 
#    0.000    0.667    0.000    0.000    0.000    0.000 
#
# Total GULP energy -297373.676936 kJ/mol
# GULP energy per Si atom -12390.569872 kJ/mol
# Density = 2.266620 g / cm^3
# Si number density = 22.717906 Si / 1000 Ang^3
#
#
#
# Elastic Constant Matrix: (Units=GPa)
#
#
# Indices 1 2 3 4 5 6 
#
# 1 60.2649 36.1896 13.7412 0.0008 6.7220 0.0013
# 2 36.1896 209.4564 29.3248 -0.0025 -3.2651 0.0010
# 3 13.7412 29.3248 109.7662 0.0097 8.4055 -0.0024
# 4 0.0008 -0.0025 0.0097 40.2791 0.0029 -5.4702
# 5 6.7220 -3.2651 8.4055 0.0029 27.3369 0.0002
# 6 0.0013 0.0010 -0.0024 -5.4702 0.0002 9.7764
#
#
#
# Elastic Compliance Matrix: (Units=1/GPa)
#
#
# Indices 1 2 3 4 5 6 
#
# 1 0.019350 -0.003252 -0.001188 0.000000 -0.004781 -0.000003
# 2 -0.003252 0.005534 -0.001212 0.000001 0.001833 0.000000
# 3 -0.001188 -0.001212 0.009802 -0.000002 -0.002867 0.000002
# 4 0.000000 0.000001 -0.000002 0.026868 -0.000002 0.015034
# 5 -0.004781 0.001833 -0.002867 -0.000002 0.038857 -0.000002
# 6 -0.000003 0.000000 0.000002 0.015034 -0.000002 0.110700
#
#
# Mechanical properties :
#
#
# Convention : Reuss Voigt Hill
#
# Bulk Modulus (GPa) = 42.76305 59.77763 51.27034
# Shear Modulus (GPa) = 21.71946 35.49393 28.60669
#
# Velocity S-wave (km/s) = 3.09536 3.95698 3.55239
# Velocity P-wave (km/s) = 5.62489 6.87365 6.28038
#
# Compressibility (1/GPa) = 0.02338468
#
# Stress axis : x y z
#
# Youngs Moduli (GPa) = 51.67940 180.69119 102.01770
#
# Poissons Ratio (x) = 0.58753 0.12115
# Poissons Ratio (y) = 0.16804 0.12363
# Poissons Ratio (z) = 0.06137 0.21897
#
# Static dielectric constant tensor:
#      x y z
#    x 3.652370 -0.000030 -0.079770 
#    y -0.000030 5.557260 -0.000040 
#    z -0.079770 -0.000040 4.102160 
# 
# 
# High freq. dielectric constant tensor:
#      x y z
#    x 1.834720 0.000000 0.009100 
#    y 0.000000 1.936080 0.000000 
#    z 0.009100 0.000000 1.911310 
# 
# From -- ./inp_files/12925.got.cif
#   From: 2010.06.25/outbox.cif.g09.slc.cpg/sg12_7_cif.got.tgz:12925.got - 2010.06.28 00:19:55.
