data_PCOD8115916
_publ_section_title
;
Structure prediction by ZEFSAII (Michael W. Deem and Ramdas Pophale) SiO2 
 PCOD8115916
Probable space group: C 2/M
;
_chemical_formula_sum "Si O2"
_cell_formula_units_Z 44
_cell_length_a 10.147649
_cell_length_b 26.233049
_cell_length_c 9.453176
_cell_angle_alpha 90.000000
_cell_angle_beta 59.321142
_cell_angle_gamma 90.000000
_cell_volume 2164.267339
_symmetry_space_group_name_H-M "C 2/M"
_symmetry_group_IT_number 12
_symmetry_cell_setting 'monoclinic'
loop_
_space_group_symop_operation_xyz
x,y,z
-x,y,-z
-x,-y,-z
x,-y,z
1/2+x,1/2+y,z
1/2-x,1/2+y,-z
1/2-x,1/2-y,-z
1/2+x,1/2-y,z
loop_
_atom_site_type_symbol
_atom_site_label
_atom_site_fract_x
_atom_site_fract_y
_atom_site_fract_z
Si Si1 0.000000 0.374511 0.500000
Si Si2 0.877837 0.151706 0.688242
Si Si3 0.080599 0.230536 0.105473
Si Si4 0.914157 0.941432 0.837614
Si Si5 0.241242 0.058923 0.783068
Si Si6 0.848633 0.703863 0.381908
O O1 0.890801 0.408581 0.659335
O O2 0.882236 0.339454 0.478008
O O3 0.931276 0.177139 0.805836
O O4 0.856743 0.092041 0.735873
O O5 0.724132 0.177685 0.716414
O O6 0.000000 0.160795 0.500000
O O7 0.007157 0.273972 0.241767
O O8 0.250000 0.250000 0.000000
O O9 0.000000 0.222130 0.000000
O O10 0.094169 0.929946 0.764844
O O11 0.891071 0.000000 0.807957
O O12 0.809084 0.927876 0.029877
O O13 0.288111 0.000000 0.744909
O O14 0.750000 0.750000 0.500000
#
# Coordination Sequence:
#
# PCOD8115916 Si02
#       6
#     4   8   8   8   8   8
#     4  12  25  38  70  94 132 178 219 274 342 398
#     4  12  24  41  68  97 133 174 226 278 338 396
#     4  12  27  43  67  96 132 176 225 279 335 403
#     4   9  21  41  68  96 130 171 221 277 331 401
#     4   9  20  41  66  98 131 170 222 270 330 409
#     4  12  26  44  61  95 135 174 221 277 333 400
#
# _framework density 20.330204999999999
#
# number of rings (size 3 to 8) (size 9 to 14) (size 15 to 20)
#    0.000    1.091    3.636    3.545    5.091    0.364 
#    0.000    1.818    0.000    2.182    0.000    0.000 
#    0.000    0.000    0.000    0.000    0.000    0.000 
#
# Total GULP energy -272817.246381 kJ/mol
# GULP energy per Si atom -12400.783926 kJ/mol
# Density = 2.028393 g / cm^3
# Si number density = 20.330205 Si / 1000 Ang^3
#
#
#
# Elastic Constant Matrix: (Units=GPa)
#
#
# Indices 1 2 3 4 5 6 
#
# 1 102.3771 61.4217 54.8087 0.0000 -2.0379 0.0000
# 2 61.4217 124.9132 57.5771 0.0000 -2.0756 0.0000
# 3 54.8087 57.5771 107.1911 0.0000 -13.4692 0.0000
# 4 0.0000 0.0000 0.0000 44.7432 0.0000 11.9026
# 5 -2.0379 -2.0756 -13.4692 0.0000 45.5295 0.0000
# 6 0.0000 0.0000 0.0000 11.9026 0.0000 23.6097
#
#
#
# Elastic Compliance Matrix: (Units=1/GPa)
#
#
# Indices 1 2 3 4 5 6 
#
# 1 0.015810 -0.005318 -0.005368 0.000000 -0.001123 0.000000
# 2 -0.005318 0.012498 -0.004105 0.000000 -0.000883 0.000000
# 3 -0.005368 -0.004105 0.014775 0.000000 0.003943 0.000000
# 4 0.000000 0.000000 0.000000 0.025811 0.000000 -0.013013
# 5 -0.001123 -0.000883 0.003943 0.000000 0.023040 0.000000
# 6 0.000000 0.000000 0.000000 -0.013013 0.000000 0.048916
#
#
# Mechanical properties :
#
#
# Convention : Reuss Voigt Hill
#
# Bulk Modulus (GPa) = 74.07602 75.78846 74.93224
# Shear Modulus (GPa) = 28.58240 33.48807 31.03524
#
# Velocity S-wave (km/s) = 3.75361 4.06298 3.91136
# Velocity P-wave (km/s) = 7.43651 7.70520 7.57205
#
# Compressibility (1/GPa) = 0.01349965
#
# Stress axis : x y z
#
# Youngs Moduli (GPa) = 63.25008 80.01260 67.68399
#
# Poissons Ratio (x) = 0.42553 0.36336
# Poissons Ratio (y) = 0.33638 0.27783
# Poissons Ratio (z) = 0.33956 0.32844
#
# Static dielectric constant tensor:
#      x y z
#    x 3.669850 0.000000 0.080120 
#    y 0.000000 3.193230 0.000000 
#    z 0.080120 0.000000 3.847430 
# 
# 
# High freq. dielectric constant tensor:
#      x y z
#    x 1.783540 0.000000 -0.006070 
#    y 0.000000 1.807720 0.000000 
#    z -0.006070 0.000000 1.803520 
# 
# From -- ./inp_files/51214.got.cif
#   From: 2010.06.25/outbox.cif.g09.slc.cpg/sg12_26_cif.got.tgz:51214.got - 2010.06.28 00:19:55.
