data_PCOD8115565
_publ_section_title
;
Structure prediction by ZEFSAII (Michael W. Deem and Ramdas Pophale) SiO2 
 PCOD8115565
Probable space group: C 2/M
;
_chemical_formula_sum "Si O2"
_cell_formula_units_Z 44
_cell_length_a 9.176557
_cell_length_b 16.510470
_cell_length_c 22.888146
_cell_angle_alpha 90.000000
_cell_angle_beta 140.316189
_cell_angle_gamma 90.000000
_cell_volume 2214.343529
_symmetry_space_group_name_H-M "C 2/M"
_symmetry_group_IT_number 12
_symmetry_cell_setting 'monoclinic'
loop_
_space_group_symop_operation_xyz
x,y,z
-x,y,-z
-x,-y,-z
x,-y,z
1/2+x,1/2+y,z
1/2-x,1/2+y,-z
1/2-x,1/2-y,-z
1/2+x,1/2-y,z
loop_
_atom_site_type_symbol
_atom_site_label
_atom_site_fract_x
_atom_site_fract_y
_atom_site_fract_z
Si Si1 0.252221 0.739878 0.933248
Si Si2 0.387698 0.303736 0.665249
Si Si3 0.500000 0.697936 0.500000
Si Si4 0.616668 0.093981 0.813770
Si Si5 0.909211 0.906721 0.362916
Si Si6 0.213648 0.185961 0.236627
O O1 0.232301 0.648648 0.900175
O O2 0.053576 0.794818 0.846261
O O3 0.500000 0.777499 0.000000
O O4 0.250000 0.750000 0.000000
O O5 0.225712 0.252167 0.572984
O O6 0.450538 0.388044 0.653000
O O7 0.627657 0.254646 0.744660
O O8 0.248193 0.323860 0.681898
O O9 0.476149 0.642168 0.549388
O O10 0.353044 0.121007 0.725964
O O11 0.737740 0.106313 0.787581
O O12 0.639230 0.000000 0.838850
O O13 0.926570 0.000000 0.383649
#
# Coordination Sequence:
#
# PCOD8115565 Si02
#       6
#     8   8   4   8   8   8
#     4  12  22  38  67  94 118 161 208 258 303 370
#     4  12  22  38  67  90 124 164 215 257 301 373
#     4  12  21  38  67  92 120 170 218 258 295 376
#     4  11  24  43  65  93 129 167 203 257 321 373
#     4  11  24  41  62  91 129 166 206 261 319 365
#     4  12  21  42  63  91 125 163 210 252 314 377
#
# _framework density 19.870450000000002
#
# number of rings (size 3 to 8) (size 9 to 14) (size 15 to 20)
#    0.000    0.364    9.091    0.818    0.000    1.091 
#    0.000    0.455    0.000    1.091    0.000    0.000 
#    0.000    0.000    0.000    0.000    0.000    0.000 
#
# Total GULP energy -272642.756031 kJ/mol
# GULP energy per Si atom -12392.852547 kJ/mol
# Density = 1.982522 g / cm^3
# Si number density = 19.870450 Si / 1000 Ang^3
#
#
#
# Elastic Constant Matrix: (Units=GPa)
#
#
# Indices 1 2 3 4 5 6 
#
# 1 149.3540 41.4544 35.7471 0.0000 -15.0172 0.0000
# 2 41.4544 62.6963 35.3814 0.0000 -1.6437 0.0000
# 3 35.7471 35.3814 94.1173 -0.0001 2.3305 0.0000
# 4 0.0000 0.0000 -0.0001 25.5352 0.0000 -3.1388
# 5 -15.0172 -1.6437 2.3305 0.0000 36.1562 0.0000
# 6 0.0000 0.0000 0.0000 -3.1388 0.0000 33.9125
#
#
#
# Elastic Compliance Matrix: (Units=1/GPa)
#
#
# Indices 1 2 3 4 5 6 
#
# 1 0.008767 -0.004793 -0.001616 0.000000 0.003528 0.000000
# 2 -0.004793 0.022937 -0.006790 0.000000 -0.000510 0.000000
# 3 -0.001616 -0.006790 0.013837 0.000000 -0.001872 0.000000
# 4 0.000000 0.000000 0.000000 0.039612 0.000000 0.003666
# 5 0.003528 -0.000510 -0.001872 0.000000 0.029220 0.000000
# 6 0.000000 0.000000 0.000000 0.003666 0.000000 0.029827
#
#
# Mechanical properties :
#
#
# Convention : Reuss Voigt Hill
#
# Bulk Modulus (GPa) = 52.23075 59.03702 55.63389
# Shear Modulus (GPa) = 28.25197 32.02643 30.13920
#
# Velocity S-wave (km/s) = 3.77478 4.01903 3.89882
# Velocity P-wave (km/s) = 6.73359 7.16326 6.95175
#
# Compressibility (1/GPa) = 0.01914581
#
# Stress axis : x y z
#
# Youngs Moduli (GPa) = 114.06315 43.59769 72.26764
#
# Poissons Ratio (x) = 0.20894 0.11675
# Poissons Ratio (y) = 0.54665 0.49068
# Poissons Ratio (z) = 0.18427 0.29602
#
# Static dielectric constant tensor:
#      x y z
#    x 3.644760 0.000000 0.195280 
#    y 0.000000 3.371520 0.000000 
#    z 0.195280 0.000000 3.505630 
# 
# 
# High freq. dielectric constant tensor:
#      x y z
#    x 1.792120 0.000000 0.000070 
#    y 0.000000 1.744920 0.000000 
#    z 0.000070 0.000000 1.783600 
# 
# From -- ./inp_files/333269.got.cif
#   From: 2010.06.25/outbox.cif.g09.slc.cpg/sg12_167_cif.got.tgz:333269.got - 2010.06.28 00:19:55.
