data_PCOD8115521
_publ_section_title
;
Structure prediction by ZEFSAII (Michael W. Deem and Ramdas Pophale) SiO2 
 PCOD8115521
Probable space group: C 2/M
;
_chemical_formula_sum "Si O2"
_cell_formula_units_Z 36
_cell_length_a 14.833363
_cell_length_b 21.765619
_cell_length_c 14.345642
_cell_angle_alpha 90.000000
_cell_angle_beta 160.194361
_cell_angle_gamma 90.000000
_cell_volume 1569.325955
_symmetry_space_group_name_H-M "C 2/M"
_symmetry_group_IT_number 12
_symmetry_cell_setting 'monoclinic'
loop_
_space_group_symop_operation_xyz
x,y,z
-x,y,-z
-x,-y,-z
x,-y,z
1/2+x,1/2+y,z
1/2-x,1/2+y,-z
1/2-x,1/2-y,-z
1/2+x,1/2-y,z
loop_
_atom_site_type_symbol
_atom_site_label
_atom_site_fract_x
_atom_site_fract_y
_atom_site_fract_z
Si Si1 0.032327 0.873511 0.234329
Si Si2 0.699500 0.000000 0.309099
Si Si3 0.446767 0.176367 0.342404
Si Si4 0.157196 0.000000 0.893094
Si Si5 0.500000 0.892552 0.000000
Si Si6 0.906518 0.820214 0.306516
O O1 0.338512 0.862749 0.505752
O O2 0.034058 0.853517 0.343185
O O3 0.926592 0.942753 0.123930
O O4 0.848273 0.836130 0.983268
O O5 0.988789 0.000000 0.635236
O O6 0.700652 0.938536 0.248055
O O7 0.465987 0.000000 0.161437
O O8 0.500000 0.156777 0.500000
O O9 0.467819 0.249161 0.350964
O O10 0.605493 0.846111 0.020714
O O11 0.000000 0.842257 0.500000
#
# Coordination Sequence:
#
# PCOD8115521 Si02
#       6
#     8   4   8   4   4   8
#     4  12  25  47  70 103 134 187 231 287 347 410
#     4  11  24  42  64 102 150 185 213 275 331 432
#     4  11  27  47  71  97 138 179 241 296 346 390
#     4  12  24  45  69  98 137 179 238 282 341 410
#     4  11  24  38  68 104 148 185 222 256 350 431
#     4  11  25  40  71 105 148 180 222 271 350 430
#
# _framework density 22.939786000000002
#
# number of rings (size 3 to 8) (size 9 to 14) (size 15 to 20)
#    0.000    0.667    2.222    4.667    9.333    0.889 
#    0.000    3.333    0.000    0.000    0.000    0.000 
#    0.000    0.000    0.000    0.000    0.000    0.000 
#
# Total GULP energy -223009.894577 kJ/mol
# GULP energy per Si atom -12389.438588 kJ/mol
# Density = 2.288757 g / cm^3
# Si number density = 22.939786 Si / 1000 Ang^3
#
#
#
# Elastic Constant Matrix: (Units=GPa)
#
#
# Indices 1 2 3 4 5 6 
#
# 1 99.8497 46.4156 6.0897 -0.0048 -0.9539 0.0145
# 2 46.4156 113.3429 -2.0042 -0.0033 11.9150 0.0024
# 3 6.0897 -2.0042 61.3955 -0.0143 -14.9758 0.0406
# 4 -0.0048 -0.0033 -0.0143 17.0477 -0.0005 11.1722
# 5 -0.9539 11.9150 -14.9758 -0.0005 49.6819 0.0030
# 6 0.0145 0.0024 0.0406 11.1722 0.0030 12.5168
#
#
#
# Elastic Compliance Matrix: (Units=1/GPa)
#
#
# Indices 1 2 3 4 5 6 
#
# 1 0.012551 -0.005282 -0.001133 0.000020 0.001166 -0.000028
# 2 -0.005282 0.011278 0.000224 -0.000004 -0.002739 0.000008
# 3 -0.001133 0.000224 0.017690 0.000126 0.005257 -0.000170
# 4 0.000020 -0.000004 0.000126 0.141330 0.000048 -0.126148
# 5 0.001166 -0.002739 0.005257 0.000048 0.022392 -0.000066
# 6 -0.000028 0.000008 -0.000170 -0.126148 -0.000066 0.192491
#
#
# Mechanical properties :
#
#
# Convention : Reuss Voigt Hill
#
# Bulk Modulus (GPa) = 34.32130 41.73224 38.02677
# Shear Modulus (GPa) = 11.90971 30.78841 21.34906
#
# Velocity S-wave (km/s) = 2.28101 3.66750 3.05398
# Velocity P-wave (km/s) = 4.68308 6.01379 5.38966
#
# Compressibility (1/GPa) = 0.02913643
#
# Stress axis : x y z
#
# Youngs Moduli (GPa) = 79.67598 88.66934 56.52929
#
# Poissons Ratio (x) = 0.46839 0.06404
# Poissons Ratio (y) = 0.42088 -0.01267
# Poissons Ratio (z) = 0.09026 -0.01987
#
# Static dielectric constant tensor:
#      x y z
#    x 4.323640 0.000000 -0.005290 
#    y 0.000000 4.342860 -0.000010 
#    z -0.005290 -0.000010 4.165930 
# 
# 
# High freq. dielectric constant tensor:
#      x y z
#    x 1.904980 0.000000 -0.000460 
#    y 0.000000 1.919240 0.000000 
#    z -0.000460 0.000000 1.910070 
# 
# From -- ./inp_files/218622.got.cif
#   From: 2010.06.25/outbox.cif.g09.slc.cpg/sg12_110_cif.got.tgz:218622.got - 2010.06.28 00:19:55.
