data_PCOD8115502
_publ_section_title
;
Structure prediction by ZEFSAII (Michael W. Deem and Ramdas Pophale) SiO2 
 PCOD8115502
Probable space group: C 2/M
;
_chemical_formula_sum "Si O2"
_cell_formula_units_Z 40
_cell_length_a 17.019396
_cell_length_b 25.210750
_cell_length_c 9.247081
_cell_angle_alpha 90.000000
_cell_angle_beta 28.409383
_cell_angle_gamma 90.000000
_cell_volume 1887.687215
_symmetry_space_group_name_H-M "C 2/M"
_symmetry_group_IT_number 12
_symmetry_cell_setting 'monoclinic'
loop_
_space_group_symop_operation_xyz
x,y,z
-x,y,-z
-x,-y,-z
x,-y,z
1/2+x,1/2+y,z
1/2-x,1/2+y,-z
1/2-x,1/2-y,-z
1/2+x,1/2-y,z
loop_
_atom_site_type_symbol
_atom_site_label
_atom_site_fract_x
_atom_site_fract_y
_atom_site_fract_z
Si Si1 0.311832 0.000000 0.355143
Si Si2 0.690225 0.599294 0.733909
Si Si3 0.379254 0.203357 0.323346
Si Si4 0.121748 0.705336 0.174864
Si Si5 0.687316 0.500000 0.240160
Si Si6 0.314348 0.905585 0.849688
O O1 0.275129 0.949019 0.512817
O O2 0.198534 0.000000 0.395892
O O3 0.500000 0.000000 0.000000
O O4 0.782736 0.653014 0.540274
O O5 0.699923 0.591756 0.891683
O O6 0.500000 0.603811 0.000000
O O7 0.250000 0.250000 0.500000
O O8 0.511737 0.225705 0.221606
O O9 0.500000 0.185517 0.000000
O O10 0.213428 0.648671 0.012701
O O11 0.000000 0.694630 0.500000
O O12 0.250000 0.750000 0.000000
O O13 0.500000 0.500000 0.500000
O O14 0.772849 0.448898 0.035353
O O15 0.500000 0.915394 0.500000
#
# Coordination Sequence:
#
# PCOD8115502 Si02
#       6
#     4   8   8   8   4   8
#     4  12  26  44  72 104 136 176 228 284 338 400
#     4  12  25  45  70  99 139 182 226 275 340 406
#     4  12  26  44  70 102 137 176 225 282 338 398
#     4  11  24  45  68  99 133 177 225 269 336 400
#     4  12  26  44  68 104 134 170 226 282 338 390
#     4  11  23  46  69  94 135 181 224 268 336 407
#
# _framework density 21.189952000000002
#
# number of rings (size 3 to 8) (size 9 to 14) (size 15 to 20)
#    0.000    0.400    4.000    6.000    5.600    0.800 
#    0.000    0.000    0.000    0.000    0.000    0.000 
#    0.000    0.000    0.000    0.000    0.000    0.000 
#
# Total GULP energy -247971.210782 kJ/mol
# GULP energy per Si atom -12398.560539 kJ/mol
# Density = 2.114172 g / cm^3
# Si number density = 21.189952 Si / 1000 Ang^3
#
#
#
# Elastic Constant Matrix: (Units=GPa)
#
#
# Indices 1 2 3 4 5 6 
#
# 1 167.2329 40.8584 14.0411 -0.0008 -13.9716 0.0008
# 2 40.8584 172.7100 33.1766 -0.0004 -6.8909 0.0002
# 3 14.0411 33.1766 61.5514 -0.0007 -15.3757 0.0007
# 4 -0.0008 -0.0004 -0.0007 40.6160 0.0005 0.0152
# 5 -13.9716 -6.8909 -15.3757 0.0005 43.5185 -0.0006
# 6 0.0008 0.0002 0.0007 0.0152 -0.0006 34.2745
#
#
#
# Elastic Compliance Matrix: (Units=1/GPa)
#
#
# Indices 1 2 3 4 5 6 
#
# 1 0.006496 -0.001413 -0.000280 0.000000 0.001763 0.000000
# 2 -0.001413 0.006768 -0.003478 0.000000 -0.000611 0.000000
# 3 -0.000280 -0.003478 0.019770 0.000000 0.006344 0.000000
# 4 0.000000 0.000000 0.000000 0.024621 0.000000 -0.000011
# 5 0.001763 -0.000611 0.006344 0.000000 0.025690 0.000000
# 6 0.000000 0.000000 0.000000 -0.000011 0.000000 0.029176
#
#
# Mechanical properties :
#
#
# Convention : Reuss Voigt Hill
#
# Bulk Modulus (GPa) = 44.06866 64.18294 54.12580
# Shear Modulus (GPa) = 38.33585 44.57634 41.45609
#
# Velocity S-wave (km/s) = 4.25803 4.59154 4.42792
# Velocity P-wave (km/s) = 6.70943 7.64622 7.19309
#
# Compressibility (1/GPa) = 0.02269186
#
# Stress axis : x y z
#
# Youngs Moduli (GPa) = 153.95072 147.75354 50.58130
#
# Poissons Ratio (x) = 0.20871 0.01417
# Poissons Ratio (y) = 0.21746 0.17594
# Poissons Ratio (z) = 0.04311 0.51394
#
# Static dielectric constant tensor:
#      x y z
#    x 4.209220 0.000010 -0.110540 
#    y 0.000010 4.379660 0.000010 
#    z -0.110540 0.000010 3.731900 
# 
# 
# High freq. dielectric constant tensor:
#      x y z
#    x 1.854530 0.000000 -0.003660 
#    y 0.000000 1.848800 0.000000 
#    z -0.003660 0.000000 1.833540 
# 
# From -- ./inp_files/79291.got.cif
#   From: 2010.06.25/outbox.cif.g09.slc.cpg/sg12_40_cif.got.tgz:79291.got - 2010.06.28 00:19:55.
