data_PCOD8115809
_publ_section_title
;
Structure prediction by ZEFSAII (Michael W. Deem and Ramdas Pophale) SiO2 
 PCOD8115809
Probable space group: C 2/M
;
_chemical_formula_sum "Si O2"
_cell_formula_units_Z 36
_cell_length_a 8.988252
_cell_length_b 22.844418
_cell_length_c 8.991151
_cell_angle_alpha 90.000000
_cell_angle_beta 88.621552
_cell_angle_gamma 90.000000
_cell_volume 1845.631231
_symmetry_space_group_name_H-M "C 2/M"
_symmetry_group_IT_number 12
_symmetry_cell_setting 'monoclinic'
loop_
_space_group_symop_operation_xyz
x,y,z
-x,y,-z
-x,-y,-z
x,-y,z
1/2+x,1/2+y,z
1/2-x,1/2+y,-z
1/2-x,1/2-y,-z
1/2+x,1/2-y,z
loop_
_atom_site_type_symbol
_atom_site_label
_atom_site_fract_x
_atom_site_fract_y
_atom_site_fract_z
Si Si1 0.464332 0.565226 0.262331
Si Si2 0.683897 0.762302 0.338850
Si Si3 0.500000 0.851916 0.500000
Si Si4 0.258764 0.564398 0.546857
Si Si5 0.963049 0.189724 0.164105
O O1 0.431502 0.500000 0.194185
O O2 0.350908 0.579341 0.397394
O O3 0.633065 0.566212 0.315096
O O4 0.445303 0.619109 0.149603
O O5 0.750000 0.750000 0.500000
O O6 0.563317 0.813819 0.361850
O O7 0.810100 0.781288 0.221035
O O8 0.596480 0.706073 0.275406
O O9 0.372602 0.889982 0.425631
O O10 0.187766 0.500000 0.534276
O O11 0.000000 0.214687 0.000000
#
# Coordination Sequence:
#
# PCOD8115809 Si02
#       5
#     8   8   4   8   8
#     4   9  19  36  59  83 114 156 199 245 296 352
#     4  12  24  40  61  89 117 162 203 244 294 359
#     4  12  19  32  60  86 117 150 200 244 298 342
#     4   9  18  32  56  89 117 147 200 255 293 341
#     4  12  25  41  60  89 125 158 198 248 303 362
#
# _framework density 19.505523
#
# number of rings (size 3 to 8) (size 9 to 14) (size 15 to 20)
#    0.000    1.333    4.444    3.667    3.111    0.444 
#    0.000    0.000    0.000    0.000    0.000    3.111 
#    0.000    0.000    0.000    0.000    0.000    0.000 
#
# Total GULP energy -223139.772174 kJ/mol
# GULP energy per Si atom -12396.654010 kJ/mol
# Density = 1.946113 g / cm^3
# Si number density = 19.505523 Si / 1000 Ang^3
#
#
#
# Elastic Constant Matrix: (Units=GPa)
#
#
# Indices 1 2 3 4 5 6 
#
# 1 98.8275 46.3752 29.9992 0.0000 -19.1009 0.0000
# 2 46.3752 112.7795 23.1114 0.0000 -12.3276 0.0000
# 3 29.9992 23.1114 80.1810 0.0000 -18.7084 0.0000
# 4 0.0000 0.0000 0.0000 15.2868 0.0000 -2.9328
# 5 -19.1009 -12.3276 -18.7084 0.0000 28.6955 0.0000
# 6 0.0000 0.0000 0.0000 -2.9328 0.0000 45.8306
#
#
#
# Elastic Compliance Matrix: (Units=1/GPa)
#
#
# Indices 1 2 3 4 5 6 
#
# 1 0.014224 -0.004682 -0.002633 0.000000 0.005740 0.000000
# 2 -0.004682 0.011144 -0.001262 0.000000 0.000848 0.000000
# 3 -0.002633 -0.001262 0.015669 0.000000 0.007921 0.000000
# 4 0.000000 0.000000 0.000000 0.066229 0.000000 0.004238
# 5 0.005740 0.000848 0.007921 0.000000 0.044198 0.000000
# 6 0.000000 0.000000 0.000000 0.004238 0.000000 0.022091
#
#
# Mechanical properties :
#
#
# Convention : Reuss Voigt Hill
#
# Bulk Modulus (GPa) = 41.87317 54.52886 48.20101
# Shear Modulus (GPa) = 25.16737 30.78272 27.97505
#
# Velocity S-wave (km/s) = 3.59593 3.97691 3.79121
# Velocity P-wave (km/s) = 6.22534 7.00743 6.62793
#
# Compressibility (1/GPa) = 0.02388164
#
# Stress axis : x y z
#
# Youngs Moduli (GPa) = 70.30144 89.73835 63.82073
#
# Poissons Ratio (x) = 0.42016 0.16804
# Poissons Ratio (y) = 0.32916 0.08057
# Poissons Ratio (z) = 0.18511 0.11329
#
# Static dielectric constant tensor:
#      x y z
#    x 3.640840 0.000000 -0.179830 
#    y 0.000000 3.879810 0.000000 
#    z -0.179830 0.000000 3.142710 
# 
# 
# High freq. dielectric constant tensor:
#      x y z
#    x 1.762420 0.000000 -0.015020 
#    y 0.000000 1.779720 0.000000 
#    z -0.015020 0.000000 1.718500 
# 
# From -- ./inp_files/38790.got.cif
#   From: 2010.06.25/outbox.cif.g09.slc.cpg/sg12_20_cif.got.tgz:38790.got - 2010.06.28 00:19:55.
