data_PCOD8115604
_publ_section_title
;
Structure prediction by ZEFSAII (Michael W. Deem and Ramdas Pophale) SiO2 
 PCOD8115604
Probable space group: C 2/M
;
_chemical_formula_sum "Si O2"
_cell_formula_units_Z 32
_cell_length_a 19.829133
_cell_length_b 7.584426
_cell_length_c 10.352753
_cell_angle_alpha 90.000000
_cell_angle_beta 83.033588
_cell_angle_gamma 90.000000
_cell_volume 1545.482852
_symmetry_space_group_name_H-M "C 2/M"
_symmetry_group_IT_number 12
_symmetry_cell_setting 'monoclinic'
loop_
_space_group_symop_operation_xyz
x,y,z
-x,y,-z
-x,-y,-z
x,-y,z
1/2+x,1/2+y,z
1/2-x,1/2+y,-z
1/2-x,1/2-y,-z
1/2+x,1/2-y,z
loop_
_atom_site_type_symbol
_atom_site_label
_atom_site_fract_x
_atom_site_fract_y
_atom_site_fract_z
Si Si1 0.394112 0.000000 0.596461
Si Si2 0.799628 0.703711 0.104246
Si Si3 0.945047 0.802429 0.115320
Si Si4 0.965733 0.500000 0.307716
Si Si5 0.285150 0.294602 0.626259
O O1 0.422140 0.000000 0.446348
O O2 0.454061 0.000000 0.686574
O O3 0.351940 0.822257 0.629050
O O4 0.818073 0.500000 0.098144
O O5 0.870160 0.807194 0.069199
O O6 0.766274 0.757383 0.247864
O O7 0.750000 0.750000 0.000000
O O8 0.944714 0.676110 0.238255
O O9 0.964831 0.000000 0.154894
O O10 0.000000 0.731262 0.000000
O O11 0.305849 0.500000 0.628212
O O12 0.250000 0.250000 0.500000
#
# Coordination Sequence:
#
# PCOD8115604 Si02
#       5
#     4   8   8   4   8
#     4  11  26  42  70  98 129 178 222 268 333 389
#     4  11  25  41  66 102 134 169 223 279 330 392
#     4  11  25  43  68  95 133 179 218 267 336 396
#     4  11  25  46  66  96 135 174 224 270 321 405
#     4  11  24  42  67  99 134 172 221 273 331 394
#
# _framework density 20.705504000000001
#
# number of rings (size 3 to 8) (size 9 to 14) (size 15 to 20)
#    0.000    1.000    2.500    2.625    7.000    4.000 
#    0.000    2.500    0.000    0.000    0.000    0.000 
#    0.000    0.000    0.000    0.000    0.000    0.000 
#
# Total GULP energy -198496.524926 kJ/mol
# GULP energy per Si atom -12406.032808 kJ/mol
# Density = 2.065838 g / cm^3
# Si number density = 20.705504 Si / 1000 Ang^3
#
#
#
# Elastic Constant Matrix: (Units=GPa)
#
#
# Indices 1 2 3 4 5 6 
#
# 1 157.8361 45.8837 56.9464 0.0000 -5.6530 0.0000
# 2 45.8837 107.8702 30.2310 0.0000 -6.2246 0.0000
# 3 56.9464 30.2310 113.3071 0.0000 2.9998 0.0000
# 4 0.0000 0.0000 0.0000 28.4282 0.0000 -5.8077
# 5 -5.6530 -6.2246 2.9998 0.0000 34.3074 0.0000
# 6 0.0000 0.0000 0.0000 -5.8077 0.0000 33.9224
#
#
#
# Elastic Compliance Matrix: (Units=1/GPa)
#
#
# Indices 1 2 3 4 5 6 
#
# 1 0.008401 -0.002496 -0.003589 0.000000 0.001245 0.000000
# 2 -0.002496 0.010908 -0.001701 0.000000 0.001717 0.000000
# 3 -0.003589 -0.001701 0.011133 0.000000 -0.001874 0.000000
# 4 0.000000 0.000000 0.000000 0.036451 0.000000 0.006241
# 5 0.001245 0.001717 -0.001874 0.000000 0.029829 0.000000
# 6 0.000000 0.000000 0.000000 0.006241 0.000000 0.030548
#
#
# Mechanical properties :
#
#
# Convention : Reuss Voigt Hill
#
# Bulk Modulus (GPa) = 67.25388 71.68174 69.46781
# Shear Modulus (GPa) = 33.82997 35.72842 34.77920
#
# Velocity S-wave (km/s) = 4.04649 4.15848 4.10287
# Velocity P-wave (km/s) = 7.37454 7.59948 7.48785
#
# Compressibility (1/GPa) = 0.01486903
#
# Stress axis : x y z
#
# Youngs Moduli (GPa) = 119.03726 91.67729 89.82295
#
# Poissons Ratio (x) = 0.22879 0.32239
# Poissons Ratio (y) = 0.29707 0.15283
# Poissons Ratio (z) = 0.42725 0.15599
#
# Static dielectric constant tensor:
#      x y z
#    x 3.941390 0.000000 -0.115520 
#    y 0.000000 3.976390 0.000000 
#    z -0.115520 0.000000 3.824530 
# 
# 
# High freq. dielectric constant tensor:
#      x y z
#    x 1.821640 0.000000 -0.006660 
#    y 0.000000 1.825560 0.000000 
#    z -0.006660 0.000000 1.815540 
# 
# From -- ./inp_files/81716.got.cif
#   From: 2010.06.25/outbox.cif.g09.slc.cpg/sg12_41_cif.got.tgz:81716.got - 2010.06.28 00:19:55.
