data_PCOD8115856
_publ_section_title
;
Structure prediction by ZEFSAII (Michael W. Deem and Ramdas Pophale) SiO2 
 PCOD8115856
Probable space group: C 2/M
;
_chemical_formula_sum "Si O2"
_cell_formula_units_Z 52
_cell_length_a 13.678904
_cell_length_b 20.086961
_cell_length_c 13.406422
_cell_angle_alpha 90.000000
_cell_angle_beta 138.781966
_cell_angle_gamma 90.000000
_cell_volume 2427.254049
_symmetry_space_group_name_H-M "C 2/M"
_symmetry_group_IT_number 12
_symmetry_cell_setting 'monoclinic'
loop_
_space_group_symop_operation_xyz
x,y,z
-x,y,-z
-x,-y,-z
x,-y,z
1/2+x,1/2+y,z
1/2-x,1/2+y,-z
1/2-x,1/2-y,-z
1/2+x,1/2-y,z
loop_
_atom_site_type_symbol
_atom_site_label
_atom_site_fract_x
_atom_site_fract_y
_atom_site_fract_z
Si Si1 0.527921 0.000000 0.639068
Si Si2 0.341881 0.268923 0.859923
Si Si3 0.822612 0.290767 0.641789
Si Si4 0.939790 0.882128 0.556244
Si Si5 0.259734 0.500000 0.457148
Si Si6 0.124819 0.636743 0.807200
Si Si7 0.237490 0.863792 0.873281
Si Si8 0.670563 0.000000 0.158355
O O1 0.500000 0.000000 0.500000
O O2 0.612859 0.066117 0.741938
O O3 0.367207 0.000000 0.561015
O O4 0.352239 0.262611 0.749488
O O5 0.204285 0.312848 0.791758
O O6 0.338736 0.195658 0.908660
O O7 0.500000 0.304025 0.000000
O O8 0.750000 0.250000 0.500000
O O9 0.691186 0.335584 0.584434
O O10 0.964611 0.334240 0.716477
O O11 0.864385 0.938449 0.564375
O O12 0.000000 0.914186 0.500000
O O13 0.064081 0.845365 0.719924
O O14 0.191867 0.500000 0.293546
O O15 0.228217 0.628177 0.983559
O O16 0.259943 0.933753 0.834914
O O17 0.500000 0.000000 0.000000
#
# Coordination Sequence:
#
# PCOD8115856 Si02
#       8
#     4   8   8   8   4   8   8   4
#     4  12  30  55  75 102 143 206 262 311 366 446
#     4  12  26  46  74 109 150 194 250 313 375 442
#     4  12  27  43  75 106 142 193 245 307 373 437
#     4  12  23  40  68 109 145 181 230 299 372 436
#     4  12  22  45  68 105 141 183 238 304 372 426
#     4  12  28  51  76 105 149 202 252 305 380 452
#     4  12  24  43  69 113 153 187 237 301 382 451
#     4  12  23  35  73 106 151 189 236 299 373 447
#
# _framework density 21.423385
#
# number of rings (size 3 to 8) (size 9 to 14) (size 15 to 20)
#    0.000    0.000    6.154    3.923    4.308    0.000 
#    0.000    0.385    0.000    0.000    0.000    0.000 
#    0.000    0.000    0.000    0.000    0.000    0.000 
#
# Total GULP energy -322304.505354 kJ/mol
# GULP energy per Si atom -12396.327129 kJ/mol
# Density = 2.137462 g / cm^3
# Si number density = 21.423385 Si / 1000 Ang^3
#
#
#
# Elastic Constant Matrix: (Units=GPa)
#
#
# Indices 1 2 3 4 5 6 
#
# 1 116.5962 54.3533 56.6368 0.0000 1.6311 0.0000
# 2 54.3533 107.2198 31.3920 0.0000 -5.5513 0.0000
# 3 56.6368 31.3920 146.3972 0.0000 -1.2956 0.0000
# 4 0.0000 0.0000 0.0000 36.5784 0.0000 3.4827
# 5 1.6311 -5.5513 -1.2956 0.0000 49.4490 0.0000
# 6 0.0000 0.0000 0.0000 3.4827 0.0000 31.0750
#
#
#
# Elastic Compliance Matrix: (Units=1/GPa)
#
#
# Indices 1 2 3 4 5 6 
#
# 1 0.013060 -0.005546 -0.003873 0.000000 -0.001155 0.000000
# 2 -0.005546 0.012363 -0.000492 0.000000 0.001558 0.000000
# 3 -0.003873 -0.000492 0.008437 0.000000 0.000294 0.000000
# 4 0.000000 0.000000 0.000000 0.027633 0.000000 -0.003097
# 5 -0.001155 0.001558 0.000294 0.000000 0.020444 0.000000
# 6 0.000000 0.000000 0.000000 -0.003097 0.000000 0.032527
#
#
# Mechanical properties :
#
#
# Convention : Reuss Voigt Hill
#
# Bulk Modulus (GPa) = 71.23733 72.77527 72.00630
# Shear Modulus (GPa) = 35.98026 38.60922 37.29474
#
# Velocity S-wave (km/s) = 4.10260 4.24984 4.17687
# Velocity P-wave (km/s) = 7.46767 7.62399 7.54624
#
# Compressibility (1/GPa) = 0.01403758
#
# Stress axis : x y z
#
# Youngs Moduli (GPa) = 76.57155 80.88829 118.52242
#
# Poissons Ratio (x) = 0.44862 0.45908
# Poissons Ratio (y) = 0.42468 0.05826
# Poissons Ratio (z) = 0.29659 0.03976
#
# Static dielectric constant tensor:
#      x y z
#    x 6.579840 0.000000 1.637380 
#    y 0.000000 2.661560 0.000000 
#    z 1.637380 0.000000 4.916580 
# 
# 
# High freq. dielectric constant tensor:
#      x y z
#    x 1.842550 0.000000 0.010810 
#    y 0.000000 1.840150 0.000000 
#    z 0.010810 0.000000 1.859250 
# 
# From -- ./inp_files/136055.got.cif
#   From: 2010.06.25/outbox.cif.g09.slc.cpg/sg12_69_cif.got.tgz:136055.got - 2010.06.28 00:19:55.
