data_PCOD8115927
_publ_section_title
;
Structure prediction by ZEFSAII (Michael W. Deem and Ramdas Pophale) SiO2 
 PCOD8115927
Probable space group: C 2/M
;
_chemical_formula_sum "Si O2"
_cell_formula_units_Z 40
_cell_length_a 9.102029
_cell_length_b 9.772659
_cell_length_c 20.516012
_cell_angle_alpha 90.000000
_cell_angle_beta 95.828188
_cell_angle_gamma 90.000000
_cell_volume 1815.487061
_symmetry_space_group_name_H-M "C 2/M"
_symmetry_group_IT_number 12
_symmetry_cell_setting 'monoclinic'
loop_
_space_group_symop_operation_xyz
x,y,z
-x,y,-z
-x,-y,-z
x,-y,z
1/2+x,1/2+y,z
1/2-x,1/2+y,-z
1/2-x,1/2-y,-z
1/2+x,1/2-y,z
loop_
_atom_site_type_symbol
_atom_site_label
_atom_site_fract_x
_atom_site_fract_y
_atom_site_fract_z
Si Si1 0.673532 0.000000 0.354985
Si Si2 0.107587 0.269137 0.451821
Si Si3 0.013071 0.000000 0.373665
Si Si4 0.980227 0.500000 0.220256
Si Si5 0.628514 0.500000 0.238064
Si Si6 0.002981 0.234843 0.850149
Si Si7 0.730036 0.336183 0.064102
O O1 0.639786 0.134979 0.393192
O O2 0.844220 0.000000 0.340006
O O3 0.555083 0.000000 0.293021
O O4 0.250000 0.250000 0.500000
O O5 0.000000 0.337314 0.500000
O O6 0.041789 0.129202 0.420662
O O7 0.123105 0.000000 0.316304
O O8 0.799257 0.500000 0.220471
O O9 0.049614 0.376490 0.182629
O O10 0.533213 0.626553 0.207334
O O11 0.934202 0.186949 0.916208
O O12 0.173802 0.263405 0.875026
O O13 0.764347 0.500000 0.056389
O O14 0.750000 0.250000 0.000000
#
# Coordination Sequence:
#
# PCOD8115927 Si02
#       7
#     4   8   4   4   4   8   8
#     4  12  28  46  72 110 139 193 241 295 366 419
#     4  12  25  47  74 103 148 189 235 299 364 432
#     4  12  28  47  70 111 145 181 251 299 352 436
#     4  12  28  48  71 105 141 187 252 290 356 427
#     4  12  28  48  71 104 143 188 242 304 350 426
#     4  12  24  50  72 101 147 185 236 296 359 421
#     4  12  28  48  73 112 144 184 240 293 354 430
#
# _framework density 22.032657
#
# number of rings (size 3 to 8) (size 9 to 14) (size 15 to 20)
#    0.000    0.000    6.000    3.000    8.400    4.800 
#    0.000    0.000    0.000    0.000    0.000    0.000 
#    0.000    0.000    0.000    0.000    0.000    0.000 
#
# Total GULP energy -247840.753650 kJ/mol
# GULP energy per Si atom -12392.037682 kJ/mol
# Density = 2.198251 g / cm^3
# Si number density = 22.032657 Si / 1000 Ang^3
#
#
#
# Elastic Constant Matrix: (Units=GPa)
#
#
# Indices 1 2 3 4 5 6 
#
# 1 87.5303 31.7532 17.6659 0.0000 2.4215 0.0000
# 2 31.7532 150.7577 43.4916 0.0000 10.3589 0.0000
# 3 17.6659 43.4916 110.5099 0.0000 0.3392 0.0000
# 4 0.0000 0.0000 0.0000 51.5434 0.0000 -4.9973
# 5 2.4215 10.3589 0.3392 0.0000 49.0262 0.0000
# 6 0.0000 0.0000 0.0000 -4.9973 0.0000 31.2933
#
#
#
# Elastic Compliance Matrix: (Units=1/GPa)
#
#
# Indices 1 2 3 4 5 6 
#
# 1 0.012485 -0.002308 -0.001087 0.000000 -0.000122 0.000000
# 2 -0.002308 0.008031 -0.002787 0.000000 -0.001564 0.000000
# 3 -0.001087 -0.002787 0.010318 0.000000 0.000571 0.000000
# 4 0.000000 0.000000 0.000000 0.019706 0.000000 0.003147
# 5 -0.000122 -0.001564 0.000571 0.000000 0.020730 0.000000
# 6 0.000000 0.000000 0.000000 0.003147 0.000000 0.032458
#
#
# Mechanical properties :
#
#
# Convention : Reuss Voigt Hill
#
# Bulk Modulus (GPa) = 54.14263 59.40213 56.77238
# Shear Modulus (GPa) = 40.90089 43.43173 42.16631
#
# Velocity S-wave (km/s) = 4.31324 4.44469 4.37946
# Velocity P-wave (km/s) = 7.03083 7.30478 7.16911
#
# Compressibility (1/GPa) = 0.01846974
#
# Stress axis : x y z
#
# Youngs Moduli (GPa) = 80.09932 124.52424 96.92028
#
# Poissons Ratio (x) = 0.28734 0.10537
# Poissons Ratio (y) = 0.18483 0.27010
# Poissons Ratio (z) = 0.08709 0.34702
#
# Static dielectric constant tensor:
#      x y z
#    x 4.077750 0.000000 0.114150 
#    y 0.000000 4.176480 0.000000 
#    z 0.114150 0.000000 3.967140 
# 
# 
# High freq. dielectric constant tensor:
#      x y z
#    x 1.872040 0.000000 0.004750 
#    y 0.000000 1.880740 0.000000 
#    z 0.004750 0.000000 1.886330 
# 
# From -- ./inp_files/331834.got.cif
#   From: 2010.06.25/outbox.cif.g09.slc.cpg/sg12_166_cif.got.tgz:331834.got - 2010.06.28 00:19:55.
