data_PCOD8115082
_publ_section_title
;
Structure prediction by ZEFSAII (Michael W. Deem and Ramdas Pophale) SiO2 
 PCOD8115082
Probable space group: C 2/M
;
_chemical_formula_sum "Si O2"
_cell_formula_units_Z 56
_cell_length_a 14.880036
_cell_length_b 29.795669
_cell_length_c 12.182139
_cell_angle_alpha 90.000000
_cell_angle_beta 28.070382
_cell_angle_gamma 90.000000
_cell_volume 2541.509995
_symmetry_space_group_name_H-M "C 2/M"
_symmetry_group_IT_number 12
_symmetry_cell_setting 'monoclinic'
loop_
_space_group_symop_operation_xyz
x,y,z
-x,y,-z
-x,-y,-z
x,-y,z
1/2+x,1/2+y,z
1/2-x,1/2+y,-z
1/2-x,1/2-y,-z
1/2+x,1/2-y,z
loop_
_atom_site_type_symbol
_atom_site_label
_atom_site_fract_x
_atom_site_fract_y
_atom_site_fract_z
Si Si1 0.891934 0.809293 0.728060
Si Si2 0.226310 0.450214 0.756534
Si Si3 0.988240 0.266847 0.892428
Si Si4 0.483185 0.449105 0.894602
Si Si5 0.245170 0.404434 0.958944
Si Si6 0.309102 0.309650 0.417094
Si Si7 0.295608 0.092065 0.441976
O O1 0.000000 0.820575 0.500000
O O2 0.054295 0.792444 0.633413
O O3 0.738139 0.768562 0.889438
O O4 0.787101 0.853022 0.888562
O O5 0.310302 0.500000 0.642086
O O6 0.275749 0.414437 0.607294
O O7 0.310545 0.433939 0.782768
O O8 0.000000 0.453276 0.000000
O O9 0.096577 0.295342 0.681798
O O10 0.093263 0.217649 0.789413
O O11 0.000000 0.290044 0.000000
O O12 0.406749 0.500000 0.979290
O O13 0.699382 0.447761 0.615130
O O14 0.500000 0.429511 0.000000
O O15 0.345548 0.420158 0.963138
O O16 0.019432 0.409967 0.218779
O O17 0.303482 0.362679 0.404574
#
# Coordination Sequence:
#
# PCOD8115082 Si02
#       7
#     8   8   8   8   8   8   8
#     4  12  22  39  67  98 130 172 210 264 340 408
#     4   9  19  34  59  99 134 161 202 257 326 397
#     4  11  24  41  65  93 129 171 215 273 324 397
#     4  11  26  45  66  93 127 178 235 276 319 383
#     4  11  23  39  68 100 134 172 213 272 335 402
#     4  11  23  41  64  92 130 169 219 265 325 397
#     4  11  22  42  68  95 134 178 213 272 335 399
#
# _framework density 22.034144999999999
#
# number of rings (size 3 to 8) (size 9 to 14) (size 15 to 20)
#    0.000    1.143    4.286    2.143    0.000    2.857 
#    0.000    2.857    0.000    0.000    0.000    0.000 
#    0.000    0.000    0.000    0.000    0.000    0.000 
#
# Total GULP energy -346974.251939 kJ/mol
# GULP energy per Si atom -12391.937569 kJ/mol
# Density = 2.198399 g / cm^3
# Si number density = 22.034145 Si / 1000 Ang^3
#
#
#
# Elastic Constant Matrix: (Units=GPa)
#
#
# Indices 1 2 3 4 5 6 
#
# 1 114.3091 16.5270 51.8423 0.0000 7.2648 0.0001
# 2 16.5270 94.0371 25.0002 0.0003 4.6991 -0.0001
# 3 51.8423 25.0002 109.4624 -0.0003 -0.6868 0.0004
# 4 0.0000 0.0003 -0.0003 42.2117 0.0003 1.3863
# 5 7.2648 4.6991 -0.6868 0.0003 29.9389 -0.0003
# 6 0.0001 -0.0001 0.0004 1.3863 -0.0003 24.6089
#
#
#
# Elastic Compliance Matrix: (Units=1/GPa)
#
#
# Indices 1 2 3 4 5 6 
#
# 1 0.011403 -0.000450 -0.005315 0.000000 -0.002818 0.000000
# 2 -0.000450 0.011441 -0.002411 0.000000 -0.001742 0.000000
# 3 -0.005315 -0.002411 0.012216 0.000000 0.001948 0.000000
# 4 0.000000 0.000000 0.000000 0.023734 0.000000 -0.001337
# 5 -0.002818 -0.001742 0.001948 0.000000 0.034403 0.000000
# 6 0.000000 0.000000 0.000000 -0.001337 0.000000 0.040711
#
#
# Mechanical properties :
#
#
# Convention : Reuss Voigt Hill
#
# Bulk Modulus (GPa) = 53.45505 56.06085 54.75795
# Shear Modulus (GPa) = 31.94946 34.31450 33.13198
#
# Velocity S-wave (km/s) = 3.81201 3.95059 3.88192
# Velocity P-wave (km/s) = 6.60969 6.80496 6.70804
#
# Compressibility (1/GPa) = 0.01870731
#
# Stress axis : x y z
#
# Youngs Moduli (GPa) = 87.69521 87.40364 81.86080
#
# Poissons Ratio (x) = 0.03934 0.43513
# Poissons Ratio (y) = 0.03947 0.19735
# Poissons Ratio (z) = 0.46614 0.21071
#
# Static dielectric constant tensor:
#      x y z
#    x 4.010070 0.000000 0.064740 
#    y 0.000000 3.901860 0.000000 
#    z 0.064740 0.000000 4.390830 
# 
# 
# High freq. dielectric constant tensor:
#      x y z
#    x 1.858620 0.000000 -0.011630 
#    y 0.000000 1.860550 0.000000 
#    z -0.011630 0.000000 1.877100 
# 
# From -- ./inp_files/150397.got.cif
#   From: 2010.06.25/outbox.cif.g09.slc.cpg/sg12_76_cif.got.tgz:150397.got - 2010.06.28 00:19:55.
