data_PCOD8115258
_publ_section_title
;
Structure prediction by ZEFSAII (Michael W. Deem and Ramdas Pophale) SiO2 
 PCOD8115258
Probable space group: C 2/M
;
_chemical_formula_sum "Si O2"
_cell_formula_units_Z 56
_cell_length_a 16.742684
_cell_length_b 15.343644
_cell_length_c 10.540287
_cell_angle_alpha 90.000000
_cell_angle_beta 68.503587
_cell_angle_gamma 90.000000
_cell_volume 2519.385593
_symmetry_space_group_name_H-M "C 2/M"
_symmetry_group_IT_number 12
_symmetry_cell_setting 'monoclinic'
loop_
_space_group_symop_operation_xyz
x,y,z
-x,y,-z
-x,-y,-z
x,-y,z
1/2+x,1/2+y,z
1/2-x,1/2+y,-z
1/2-x,1/2-y,-z
1/2+x,1/2-y,z
loop_
_atom_site_type_symbol
_atom_site_label
_atom_site_fract_x
_atom_site_fract_y
_atom_site_fract_z
Si Si1 0.377381 0.191796 0.747046
Si Si2 0.584208 0.898698 0.031735
Si Si3 0.841113 0.748964 0.380617
Si Si4 0.594530 0.098597 0.504052
Si Si5 0.190985 0.756495 0.891922
Si Si6 0.999170 0.149870 0.362845
Si Si7 0.927702 0.903739 0.939244
O O1 0.430205 0.130040 0.813867
O O2 0.345278 0.134449 0.645520
O O3 0.292207 0.232314 0.862742
O O4 0.440634 0.265461 0.659105
O O5 0.607811 0.000000 0.008790
O O6 0.500000 0.875571 0.000000
O O7 0.664268 0.842850 0.935459
O O8 0.750000 0.750000 0.500000
O O9 0.888092 0.655838 0.380119
O O10 0.831010 0.770955 0.240505
O O11 0.900114 0.825578 0.400317
O O12 0.500000 0.107586 0.500000
O O13 0.617832 0.000000 0.526759
O O14 0.141113 0.826754 0.008263
O O15 0.000000 0.100950 0.500000
O O16 0.032859 0.093084 0.225660
O O17 0.887579 0.000000 0.987683
O O18 0.000000 0.882850 0.000000
#
# Coordination Sequence:
#
# PCOD8115258 Si02
#       7
#     8   8   8   8   8   8   8
#     4  12  22  43  66  98 136 183 227 281 349 412
#     4  11  25  42  66 100 137 178 226 281 349 422
#     4  12  22  42  67  97 133 181 225 284 352 419
#     4  11  23  39  65 101 137 178 231 284 342 418
#     4  12  24  42  71  98 137 183 234 289 349 417
#     4  12  22  42  70  96 133 179 229 284 354 423
#     4  11  25  44  69  99 132 181 239 290 346 416
#
# _framework density 22.227640000000001
#
# number of rings (size 3 to 8) (size 9 to 14) (size 15 to 20)
#    0.000    0.429    7.143    2.143    0.000    2.000 
#    0.000    0.714    0.000    3.429    0.000    0.000 
#    0.000    0.000    0.000    0.000    0.000    0.000 
#
# Total GULP energy -347138.887209 kJ/mol
# GULP energy per Si atom -12397.817400 kJ/mol
# Density = 2.217705 g / cm^3
# Si number density = 22.227640 Si / 1000 Ang^3
#
#
#
# Elastic Constant Matrix: (Units=GPa)
#
#
# Indices 1 2 3 4 5 6 
#
# 1 109.4164 39.8022 37.5556 0.0000 4.8380 0.0000
# 2 39.8022 109.9849 19.6041 0.0000 -4.6093 0.0000
# 3 37.5556 19.6041 114.4318 0.0000 7.1525 0.0000
# 4 0.0000 0.0000 0.0000 24.7242 0.0000 4.0266
# 5 4.8380 -4.6093 7.1525 0.0000 48.4364 0.0000
# 6 0.0000 0.0000 0.0000 4.0266 0.0000 21.2299
#
#
#
# Elastic Compliance Matrix: (Units=1/GPa)
#
#
# Indices 1 2 3 4 5 6 
#
# 1 0.011593 -0.003685 -0.003108 0.000000 -0.001050 0.000000
# 2 -0.003685 0.010613 -0.000701 0.000000 0.001482 0.000000
# 3 -0.003108 -0.000701 0.009956 0.000000 -0.001226 0.000000
# 4 0.000000 0.000000 0.000000 0.041735 0.000000 -0.007916
# 5 -0.001050 0.001482 -0.001226 0.000000 0.021073 0.000000
# 6 0.000000 0.000000 0.000000 -0.007916 0.000000 0.048605
#
#
# Mechanical properties :
#
#
# Convention : Reuss Voigt Hill
#
# Bulk Modulus (GPa) = 58.23194 58.63963 58.43579
# Shear Modulus (GPa) = 30.43444 34.66953 32.55198
#
# Velocity S-wave (km/s) = 3.70431 3.95365 3.83101
# Velocity P-wave (km/s) = 6.67463 6.87608 6.77610
#
# Compressibility (1/GPa) = 0.01717271
#
# Stress axis : x y z
#
# Youngs Moduli (GPa) = 86.25772 94.22440 100.44624
#
# Poissons Ratio (x) = 0.34726 0.31217
# Poissons Ratio (y) = 0.31790 0.07044
# Poissons Ratio (z) = 0.26807 0.06607
#
# Static dielectric constant tensor:
#      x y z
#    x 4.150220 0.000000 0.190120 
#    y 0.000000 3.892810 0.000000 
#    z 0.190120 0.000000 4.391780 
# 
# 
# High freq. dielectric constant tensor:
#      x y z
#    x 1.879590 0.000000 0.017840 
#    y 0.000000 1.858050 0.000000 
#    z 0.017840 0.000000 1.893260 
# 
# From -- ./inp_files/156514.got.cif
#   From: 2010.06.25/outbox.cif.g09.slc.cpg/sg12_79_cif.got.tgz:156514.got - 2010.06.28 00:19:55.
