data_PCOD8115574
_publ_section_title
;
Structure prediction by ZEFSAII (Michael W. Deem and Ramdas Pophale) SiO2 
 PCOD8115574
Probable space group: C 2/M
;
_chemical_formula_sum "Si O2"
_cell_formula_units_Z 40
_cell_length_a 24.792882
_cell_length_b 14.873329
_cell_length_c 4.958378
_cell_angle_alpha 90.000000
_cell_angle_beta 73.153567
_cell_angle_gamma 90.000000
_cell_volume 1749.948697
_symmetry_space_group_name_H-M "C 2/M"
_symmetry_group_IT_number 12
_symmetry_cell_setting 'monoclinic'
loop_
_space_group_symop_operation_xyz
x,y,z
-x,y,-z
-x,-y,-z
x,-y,z
1/2+x,1/2+y,z
1/2-x,1/2+y,-z
1/2-x,1/2-y,-z
1/2+x,1/2-y,z
loop_
_atom_site_type_symbol
_atom_site_label
_atom_site_fract_x
_atom_site_fract_y
_atom_site_fract_z
Si Si1 0.391599 0.168216 0.972589
Si Si2 0.305927 0.500000 0.684170
Si Si3 0.384988 0.500000 0.065053
Si Si4 0.946922 0.600201 0.422107
Si Si5 0.762795 0.312852 0.233664
Si Si6 0.038674 0.165979 0.187514
O O1 0.431156 0.149236 0.171109
O O2 0.328159 0.164731 0.158721
O O3 0.397105 0.097629 0.717337
O O4 0.412915 0.261502 0.810808
O O5 0.332010 0.500000 0.942398
O O6 0.269750 0.408145 0.707124
O O7 0.357789 0.500000 0.401523
O O8 0.426031 0.582710 0.969551
O O9 0.964480 0.500000 0.314422
O O10 0.000000 0.649082 0.500000
O O11 0.750000 0.250000 0.500000
O O12 0.750000 0.250000 0.000000
O O13 0.000000 0.141392 0.500000
O O14 0.000000 0.200777 0.000000
#
# Coordination Sequence:
#
# PCOD8115574 Si02
#       6
#     8   4   4   8   8   8
#     4  12  24  42  69  96 139 177 234 281 349 411
#     4  12  26  47  76 102 145 190 238 302 363 412
#     4  12  26  47  72 100 142 180 235 294 363 418
#     4  11  24  41  64  96 137 177 222 273 338 412
#     4  12  27  48  72 105 141 187 245 300 359 428
#     4  12  24  42  70 103 139 179 228 284 355 431
#
# _framework density 22.857814999999999
#
# number of rings (size 3 to 8) (size 9 to 14) (size 15 to 20)
#    0.000    0.200    0.000   10.800    2.800    1.600 
#    0.000    0.000    0.000    0.000    0.000    0.000 
#    0.000    0.000    0.000    0.000    0.000    0.000 
#
# Total GULP energy -247957.567867 kJ/mol
# GULP energy per Si atom -12397.878393 kJ/mol
# Density = 2.280579 g / cm^3
# Si number density = 22.857815 Si / 1000 Ang^3
#
#
#
# Elastic Constant Matrix: (Units=GPa)
#
#
# Indices 1 2 3 4 5 6 
#
# 1 58.9603 35.4750 2.2592 0.0000 -10.1792 0.0000
# 2 35.4750 105.2643 39.6480 0.0000 -10.9314 0.0000
# 3 2.2592 39.6480 127.2839 0.0000 -5.1582 0.0000
# 4 0.0000 0.0000 0.0000 56.7734 0.0000 47.5926
# 5 -10.1792 -10.9314 -5.1582 0.0000 52.9758 0.0000
# 6 0.0000 0.0000 0.0000 47.5926 0.0000 169.8261
#
#
#
# Elastic Compliance Matrix: (Units=1/GPa)
#
#
# Indices 1 2 3 4 5 6 
#
# 1 0.022189 -0.008020 0.002219 0.000000 0.002825 0.000000
# 2 -0.008020 0.013856 -0.004137 0.000000 0.000915 0.000000
# 3 0.002219 -0.004137 0.009124 0.000000 0.000461 0.000000
# 4 0.000000 0.000000 0.000000 0.023022 0.000000 -0.006452
# 5 0.002825 0.000915 0.000461 0.000000 0.019653 0.000000
# 6 0.000000 0.000000 0.000000 -0.006452 0.000000 0.007696
#
#
# Mechanical properties :
#
#
# Convention : Reuss Voigt Hill
#
# Bulk Modulus (GPa) = 39.53647 49.58589 44.56118
# Shear Modulus (GPa) = 40.37216 70.19016 55.28116
#
# Velocity S-wave (km/s) = 4.20721 5.54743 4.92314
# Velocity P-wave (km/s) = 6.39805 7.92289 7.20095
#
# Compressibility (1/GPa) = 0.02529310
#
# Stress axis : x y z
#
# Youngs Moduli (GPa) = 45.06784 72.17158 109.59779
#
# Poissons Ratio (x) = 0.57883 -0.24318
# Poissons Ratio (y) = 0.36145 0.45336
# Poissons Ratio (z) = -0.10000 0.29854
#
# Static dielectric constant tensor:
#      x y z
#    x 4.265700 0.000000 -0.027810 
#    y 0.000000 4.180370 0.000000 
#    z -0.027810 0.000000 4.201350 
# 
# 
# High freq. dielectric constant tensor:
#      x y z
#    x 1.905260 0.000000 -0.003720 
#    y 0.000000 1.917010 0.000000 
#    z -0.003720 0.000000 1.927370 
# 
# From -- ./inp_files/24230.got.cif
#   From: 2010.06.25/outbox.cif.g09.slc.cpg/sg12_13_cif.got.tgz:24230.got - 2010.06.28 00:19:55.
