data_PCOD8115739
_publ_section_title
;
Structure prediction by ZEFSAII (Michael W. Deem and Ramdas Pophale) SiO2 
 PCOD8115739
Probable space group: C 2/M
;
_chemical_formula_sum "Si O2"
_cell_formula_units_Z 48
_cell_length_a 9.314701
_cell_length_b 14.654523
_cell_length_c 28.975866
_cell_angle_alpha 90.000000
_cell_angle_beta 36.054238
_cell_angle_gamma 90.000000
_cell_volume 2327.882238
_symmetry_space_group_name_H-M "C 2/M"
_symmetry_group_IT_number 12
_symmetry_cell_setting 'monoclinic'
loop_
_space_group_symop_operation_xyz
x,y,z
-x,y,-z
-x,-y,-z
x,-y,z
1/2+x,1/2+y,z
1/2-x,1/2+y,-z
1/2-x,1/2-y,-z
1/2+x,1/2-y,z
loop_
_atom_site_type_symbol
_atom_site_label
_atom_site_fract_x
_atom_site_fract_y
_atom_site_fract_z
Si Si1 0.097729 0.152772 0.336563
Si Si2 0.785438 0.500000 0.425177
Si Si3 0.754952 0.500000 0.536130
Si Si4 0.978648 0.107151 0.828870
Si Si5 0.522872 0.831960 0.681391
Si Si6 0.238482 0.259755 0.056613
Si Si7 0.685574 0.100925 0.814790
O O1 0.317880 0.179140 0.313729
O O2 0.199801 0.099753 0.265759
O O3 0.905757 0.089828 0.413327
O O4 0.957806 0.242153 0.355057
O O5 0.500000 0.500000 0.500000
O O6 0.870722 0.500000 0.455314
O O7 0.883712 0.412858 0.373905
O O8 0.000000 0.500000 0.500000
O O9 0.796887 0.160782 0.910298
O O10 0.894043 0.125316 0.798155
O O11 0.245063 0.149238 0.768150
O O12 0.975366 0.000000 0.842134
O O13 0.032264 0.328033 0.127362
O O14 0.500000 0.302312 0.000000
O O15 0.250000 0.250000 0.000000
O O16 0.582545 0.000000 0.852178
#
# Coordination Sequence:
#
# PCOD8115739 Si02
#       7
#     8   4   4   8   8   8   8
#     4  12  26  46  71 107 139 187 237 284 345 426
#     4  12  26  52  70 104 148 182 228 294 353 410
#     4  12  30  48  74 106 148 184 230 299 353 406
#     4  11  25  45  73 103 136 190 234 284 349 424
#     4  12  26  44  75 102 141 187 237 283 349 421
#     4  12  26  46  69 103 144 180 230 296 354 406
#     4  11  25  45  72 102 141 182 239 285 347 424
#
# _framework density 20.619599000000001
#
# number of rings (size 3 to 8) (size 9 to 14) (size 15 to 20)
#    0.000    0.333    6.667    1.000    7.000    2.667 
#    0.000    0.000    0.000    0.000    0.000    0.000 
#    0.000    0.000    0.000    0.000    0.000    0.000 
#
# Total GULP energy -297658.506181 kJ/mol
# GULP energy per Si atom -12402.437758 kJ/mol
# Density = 2.057267 g / cm^3
# Si number density = 20.619599 Si / 1000 Ang^3
#
#
#
# Elastic Constant Matrix: (Units=GPa)
#
#
# Indices 1 2 3 4 5 6 
#
# 1 170.8996 40.0339 36.3897 -0.0109 5.8304 -0.0065
# 2 40.0339 131.4454 29.1749 -0.0106 1.1328 -0.0014
# 3 36.3897 29.1749 84.2899 -0.0377 8.3204 0.0015
# 4 -0.0109 -0.0106 -0.0377 30.8861 0.0106 -0.4947
# 5 5.8304 1.1328 8.3204 0.0106 48.8936 0.0046
# 6 -0.0065 -0.0014 0.0015 -0.4947 0.0046 29.4826
#
#
#
# Elastic Compliance Matrix: (Units=1/GPa)
#
#
# Indices 1 2 3 4 5 6 
#
# 1 0.006719 -0.001524 -0.002337 -0.000001 -0.000368 0.000002
# 2 -0.001524 0.008591 -0.002353 -0.000001 0.000383 0.000000
# 3 -0.002337 -0.002353 0.013887 0.000016 -0.002030 -0.000001
# 4 -0.000001 -0.000001 0.000016 0.032386 -0.000010 0.000543
# 5 -0.000368 0.000383 -0.002030 -0.000010 0.020833 -0.000003
# 6 0.000002 0.000000 -0.000001 0.000543 -0.000003 0.033927
#
#
# Mechanical properties :
#
#
# Convention : Reuss Voigt Hill
#
# Bulk Modulus (GPa) = 59.63547 66.42578 63.03063
# Shear Modulus (GPa) = 37.21306 40.58823 38.90064
#
# Velocity S-wave (km/s) = 4.25283 4.44151 4.34820
# Velocity P-wave (km/s) = 7.28697 7.65425 7.47287
#
# Compressibility (1/GPa) = 0.01676854
#
# Stress axis : x y z
#
# Youngs Moduli (GPa) = 148.84076 116.40031 72.00725
#
# Poissons Ratio (x) = 0.17745 0.16825
# Poissons Ratio (y) = 0.22690 0.16945
# Poissons Ratio (z) = 0.34777 0.27392
#
# Static dielectric constant tensor:
#      x y z
#    x 4.029100 0.000190 0.053770 
#    y 0.000190 3.468010 -0.001750 
#    z 0.053770 -0.001750 2.998510 
# 
# 
# High freq. dielectric constant tensor:
#      x y z
#    x 1.827270 0.000000 0.003270 
#    y 0.000000 1.820610 0.000000 
#    z 0.003270 0.000000 1.808550 
# 
# From -- ./inp_files/356330.got.cif
#   From: 2010.06.25/outbox.cif.g09.slc.cpg/sg12_179_cif.got.tgz:356330.got - 2010.06.28 00:19:55.
