data_PCOD8115296
_publ_section_title
;
Structure prediction by ZEFSAII (Michael W. Deem and Ramdas Pophale) SiO2 
 PCOD8115296
Probable space group: C 2/M
;
_chemical_formula_sum "Si O2"
_cell_formula_units_Z 48
_cell_length_a 24.843805
_cell_length_b 8.412384
_cell_length_c 12.285621
_cell_angle_alpha 90.000000
_cell_angle_beta 70.711220
_cell_angle_gamma 90.000000
_cell_volume 2423.508227
_symmetry_space_group_name_H-M "C 2/M"
_symmetry_group_IT_number 12
_symmetry_cell_setting 'monoclinic'
loop_
_space_group_symop_operation_xyz
x,y,z
-x,y,-z
-x,-y,-z
x,-y,z
1/2+x,1/2+y,z
1/2-x,1/2+y,-z
1/2-x,1/2-y,-z
1/2+x,1/2-y,z
loop_
_atom_site_type_symbol
_atom_site_label
_atom_site_fract_x
_atom_site_fract_y
_atom_site_fract_z
Si Si1 0.497493 0.184254 0.377090
Si Si2 0.117644 0.815965 0.610379
Si Si3 0.805653 0.686868 0.261202
Si Si4 0.386704 0.316803 0.778716
Si Si5 0.684150 0.815951 0.365449
Si Si6 0.808856 0.686483 0.007084
O O1 0.500000 0.243192 0.500000
O O2 0.449977 0.285390 0.345515
O O3 0.558031 0.210683 0.279986
O O4 0.480985 0.000000 0.382163
O O5 0.140872 0.760844 0.711473
O O6 0.146630 0.712556 0.496890
O O7 0.130895 0.000000 0.581340
O O8 0.802443 0.500000 0.283414
O O9 0.748657 0.765808 0.347216
O O10 0.813606 0.730207 0.130125
O O11 0.404523 0.500000 0.764570
O O12 0.338593 0.286602 0.720181
O O13 0.361528 0.271884 0.912802
O O14 0.680549 0.000000 0.335695
O O15 0.812376 0.500000 0.983486
O O16 0.750000 0.750000 0.000000
#
# Coordination Sequence:
#
# PCOD8115296 Si02
#       6
#     8   8   8   8   8   8
#     4  11  23  41  66  92 123 164 208 255 307 367
#     4  12  25  41  63  92 128 166 206 256 314 372
#     4  11  24  42  63  91 127 167 209 255 311 371
#     4  12  24  39  63  95 128 161 206 259 310 367
#     4  12  23  38  62  92 128 165 206 256 311 371
#     4  11  23  40  65  92 125 165 209 257 307 366
#
# _framework density 19.806000000000001
#
# number of rings (size 3 to 8) (size 9 to 14) (size 15 to 20)
#    0.000    0.500    3.333    6.500    0.000    2.667 
#    0.000    0.833    0.000    5.000    0.000    0.000 
#    0.000    0.000    0.000    0.000    0.000    0.000 
#
# Total GULP energy -297835.397389 kJ/mol
# GULP energy per Si atom -12409.808225 kJ/mol
# Density = 1.976092 g / cm^3
# Si number density = 19.806000 Si / 1000 Ang^3
#
#
#
# Elastic Constant Matrix: (Units=GPa)
#
#
# Indices 1 2 3 4 5 6 
#
# 1 119.2310 26.5455 46.9108 0.0000 2.6683 0.0000
# 2 26.5455 91.4829 24.6303 0.0000 7.1950 0.0000
# 3 46.9108 24.6303 78.7071 0.0000 -7.7327 0.0000
# 4 0.0000 0.0000 0.0000 30.4102 0.0000 -2.1307
# 5 2.6683 7.1950 -7.7327 0.0000 34.9936 0.0000
# 6 0.0000 0.0000 0.0000 -2.1307 0.0000 35.2939
#
#
#
# Elastic Compliance Matrix: (Units=1/GPa)
#
#
# Indices 1 2 3 4 5 6 
#
# 1 0.011295 -0.001368 -0.006502 0.000000 -0.002017 0.000000
# 2 -0.001368 0.012500 -0.003413 0.000000 -0.003220 0.000000
# 3 -0.006502 -0.003413 0.018160 0.000000 0.005210 0.000000
# 4 0.000000 0.000000 0.000000 0.033023 0.000000 0.001994
# 5 -0.002017 -0.003220 0.005210 0.000000 0.030544 0.000000
# 6 0.000000 0.000000 0.000000 0.001994 0.000000 0.028454
#
#
# Mechanical properties :
#
#
# Convention : Reuss Voigt Hill
#
# Bulk Modulus (GPa) = 51.57325 53.95491 52.76408
# Shear Modulus (GPa) = 30.67382 32.89518 31.78450
#
# Velocity S-wave (km/s) = 3.93964 4.07980 4.01033
# Velocity P-wave (km/s) = 6.84033 7.03519 6.93844
#
# Compressibility (1/GPa) = 0.01938990
#
# Stress axis : x y z
#
# Youngs Moduli (GPa) = 88.53468 79.99969 55.06478
#
# Poissons Ratio (x) = 0.10946 0.35803
# Poissons Ratio (y) = 0.12114 0.18791
# Poissons Ratio (z) = 0.57565 0.27300
#
# Static dielectric constant tensor:
#      x y z
#    x 3.595440 0.000000 0.060720 
#    y 0.000000 3.661950 0.000000 
#    z 0.060720 0.000000 3.693010 
# 
# 
# High freq. dielectric constant tensor:
#      x y z
#    x 1.772570 0.000000 -0.003050 
#    y 0.000000 1.788660 0.000000 
#    z -0.003050 0.000000 1.769490 
# 
# From -- ./inp_files/172876.got.cif
#   From: 2010.06.25/outbox.cif.g09.slc.cpg/sg12_87_cif.got.tgz:172876.got - 2010.06.28 00:19:55.
