data_PCOD8115850
_publ_section_title
;
Structure prediction by ZEFSAII (Michael W. Deem and Ramdas Pophale) SiO2 
 PCOD8115850
Probable space group: C 2/M
;
_chemical_formula_sum "Si O2"
_cell_formula_units_Z 56
_cell_length_a 11.459972
_cell_length_b 18.019771
_cell_length_c 14.480302
_cell_angle_alpha 90.000000
_cell_angle_beta 55.286334
_cell_angle_gamma 90.000000
_cell_volume 2458.026790
_symmetry_space_group_name_H-M "C 2/M"
_symmetry_group_IT_number 12
_symmetry_cell_setting 'monoclinic'
loop_
_space_group_symop_operation_xyz
x,y,z
-x,y,-z
-x,-y,-z
x,-y,z
1/2+x,1/2+y,z
1/2-x,1/2+y,-z
1/2-x,1/2-y,-z
1/2+x,1/2-y,z
loop_
_atom_site_type_symbol
_atom_site_label
_atom_site_fract_x
_atom_site_fract_y
_atom_site_fract_z
Si Si1 0.918907 0.346287 0.686704
Si Si2 0.162705 0.414804 0.087972
Si Si3 0.803272 0.913874 0.340249
Si Si4 0.755749 0.666892 0.459419
Si Si5 0.502080 0.777437 0.102455
Si Si6 0.808107 0.808926 0.712868
Si Si7 0.598713 0.364366 0.145732
O O1 0.831947 0.382805 0.810696
O O2 0.841840 0.375757 0.629743
O O3 0.918302 0.256960 0.683932
O O4 0.084640 0.366606 0.619262
O O5 0.109171 0.500000 0.112903
O O6 0.056400 0.362179 0.078511
O O7 0.314869 0.411744 0.968550
O O8 0.832839 0.884168 0.430081
O O9 0.939285 0.895530 0.215815
O O10 0.775261 0.000000 0.354173
O O11 0.750000 0.750000 0.500000
O O12 0.674773 0.658105 0.397739
O O13 0.347805 0.773049 0.216476
O O14 0.603164 0.722670 0.115166
O O15 0.500000 0.747214 0.000000
O O16 0.830292 0.870329 0.783738
#
# Coordination Sequence:
#
# PCOD8115850 Si02
#       7
#     8   8   8   8   8   8   8
#     4  12  24  45  74 104 139 180 228 296 351 410
#     4  12  26  43  67 105 144 181 227 285 356 420
#     4  12  28  47  69 103 144 185 231 288 351 413
#     4  12  25  45  74 104 134 183 240 289 341 410
#     4  12  22  42  70 103 137 181 235 286 342 420
#     4  12  22  43  74 104 133 177 242 294 340 407
#     4  12  25  46  71 102 142 186 234 284 345 416
#
# _framework density 22.782502000000001
#
# number of rings (size 3 to 8) (size 9 to 14) (size 15 to 20)
#    0.000    0.000    7.143    3.429    0.000    3.714 
#    0.000    3.571    0.000    0.000    0.000    0.000 
#    0.000    0.000    0.000    0.000    0.000    0.000 
#
# Total GULP energy -347283.863453 kJ/mol
# GULP energy per Si atom -12402.995123 kJ/mol
# Density = 2.273065 g / cm^3
# Si number density = 22.782502 Si / 1000 Ang^3
#
#
#
# Elastic Constant Matrix: (Units=GPa)
#
#
# Indices 1 2 3 4 5 6 
#
# 1 72.3093 18.6883 30.9280 0.0000 15.3418 0.0000
# 2 18.6883 84.5094 17.9217 0.0000 5.2583 0.0000
# 3 30.9280 17.9217 116.7914 0.0000 14.8197 0.0000
# 4 0.0000 0.0000 0.0000 26.9067 0.0000 2.1533
# 5 15.3418 5.2583 14.8197 0.0000 48.8042 0.0000
# 6 0.0000 0.0000 0.0000 2.1533 0.0000 11.2233
#
#
#
# Elastic Compliance Matrix: (Units=1/GPa)
#
#
# Indices 1 2 3 4 5 6 
#
# 1 0.016892 -0.002737 -0.003554 0.000000 -0.003936 0.000000
# 2 -0.002737 0.012703 -0.001206 0.000000 -0.000142 0.000000
# 3 -0.003554 -0.001206 0.009912 0.000000 -0.001763 0.000000
# 4 0.000000 0.000000 0.000000 0.037745 0.000000 -0.007242
# 5 -0.003936 -0.000142 -0.001763 0.000000 0.022278 0.000000
# 6 0.000000 0.000000 0.000000 -0.007242 0.000000 0.090490
#
#
# Mechanical properties :
#
#
# Convention : Reuss Voigt Hill
#
# Bulk Modulus (GPa) = 40.79523 45.40958 43.10241
# Shear Modulus (GPa) = 23.45377 31.12496 27.28936
#
# Velocity S-wave (km/s) = 3.21201 3.70019 3.46471
# Velocity P-wave (km/s) = 5.63039 6.18307 5.91319
#
# Compressibility (1/GPa) = 0.02451267
#
# Stress axis : x y z
#
# Youngs Moduli (GPa) = 59.19968 78.72199 100.88593
#
# Poissons Ratio (x) = 0.21546 0.35853
# Poissons Ratio (y) = 0.16202 0.12172
# Poissons Ratio (z) = 0.21038 0.09498
#
# Static dielectric constant tensor:
#      x y z
#    x 4.120800 0.000000 0.218900 
#    y 0.000000 3.774550 0.000000 
#    z 0.218900 0.000000 4.496640 
# 
# 
# High freq. dielectric constant tensor:
#      x y z
#    x 1.897130 0.000000 0.005070 
#    y 0.000000 1.868690 0.000000 
#    z 0.005070 0.000000 1.921090 
# 
# From -- ./inp_files/206566.got.cif
#   From: 2010.06.25/outbox.cif.g09.slc.cpg/sg12_104_cif.got.tgz:206566.got - 2010.06.28 00:19:55.
