data_PCOD8115984
_publ_section_title
;
Structure prediction by ZEFSAII (Michael W. Deem and Ramdas Pophale) SiO2 
 PCOD8115984
Probable space group: C 2/M
;
_chemical_formula_sum "Si O2"
_cell_formula_units_Z 56
_cell_length_a 19.834233
_cell_length_b 9.506436
_cell_length_c 20.971061
_cell_angle_alpha 90.000000
_cell_angle_beta 121.948018
_cell_angle_gamma 90.000000
_cell_volume 3355.212160
_symmetry_space_group_name_H-M "C 2/M"
_symmetry_group_IT_number 12
_symmetry_cell_setting 'monoclinic'
loop_
_space_group_symop_operation_xyz
x,y,z
-x,y,-z
-x,-y,-z
x,-y,z
1/2+x,1/2+y,z
1/2-x,1/2+y,-z
1/2-x,1/2-y,-z
1/2+x,1/2-y,z
loop_
_atom_site_type_symbol
_atom_site_label
_atom_site_fract_x
_atom_site_fract_y
_atom_site_fract_z
Si Si1 0.052735 0.332421 0.288317
Si Si2 0.282431 0.834427 0.686664
Si Si3 0.645316 0.155672 0.146384
Si Si4 0.026357 0.342851 0.876157
Si Si5 0.086470 0.841791 0.011869
Si Si6 0.515222 0.166364 0.408231
Si Si7 0.872436 0.666382 0.422732
O O1 0.053493 0.500000 0.289171
O O2 0.140876 0.280411 0.314184
O O3 0.988173 0.283985 0.202849
O O4 0.028106 0.267646 0.344428
O O5 0.293682 0.799630 0.767362
O O6 0.209018 0.748822 0.622958
O O7 0.268494 0.000000 0.669587
O O8 0.557856 0.150354 0.131479
O O9 0.649308 0.265819 0.090254
O O10 0.666781 0.000000 0.131154
O O11 0.063631 0.500000 0.893899
O O12 0.085079 0.239006 0.943492
O O13 0.116404 0.000000 0.014958
O O14 0.000000 0.841241 0.000000
O O15 0.430721 0.214887 0.394546
O O16 0.587114 0.211785 0.490379
O O17 0.515040 0.000000 0.403511
O O18 0.856395 0.500000 0.412192
#
# Coordination Sequence:
#
# PCOD8115984 Si02
#       7
#     8   8   8   8   8   8   8
#     4   8  14  26  44  63  84 113 147 178 207 247
#     4   9  17  28  43  64  88 112 140 178 218 250
#     4   8  14  24  36  52  77 108 139 168 200 243
#     4   8  13  22  37  55  75 104 140 172 202 239
#     4   9  15  21  32  53  81 110 135 163 203 246
#     4   8  15  29  46  63  84 112 147 178 205 249
#     4   9  17  29  46  65  85 112 143 176 213 253
#
# _framework density 16.690449999999998
#
# number of rings (size 3 to 8) (size 9 to 14) (size 15 to 20)
#    0.000    3.571    0.000    3.000    0.000    2.857 
#    0.000    3.571    0.000    2.571    0.000    1.000 
#    0.000    0.000    0.000    0.000    0.000    0.000 
#
# Total GULP energy -346986.645692 kJ/mol
# GULP energy per Si atom -12392.380203 kJ/mol
# Density = 1.665246 g / cm^3
# Si number density = 16.690450 Si / 1000 Ang^3
#
#
#
# Elastic Constant Matrix: (Units=GPa)
#
#
# Indices 1 2 3 4 5 6 
#
# 1 43.3280 18.0367 41.7112 0.0000 -17.9751 0.0000
# 2 18.0367 58.9874 42.5179 0.0000 -12.2135 0.0000
# 3 41.7112 42.5179 118.1716 0.0000 -33.3288 0.0000
# 4 0.0000 0.0000 0.0000 24.9892 0.0000 7.6017
# 5 -17.9751 -12.2135 -33.3288 0.0000 13.5297 0.0000
# 6 0.0000 0.0000 0.0000 7.6017 0.0000 12.6208
#
#
#
# Elastic Compliance Matrix: (Units=1/GPa)
#
#
# Indices 1 2 3 4 5 6 
#
# 1 0.052363 -0.003232 0.004843 0.000000 0.078580 0.000000
# 2 -0.003232 0.023094 -0.008190 0.000000 -0.003620 0.000000
# 3 0.004843 -0.008190 0.030891 0.000000 0.075138 0.000000
# 4 0.000000 0.000000 0.000000 0.048994 0.000000 -0.029510
# 5 0.078580 -0.003620 0.075138 0.000000 0.360137 0.000000
# 6 0.000000 0.000000 0.000000 -0.029510 0.000000 0.097008
#
#
# Mechanical properties :
#
#
# Convention : Reuss Voigt Hill
#
# Bulk Modulus (GPa) = 10.73058 47.22430 28.97744
# Shear Modulus (GPa) = 7.61372 18.10935 12.86154
#
# Velocity S-wave (km/s) = 2.13814 3.29753 2.77897
# Velocity P-wave (km/s) = 3.54099 6.54629 5.26272
#
# Compressibility (1/GPa) = 0.09319157
#
# Stress axis : x y z
#
# Youngs Moduli (GPa) = 19.09747 43.30050 32.37154
#
# Poissons Ratio (x) = 0.13993 -0.15676
# Poissons Ratio (y) = 0.06171 0.26511
# Poissons Ratio (z) = -0.09248 0.35461
#
# Static dielectric constant tensor:
#      x y z
#    x 2.862710 0.000000 -0.311200 
#    y 0.000000 2.957380 0.000000 
#    z -0.311200 0.000000 3.545560 
# 
# 
# High freq. dielectric constant tensor:
#      x y z
#    x 1.591270 0.000000 -0.008340 
#    y 0.000000 1.614730 0.000000 
#    z -0.008340 0.000000 1.657510 
# 
# From -- ./inp_files/319357.got.cif
#   From: 2010.06.25/outbox.cif.g09.slc.cpg/sg12_160_cif.got.tgz:319357.got - 2010.06.28 00:19:55.
