data_PCOD8115431
_publ_section_title
;
Structure prediction by ZEFSAII (Michael W. Deem and Ramdas Pophale) SiO2 
 PCOD8115431
Probable space group: C 2/M
;
_chemical_formula_sum "Si O2"
_cell_formula_units_Z 40
_cell_length_a 8.775084
_cell_length_b 14.861925
_cell_length_c 14.663552
_cell_angle_alpha 90.000000
_cell_angle_beta 74.808064
_cell_angle_gamma 90.000000
_cell_volume 1845.511987
_symmetry_space_group_name_H-M "C 2/M"
_symmetry_group_IT_number 12
_symmetry_cell_setting 'monoclinic'
loop_
_space_group_symop_operation_xyz
x,y,z
-x,y,-z
-x,-y,-z
x,-y,z
1/2+x,1/2+y,z
1/2-x,1/2+y,-z
1/2-x,1/2-y,-z
1/2+x,1/2-y,z
loop_
_atom_site_type_symbol
_atom_site_label
_atom_site_fract_x
_atom_site_fract_y
_atom_site_fract_z
Si Si1 0.642708 0.646909 0.685693
Si Si2 0.783797 0.500000 0.783197
Si Si3 0.181504 0.000000 0.998365
Si Si4 0.856743 0.500000 0.328346
Si Si5 0.179383 0.674217 0.947651
Si Si6 0.661712 0.500000 0.531156
Si Si7 0.721140 0.680660 0.266129
O O1 0.690870 0.588607 0.766092
O O2 0.671838 0.590121 0.589593
O O3 0.462873 0.675226 0.723901
O O4 0.745193 0.738594 0.667726
O O5 0.792684 0.500000 0.891163
O O6 0.956191 0.500000 0.711426
O O7 0.217075 0.085260 0.055363
O O8 0.000000 0.000000 0.000000
O O9 0.813253 0.500000 0.441855
O O10 0.782320 0.586922 0.294178
O O11 0.188830 0.704782 0.841404
O O12 0.250000 0.750000 0.000000
O O13 0.000000 0.653418 0.000000
O O14 0.500000 0.500000 0.500000
#
# Coordination Sequence:
#
# PCOD8115431 Si02
#       7
#     8   4   4   4   8   4   8
#     4  11  24  42  68  92 132 164 218 263 324 389
#     4  11  23  43  64  98 129 176 216 264 320 376
#     4  12  23  40  65  95 133 177 219 263 311 372
#     4  12  24  43  70  91 134 162 219 267 324 385
#     4  12  24  40  62  94 133 169 219 264 312 382
#     4  11  23  49  67  98 123 165 211 275 327 384
#     4  12  23  42  65  96 127 177 207 266 325 379
#
# _framework density 21.674202000000001
#
# number of rings (size 3 to 8) (size 9 to 14) (size 15 to 20)
#    0.000    0.400    2.000    8.100    0.000    2.400 
#    0.000    0.000    0.000    0.000    0.000    0.000 
#    0.000    0.000    0.000    0.000    0.000    0.000 
#
# Total GULP energy -248160.744266 kJ/mol
# GULP energy per Si atom -12408.037213 kJ/mol
# Density = 2.162487 g / cm^3
# Si number density = 21.674202 Si / 1000 Ang^3
#
#
#
# Elastic Constant Matrix: (Units=GPa)
#
#
# Indices 1 2 3 4 5 6 
#
# 1 124.1718 47.7765 14.4357 0.0000 -12.4271 0.0000
# 2 47.7765 178.0850 26.5098 0.0000 18.3283 0.0000
# 3 14.4357 26.5098 129.3131 0.0000 -1.4701 0.0000
# 4 0.0000 0.0000 0.0000 30.1538 0.0000 11.6546
# 5 -12.4271 18.3283 -1.4701 0.0000 41.6043 0.0000
# 6 0.0000 0.0000 0.0000 11.6546 0.0000 45.0875
#
#
#
# Elastic Compliance Matrix: (Units=1/GPa)
#
#
# Indices 1 2 3 4 5 6 
#
# 1 0.009658 -0.002957 -0.000424 0.000000 0.004173 0.000000
# 2 -0.002957 0.006992 -0.001149 0.000000 -0.004004 0.000000
# 3 -0.000424 -0.001149 0.008024 0.000000 0.000663 0.000000
# 4 0.000000 0.000000 0.000000 0.036844 0.000000 -0.009524
# 5 0.004173 -0.004004 0.000663 0.000000 0.027070 0.000000
# 6 0.000000 0.000000 0.000000 -0.009524 0.000000 0.024641
#
#
# Mechanical properties :
#
#
# Convention : Reuss Voigt Hill
#
# Bulk Modulus (GPa) = 64.05145 67.66822 65.85983
# Shear Modulus (GPa) = 39.21760 46.22564 42.72162
#
# Velocity S-wave (km/s) = 4.25833 4.62318 4.44450
# Velocity P-wave (km/s) = 7.33444 7.73219 7.53594
#
# Compressibility (1/GPa) = 0.01561245
#
# Stress axis : x y z
#
# Youngs Moduli (GPa) = 103.53910 143.02487 124.63260
#
# Poissons Ratio (x) = 0.42298 0.05290
# Poissons Ratio (y) = 0.30620 0.14317
# Poissons Ratio (z) = 0.04395 0.16430
#
# Static dielectric constant tensor:
#      x y z
#    x 4.010080 0.000000 0.013080 
#    y 0.000000 4.091630 0.000000 
#    z 0.013080 0.000000 4.019670 
# 
# 
# High freq. dielectric constant tensor:
#      x y z
#    x 1.867550 0.000000 0.004110 
#    y 0.000000 1.870140 0.000000 
#    z 0.004110 0.000000 1.850270 
# 
# From -- ./inp_files/194523.got.cif
#   From: 2010.06.25/outbox.cif.g09.slc.cpg/sg12_98_cif.got.tgz:194523.got - 2010.06.28 00:19:55.
