data_PCOD8115123
_publ_section_title
;
Structure prediction by ZEFSAII (Michael W. Deem and Ramdas Pophale) SiO2 
 PCOD8115123
Probable space group: C 2/M
;
_chemical_formula_sum "Si O2"
_cell_formula_units_Z 58
_cell_length_a 18.249944
_cell_length_b 12.243230
_cell_length_c 20.137728
_cell_angle_alpha 90.000000
_cell_angle_beta 140.095512
_cell_angle_gamma 90.000000
_cell_volume 2886.497976
_symmetry_space_group_name_H-M "C 2/M"
_symmetry_group_IT_number 12
_symmetry_cell_setting 'monoclinic'
loop_
_space_group_symop_operation_xyz
x,y,z
-x,y,-z
-x,-y,-z
x,-y,z
1/2+x,1/2+y,z
1/2-x,1/2+y,-z
1/2-x,1/2-y,-z
1/2+x,1/2-y,z
loop_
_atom_site_type_symbol
_atom_site_label
_atom_site_fract_x
_atom_site_fract_y
_atom_site_fract_z
Si Si1 0.656317 0.808276 0.081034
Si Si2 0.073964 0.374243 0.614475
Si Si3 0.000000 0.500000 0.000000
Si Si4 0.695034 0.264385 0.250953
Si Si5 0.260303 0.129169 0.586568
Si Si6 0.541341 0.624168 0.922866
Si Si7 0.880676 0.875621 0.166911
Si Si8 0.562576 0.744380 0.375627
O O1 0.686101 0.811106 0.179753
O O2 0.770836 0.813130 0.117699
O O3 0.574166 0.910195 0.010955
O O4 0.593090 0.695518 0.018456
O O5 0.057963 0.500000 0.622105
O O6 0.204626 0.351635 0.687806
O O7 0.000000 0.340473 0.500000
O O8 0.034361 0.303238 0.649028
O O9 0.718119 0.183021 0.327378
O O10 0.582375 0.334158 0.185391
O O11 0.357126 0.164700 0.601831
O O12 0.136765 0.163851 0.473189
O O13 0.264754 0.000000 0.598804
O O14 0.534266 0.500000 0.943613
O O15 0.622067 0.632923 0.914548
O O16 0.998689 0.824680 0.275220
O O17 0.876669 0.000000 0.188748
#
# Coordination Sequence:
#
# PCOD8115123 Si02
#       8
#     8   8   2   8   8   8   8   8
#     4  12  25  43  69  93 131 171 217 273 331 392
#     4  11  23  40  64  94 128 169 213 265 321 384
#     4  12  24  44  66  96 126 176 210 270 332 384
#     4  12  23  42  66  94 129 167 214 270 325 390
#     4  11  25  41  66  98 132 173 218 268 322 394
#     4  11  25  45  66  95 128 172 221 275 327 390
#     4  11  23  42  69  95 129 170 215 266 328 390
#     4  11  22  45  65  94 134 171 218 263 322 392
#
# _framework density 20.093551999999999
#
# number of rings (size 3 to 8) (size 9 to 14) (size 15 to 20)
#    0.000    0.690    6.207    1.655    0.966    1.655 
#    0.000    0.690    0.000    0.000    0.000    0.000 
#    0.000    0.000    0.000    0.000    0.000    0.000 
#
# Total GULP energy -359254.408914 kJ/mol
# GULP energy per Si atom -12388.083066 kJ/mol
# Density = 2.004782 g / cm^3
# Si number density = 20.093552 Si / 1000 Ang^3
#
#
#
# Elastic Constant Matrix: (Units=GPa)
#
#
# Indices 1 2 3 4 5 6 
#
# 1 92.7760 30.1726 25.2565 0.0000 8.9653 0.0000
# 2 30.1726 122.4201 39.3831 0.0000 -4.8884 0.0000
# 3 25.2565 39.3831 88.6753 0.0000 2.4169 0.0000
# 4 0.0000 0.0000 0.0000 41.0490 0.0000 -5.0320
# 5 8.9653 -4.8884 2.4169 0.0000 38.8236 0.0000
# 6 0.0000 0.0000 0.0000 -5.0320 0.0000 34.5192
#
#
#
# Elastic Compliance Matrix: (Units=1/GPa)
#
#
# Indices 1 2 3 4 5 6 
#
# 1 0.012519 -0.002435 -0.002401 0.000000 -0.003048 0.000000
# 2 -0.002435 0.010088 -0.003843 0.000000 0.002072 0.000000
# 3 -0.002401 -0.003843 0.013689 0.000000 -0.000782 0.000000
# 4 0.000000 0.000000 0.000000 0.024804 0.000000 0.003616
# 5 -0.003048 0.002072 -0.000782 0.000000 0.026771 0.000000
# 6 0.000000 0.000000 0.000000 0.003616 0.000000 0.029496
#
#
# Mechanical properties :
#
#
# Convention : Reuss Voigt Hill
#
# Bulk Modulus (GPa) = 52.80563 54.83287 53.81925
# Shear Modulus (GPa) = 35.45141 36.81564 36.13353
#
# Velocity S-wave (km/s) = 4.20494 4.28508 4.24520
# Velocity P-wave (km/s) = 7.06486 7.19934 7.13242
#
# Compressibility (1/GPa) = 0.01893738
#
# Stress axis : x y z
#
# Youngs Moduli (GPa) = 79.88067 99.12980 73.05029
#
# Poissons Ratio (x) = 0.24135 0.17541
# Poissons Ratio (y) = 0.19448 0.28075
# Poissons Ratio (z) = 0.19181 0.38098
#
# Static dielectric constant tensor:
#      x y z
#    x 3.745000 0.000000 0.141120 
#    y 0.000000 3.539220 0.000000 
#    z 0.141120 0.000000 3.717830 
# 
# 
# High freq. dielectric constant tensor:
#      x y z
#    x 1.803830 0.000000 0.008530 
#    y 0.000000 1.791540 0.000000 
#    z 0.008530 0.000000 1.781030 
# 
# From -- ./inp_files/315969.got.cif
#   From: 2010.06.25/outbox.cif.g09.slc.cpg/sg12_158_cif.got.tgz:315969.got - 2010.06.28 00:19:55.
