data_PCOD8115305
_publ_section_title
;
Structure prediction by ZEFSAII (Michael W. Deem and Ramdas Pophale) SiO2 
 PCOD8115305
Probable space group: C 2/M
;
_chemical_formula_sum "Si O2"
_cell_formula_units_Z 40
_cell_length_a 18.988240
_cell_length_b 8.585082
_cell_length_c 11.906044
_cell_angle_alpha 90.000000
_cell_angle_beta 104.079782
_cell_angle_gamma 90.000000
_cell_volume 1882.563077
_symmetry_space_group_name_H-M "C 2/M"
_symmetry_group_IT_number 12
_symmetry_cell_setting 'monoclinic'
loop_
_space_group_symop_operation_xyz
x,y,z
-x,y,-z
-x,-y,-z
x,-y,z
1/2+x,1/2+y,z
1/2-x,1/2+y,-z
1/2-x,1/2-y,-z
1/2+x,1/2-y,z
loop_
_atom_site_type_symbol
_atom_site_label
_atom_site_fract_x
_atom_site_fract_y
_atom_site_fract_z
Si Si1 0.085078 0.322841 0.039682
Si Si2 0.790669 0.182462 0.337071
Si Si3 0.576906 0.182397 0.477492
Si Si4 0.636511 0.681885 0.288119
Si Si5 0.683406 0.683594 0.906047
O O1 0.111178 0.500000 0.066938
O O2 0.119258 0.223070 0.153101
O O3 0.111192 0.257495 0.930356
O O4 0.000000 0.307750 0.000000
O O5 0.858586 0.221798 0.440781
O O6 0.719188 0.273020 0.350726
O O7 0.810817 0.237316 0.219842
O O8 0.773674 0.000000 0.336300
O O9 0.500000 0.235388 0.500000
O O10 0.580236 0.225244 0.346675
O O11 0.589061 0.000000 0.501110
O O12 0.625450 0.500000 0.303593
O O13 0.680436 0.500000 0.916334
O O14 0.750000 0.750000 0.000000
#
# Coordination Sequence:
#
# PCOD8115305 Si02
#       5
#     8   8   8   8   8
#     4  11  25  43  65  95 134 174 214 264 321 383
#     4  11  24  43  68  97 131 170 216 266 318 381
#     4  11  26  46  68  95 129 169 214 266 325 384
#     4  12  25  43  69  96 129 170 216 267 320 383
#     4  11  23  40  66  98 132 170 214 264 316 379
#
# _framework density 21.247627000000001
#
# number of rings (size 3 to 8) (size 9 to 14) (size 15 to 20)
#    0.000    0.800    2.000    4.800    2.800    5.600 
#    0.000    0.000    0.000    0.000    0.000    0.000 
#    0.000    0.000    0.000    0.000    0.000    0.000 
#
# Total GULP energy -248145.487652 kJ/mol
# GULP energy per Si atom -12407.274383 kJ/mol
# Density = 2.119927 g / cm^3
# Si number density = 21.247627 Si / 1000 Ang^3
#
#
#
# Elastic Constant Matrix: (Units=GPa)
#
#
# Indices 1 2 3 4 5 6 
#
# 1 112.6517 42.0076 29.1437 0.0000 -27.6089 0.0000
# 2 42.0076 77.1293 13.7218 0.0000 -8.4083 0.0000
# 3 29.1437 13.7218 64.0478 0.0000 -11.5860 0.0000
# 4 0.0000 0.0000 0.0000 32.1162 0.0000 -5.0191
# 5 -27.6089 -8.4083 -11.5860 0.0000 41.5994 0.0000
# 6 0.0000 0.0000 0.0000 -5.0191 0.0000 34.4133
#
#
#
# Elastic Compliance Matrix: (Units=1/GPa)
#
#
# Indices 1 2 3 4 5 6 
#
# 1 0.013807 -0.006105 -0.003728 0.000000 0.006891 0.000000
# 2 -0.006105 0.016342 -0.000904 0.000000 -0.001001 0.000000
# 3 -0.003728 -0.000904 0.017926 0.000000 0.002336 0.000000
# 4 0.000000 0.000000 0.000000 0.031863 0.000000 0.004647
# 5 0.006891 -0.001001 0.002336 0.000000 0.029061 0.000000
# 6 0.000000 0.000000 0.000000 0.004647 0.000000 0.029736
#
#
# Mechanical properties :
#
#
# Convention : Reuss Voigt Hill
#
# Bulk Modulus (GPa) = 37.59366 47.06387 42.32877
# Shear Modulus (GPa) = 29.57241 32.88951 31.23096
#
# Velocity S-wave (km/s) = 3.73473 3.93862 3.83803
# Velocity P-wave (km/s) = 6.02736 6.54843 6.29329
#
# Compressibility (1/GPa) = 0.02660023
#
# Stress axis : x y z
#
# Youngs Moduli (GPa) = 72.42753 61.19131 55.78524
#
# Poissons Ratio (x) = 0.37359 0.20797
# Poissons Ratio (y) = 0.44219 0.05044
# Poissons Ratio (z) = 0.27001 0.05532
#
# Static dielectric constant tensor:
#      x y z
#    x 3.275740 0.000000 0.900430 
#    y 0.000000 3.925560 0.000000 
#    z 0.900430 0.000000 2.177900 
# 
# 
# High freq. dielectric constant tensor:
#      x y z
#    x 1.844870 0.000000 -0.013350 
#    y 0.000000 1.842840 0.000000 
#    z -0.013350 0.000000 1.842430 
# 
# From -- ./inp_files/151942.got.cif
#   From: 2010.06.25/outbox.cif.g09.slc.cpg/sg12_76_cif.got.tgz:151942.got - 2010.06.28 00:19:55.
