data_PCOD8115932
_publ_section_title
;
Structure prediction by ZEFSAII (Michael W. Deem and Ramdas Pophale) SiO2 
 PCOD8115932
Probable space group: C 2/M
;
_chemical_formula_sum "Si O2"
_cell_formula_units_Z 40
_cell_length_a 27.202338
_cell_length_b 8.913236
_cell_length_c 19.114422
_cell_angle_alpha 90.000000
_cell_angle_beta 152.219817
_cell_angle_gamma 90.000000
_cell_volume 2160.050433
_symmetry_space_group_name_H-M "C 2/M"
_symmetry_group_IT_number 12
_symmetry_cell_setting 'monoclinic'
loop_
_space_group_symop_operation_xyz
x,y,z
-x,y,-z
-x,-y,-z
x,-y,z
1/2+x,1/2+y,z
1/2-x,1/2+y,-z
1/2-x,1/2-y,-z
1/2+x,1/2-y,z
loop_
_atom_site_type_symbol
_atom_site_label
_atom_site_fract_x
_atom_site_fract_y
_atom_site_fract_z
Si Si1 0.383464 0.822060 0.358308
Si Si2 0.268511 0.674783 0.950165
Si Si3 0.327539 0.823158 0.653605
Si Si4 0.212116 0.174969 0.249987
Si Si5 0.451106 0.326667 0.077955
O O1 0.500000 0.750909 0.500000
O O2 0.317427 0.755574 0.210729
O O3 0.324292 0.781684 0.356088
O O4 0.387739 0.000000 0.356585
O O5 0.249712 0.500000 0.935711
O O6 0.250000 0.750000 0.000000
O O7 0.384125 0.705566 0.063801
O O8 0.250000 0.750000 0.500000
O O9 0.296893 0.774155 0.692792
O O10 0.447376 0.777284 0.789307
O O11 0.316635 0.000000 0.633294
O O12 0.208534 0.000000 0.265853
O O13 0.117197 0.212153 0.076965
O O14 0.486297 0.500000 0.118920
#
# Coordination Sequence:
#
# PCOD8115932 Si02
#       5
#     8   8   8   8   8
#     4   8  15  30  53  79 105 136 175 211 248 304
#     4   9  18  32  52  79 109 141 176 216 259 304
#     4  12  25  38  54  78 107 137 175 223 273 324
#     4   9  18  35  58  80 106 142 178 215 262 313
#     4   9  19  37  57  77 107 145 182 219 263 316
#
# _framework density 18.518086
#
# number of rings (size 3 to 8) (size 9 to 14) (size 15 to 20)
#    0.000    2.600    0.000    4.800    0.000    5.600 
#    0.000    5.000    0.000    1.200    0.000    0.000 
#    0.000    0.000    0.000    0.000    0.000    0.000 
#
# Total GULP energy -247941.906315 kJ/mol
# GULP energy per Si atom -12397.095316 kJ/mol
# Density = 1.847594 g / cm^3
# Si number density = 18.518086 Si / 1000 Ang^3
#
#
#
# Elastic Constant Matrix: (Units=GPa)
#
#
# Indices 1 2 3 4 5 6 
#
# 1 153.9790 62.3109 76.5740 0.0000 -1.8472 0.0000
# 2 62.3109 89.4592 57.1769 0.0000 -0.5394 0.0000
# 3 76.5740 57.1769 112.7849 0.0000 13.1766 0.0000
# 4 0.0000 0.0000 0.0000 25.4081 0.0000 -4.9649
# 5 -1.8472 -0.5394 13.1766 0.0000 34.1291 0.0000
# 6 0.0000 0.0000 0.0000 -4.9649 0.0000 34.3926
#
#
#
# Elastic Compliance Matrix: (Units=1/GPa)
#
#
# Indices 1 2 3 4 5 6 
#
# 1 0.011007 -0.003945 -0.005797 0.000000 0.002771 0.000000
# 2 -0.003945 0.018399 -0.006973 0.000000 0.002769 0.000000
# 3 -0.005797 -0.006973 0.017161 0.000000 -0.007049 0.000000
# 4 0.000000 0.000000 0.000000 0.040500 0.000000 0.005847
# 5 0.002771 0.002769 -0.007049 0.000000 0.032216 0.000000
# 6 0.000000 0.000000 0.000000 0.005847 0.000000 0.029920
#
#
# Mechanical properties :
#
#
# Convention : Reuss Voigt Hill
#
# Bulk Modulus (GPa) = 76.11737 83.14966 79.63352
# Shear Modulus (GPa) = 26.73639 29.46340 28.09990
#
# Velocity S-wave (km/s) = 3.80386 3.99314 3.89965
# Velocity P-wave (km/s) = 7.77728 8.14000 7.96070
#
# Compressibility (1/GPa) = 0.01313761
#
# Stress axis : x y z
#
# Youngs Moduli (GPa) = 90.85302 54.34987 58.27277
#
# Poissons Ratio (x) = 0.21440 0.33780
# Poissons Ratio (y) = 0.35840 0.40633
# Poissons Ratio (z) = 0.52666 0.37898
#
# Static dielectric constant tensor:
#      x y z
#    x 3.497950 0.000000 0.326690 
#    y 0.000000 3.108040 0.000000 
#    z 0.326690 0.000000 2.957560 
# 
# 
# High freq. dielectric constant tensor:
#      x y z
#    x 1.733820 0.000000 0.005950 
#    y 0.000000 1.689880 0.000000 
#    z 0.005950 0.000000 1.719100 
# 
# From -- ./inp_files/211214.got.cif
#   From: 2010.06.25/outbox.cif.g09.slc.cpg/sg12_106_cif.got.tgz:211214.got - 2010.06.28 00:19:55.
