data_PCOD8115338
_publ_section_title
;
Structure prediction by ZEFSAII (Michael W. Deem and Ramdas Pophale) SiO2 
 PCOD8115338
Probable space group: C 2/M
;
_chemical_formula_sum "Si O2"
_cell_formula_units_Z 52
_cell_length_a 9.169568
_cell_length_b 23.646406
_cell_length_c 17.358519
_cell_angle_alpha 90.000000
_cell_angle_beta 37.515824
_cell_angle_gamma 90.000000
_cell_volume 2292.081647
_symmetry_space_group_name_H-M "C 2/M"
_symmetry_group_IT_number 12
_symmetry_cell_setting 'monoclinic'
loop_
_space_group_symop_operation_xyz
x,y,z
-x,y,-z
-x,-y,-z
x,-y,z
1/2+x,1/2+y,z
1/2-x,1/2+y,-z
1/2-x,1/2-y,-z
1/2+x,1/2-y,z
loop_
_atom_site_type_symbol
_atom_site_label
_atom_site_fract_x
_atom_site_fract_y
_atom_site_fract_z
Si Si1 0.337102 0.561890 0.715690
Si Si2 0.500000 0.645024 0.000000
Si Si3 0.076082 0.436675 0.226741
Si Si4 0.434933 0.204828 0.446287
Si Si5 0.632514 0.919905 0.522070
Si Si6 0.071705 0.780240 0.827592
Si Si7 0.787607 0.673584 0.144005
O O1 0.255424 0.500000 0.784505
O O2 0.175506 0.576848 0.709393
O O3 0.610498 0.551441 0.575020
O O4 0.321374 0.614086 0.781721
O O5 0.553252 0.685827 0.050232
O O6 0.271139 0.606432 0.112295
O O7 0.164953 0.500000 0.170259
O O8 0.039956 0.432492 0.333683
O O9 0.500000 0.231073 0.500000
O O10 0.250000 0.250000 0.500000
O O11 0.303162 0.145754 0.511751
O O12 0.662175 0.195647 0.295929
O O13 0.500000 0.941527 0.500000
O O14 0.101560 0.713499 0.835054
O O15 0.912731 0.789394 0.817591
O O16 0.000000 0.654620 0.000000
#
# Coordination Sequence:
#
# PCOD8115338 Si02
#       7
#     8   4   8   8   8   8   8
#     4  11  26  46  69 103 144 188 241 293 353 422
#     4  12  25  46  72 104 143 182 238 292 354 424
#     4  11  25  46  72 101 140 189 239 291 352 423
#     4  11  23  41  64  99 137 174 225 283 349 415
#     4  11  23  44  70 102 140 184 236 295 356 417
#     4  12  25  45  71 104 142 183 233 289 354 422
#     4  12  26  45  71 104 143 191 234 291 354 424
#
# _framework density 22.686800999999999
#
# number of rings (size 3 to 8) (size 9 to 14) (size 15 to 20)
#    0.000    0.615    2.308    6.231    2.154    5.231 
#    0.000    0.769    0.000    0.000    0.000    0.000 
#    0.000    0.000    0.000    0.000    0.000    0.000 
#
# Total GULP energy -322308.550741 kJ/mol
# GULP energy per Si atom -12396.482721 kJ/mol
# Density = 2.263517 g / cm^3
# Si number density = 22.686801 Si / 1000 Ang^3
#
#
#
# Elastic Constant Matrix: (Units=GPa)
#
#
# Indices 1 2 3 4 5 6 
#
# 1 118.6909 54.9339 39.8853 -0.0085 -0.7240 0.0017
# 2 54.9339 147.4177 41.0694 -0.0019 3.9896 0.0004
# 3 39.8853 41.0694 125.0710 -0.0510 -4.2741 0.0292
# 4 -0.0085 -0.0019 -0.0510 13.0320 0.0052 7.0778
# 5 -0.7240 3.9896 -4.2741 0.0052 36.5453 -0.0033
# 6 0.0017 0.0004 0.0292 7.0778 -0.0033 17.3299
#
#
#
# Elastic Compliance Matrix: (Units=1/GPa)
#
#
# Indices 1 2 3 4 5 6 
#
# 1 0.010767 -0.003376 -0.002315 -0.000005 0.000311 0.000005
# 2 -0.003376 0.008570 -0.001779 -0.000012 -0.001210 0.000008
# 3 -0.002315 -0.001779 0.009360 0.000055 0.001243 -0.000038
# 4 -0.000005 -0.000012 0.000055 0.098607 -0.000010 -0.040273
# 5 0.000311 -0.001210 0.001243 -0.000010 0.027647 0.000007
# 6 0.000005 0.000008 -0.000038 -0.040273 0.000007 0.074152
#
#
# Mechanical properties :
#
#
# Convention : Reuss Voigt Hill
#
# Bulk Modulus (GPa) = 72.68123 73.66187 73.17155
# Shear Modulus (GPa) = 20.11037 30.40084 25.25561
#
# Velocity S-wave (km/s) = 2.98054 3.66460 3.34013
# Velocity P-wave (km/s) = 6.62956 7.10248 6.87010
#
# Compressibility (1/GPa) = 0.01375871
#
# Stress axis : x y z
#
# Youngs Moduli (GPa) = 92.87243 116.68878 106.83546
#
# Poissons Ratio (x) = 0.39394 0.24728
# Poissons Ratio (y) = 0.31354 0.19004
# Poissons Ratio (z) = 0.21496 0.20757
#
# Static dielectric constant tensor:
#      x y z
#    x 4.333670 -0.000010 -0.322410 
#    y -0.000010 4.224540 0.000010 
#    z -0.322410 0.000010 4.511920 
# 
# 
# High freq. dielectric constant tensor:
#      x y z
#    x 1.896430 0.000000 -0.007330 
#    y 0.000000 1.913570 0.000000 
#    z -0.007330 0.000000 1.896040 
# 
# From -- ./inp_files/259668.got.cif
#   From: 2010.06.25/outbox.cif.g09.slc.cpg/sg12_130_cif.got.tgz:259668.got - 2010.06.28 00:19:55.
