data_PCOD8115752
_publ_section_title
;
Structure prediction by ZEFSAII (Michael W. Deem and Ramdas Pophale) SiO2 
 PCOD8115752
Probable space group: C 2/M
;
_chemical_formula_sum "Si O2"
_cell_formula_units_Z 40
_cell_length_a 12.631557
_cell_length_b 22.908629
_cell_length_c 10.515036
_cell_angle_alpha 90.000000
_cell_angle_beta 145.566899
_cell_angle_gamma 90.000000
_cell_volume 1720.505392
_symmetry_space_group_name_H-M "C 2/M"
_symmetry_group_IT_number 12
_symmetry_cell_setting 'monoclinic'
loop_
_space_group_symop_operation_xyz
x,y,z
-x,y,-z
-x,-y,-z
x,-y,z
1/2+x,1/2+y,z
1/2-x,1/2+y,-z
1/2-x,1/2-y,-z
1/2+x,1/2-y,z
loop_
_atom_site_type_symbol
_atom_site_label
_atom_site_fract_x
_atom_site_fract_y
_atom_site_fract_z
Si Si1 0.635852 0.299884 0.515353
Si Si2 0.483257 0.885881 0.846801
Si Si3 0.788708 0.183663 0.022145
Si Si4 0.354252 0.936048 0.469626
Si Si5 0.703004 0.320029 0.245979
O O1 0.500000 0.312446 0.500000
O O2 0.517098 0.319425 0.270546
O O3 0.690012 0.230468 0.568112
O O4 0.821751 0.337498 0.699758
O O5 0.452269 0.932769 0.705119
O O6 0.500000 0.918292 0.000000
O O7 0.681235 0.853810 0.020545
O O8 0.750000 0.250000 0.000000
O O9 0.704703 0.166322 0.801182
O O10 0.500000 0.930011 0.500000
O O11 0.206289 0.882886 0.319143
O O12 0.255644 0.000000 0.363540
O O13 0.500000 0.297887 0.000000
#
# Coordination Sequence:
#
# PCOD8115752 Si02
#       5
#     8   8   8   8   8
#     4  12  23  39  62 103 143 175 212 271 334 423
#     4  12  24  42  69  99 136 178 218 274 346 400
#     4  12  22  37  61  95 139 172 217 262 328 404
#     4  11  25  47  71  95 128 176 237 286 326 391
#     4  12  24  42  66 100 138 183 218 277 338 401
#
# _framework density 23.248982999999999
#
# number of rings (size 3 to 8) (size 9 to 14) (size 15 to 20)
#    0.000    0.200    6.000    4.800    0.000    3.200 
#    0.000    0.000    0.000    0.600    0.000    0.000 
#    0.000    0.000    0.000    0.000    0.000    0.000 
#
# Total GULP energy -247839.620659 kJ/mol
# GULP energy per Si atom -12391.981033 kJ/mol
# Density = 2.319607 g / cm^3
# Si number density = 23.248983 Si / 1000 Ang^3
#
#
#
# Elastic Constant Matrix: (Units=GPa)
#
#
# Indices 1 2 3 4 5 6 
#
# 1 74.6384 46.7580 29.9825 0.0000 -17.0104 0.0000
# 2 46.7580 107.5619 45.3387 0.0000 -8.5591 0.0000
# 3 29.9825 45.3387 121.6333 0.0000 -18.0212 0.0000
# 4 0.0000 0.0000 0.0000 21.1652 0.0000 2.6823
# 5 -17.0104 -8.5591 -18.0212 0.0000 60.4186 0.0000
# 6 0.0000 0.0000 0.0000 2.6823 0.0000 12.8427
#
#
#
# Elastic Compliance Matrix: (Units=1/GPa)
#
#
# Indices 1 2 3 4 5 6 
#
# 1 0.019665 -0.007636 -0.001403 0.000000 0.004036 0.000000
# 2 -0.007636 0.014002 -0.003517 0.000000 -0.001215 0.000000
# 3 -0.001403 -0.003517 0.010197 0.000000 0.002148 0.000000
# 4 0.000000 0.000000 0.000000 0.048532 0.000000 -0.010136
# 5 0.004036 -0.001215 0.002148 0.000000 0.018156 0.000000
# 6 0.000000 0.000000 0.000000 -0.010136 0.000000 0.079982
#
#
# Mechanical properties :
#
#
# Convention : Reuss Voigt Hill
#
# Bulk Modulus (GPa) = 53.32913 60.88800 57.10857
# Shear Modulus (GPa) = 22.53297 31.00226 26.76762
#
# Velocity S-wave (km/s) = 3.11658 3.65566 3.39683
# Velocity P-wave (km/s) = 5.99490 6.63814 6.32470
#
# Compressibility (1/GPa) = 0.01875148
#
# Stress axis : x y z
#
# Youngs Moduli (GPa) = 50.85156 71.41739 98.07231
#
# Poissons Ratio (x) = 0.54534 0.13761
# Poissons Ratio (y) = 0.38830 0.34493
# Poissons Ratio (z) = 0.07135 0.25118
#
# Static dielectric constant tensor:
#      x y z
#    x 6.105090 0.000000 -7.386650 
#    y 0.000000 3.874860 0.000000 
#    z -7.386650 0.000000 47.097860 
# 
# 
# High freq. dielectric constant tensor:
#      x y z
#    x 1.957590 0.000000 -0.019440 
#    y 0.000000 1.876060 0.000000 
#    z -0.019440 0.000000 1.926960 
# 
# From -- ./inp_files/148999.got.cif
#   From: 2010.06.25/outbox.cif.g09.slc.cpg/sg12_75_cif.got.tgz:148999.got - 2010.06.28 00:19:55.
