data_PCOD8115075
_publ_section_title
;
Structure prediction by ZEFSAII (Michael W. Deem and Ramdas Pophale) SiO2 
 PCOD8115075
Probable space group: C 2/M
;
_chemical_formula_sum "Si O2"
_cell_formula_units_Z 56
_cell_length_a 18.151648
_cell_length_b 16.548475
_cell_length_c 11.357974
_cell_angle_alpha 90.000000
_cell_angle_beta 53.028284
_cell_angle_gamma 90.000000
_cell_volume 2725.743573
_symmetry_space_group_name_H-M "C 2/M"
_symmetry_group_IT_number 12
_symmetry_cell_setting 'monoclinic'
loop_
_space_group_symop_operation_xyz
x,y,z
-x,y,-z
-x,-y,-z
x,-y,z
1/2+x,1/2+y,z
1/2-x,1/2+y,-z
1/2-x,1/2-y,-z
1/2+x,1/2-y,z
loop_
_atom_site_type_symbol
_atom_site_label
_atom_site_fract_x
_atom_site_fract_y
_atom_site_fract_z
Si Si1 0.855076 0.000000 0.684173
Si Si2 0.224541 0.172985 0.189234
Si Si3 0.978777 0.145046 0.149060
Si Si4 0.713059 0.726362 0.662495
Si Si5 0.614063 0.765279 0.122563
Si Si6 0.345286 0.911157 0.615030
Si Si7 0.474461 0.910852 0.707762
Si Si8 0.040451 0.000000 0.653102
O O1 0.797694 0.921542 0.778003
O O2 0.876138 0.000000 0.522872
O O3 0.947640 0.000000 0.669293
O O4 0.263095 0.197982 0.278559
O O5 0.136663 0.227087 0.230779
O O6 0.298612 0.189861 0.016879
O O7 0.895528 0.209245 0.231467
O O8 0.954230 0.078072 0.269192
O O9 0.073898 0.191617 0.085593
O O10 0.000000 0.106795 0.000000
O O11 0.750000 0.750000 0.500000
O O12 0.762791 0.648781 0.669273
O O13 0.535768 0.835014 0.196543
O O14 0.387972 0.901346 0.702954
O O15 0.427334 0.899291 0.444997
O O16 0.301719 0.000000 0.643215
O O17 0.469490 0.000000 0.772709
#
# Coordination Sequence:
#
# PCOD8115075 Si02
#       8
#     4   8   8   8   8   8   8   4
#     4  11  24  46  72  99 134 173 237 284 335 397
#     4  11  24  43  66  97 129 169 228 275 326 402
#     4  12  25  45  66  97 141 174 225 276 346 416
#     4  12  24  41  64  95 131 180 220 273 337 403
#     4  11  22  42  67  93 131 173 217 275 332 397
#     4   9  19  37  58  92 126 156 214 270 321 388
#     4   9  18  35  64  93 121 161 211 270 327 380
#     4  11  25  46  68 102 135 184 221 281 345 409
#
# _framework density 20.544851999999999
#
# number of rings (size 3 to 8) (size 9 to 14) (size 15 to 20)
#    0.000    1.286    4.286    2.786    2.000    0.000 
#    1.286    0.000    1.571    1.286    0.000    0.000 
#    0.000    0.000    0.000    0.000    0.000    0.000 
#
# Total GULP energy -347061.215260 kJ/mol
# GULP energy per Si atom -12395.043402 kJ/mol
# Density = 2.049809 g / cm^3
# Si number density = 20.544852 Si / 1000 Ang^3
#
#
#
# Elastic Constant Matrix: (Units=GPa)
#
#
# Indices 1 2 3 4 5 6 
#
# 1 37.4124 42.2041 -28.6976 0.0000 -28.0141 0.0000
# 2 42.2041 130.3272 70.0772 0.0000 12.1766 0.0000
# 3 -28.6976 70.0772 4.7047 0.0000 -32.6281 0.0000
# 4 0.0000 0.0000 0.0000 38.5523 0.0000 -0.6597
# 5 -28.0141 12.1766 -32.6281 0.0000 4.7252 0.0000
# 6 0.0000 0.0000 0.0000 -0.6597 0.0000 34.8811
#
#
#
# Elastic Compliance Matrix: (Units=1/GPa)
#
#
# Indices 1 2 3 4 5 6 
#
# 1 0.011501 0.002273 -0.009993 0.000000 -0.006676 0.000000
# 2 0.002273 0.005288 0.001406 0.000000 0.009560 0.000000
# 3 -0.009993 0.001406 0.006513 0.000000 -0.017899 0.000000
# 4 0.000000 0.000000 0.000000 0.025947 0.000000 0.000491
# 5 -0.006676 0.009560 -0.017899 0.000000 0.023823 0.000000
# 6 0.000000 0.000000 0.000000 0.000491 0.000000 0.028678
#
#
# Mechanical properties :
#
#
# Convention : Reuss Voigt Hill
#
# Bulk Modulus (GPa) = 93.69178 37.73462 65.71320
# Shear Modulus (GPa) = 42.39560 21.55574 31.97567
#
# Velocity S-wave (km/s) = 4.54757 3.24266 3.94938
# Velocity P-wave (km/s) = 8.56017 5.69443 7.26990
#
# Compressibility (1/GPa) = 0.01067329
#
# Stress axis : x y z
#
# Youngs Moduli (GPa) = 86.94712 189.12363 153.54009
#
# Poissons Ratio (x) = -0.42982 1.53439
# Poissons Ratio (y) = -0.19760 -0.21595
# Poissons Ratio (z) = 0.86890 -0.26600
#
# Static dielectric constant tensor:
#      x y z
#    x 3.762500 0.000000 0.055440 
#    y 0.000000 3.836960 0.000000 
#    z 0.055440 0.000000 3.607290 
# 
# 
# High freq. dielectric constant tensor:
#      x y z
#    x 1.800430 0.000000 -0.002740 
#    y 0.000000 1.815220 0.000000 
#    z -0.002740 0.000000 1.795270 
# 
# From -- ./inp_files/156575.got.cif
#   From: 2010.06.25/outbox.cif.g09.slc.cpg/sg12_79_cif.got.tgz:156575.got - 2010.06.28 00:19:55.
