data_PCOD8115107
_publ_section_title
;
Structure prediction by ZEFSAII (Michael W. Deem and Ramdas Pophale) SiO2 
 PCOD8115107
Probable space group: C 2/M
;
_chemical_formula_sum "Si O2"
_cell_formula_units_Z 40
_cell_length_a 16.918303
_cell_length_b 10.142715
_cell_length_c 11.760478
_cell_angle_alpha 90.000000
_cell_angle_beta 109.995871
_cell_angle_gamma 90.000000
_cell_volume 1896.414212
_symmetry_space_group_name_H-M "C 2/M"
_symmetry_group_IT_number 12
_symmetry_cell_setting 'monoclinic'
loop_
_space_group_symop_operation_xyz
x,y,z
-x,y,-z
-x,-y,-z
x,-y,z
1/2+x,1/2+y,z
1/2-x,1/2+y,-z
1/2-x,1/2-y,-z
1/2+x,1/2-y,z
loop_
_atom_site_type_symbol
_atom_site_label
_atom_site_fract_x
_atom_site_fract_y
_atom_site_fract_z
Si Si1 0.552330 0.500000 0.357210
Si Si2 0.344926 0.237797 0.080332
Si Si3 0.598664 0.000000 0.042125
Si Si4 0.672052 0.773648 0.669553
Si Si5 0.252635 0.500000 0.571668
Si Si6 0.500000 0.287570 0.500000
Si Si7 0.049053 0.000000 0.907494
Si Si8 0.768311 0.500000 0.690431
O O1 0.651695 0.500000 0.423161
O O2 0.509858 0.372942 0.391610
O O3 0.529783 0.500000 0.215157
O O4 0.348140 0.187584 0.211357
O O5 0.392650 0.374018 0.082685
O O6 0.250000 0.250000 0.000000
O O7 0.382713 0.130457 0.017003
O O8 0.649495 0.000000 0.187615
O O9 0.500000 0.000000 0.000000
O O10 0.737290 0.871547 0.640989
O O11 0.584969 0.795561 0.558080
O O12 0.709449 0.626422 0.685085
O O13 0.200769 0.500000 0.426548
O O14 0.000000 0.000000 0.000000
#
# Coordination Sequence:
#
# PCOD8115107 Si02
#       8
#     4   8   4   8   4   4   4   4
#     4  11  23  43  70 101 135 182 231 278 336 417
#     4  12  25  46  70  99 138 185 231 278 343 410
#     4  12  28  46  70 101 143 185 225 287 353 401
#     4  12  25  46  73 104 138 183 229 286 342 416
#     4  12  28  42  74 108 138 175 232 286 350 410
#     4  11  22  43  74  98 134 186 228 270 354 406
#     4  12  27  44  71 107 137 176 241 293 325 407
#     4  12  24  47  69  99 142 183 226 279 347 413
#
# _framework density 21.092437
#
# number of rings (size 3 to 8) (size 9 to 14) (size 15 to 20)
#    0.000    0.200    6.000    3.600    2.800    3.600 
#    0.000    0.000    0.000    0.000    0.000    0.000 
#    0.000    0.000    0.000    0.000    0.000    0.000 
#
# Total GULP energy -248002.221847 kJ/mol
# GULP energy per Si atom -12400.111092 kJ/mol
# Density = 2.104443 g / cm^3
# Si number density = 21.092437 Si / 1000 Ang^3
#
#
#
# Elastic Constant Matrix: (Units=GPa)
#
#
# Indices 1 2 3 4 5 6 
#
# 1 123.6993 43.1203 50.3909 0.0000 1.8831 0.0000
# 2 43.1203 116.8212 40.6040 0.0000 -4.5988 0.0000
# 3 50.3909 40.6040 162.4699 0.0000 -8.6620 0.0000
# 4 0.0000 0.0000 0.0000 67.9712 0.0000 -28.7311
# 5 1.8831 -4.5988 -8.6620 0.0000 49.5409 0.0000
# 6 0.0000 0.0000 0.0000 -28.7311 0.0000 46.4456
#
#
#
# Elastic Compliance Matrix: (Units=1/GPa)
#
#
# Indices 1 2 3 4 5 6 
#
# 1 0.010125 -0.002922 -0.002468 0.000000 -0.001088 0.000000
# 2 -0.002922 0.010228 -0.001608 0.000000 0.000779 0.000000
# 3 -0.002468 -0.001608 0.007388 0.000000 0.001236 0.000000
# 4 0.000000 0.000000 0.000000 0.019921 0.000000 0.012323
# 5 -0.001088 0.000779 0.001236 0.000000 0.020515 0.000000
# 6 0.000000 0.000000 0.000000 0.012323 0.000000 0.029154
#
#
# Mechanical properties :
#
#
# Convention : Reuss Voigt Hill
#
# Bulk Modulus (GPa) = 72.75664 74.58008 73.66836
# Shear Modulus (GPa) = 43.13707 50.71655 46.92681
#
# Velocity S-wave (km/s) = 4.52723 4.90888 4.72191
# Velocity P-wave (km/s) = 7.86746 8.21979 8.04555
#
# Compressibility (1/GPa) = 0.01374445
#
# Stress axis : x y z
#
# Youngs Moduli (GPa) = 98.76875 97.76684 135.34930
#
# Poissons Ratio (x) = 0.28569 0.33403
# Poissons Ratio (y) = 0.28862 0.21769
# Poissons Ratio (z) = 0.24375 0.15725
#
# Static dielectric constant tensor:
#      x y z
#    x 3.883350 0.000000 0.016850 
#    y 0.000000 3.777830 0.000000 
#    z 0.016850 0.000000 4.202820 
# 
# 
# High freq. dielectric constant tensor:
#      x y z
#    x 1.838640 0.000000 -0.002390 
#    y 0.000000 1.825720 0.000000 
#    z -0.002390 0.000000 1.848000 
# 
# From -- ./inp_files/141192.got.cif
#   From: 2010.06.25/outbox.cif.g09.slc.cpg/sg12_71_cif.got.tgz:141192.got - 2010.06.28 00:19:55.
