data_PCOD8115778
_publ_section_title
;
Structure prediction by ZEFSAII (Michael W. Deem and Ramdas Pophale) SiO2 
 PCOD8115778
Probable space group: C 2/M
;
_chemical_formula_sum "Si O2"
_cell_formula_units_Z 64
_cell_length_a 17.030904
_cell_length_b 22.843167
_cell_length_c 13.791325
_cell_angle_alpha 90.000000
_cell_angle_beta 146.655914
_cell_angle_gamma 90.000000
_cell_volume 2949.162455
_symmetry_space_group_name_H-M "C 2/M"
_symmetry_group_IT_number 12
_symmetry_cell_setting 'monoclinic'
loop_
_space_group_symop_operation_xyz
x,y,z
-x,y,-z
-x,-y,-z
x,-y,z
1/2+x,1/2+y,z
1/2-x,1/2+y,-z
1/2-x,1/2-y,-z
1/2+x,1/2-y,z
loop_
_atom_site_type_symbol
_atom_site_label
_atom_site_fract_x
_atom_site_fract_y
_atom_site_fract_z
Si Si1 0.482158 0.386042 0.206366
Si Si2 0.265148 0.128188 0.199882
Si Si3 0.879358 0.770076 0.572532
Si Si4 0.754285 0.566784 0.388939
Si Si5 0.375961 0.149425 0.952279
Si Si6 0.500070 0.853876 0.707618
Si Si7 0.123261 0.068333 0.698817
Si Si8 0.829938 0.757727 0.320880
O O1 0.536362 0.322927 0.294440
O O2 0.601060 0.427341 0.281778
O O3 0.411053 0.417522 0.224753
O O4 0.373505 0.373890 0.008384
O O5 0.252637 0.080860 0.272515
O O6 0.399562 0.115549 0.269003
O O7 0.281951 0.190905 0.267504
O O8 0.750000 0.750000 0.500000
O O9 0.988481 0.715213 0.668592
O O10 0.793173 0.786382 0.386492
O O11 0.806618 0.500000 0.455050
O O12 0.851873 0.611874 0.548891
O O13 0.275528 0.094498 0.822659
O O14 0.266303 0.204631 0.852734
O O15 0.500000 0.158692 0.000000
O O16 0.444355 0.138554 0.126920
O O17 0.000000 0.093198 0.500000
O O18 0.138325 0.000000 0.700023
O O19 0.000000 0.766793 0.500000
#
# Coordination Sequence:
#
# PCOD8115778 Si02
#       8
#     8   8   8   8   8   8   8   8
#     4  12  25  46  76 106 140 187 241 301 360 429
#     4  12  25  46  71 108 147 183 241 297 358 428
#     4  12  22  40  71 102 143 183 232 285 356 420
#     4  12  28  49  74 103 145 197 242 294 358 432
#     4  12  27  44  70 106 141 183 240 297 366 420
#     4  12  25  46  69 108 145 189 240 292 359 431
#     4  11  26  48  71  99 137 184 239 298 363 434
#     4  12  23  42  71 104 148 187 228 289 360 430
#
# _framework density 21.701076
#
# number of rings (size 3 to 8) (size 9 to 14) (size 15 to 20)
#    0.000    0.125    5.000    4.500    1.750    5.250 
#    0.000    0.000    0.000    0.000    0.000    0.000 
#    0.000    0.000    0.000    0.000    0.000    0.000 
#
# Total GULP energy -396702.707377 kJ/mol
# GULP energy per Si atom -12396.959606 kJ/mol
# Density = 2.165168 g / cm^3
# Si number density = 21.701076 Si / 1000 Ang^3
#
#
#
# Elastic Constant Matrix: (Units=GPa)
#
#
# Indices 1 2 3 4 5 6 
#
# 1 93.0320 13.2191 28.4378 0.0000 -2.2919 0.0000
# 2 13.2191 101.1962 24.9932 0.0000 0.2774 0.0000
# 3 28.4378 24.9932 121.5302 0.0000 -12.8695 0.0000
# 4 0.0000 0.0000 0.0000 42.5987 0.0000 10.1410
# 5 -2.2919 0.2774 -12.8695 0.0000 41.5472 0.0000
# 6 0.0000 0.0000 0.0000 10.1410 0.0000 27.6234
#
#
#
# Elastic Compliance Matrix: (Units=1/GPa)
#
#
# Indices 1 2 3 4 5 6 
#
# 1 0.011654 -0.000890 -0.002559 0.000000 -0.000144 0.000000
# 2 -0.000890 0.010502 -0.002031 0.000000 -0.000748 0.000000
# 3 -0.002559 -0.002031 0.009544 0.000000 0.002829 0.000000
# 4 0.000000 0.000000 0.000000 0.025723 0.000000 -0.009443
# 5 -0.000144 -0.000748 0.002829 0.000000 0.024942 0.000000
# 6 0.000000 0.000000 0.000000 -0.009443 0.000000 0.039668
#
#
# Mechanical properties :
#
#
# Convention : Reuss Voigt Hill
#
# Bulk Modulus (GPa) = 48.21478 49.89540 49.05509
# Shear Modulus (GPa) = 35.73806 38.96107 37.34956
#
# Velocity S-wave (km/s) = 4.06252 4.24176 4.15311
# Velocity P-wave (km/s) = 6.65367 6.85799 6.75660
#
# Compressibility (1/GPa) = 0.02074053
#
# Stress axis : x y z
#
# Youngs Moduli (GPa) = 85.80589 95.22334 104.77278
#
# Poissons Ratio (x) = 0.08474 0.26814
# Poissons Ratio (y) = 0.07636 0.21276
# Poissons Ratio (z) = 0.21960 0.19337
#
# Static dielectric constant tensor:
#      x y z
#    x 4.433850 0.000000 -0.186120 
#    y 0.000000 3.603330 0.000000 
#    z -0.186120 0.000000 4.131420 
# 
# 
# High freq. dielectric constant tensor:
#      x y z
#    x 1.870650 0.000000 -0.005170 
#    y 0.000000 1.845860 0.000000 
#    z -0.005170 0.000000 1.869840 
# 
# From -- ./inp_files/228188.got.cif
#   From: 2010.06.25/outbox.cif.g09.slc.cpg/sg12_115_cif.got.tgz:228188.got - 2010.06.28 00:19:55.
