data_PCOD8115877
_publ_section_title
;
Structure prediction by ZEFSAII (Michael W. Deem and Ramdas Pophale) SiO2 
 PCOD8115877
Probable space group: C 2/M
;
_chemical_formula_sum "Si O2"
_cell_formula_units_Z 44
_cell_length_a 8.472086
_cell_length_b 28.461931
_cell_length_c 9.518027
_cell_angle_alpha 90.000000
_cell_angle_beta 120.128267
_cell_angle_gamma 90.000000
_cell_volume 1985.041094
_symmetry_space_group_name_H-M "C 2/M"
_symmetry_group_IT_number 12
_symmetry_cell_setting 'monoclinic'
loop_
_space_group_symop_operation_xyz
x,y,z
-x,y,-z
-x,-y,-z
x,-y,z
1/2+x,1/2+y,z
1/2-x,1/2+y,-z
1/2-x,1/2-y,-z
1/2+x,1/2-y,z
loop_
_atom_site_type_symbol
_atom_site_label
_atom_site_fract_x
_atom_site_fract_y
_atom_site_fract_z
Si Si1 0.858667 0.857607 0.065290
Si Si2 0.366599 0.708873 0.308446
Si Si3 0.340017 0.448117 0.223338
Si Si4 0.500000 0.126184 0.500000
Si Si5 0.955206 0.307183 0.223442
Si Si6 0.251781 0.448101 0.487529
O O1 0.942799 0.832185 0.240592
O O2 0.811409 0.911405 0.083927
O O3 0.670905 0.829775 0.952897
O O4 0.000000 0.855333 0.000000
O O5 0.500000 0.711426 0.500000
O O6 0.369188 0.757483 0.226178
O O7 0.162033 0.698257 0.266194
O O8 0.286300 0.500000 0.141398
O O9 0.221319 0.435259 0.308813
O O10 0.542147 0.449284 0.372056
O O11 0.561354 0.158328 0.653939
O O12 0.332324 0.092573 0.457327
O O13 0.166042 0.500000 0.476075
#
# Coordination Sequence:
#
# PCOD8115877 Si02
#       6
#     8   8   8   4   8   8
#     4  12  26  43  70 104 143 182 228 285 346 402
#     4  12  27  48  74  97 138 183 231 283 345 414
#     4   9  20  41  68  97 135 181 229 275 338 407
#     4  12  23  38  66  96 140 172 235 278 340 408
#     4  12  27  45  68 102 137 180 233 285 342 407
#     4   9  19  37  64  97 134 180 226 279 336 405
#
# _framework density 22.165786000000001
#
# number of rings (size 3 to 8) (size 9 to 14) (size 15 to 20)
#    0.000    1.091    0.909    6.273    7.636    0.364 
#    0.000    1.818    0.000    4.364    0.000    0.000 
#    0.000    0.000    0.000    0.000    0.000    0.000 
#
# Total GULP energy -272796.622098 kJ/mol
# GULP energy per Si atom -12399.846459 kJ/mol
# Density = 2.211534 g / cm^3
# Si number density = 22.165786 Si / 1000 Ang^3
#
#
#
# Elastic Constant Matrix: (Units=GPa)
#
#
# Indices 1 2 3 4 5 6 
#
# 1 120.0290 62.2905 27.8468 0.0000 -15.1171 0.0000
# 2 62.2905 166.4225 46.4003 0.0000 -21.5262 0.0000
# 3 27.8468 46.4003 83.4080 0.0000 -4.5553 0.0000
# 4 0.0000 0.0000 0.0000 70.2820 0.0000 -9.9652
# 5 -15.1171 -21.5262 -4.5553 0.0000 32.8704 0.0000
# 6 0.0000 0.0000 0.0000 -9.9652 0.0000 40.7436
#
#
#
# Elastic Compliance Matrix: (Units=1/GPa)
#
#
# Indices 1 2 3 4 5 6 
#
# 1 0.010707 -0.003214 -0.001645 0.000000 0.002592 0.000000
# 2 -0.003214 0.008683 -0.003555 0.000000 0.003716 0.000000
# 3 -0.001645 -0.003555 0.014457 0.000000 -0.001081 0.000000
# 4 0.000000 0.000000 0.000000 0.014740 0.000000 0.003605
# 5 0.002592 0.003716 -0.001081 0.000000 0.033898 0.000000
# 6 0.000000 0.000000 0.000000 0.003605 0.000000 0.025425
#
#
# Mechanical properties :
#
#
# Convention : Reuss Voigt Hill
#
# Bulk Modulus (GPa) = 58.75422 71.43719 65.09571
# Shear Modulus (GPa) = 38.34007 44.33400 41.33703
#
# Velocity S-wave (km/s) = 4.16347 4.47711 4.32314
# Velocity P-wave (km/s) = 7.04819 7.68274 7.37230
#
# Compressibility (1/GPa) = 0.01702005
#
# Stress axis : x y z
#
# Youngs Moduli (GPa) = 93.39492 115.16228 69.17018
#
# Poissons Ratio (x) = 0.37009 0.11381
# Poissons Ratio (y) = 0.30014 0.24588
# Poissons Ratio (z) = 0.15368 0.40938
#
# Static dielectric constant tensor:
#      x y z
#    x 4.045810 0.000000 -0.514020 
#    y 0.000000 4.468000 0.000000 
#    z -0.514020 0.000000 3.523760 
# 
# 
# High freq. dielectric constant tensor:
#      x y z
#    x 1.872040 0.000000 -0.012700 
#    y 0.000000 1.896600 0.000000 
#    z -0.012700 0.000000 1.865690 
# 
# From -- ./inp_files/42373.got.cif
#   From: 2010.06.25/outbox.cif.g09.slc.cpg/sg12_22_cif.got.tgz:42373.got - 2010.06.28 00:19:55.
