data_PCOD8115319
_publ_section_title
;
Structure prediction by ZEFSAII (Michael W. Deem and Ramdas Pophale) SiO2 
 PCOD8115319
Probable space group: C 2/M
;
_chemical_formula_sum "Si O2"
_cell_formula_units_Z 48
_cell_length_a 17.010200
_cell_length_b 15.319634
_cell_length_c 9.242492
_cell_angle_alpha 90.000000
_cell_angle_beta 95.776611
_cell_angle_gamma 90.000000
_cell_volume 2396.270682
_symmetry_space_group_name_H-M "C 2/M"
_symmetry_group_IT_number 12
_symmetry_cell_setting 'monoclinic'
loop_
_space_group_symop_operation_xyz
x,y,z
-x,y,-z
-x,-y,-z
x,-y,z
1/2+x,1/2+y,z
1/2-x,1/2+y,-z
1/2-x,1/2-y,-z
1/2+x,1/2-y,z
loop_
_atom_site_type_symbol
_atom_site_label
_atom_site_fract_x
_atom_site_fract_y
_atom_site_fract_z
Si Si1 0.920149 0.902961 0.573973
Si Si2 0.701810 0.812532 0.098418
Si Si3 0.867780 0.500000 0.951494
Si Si4 0.045423 0.790582 0.147356
Si Si5 0.490693 0.000000 0.233114
Si Si6 0.306079 0.281246 0.386844
Si Si7 0.954135 0.319347 0.349915
O O1 0.926514 0.863824 0.736099
O O2 0.857568 0.858519 0.459165
O O3 0.000000 0.900125 0.500000
O O4 0.890044 0.000000 0.595364
O O5 0.618404 0.767959 0.112333
O O6 0.754151 0.820915 0.250379
O O7 0.686359 0.912586 0.043729
O O8 0.750000 0.750000 0.000000
O O9 0.919141 0.500000 0.811632
O O10 0.928578 0.500000 0.093240
O O11 0.982216 0.728248 0.210990
O O12 0.000000 0.831957 0.000000
O O13 0.474392 0.920056 0.336830
O O14 0.250000 0.250000 0.500000
O O15 0.360837 0.199686 0.347527
O O16 0.000000 0.281994 0.500000
#
# Coordination Sequence:
#
# PCOD8115319 Si02
#       7
#     8   8   4   8   4   8   8
#     4  11  24  45  70  94 127 175 227 273 322 393
#     4  12  26  43  66  99 136 179 215 272 341 395
#     4  11  24  44  66 100 134 173 220 271 341 396
#     4  12  22  43  70  94 131 177 225 271 324 397
#     4  11  23  40  70 100 128 167 225 283 318 396
#     4  12  23  44  66  95 135 174 215 271 337 393
#     4  12  22  43  68  99 131 174 225 268 328 398
#
# _framework density 20.031126
#
# number of rings (size 3 to 8) (size 9 to 14) (size 15 to 20)
#    0.000    0.333    6.667    3.250    1.167    0.333 
#    3.000    0.000    0.000    0.000    0.000    0.000 
#    0.000    0.000    0.000    0.000    0.000    0.000 
#
# Total GULP energy -297601.170681 kJ/mol
# GULP energy per Si atom -12400.048778 kJ/mol
# Density = 1.998553 g / cm^3
# Si number density = 20.031126 Si / 1000 Ang^3
#
#
#
# Elastic Constant Matrix: (Units=GPa)
#
#
# Indices 1 2 3 4 5 6 
#
# 1 111.3931 37.2540 39.2524 0.0000 -8.1420 0.0000
# 2 37.2540 131.5726 35.0611 0.0000 -8.9118 0.0000
# 3 39.2524 35.0611 117.3610 0.0000 13.1524 0.0000
# 4 0.0000 0.0000 0.0000 47.1156 0.0000 12.4108
# 5 -8.1420 -8.9118 13.1524 0.0000 51.0971 0.0000
# 6 0.0000 0.0000 0.0000 12.4108 0.0000 26.2381
#
#
#
# Elastic Compliance Matrix: (Units=1/GPa)
#
#
# Indices 1 2 3 4 5 6 
#
# 1 0.011004 -0.002082 -0.003310 0.000000 0.002242 0.000000
# 2 -0.002082 0.008885 -0.002157 0.000000 0.001773 0.000000
# 3 -0.003310 -0.002157 0.010681 0.000000 -0.003653 0.000000
# 4 0.000000 0.000000 0.000000 0.024245 0.000000 -0.011468
# 5 0.002242 0.001773 -0.003653 0.000000 0.021177 0.000000
# 6 0.000000 0.000000 0.000000 -0.011468 0.000000 0.043537
#
#
# Mechanical properties :
#
#
# Convention : Reuss Voigt Hill
#
# Bulk Modulus (GPa) = 64.62707 64.82908 64.72807
# Shear Modulus (GPa) = 35.76977 41.47411 38.62194
#
# Velocity S-wave (km/s) = 4.23035 4.55519 4.39577
# Velocity P-wave (km/s) = 7.49630 7.75247 7.62546
#
# Compressibility (1/GPa) = 0.01547339
#
# Stress axis : x y z
#
# Youngs Moduli (GPa) = 90.87970 112.55429 93.62157
#
# Poissons Ratio (x) = 0.23432 0.30985
# Poissons Ratio (y) = 0.18919 0.20191
# Poissons Ratio (z) = 0.30077 0.24274
#
# Static dielectric constant tensor:
#      x y z
#    x 3.971890 0.000000 -0.357510 
#    y 0.000000 3.843130 0.000000 
#    z -0.357510 0.000000 4.220040 
# 
# 
# High freq. dielectric constant tensor:
#      x y z
#    x 1.788830 0.000000 0.003670 
#    y 0.000000 1.780790 0.000000 
#    z 0.003670 0.000000 1.797780 
# 
# From -- ./inp_files/73682.got.cif
#   From: 2010.06.25/outbox.cif.g09.slc.cpg/sg12_37_cif.got.tgz:73682.got - 2010.06.28 00:19:55.
