data_PCOD8115299
_publ_section_title
;
Structure prediction by ZEFSAII (Michael W. Deem and Ramdas Pophale) SiO2 
 PCOD8115299
Probable space group: C 2/M
;
_chemical_formula_sum "Si O2"
_cell_formula_units_Z 56
_cell_length_a 17.053880
_cell_length_b 17.260655
_cell_length_c 8.920821
_cell_angle_alpha 90.000000
_cell_angle_beta 73.102669
_cell_angle_gamma 90.000000
_cell_volume 2512.573520
_symmetry_space_group_name_H-M "C 2/M"
_symmetry_group_IT_number 12
_symmetry_cell_setting 'monoclinic'
loop_
_space_group_symop_operation_xyz
x,y,z
-x,y,-z
-x,-y,-z
x,-y,z
1/2+x,1/2+y,z
1/2-x,1/2+y,-z
1/2-x,1/2-y,-z
1/2+x,1/2-y,z
loop_
_atom_site_type_symbol
_atom_site_label
_atom_site_fract_x
_atom_site_fract_y
_atom_site_fract_z
Si Si1 0.705583 0.090214 0.022516
Si Si2 0.853963 0.825751 0.439076
Si Si3 0.791418 0.412809 0.625071
Si Si4 0.064604 0.670958 0.583146
Si Si5 0.445250 0.190768 0.894500
Si Si6 0.636836 0.340802 0.212859
Si Si7 0.011546 0.912892 0.827764
O O1 0.713272 0.100445 0.195783
O O2 0.620451 0.127440 0.013673
O O3 0.709698 0.000000 0.972286
O O4 0.775763 0.141126 0.907271
O O5 0.767083 0.850729 0.421073
O O6 0.868958 0.735132 0.404366
O O7 0.855472 0.842150 0.613799
O O8 0.924701 0.867863 0.308543
O O9 0.764609 0.500000 0.597920
O O10 0.884532 0.400237 0.515958
O O11 0.000000 0.706488 0.500000
O O12 0.009819 0.644691 0.753731
O O13 0.400069 0.260411 0.830918
O O14 0.500000 0.224241 0.000000
O O15 0.576253 0.410607 0.203991
O O16 0.044111 0.000000 0.824616
O O17 0.000000 0.876419 0.000000
#
# Coordination Sequence:
#
# PCOD8115299 Si02
#       7
#     8   8   8   8   8   8   8
#     4  11  26  47  69  99 141 184 226 279 341 409
#     4  12  24  42  69 100 137 175 228 282 335 404
#     4  11  26  45  70 101 137 183 228 278 343 408
#     4  12  23  46  71 100 134 177 232 286 338 399
#     4  12  27  45  72 103 135 180 231 282 343 407
#     4  12  24  43  67  99 137 177 226 282 340 399
#     4  11  23  40  65  96 136 181 224 277 340 407
#
# _framework density 22.287904999999999
#
# number of rings (size 3 to 8) (size 9 to 14) (size 15 to 20)
#    0.000    0.429    4.286    3.429    4.000    6.286 
#    0.000    0.000    0.000    0.000    0.000    0.000 
#    0.000    0.000    0.000    0.000    0.000    0.000 
#
# Total GULP energy -347185.930752 kJ/mol
# GULP energy per Si atom -12399.497527 kJ/mol
# Density = 2.223718 g / cm^3
# Si number density = 22.287905 Si / 1000 Ang^3
#
#
#
# Elastic Constant Matrix: (Units=GPa)
#
#
# Indices 1 2 3 4 5 6 
#
# 1 121.0219 42.5885 57.3062 0.0000 -10.9910 0.0000
# 2 42.5885 70.3878 31.6199 0.0000 -3.7323 0.0000
# 3 57.3062 31.6199 152.4513 0.0000 -31.7518 0.0000
# 4 0.0000 0.0000 0.0000 23.7121 0.0000 4.3237
# 5 -10.9910 -3.7323 -31.7518 0.0000 42.1188 0.0000
# 6 0.0000 0.0000 0.0000 4.3237 0.0000 6.3583
#
#
#
# Elastic Compliance Matrix: (Units=1/GPa)
#
#
# Indices 1 2 3 4 5 6 
#
# 1 0.011805 -0.005685 -0.003229 0.000000 0.000143 0.000000
# 2 -0.005685 0.018461 -0.001969 0.000000 -0.001332 0.000000
# 3 -0.003229 -0.001969 0.009454 0.000000 0.006110 0.000000
# 4 0.000000 0.000000 0.000000 0.048142 0.000000 -0.032736
# 5 0.000143 -0.001332 0.006110 0.000000 0.028268 0.000000
# 6 0.000000 0.000000 0.000000 -0.032736 0.000000 0.179535
#
#
# Mechanical properties :
#
#
# Convention : Reuss Voigt Hill
#
# Bulk Modulus (GPa) = 55.69765 67.43225 61.56495
# Shear Modulus (GPa) = 15.45996 28.59428 22.02712
#
# Velocity S-wave (km/s) = 2.63658 3.58572 3.14713
# Velocity P-wave (km/s) = 5.85773 6.88941 6.39441
#
# Compressibility (1/GPa) = 0.01795408
#
# Stress axis : x y z
#
# Youngs Moduli (GPa) = 84.70721 54.16892 105.77272
#
# Poissons Ratio (x) = 0.30794 0.34152
# Poissons Ratio (y) = 0.48155 0.20832
# Poissons Ratio (z) = 0.27350 0.10669
#
# Static dielectric constant tensor:
#      x y z
#    x 3.563050 0.000000 -0.226720 
#    y 0.000000 3.948360 0.000000 
#    z -0.226720 0.000000 4.204380 
# 
# 
# High freq. dielectric constant tensor:
#      x y z
#    x 1.887380 0.000000 -0.012000 
#    y 0.000000 1.868380 0.000000 
#    z -0.012000 0.000000 1.894740 
# 
# From -- ./inp_files/75901.got.cif
#   From: 2010.06.25/outbox.cif.g09.slc.cpg/sg12_38_cif.got.tgz:75901.got - 2010.06.28 00:19:55.
