data_PCOD8115874
_publ_section_title
;
Structure prediction by ZEFSAII (Michael W. Deem and Ramdas Pophale) SiO2 
 PCOD8115874
Probable space group: C 2/M
;
_chemical_formula_sum "Si O2"
_cell_formula_units_Z 40
_cell_length_a 10.081529
_cell_length_b 24.904917
_cell_length_c 17.302792
_cell_angle_alpha 90.000000
_cell_angle_beta 149.342897
_cell_angle_gamma 90.000000
_cell_volume 2215.194463
_symmetry_space_group_name_H-M "C 2/M"
_symmetry_group_IT_number 12
_symmetry_cell_setting 'monoclinic'
loop_
_space_group_symop_operation_xyz
x,y,z
-x,y,-z
-x,-y,-z
x,-y,z
1/2+x,1/2+y,z
1/2-x,1/2+y,-z
1/2-x,1/2-y,-z
1/2+x,1/2-y,z
loop_
_atom_site_type_symbol
_atom_site_label
_atom_site_fract_x
_atom_site_fract_y
_atom_site_fract_z
Si Si1 0.299522 0.384453 0.556585
Si Si2 0.206555 0.000000 0.444670
Si Si3 0.811663 0.116529 0.745132
Si Si4 0.494253 0.279877 0.587503
Si Si5 0.190623 0.000000 0.256716
Si Si6 0.005971 0.776288 0.094344
O O1 0.400551 0.443214 0.576531
O O2 0.353144 0.377408 0.674328
O O3 0.469621 0.342838 0.593153
O O4 0.992723 0.376500 0.386881
O O5 0.146689 0.000000 0.325023
O O6 0.509328 0.000000 0.612777
O O7 0.977439 0.161778 0.871147
O O8 0.919339 0.057624 0.828913
O O9 0.500000 0.268749 0.500000
O O10 0.753696 0.257803 0.755005
O O11 0.250000 0.250000 0.500000
O O12 0.000000 0.773885 0.000000
O O13 0.750000 0.750000 0.000000
#
# Coordination Sequence:
#
# PCOD8115874 Si02
#       6
#     8   4   8   8   4   8
#     4   9  16  30  56  83 107 138 182 227 268 319
#     4   7  12  24  47  83 111 129 168 229 275 309
#     4   9  16  31  55  81 109 140 181 226 267 321
#     4  12  23  38  59  82 107 147 191 228 270 328
#     4   7  12  24  49  81 105 135 178 221 263 315
#     4  12  25  38  53  80 116 148 179 227 284 327
#
# _framework density 18.057105
#
# number of rings (size 3 to 8) (size 9 to 14) (size 15 to 20)
#    0.000    2.200    2.000    6.000    0.000    0.000 
#    0.000    1.000    0.000    1.200    0.000    5.600 
#    0.000    0.000    0.000    0.000    0.000    0.000 
#
# Total GULP energy -247776.852116 kJ/mol
# GULP energy per Si atom -12388.842606 kJ/mol
# Density = 1.801601 g / cm^3
# Si number density = 18.057105 Si / 1000 Ang^3
#
#
#
# Elastic Constant Matrix: (Units=GPa)
#
#
# Indices 1 2 3 4 5 6 
#
# 1 94.3036 58.6054 46.8772 0.0181 -7.1387 0.0043
# 2 58.6054 198.7181 66.2554 -0.0018 0.8701 -0.0005
# 3 46.8772 66.2554 93.4518 -0.0707 -1.6466 -0.0004
# 4 0.0181 -0.0018 -0.0707 54.8051 -0.0057 0.8568
# 5 -7.1387 0.8701 -1.6466 -0.0057 24.4455 0.0028
# 6 0.0043 -0.0005 -0.0004 0.8568 0.0028 28.6274
#
#
#
# Elastic Compliance Matrix: (Units=1/GPa)
#
#
# Indices 1 2 3 4 5 6 
#
# 1 0.015448 -0.002639 -0.005804 -0.000012 0.004214 -0.000002
# 2 -0.002639 0.007048 -0.003696 -0.000004 -0.001271 0.000001
# 3 -0.005804 -0.003696 0.016224 0.000023 -0.000470 0.000000
# 4 -0.000012 -0.000004 0.000023 0.018255 0.000002 -0.000546
# 5 0.004214 -0.001271 -0.000470 0.000002 0.042152 -0.000005
# 6 -0.000002 0.000001 0.000000 -0.000546 -0.000005 0.034948
#
#
# Mechanical properties :
#
#
# Convention : Reuss Voigt Hill
#
# Bulk Modulus (GPa) = 69.23687 81.10552 75.17120
# Shear Modulus (GPa) = 30.64355 35.89129 33.26742
#
# Velocity S-wave (km/s) = 4.12398 4.46315 4.29691
# Velocity P-wave (km/s) = 7.81683 8.46010 8.14482
#
# Compressibility (1/GPa) = 0.01444317
#
# Stress axis : x y z
#
# Youngs Moduli (GPa) = 64.73227 141.87665 61.63819
#
# Poissons Ratio (x) = 0.37447 0.35772
# Poissons Ratio (y) = 0.17085 0.22779
# Poissons Ratio (z) = 0.37568 0.52431
#
# Static dielectric constant tensor:
#      x y z
#    x 5.629720 -0.001580 2.616500 
#    y -0.001580 4.167460 -0.001670 
#    z 2.616500 -0.001670 5.830710 
# 
# 
# High freq. dielectric constant tensor:
#      x y z
#    x 1.673130 0.000000 -0.004720 
#    y 0.000000 1.735240 0.000000 
#    z -0.004720 0.000000 1.660400 
# 
# From -- ./inp_files/259786.got.cif
#   From: 2010.06.25/outbox.cif.g09.slc.cpg/sg12_130_cif.got.tgz:259786.got - 2010.06.28 00:19:55.
