data_PCOD8115233
_publ_section_title
;
Structure prediction by ZEFSAII (Michael W. Deem and Ramdas Pophale) SiO2 
 PCOD8115233
Probable space group: C 2/M
;
_chemical_formula_sum "Si O2"
_cell_formula_units_Z 48
_cell_length_a 24.871844
_cell_length_b 8.600190
_cell_length_c 12.249005
_cell_angle_alpha 90.000000
_cell_angle_beta 109.067486
_cell_angle_gamma 90.000000
_cell_volume 2476.340929
_symmetry_space_group_name_H-M "C 2/M"
_symmetry_group_IT_number 12
_symmetry_cell_setting 'monoclinic'
loop_
_space_group_symop_operation_xyz
x,y,z
-x,y,-z
-x,-y,-z
x,-y,z
1/2+x,1/2+y,z
1/2-x,1/2+y,-z
1/2-x,1/2-y,-z
1/2+x,1/2-y,z
loop_
_atom_site_type_symbol
_atom_site_label
_atom_site_fract_x
_atom_site_fract_y
_atom_site_fract_z
Si Si1 0.752948 0.818404 0.881560
Si Si2 0.128117 0.679335 0.723298
Si Si3 0.944382 0.321925 0.741209
Si Si4 0.939016 0.180792 0.505420
Si Si5 0.059816 0.180014 0.871823
Si Si6 0.366781 0.179252 0.890840
O O1 0.694583 0.784581 0.779798
O O2 0.801594 0.733168 0.844488
O O3 0.766579 0.000000 0.898638
O O4 0.750000 0.750000 0.000000
O O5 0.115137 0.500000 0.740844
O O6 0.109907 0.721925 0.588377
O O7 0.091816 0.784980 0.780587
O O8 0.947835 0.500000 0.705266
O O9 0.935146 0.213583 0.630949
O O10 0.891884 0.294124 0.787528
O O11 0.002100 0.278318 0.842740
O O12 0.000000 0.234793 0.500000
O O13 0.928772 0.000000 0.477117
O O14 0.043441 0.000000 0.863312
O O15 0.099811 0.218780 0.999432
O O16 0.370950 0.000000 0.929811
#
# Coordination Sequence:
#
# PCOD8115233 Si02
#       6
#     8   8   8   8   8   8
#     4  11  23  39  63  91 122 160 203 251 301 358
#     4  11  23  39  62  91 122 158 202 249 300 358
#     4  11  24  41  62  88 123 164 203 249 304 365
#     4  11  23  39  62  92 122 156 202 252 300 357
#     4  12  23  36  60  92 125 160 199 249 306 361
#     4  11  24  41  61  89 124 163 205 248 304 364
#
# _framework density 19.383437000000001
#
# number of rings (size 3 to 8) (size 9 to 14) (size 15 to 20)
#    0.000    0.833    3.333    4.500    0.000    7.333 
#    0.000    0.833    0.000    0.000    0.000    0.000 
#    0.000    0.000    0.000    0.000    0.000    0.000 
#
# Total GULP energy -297800.033419 kJ/mol
# GULP energy per Si atom -12408.334726 kJ/mol
# Density = 1.933932 g / cm^3
# Si number density = 19.383437 Si / 1000 Ang^3
#
#
#
# Elastic Constant Matrix: (Units=GPa)
#
#
# Indices 1 2 3 4 5 6 
#
# 1 131.9154 46.0373 45.7520 0.0000 0.3186 0.0000
# 2 46.0373 69.0788 31.3400 0.0000 -2.0803 0.0000
# 3 45.7520 31.3400 87.7815 0.0000 14.6414 0.0000
# 4 0.0000 0.0000 0.0000 28.7024 0.0000 3.6141
# 5 0.3186 -2.0803 14.6414 0.0000 28.5670 0.0000
# 6 0.0000 0.0000 0.0000 3.6141 0.0000 32.4854
#
#
#
# Elastic Compliance Matrix: (Units=1/GPa)
#
#
# Indices 1 2 3 4 5 6 
#
# 1 0.010831 -0.005364 -0.003986 0.000000 0.001531 0.000000
# 2 -0.005364 0.020563 -0.005255 0.000000 0.004250 0.000000
# 3 -0.003986 -0.005255 0.016841 0.000000 -0.008970 0.000000
# 4 0.000000 0.000000 0.000000 0.035335 0.000000 -0.003931
# 5 0.001531 0.004250 -0.008970 0.000000 0.039895 0.000000
# 6 0.000000 0.000000 0.000000 -0.003931 0.000000 0.031220
#
#
# Mechanical properties :
#
#
# Convention : Reuss Voigt Hill
#
# Bulk Modulus (GPa) = 52.55686 59.44825 56.00255
# Shear Modulus (GPa) = 26.28291 28.99405 27.63848
#
# Velocity S-wave (km/s) = 3.68631 3.87177 3.78018
# Velocity P-wave (km/s) = 6.72991 7.12206 6.92876
#
# Compressibility (1/GPa) = 0.01902701
#
# Stress axis : x y z
#
# Youngs Moduli (GPa) = 92.32532 48.63088 59.37764
#
# Poissons Ratio (x) = 0.26086 0.23665
# Poissons Ratio (y) = 0.49525 0.31201
# Poissons Ratio (z) = 0.36797 0.25554
#
# Static dielectric constant tensor:
#      x y z
#    x 3.686740 0.000000 0.065910 
#    y 0.000000 3.645480 0.000000 
#    z 0.065910 0.000000 3.465610 
# 
# 
# High freq. dielectric constant tensor:
#      x y z
#    x 1.753390 0.000000 0.004650 
#    y 0.000000 1.770860 0.000000 
#    z 0.004650 0.000000 1.751070 
# 
# From -- ./inp_files/172880.got.cif
#   From: 2010.06.25/outbox.cif.g09.slc.cpg/sg12_87_cif.got.tgz:172880.got - 2010.06.28 00:19:55.
