data_PCOD8115959
_publ_section_title
;
Structure prediction by ZEFSAII (Michael W. Deem and Ramdas Pophale) SiO2 
 PCOD8115959
Probable space group: C 2/M
;
_chemical_formula_sum "Si O2"
_cell_formula_units_Z 48
_cell_length_a 25.812471
_cell_length_b 13.919812
_cell_length_c 9.398802
_cell_angle_alpha 90.000000
_cell_angle_beta 68.646650
_cell_angle_gamma 90.000000
_cell_volume 3145.209490
_symmetry_space_group_name_H-M "C 2/M"
_symmetry_group_IT_number 12
_symmetry_cell_setting 'monoclinic'
loop_
_space_group_symop_operation_xyz
x,y,z
-x,y,-z
-x,-y,-z
x,-y,z
1/2+x,1/2+y,z
1/2-x,1/2+y,-z
1/2-x,1/2-y,-z
1/2+x,1/2-y,z
loop_
_atom_site_type_symbol
_atom_site_label
_atom_site_fract_x
_atom_site_fract_y
_atom_site_fract_z
Si Si1 0.724480 0.105991 0.694841
Si Si2 0.445890 0.388239 0.469679
Si Si3 0.275520 0.105991 0.643801
Si Si4 0.554110 0.388239 0.861459
Si Si5 0.665444 0.707832 0.753533
Si Si6 0.665444 0.707832 0.415578
O O1 0.726292 0.103203 0.523708
O O2 0.677223 0.182185 0.791229
O O3 0.784797 0.140058 0.691547
O O4 0.710774 0.000000 0.770283
O O5 0.500000 0.353163 0.500000
O O6 0.433664 0.500000 0.509116
O O7 0.455909 0.367089 0.294091
O O8 0.393612 0.328628 0.584699
O O9 0.215203 0.140058 0.761140
O O10 0.322777 0.182185 0.645675
O O11 0.289226 0.000000 0.691832
O O12 0.566336 0.500000 0.876443
O O13 0.606388 0.328628 0.871923
O O14 0.500000 0.353163 0.000000
O O15 0.664307 0.700590 0.585693
#
# Coordination Sequence:
#
# PCOD8115959 Si02
#       6
#     8   8   8   8   8   8
#     4   8  12  18  30  49  71  92 114 143 179 215
#     4   9  16  25  37  53  73  96 120 146 176 209
#     4   8  12  18  30  49  71  92 114 143 179 215
#     4   9  16  25  37  53  73  96 120 146 176 209
#     4   8  13  20  31  49  72  94 114 141 179 215
#     4   8  13  20  31  49  72  94 114 141 179 215
#
# _framework density 15.261304000000001
#
# number of rings (size 3 to 8) (size 9 to 14) (size 15 to 20)
#    0.000    3.667    0.000    3.000    0.000    4.000 
#    0.000    0.000    0.000    1.000    0.000    4.667 
#    0.000    2.667    0.000    0.000    0.000    0.000 
#
# Total GULP energy -297367.499535 kJ/mol
# GULP energy per Si atom -12390.312481 kJ/mol
# Density = 1.522657 g / cm^3
# Si number density = 15.261304 Si / 1000 Ang^3
#
#
#
# Elastic Constant Matrix: (Units=GPa)
#
#
# Indices 1 2 3 4 5 6 
#
# 1 125.3012 68.8002 28.0961 0.0000 -27.6353 0.0000
# 2 68.8002 127.4461 22.6082 0.0000 -20.7885 0.0000
# 3 28.0961 22.6082 24.9401 0.0000 -17.5317 0.0000
# 4 0.0000 0.0000 0.0000 8.8800 0.0000 -7.3690
# 5 -27.6353 -20.7885 -17.5317 0.0000 22.4468 0.0000
# 6 0.0000 0.0000 0.0000 -7.3690 0.0000 25.2539
#
#
#
# Elastic Compliance Matrix: (Units=1/GPa)
#
#
# Indices 1 2 3 4 5 6 
#
# 1 0.013779 -0.005206 -0.005028 0.000000 0.008215 0.000000
# 2 -0.005206 0.011529 -0.003517 0.000000 0.001521 0.000000
# 3 -0.005028 -0.003517 0.093814 0.000000 0.063824 0.000000
# 4 0.000000 0.000000 0.000000 0.148595 0.000000 0.043359
# 5 0.008215 0.001521 0.063824 0.000000 0.105921 0.000000
# 6 0.000000 0.000000 0.000000 0.043359 0.000000 0.052250
#
#
# Mechanical properties :
#
#
# Convention : Reuss Voigt Hill
#
# Bulk Modulus (GPa) = 10.91478 57.41072 34.16275
# Shear Modulus (GPa) = 10.33208 21.86165 16.09687
#
# Velocity S-wave (km/s) = 2.60477 3.78893 3.25122
# Velocity P-wave (km/s) = 4.02665 7.53933 6.04381
#
# Compressibility (1/GPa) = 0.09161888
#
# Stress axis : x y z
#
# Youngs Moduli (GPa) = 72.57590 86.73821 10.65937
#
# Poissons Ratio (x) = 0.45159 0.05360
# Poissons Ratio (y) = 0.37785 0.03749
# Poissons Ratio (z) = 0.36493 0.30505
#
# Static dielectric constant tensor:
#      x y z
#    x 2.987770 0.000000 -0.250530 
#    y 0.000000 3.239410 0.000000 
#    z -0.250530 0.000000 2.431100 
# 
# 
# High freq. dielectric constant tensor:
#      x y z
#    x 1.572570 0.000000 -0.021980 
#    y 0.000000 1.584180 0.000000 
#    z -0.021980 0.000000 1.523720 
# 
# From -- ./inp_files/95673.got.cif
#   From: 2010.06.25/outbox.cif.g09.slc.cpg/sg12_48_cif.got.tgz:95673.got - 2010.06.28 00:19:55.
