data_PCOD8115750
_publ_section_title
;
Structure prediction by ZEFSAII (Michael W. Deem and Ramdas Pophale) SiO2 
 PCOD8115750
Probable space group: C 2/M
;
_chemical_formula_sum "Si O2"
_cell_formula_units_Z 36
_cell_length_a 5.660555
_cell_length_b 28.508313
_cell_length_c 9.602222
_cell_angle_alpha 90.000000
_cell_angle_beta 97.973183
_cell_angle_gamma 90.000000
_cell_volume 1534.558927
_symmetry_space_group_name_H-M "C 2/M"
_symmetry_group_IT_number 12
_symmetry_cell_setting 'monoclinic'
loop_
_space_group_symop_operation_xyz
x,y,z
-x,y,-z
-x,-y,-z
x,-y,z
1/2+x,1/2+y,z
1/2-x,1/2+y,-z
1/2-x,1/2-y,-z
1/2+x,1/2-y,z
loop_
_atom_site_type_symbol
_atom_site_label
_atom_site_fract_x
_atom_site_fract_y
_atom_site_fract_z
Si Si1 0.334793 0.614796 0.864494
Si Si2 0.339584 0.225822 0.716890
Si Si3 0.507073 0.945974 0.334919
Si Si4 0.855900 0.867688 0.351694
Si Si5 0.500000 0.814820 0.000000
O O1 0.482235 0.646429 0.767036
O O2 0.226293 0.571641 0.766750
O O3 0.152972 0.651481 0.914337
O O4 0.500000 0.593295 0.000000
O O5 0.582177 0.248302 0.670980
O O6 0.322711 0.175635 0.636648
O O7 0.353407 0.218951 0.885054
O O8 0.500000 0.937462 0.500000
O O9 0.722861 0.915145 0.294004
O O10 0.551044 0.000000 0.302448
O O11 0.000000 0.879818 0.500000
#
# Coordination Sequence:
#
# PCOD8115750 Si02
#       5
#     8   8   8   8   4
#     4  12  23  45  76 107 147 199 249 311 384 451
#     4  12  27  45  74 111 152 204 259 316 382 460
#     4  11  25  46  76 111 148 196 253 310 386 467
#     4  12  26  46  75 106 153 196 247 320 387 453
#     4  12  24  44  73 106 146 202 257 308 384 452
#
# _framework density 23.459510999999999
#
# number of rings (size 3 to 8) (size 9 to 14) (size 15 to 20)
#    0.000    0.222    6.667    2.000    0.000    2.667 
#    0.000    3.889    0.000    0.000    0.000    0.000 
#    0.000    0.000    0.000    0.000    0.000    0.000 
#
# Total GULP energy -223127.378351 kJ/mol
# GULP energy per Si atom -12395.965464 kJ/mol
# Density = 2.340612 g / cm^3
# Si number density = 23.459511 Si / 1000 Ang^3
#
#
#
# Elastic Constant Matrix: (Units=GPa)
#
#
# Indices 1 2 3 4 5 6 
#
# 1 120.7276 23.1094 19.2582 0.0000 14.8107 0.0000
# 2 23.1094 65.9058 -4.4077 0.0000 32.3555 0.0000
# 3 19.2582 -4.4077 113.6721 0.0000 31.0637 0.0000
# 4 0.0000 0.0000 0.0000 21.5380 0.0000 -18.7302
# 5 14.8107 32.3555 31.0637 0.0000 41.6844 0.0000
# 6 0.0000 0.0000 0.0000 -18.7302 0.0000 -3.4666
#
#
#
# Elastic Compliance Matrix: (Units=1/GPa)
#
#
# Indices 1 2 3 4 5 6 
#
# 1 0.009227 -0.004120 -0.002136 0.000000 0.001512 0.000000
# 2 -0.004120 0.033280 0.010859 0.000000 -0.032461 0.000000
# 3 -0.002136 0.010859 0.014662 0.000000 -0.018596 0.000000
# 4 0.000000 0.000000 0.000000 0.008147 0.000000 -0.044021
# 5 0.001512 -0.032461 -0.018596 0.000000 0.062507 0.000000
# 6 0.000000 0.000000 0.000000 -0.044021 0.000000 -0.050620
#
#
# Mechanical properties :
#
#
# Convention : Reuss Voigt Hill
#
# Bulk Modulus (GPa) = 15.06592 41.80283 28.43437
# Shear Modulus (GPa) = 55.47908 29.44084 42.45996
#
# Velocity S-wave (km/s) = 4.86829 3.54639 4.25894
# Velocity P-wave (km/s) = 6.16736 5.88447 6.02757
#
# Compressibility (1/GPa) = 0.06637499
#
# Stress axis : x y z
#
# Youngs Moduli (GPa) = 108.37592 30.04769 68.20279
#
# Poissons Ratio (x) = 0.12381 0.14569
# Poissons Ratio (y) = 0.44656 -0.74063
# Poissons Ratio (z) = 0.23151 -0.32630
#
# Static dielectric constant tensor:
#      x y z
#    x 4.811910 0.000000 0.999880 
#    y 0.000000 4.053390 0.000000 
#    z 0.999880 0.000000 5.524450 
# 
# 
# High freq. dielectric constant tensor:
#      x y z
#    x 1.931320 0.000000 0.014360 
#    y 0.000000 1.918400 0.000000 
#    z 0.014360 0.000000 1.945610 
# 
# From -- ./inp_files/115570.got.cif
#   From: 2010.06.25/outbox.cif.g09.slc.cpg/sg12_58_cif.got.tgz:115570.got - 2010.06.28 00:19:55.
