data_PCOD8115962
_publ_section_title
;
Structure prediction by ZEFSAII (Michael W. Deem and Ramdas Pophale) SiO2 
 PCOD8115962
Probable space group: C 2/M
;
_chemical_formula_sum "Si O2"
_cell_formula_units_Z 64
_cell_length_a 23.687199
_cell_length_b 9.738170
_cell_length_c 21.580248
_cell_angle_alpha 90.000000
_cell_angle_beta 127.557675
_cell_angle_gamma 90.000000
_cell_volume 3946.193211
_symmetry_space_group_name_H-M "C 2/M"
_symmetry_group_IT_number 12
_symmetry_cell_setting 'monoclinic'
loop_
_space_group_symop_operation_xyz
x,y,z
-x,y,-z
-x,-y,-z
x,-y,z
1/2+x,1/2+y,z
1/2-x,1/2+y,-z
1/2-x,1/2-y,-z
1/2+x,1/2-y,z
loop_
_atom_site_type_symbol
_atom_site_label
_atom_site_fract_x
_atom_site_fract_y
_atom_site_fract_z
Si Si1 0.074774 0.336518 0.247675
Si Si2 0.424970 0.836888 0.100822
Si Si3 0.822621 0.662587 0.786852
Si Si4 0.826803 0.840343 0.266240
Si Si5 0.578934 0.163496 0.038122
Si Si6 0.027431 0.653518 0.344668
Si Si7 0.132252 0.653426 0.812044
Si Si8 0.481397 0.340447 0.418369
O O1 0.071460 0.500000 0.244099
O O2 0.143178 0.281427 0.254649
O O3 0.003812 0.276659 0.167373
O O4 0.078422 0.291815 0.322748
O O5 0.369184 0.792743 0.117490
O O6 0.430981 0.000000 0.105805
O O7 0.398698 0.784931 0.015886
O O8 0.830355 0.500000 0.793068
O O9 0.739781 0.705400 0.735549
O O10 0.865471 0.723535 0.874622
O O11 0.821818 0.757197 0.198627
O O12 0.898440 0.806245 0.351711
O O13 0.822268 0.000000 0.245495
O O14 0.579122 0.000000 0.040838
O O15 0.500000 0.218839 0.000000
O O16 0.049657 0.500000 0.381082
O O17 0.948367 0.650553 0.265127
O O18 0.032308 0.755801 0.406154
O O19 0.164993 0.500000 0.829029
O O20 0.500000 0.294293 0.500000
O O21 0.497883 0.500000 0.418426
#
# Coordination Sequence:
#
# PCOD8115962 Si02
#       8
#     8   8   8   8   8   8   8   8
#     4   8  12  20  35  56  80 103 128 159 197 235
#     4   8  12  19  33  54  78 103 132 164 196 232
#     4   9  15  22  35  56  82 108 130 161 202 236
#     4   9  17  28  41  59  81 103 132 165 196 233
#     4   9  13  18  31  54  83 107 128 160 202 237
#     4   8  14  24  41  64  83  99 126 163 197 232
#     4   8  14  25  40  56  78 107 134 161 194 232
#     4   9  17  29  44  60  79 105 134 162 193 231
#
# _framework density 16.218162
#
# number of rings (size 3 to 8) (size 9 to 14) (size 15 to 20)
#    0.000    3.500    1.250    1.500    0.000    0.250 
#    0.000    0.625    0.000    1.500    0.000    0.000 
#    0.000    1.000    0.000    0.000    0.000    0.000 
#
# Total GULP energy -396460.916548 kJ/mol
# GULP energy per Si atom -12389.403642 kJ/mol
# Density = 1.618125 g / cm^3
# Si number density = 16.218162 Si / 1000 Ang^3
#
#
#
# Elastic Constant Matrix: (Units=GPa)
#
#
# Indices 1 2 3 4 5 6 
#
# 1 136.1941 36.7047 59.7673 0.0000 -29.8960 0.0000
# 2 36.7047 29.6204 25.4637 0.0000 -12.2455 0.0000
# 3 59.7673 25.4637 80.3638 0.0000 -28.3605 0.0000
# 4 0.0000 0.0000 0.0000 9.5000 0.0000 -4.7181
# 5 -29.8960 -12.2455 -28.3605 0.0000 30.0977 0.0000
# 6 0.0000 0.0000 0.0000 -4.7181 0.0000 15.5008
#
#
#
# Elastic Compliance Matrix: (Units=1/GPa)
#
#
# Indices 1 2 3 4 5 6 
#
# 1 0.013300 -0.010336 -0.005151 0.000000 0.004152 0.000000
# 2 -0.010336 0.055600 -0.008345 0.000000 0.004491 0.000000
# 3 -0.005151 -0.008345 0.023843 0.000000 0.013955 0.000000
# 4 0.000000 0.000000 0.000000 0.124009 0.000000 0.037746
# 5 0.004152 0.004491 0.013955 0.000000 0.052326 0.000000
# 6 0.000000 0.000000 0.000000 0.037746 0.000000 0.076002
#
#
# Mechanical properties :
#
#
# Convention : Reuss Voigt Hill
#
# Bulk Modulus (GPa) = 22.18378 54.45000 38.31689
# Shear Modulus (GPa) = 12.26180 19.30253 15.78216
#
# Velocity S-wave (km/s) = 2.75263 3.45364 3.12287
# Velocity P-wave (km/s) = 4.87962 7.03917 6.05642
#
# Compressibility (1/GPa) = 0.04507797
#
# Stress axis : x y z
#
# Youngs Moduli (GPa) = 75.18821 17.98577 41.94044
#
# Poissons Ratio (x) = 0.18591 0.21604
# Poissons Ratio (y) = 0.77717 0.34999
# Poissons Ratio (z) = 0.38730 0.15009
#
# Static dielectric constant tensor:
#      x y z
#    x 3.423880 0.000000 -0.353140 
#    y 0.000000 2.674940 0.000000 
#    z -0.353140 0.000000 3.010070 
# 
# 
# High freq. dielectric constant tensor:
#      x y z
#    x 1.625480 0.000000 -0.026380 
#    y 0.000000 1.566830 0.000000 
#    z -0.026380 0.000000 1.599500 
# 
# From -- ./inp_files/320732.got.cif
#   From: 2010.06.25/outbox.cif.g09.slc.cpg/sg12_161_cif.got.tgz:320732.got - 2010.06.28 00:19:55.
