data_PCOD8115687
_publ_section_title
;
Structure prediction by ZEFSAII (Michael W. Deem and Ramdas Pophale) SiO2 
 PCOD8115687
Probable space group: C 2/M
;
_chemical_formula_sum "Si O2"
_cell_formula_units_Z 32
_cell_length_a 14.758506
_cell_length_b 18.185674
_cell_length_c 11.219270
_cell_angle_alpha 90.000000
_cell_angle_beta 152.542942
_cell_angle_gamma 90.000000
_cell_volume 1388.404956
_symmetry_space_group_name_H-M "C 2/M"
_symmetry_group_IT_number 12
_symmetry_cell_setting 'monoclinic'
loop_
_space_group_symop_operation_xyz
x,y,z
-x,y,-z
-x,-y,-z
x,-y,z
1/2+x,1/2+y,z
1/2-x,1/2+y,-z
1/2-x,1/2-y,-z
1/2+x,1/2-y,z
loop_
_atom_site_type_symbol
_atom_site_label
_atom_site_fract_x
_atom_site_fract_y
_atom_site_fract_z
Si Si1 0.207782 0.000000 0.891802
Si Si2 0.253276 0.000000 0.670968
Si Si3 0.530297 0.705116 0.906971
Si Si4 0.099672 0.374326 0.733997
Si Si5 0.163400 0.350996 0.360118
O O1 0.301713 0.000000 0.868796
O O2 0.975807 0.000000 0.615726
O O3 0.269913 0.069885 0.039289
O O4 0.352002 0.071709 0.726606
O O5 0.391443 0.671952 0.640568
O O6 0.472322 0.790355 0.862993
O O7 0.500000 0.664936 0.000000
O O8 0.757604 0.694609 0.132194
O O9 0.000000 0.409236 0.500000
O O10 0.915842 0.351110 0.597847
#
# Coordination Sequence:
#
# PCOD8115687 Si02
#       5
#     4   4   8   8   8
#     4  11  26  44  72 108 147 187 242 291 353 426
#     4  11  25  50  73 105 143 193 236 296 351 420
#     4  11  24  46  68 105 144 186 241 288 355 421
#     4  12  24  45  70 108 143 187 237 293 359 424
#     4  11  25  45  74 101 142 190 238 292 354 421
#
# _framework density 23.048031000000002
#
# number of rings (size 3 to 8) (size 9 to 14) (size 15 to 20)
#    0.000    0.750    5.000    1.875    3.500    1.000 
#    0.000    2.500    0.000    0.000    0.000    0.000 
#    0.000    0.000    0.000    0.000    0.000    0.000 
#
# Total GULP energy -198301.729065 kJ/mol
# GULP energy per Si atom -12393.858067 kJ/mol
# Density = 2.299557 g / cm^3
# Si number density = 23.048031 Si / 1000 Ang^3
#
#
#
# Elastic Constant Matrix: (Units=GPa)
#
#
# Indices 1 2 3 4 5 6 
#
# 1 143.0302 42.7358 59.0800 0.0000 -6.4461 0.0000
# 2 42.7358 135.6770 58.7898 0.0000 -0.6534 0.0000
# 3 59.0800 58.7898 116.8342 0.0000 -14.2052 0.0000
# 4 0.0000 0.0000 0.0000 37.9417 0.0000 -14.8692
# 5 -6.4461 -0.6534 -14.2052 0.0000 41.0598 0.0000
# 6 0.0000 0.0000 0.0000 -14.8692 0.0000 32.7571
#
#
#
# Elastic Compliance Matrix: (Units=1/GPa)
#
#
# Indices 1 2 3 4 5 6 
#
# 1 0.008964 -0.001100 -0.003978 0.000000 0.000014 0.000000
# 2 -0.001100 0.009657 -0.004494 0.000000 -0.001574 0.000000
# 3 -0.003978 -0.004494 0.013307 0.000000 0.003908 0.000000
# 4 0.000000 0.000000 0.000000 0.032059 0.000000 0.014552
# 5 0.000014 -0.001574 0.003908 0.000000 0.025684 0.000000
# 6 0.000000 0.000000 0.000000 0.014552 0.000000 0.037133
#
#
# Mechanical properties :
#
#
# Convention : Reuss Voigt Hill
#
# Bulk Modulus (GPa) = 78.22299 79.63919 78.93109
# Shear Modulus (GPa) = 33.28691 38.01412 35.65051
#
# Velocity S-wave (km/s) = 3.80444 4.06562 3.93719
# Velocity P-wave (km/s) = 7.30145 7.52779 7.41548
#
# Compressibility (1/GPa) = 0.01278397
#
# Stress axis : x y z
#
# Youngs Moduli (GPa) = 111.56009 103.55467 75.14717
#
# Poissons Ratio (x) = 0.11389 0.29891
# Poissons Ratio (y) = 0.12269 0.33774
# Poissons Ratio (z) = 0.44375 0.46542
#
# Static dielectric constant tensor:
#      x y z
#    x 4.289560 0.000000 0.002760 
#    y 0.000000 3.973880 0.000000 
#    z 0.002760 0.000000 4.148550 
# 
# 
# High freq. dielectric constant tensor:
#      x y z
#    x 1.921110 0.000000 -0.002820 
#    y 0.000000 1.890310 0.000000 
#    z -0.002820 0.000000 1.936390 
# 
# From -- ./inp_files/145913.got.cif
#   From: 2010.06.25/outbox.cif.g09.slc.cpg/sg12_73_cif.got.tgz:145913.got - 2010.06.28 00:19:55.
