data_PCOD8115867
_publ_section_title
;
Structure prediction by ZEFSAII (Michael W. Deem and Ramdas Pophale) SiO2 
 PCOD8115867
Probable space group: C 2/M
;
_chemical_formula_sum "Si O2"
_cell_formula_units_Z 56
_cell_length_a 19.208019
_cell_length_b 8.889974
_cell_length_c 21.210950
_cell_angle_alpha 90.000000
_cell_angle_beta 58.233350
_cell_angle_gamma 90.000000
_cell_volume 3079.384481
_symmetry_space_group_name_H-M "C 2/M"
_symmetry_group_IT_number 12
_symmetry_cell_setting 'monoclinic'
loop_
_space_group_symop_operation_xyz
x,y,z
-x,y,-z
-x,-y,-z
x,-y,z
1/2+x,1/2+y,z
1/2-x,1/2+y,-z
1/2-x,1/2-y,-z
1/2+x,1/2-y,z
loop_
_atom_site_type_symbol
_atom_site_label
_atom_site_fract_x
_atom_site_fract_y
_atom_site_fract_z
Si Si1 0.222630 0.676225 0.077888
Si Si2 0.670948 0.823003 0.506170
Si Si3 0.414583 0.175080 0.572703
Si Si4 0.945898 0.823834 0.805622
Si Si5 0.868426 0.327682 0.061003
Si Si6 0.004390 0.672300 0.894856
Si Si7 0.501234 0.822241 0.346265
O O1 0.216354 0.500000 0.070737
O O2 0.137549 0.735010 0.144526
O O3 0.290637 0.718252 0.097525
O O4 0.250000 0.750000 0.000000
O O5 0.750000 0.750000 0.500000
O O6 0.656543 0.759976 0.440397
O O7 0.589509 0.786220 0.584871
O O8 0.686116 0.000000 0.497083
O O9 0.500000 0.210495 0.500000
O O10 0.426480 0.233274 0.639086
O O11 0.398347 0.000000 0.584090
O O12 0.006970 0.780987 0.833458
O O13 0.988262 0.774039 0.721200
O O14 0.928698 0.000000 0.813487
O O15 0.839903 0.500000 0.081666
O O16 0.922259 0.277908 0.094738
O O17 0.918706 0.309069 0.972223
O O18 0.015163 0.500000 0.868022
O O19 0.510459 0.000000 0.328548
#
# Coordination Sequence:
#
# PCOD8115867 Si02
#       7
#     8   8   8   8   8   8   8
#     4  12  23  36  55  79 106 138 179 226 272 321
#     4   9  17  31  55  85 111 137 173 216 262 315
#     4   7  12  27  52  77 100 132 176 215 247 299
#     4  12  24  36  53  79 110 144 183 228 273 322
#     4   9  18  34  56  80 103 131 173 223 274 324
#     4   9  18  34  56  78 104 138 173 218 274 327
#     4   9  18  35  56  76 103 143 183 219 265 317
#
# _framework density 18.185452000000002
#
# number of rings (size 3 to 8) (size 9 to 14) (size 15 to 20)
#    0.000    2.429    1.429    5.143    0.000    1.143 
#    0.000    3.571    0.000    6.000    0.000    0.000 
#    0.000    0.000    0.000    0.000    0.000    0.000 
#
# Total GULP energy -346936.830717 kJ/mol
# GULP energy per Si atom -12390.601097 kJ/mol
# Density = 1.814406 g / cm^3
# Si number density = 18.185452 Si / 1000 Ang^3
#
#
#
# Elastic Constant Matrix: (Units=GPa)
#
#
# Indices 1 2 3 4 5 6 
#
# 1 132.6937 47.2982 48.5450 -0.0001 16.9373 0.0000
# 2 47.2982 93.0921 40.5777 -0.0001 6.5750 0.0001
# 3 48.5450 40.5777 78.6652 0.0000 18.2044 -0.0001
# 4 -0.0001 -0.0001 0.0000 21.2757 0.0000 -0.4644
# 5 16.9373 6.5750 18.2044 0.0000 28.1300 0.0000
# 6 0.0000 0.0001 -0.0001 -0.4644 0.0000 32.7823
#
#
#
# Elastic Compliance Matrix: (Units=1/GPa)
#
#
# Indices 1 2 3 4 5 6 
#
# 1 0.010632 -0.003394 -0.004131 0.000000 -0.002935 0.000000
# 2 -0.003394 0.015005 -0.006242 0.000000 0.002576 0.000000
# 3 -0.004131 -0.006242 0.020662 0.000000 -0.009425 0.000000
# 4 0.000000 0.000000 0.000000 0.047016 0.000000 0.000666
# 5 -0.002935 0.002576 -0.009425 0.000000 0.042814 0.000000
# 6 0.000000 0.000000 0.000000 0.000666 0.000000 0.030514
#
#
# Mechanical properties :
#
#
# Convention : Reuss Voigt Hill
#
# Bulk Modulus (GPa) = 53.28853 64.14364 58.71609
# Shear Modulus (GPa) = 24.94606 27.63960 26.29283
#
# Velocity S-wave (km/s) = 3.70775 3.90279 3.80651
# Velocity P-wave (km/s) = 6.90625 7.46040 7.18866
#
# Compressibility (1/GPa) = 0.01876576
#
# Stress axis : x y z
#
# Youngs Moduli (GPa) = 94.05712 66.64366 48.39709
#
# Poissons Ratio (x) = 0.22617 0.19994
# Poissons Ratio (y) = 0.31921 0.30208
# Poissons Ratio (z) = 0.38857 0.41598
#
# Static dielectric constant tensor:
#      x y z
#    x 3.763150 0.000000 0.282720 
#    y 0.000000 3.150620 0.000000 
#    z 0.282720 0.000000 3.221670 
# 
# 
# High freq. dielectric constant tensor:
#      x y z
#    x 1.722060 0.000000 0.021270 
#    y 0.000000 1.684100 0.000000 
#    z 0.021270 0.000000 1.678020 
# 
# From -- ./inp_files/313804.got.cif
#   From: 2010.06.25/outbox.cif.g09.slc.cpg/sg12_157_cif.got.tgz:313804.got - 2010.06.28 00:19:55.
