data_PCOD8115007
_publ_section_title
;
Structure prediction by ZEFSAII (Michael W. Deem and Ramdas Pophale) SiO2 
 PCOD8115007
Probable space group: C 2/M
;
_chemical_formula_sum "Si O2"
_cell_formula_units_Z 52
_cell_length_a 30.654556
_cell_length_b 14.493602
_cell_length_c 8.290680
_cell_angle_alpha 90.000000
_cell_angle_beta 42.400308
_cell_angle_gamma 90.000000
_cell_volume 2483.812271
_symmetry_space_group_name_H-M "C 2/M"
_symmetry_group_IT_number 12
_symmetry_cell_setting 'monoclinic'
loop_
_space_group_symop_operation_xyz
x,y,z
-x,y,-z
-x,-y,-z
x,-y,z
1/2+x,1/2+y,z
1/2-x,1/2+y,-z
1/2-x,1/2-y,-z
1/2+x,1/2-y,z
loop_
_atom_site_type_symbol
_atom_site_label
_atom_site_fract_x
_atom_site_fract_y
_atom_site_fract_z
Si Si1 0.360957 0.238047 0.826448
Si Si2 0.564400 0.396443 0.524415
Si Si3 0.055606 0.216981 0.119062
Si Si4 0.632886 0.894704 0.491851
Si Si5 0.369516 0.603731 0.332467
Si Si6 0.500000 0.843301 0.000000
Si Si7 0.270492 0.248726 0.629435
O O1 0.377298 0.337832 0.708644
O O2 0.410710 0.219470 0.837484
O O3 0.370742 0.156224 0.671186
O O4 0.288386 0.248185 0.086153
O O5 0.569088 0.500000 0.443872
O O6 0.495267 0.354206 0.664162
O O7 0.571986 0.395691 0.698457
O O8 0.110495 0.156661 0.883584
O O9 0.017112 0.282147 0.105796
O O10 0.563057 0.900450 0.772260
O O11 0.684138 0.840675 0.464412
O O12 0.656239 0.000000 0.402006
O O13 0.348580 0.500000 0.345868
O O14 0.308447 0.657932 0.570936
O O15 0.250000 0.250000 0.500000
#
# Coordination Sequence:
#
# PCOD8115007 Si02
#       7
#     8   8   8   8   8   4   8
#     4  12  25  42  69  96 138 179 221 274 336 404
#     4  11  23  39  66 103 137 171 214 274 348 412
#     4  12  20  41  71  96 136 174 216 275 345 393
#     4  12  27  47  70 100 134 179 228 280 333 393
#     4  11  22  40  69 101 133 174 219 272 337 407
#     4  12  21  46  73  96 128 178 225 282 331 394
#     4  12  24  48  70  96 132 179 225 277 330 395
#
# _framework density 20.935559000000001
#
# number of rings (size 3 to 8) (size 9 to 14) (size 15 to 20)
#    0.000    0.308    7.692    1.615    0.000    4.923 
#    0.000    3.846    0.000    0.000    0.000    0.000 
#    0.000    0.000    0.000    0.000    0.000    0.000 
#
# Total GULP energy -322401.071917 kJ/mol
# GULP energy per Si atom -12400.041228 kJ/mol
# Density = 2.088791 g / cm^3
# Si number density = 20.935559 Si / 1000 Ang^3
#
#
#
# Elastic Constant Matrix: (Units=GPa)
#
#
# Indices 1 2 3 4 5 6 
#
# 1 115.9796 39.5412 31.3504 0.0000 -2.6730 0.0000
# 2 39.5412 135.4706 42.4092 0.0000 -9.3511 0.0000
# 3 31.3504 42.4092 139.5805 0.0000 -10.2180 0.0000
# 4 0.0000 0.0000 0.0000 20.2059 0.0000 1.9877
# 5 -2.6730 -9.3511 -10.2180 0.0000 30.6860 0.0000
# 6 0.0000 0.0000 0.0000 1.9877 0.0000 19.5883
#
#
#
# Elastic Compliance Matrix: (Units=1/GPa)
#
#
# Indices 1 2 3 4 5 6 
#
# 1 0.009848 -0.002431 -0.001501 0.000000 -0.000383 0.000000
# 2 -0.002431 0.008845 -0.002009 0.000000 0.001815 0.000000
# 3 -0.001501 -0.002009 0.008259 0.000000 0.002007 0.000000
# 4 0.000000 0.000000 0.000000 0.049990 0.000000 -0.005073
# 5 -0.000383 0.001815 0.002007 0.000000 0.033776 0.000000
# 6 0.000000 0.000000 0.000000 -0.005073 0.000000 0.051566
#
#
# Mechanical properties :
#
#
# Convention : Reuss Voigt Hill
#
# Bulk Modulus (GPa) = 66.35569 68.62582 67.49076
# Shear Modulus (GPa) = 27.90353 32.61134 30.25743
#
# Velocity S-wave (km/s) = 3.65475 3.95105 3.80579
# Velocity P-wave (km/s) = 7.04086 7.32565 7.18466
#
# Compressibility (1/GPa) = 0.01507030
#
# Stress axis : x y z
#
# Youngs Moduli (GPa) = 101.54377 113.05462 121.08345
#
# Poissons Ratio (x) = 0.27482 0.18179
# Poissons Ratio (y) = 0.24684 0.24321
# Poissons Ratio (z) = 0.15245 0.22709
#
# Static dielectric constant tensor:
#      x y z
#    x 4.099060 0.000000 -0.019320 
#    y 0.000000 3.704330 0.000000 
#    z -0.019320 0.000000 3.938720 
# 
# 
# High freq. dielectric constant tensor:
#      x y z
#    x 1.832390 0.000000 0.002560 
#    y 0.000000 1.805490 0.000000 
#    z 0.002560 0.000000 1.830560 
# 
# From -- ./inp_files/111904.got.cif
#   From: 2010.06.25/outbox.cif.g09.slc.cpg/sg12_56_cif.got.tgz:111904.got - 2010.06.28 00:19:55.
