data_PCOD8115613
_publ_section_title
;
Structure prediction by ZEFSAII (Michael W. Deem and Ramdas Pophale) SiO2 
 PCOD8115613
Probable space group: C 2/M
;
_chemical_formula_sum "Si O2"
_cell_formula_units_Z 44
_cell_length_a 8.263088
_cell_length_b 27.726394
_cell_length_c 11.951369
_cell_angle_alpha 90.000000
_cell_angle_beta 134.763016
_cell_angle_gamma 90.000000
_cell_volume 1944.139053
_symmetry_space_group_name_H-M "C 2/M"
_symmetry_group_IT_number 12
_symmetry_cell_setting 'monoclinic'
loop_
_space_group_symop_operation_xyz
x,y,z
-x,y,-z
-x,-y,-z
x,-y,z
1/2+x,1/2+y,z
1/2-x,1/2+y,-z
1/2-x,1/2-y,-z
1/2+x,1/2-y,z
loop_
_atom_site_type_symbol
_atom_site_label
_atom_site_fract_x
_atom_site_fract_y
_atom_site_fract_z
Si Si1 0.397105 0.690999 0.328207
Si Si2 0.822824 0.915465 0.237693
Si Si3 0.843121 0.500000 0.255567
Si Si4 0.502640 0.257137 0.167725
Si Si5 0.500000 0.335545 0.000000
Si Si6 0.671468 0.083749 0.917725
Si Si7 0.155618 0.000000 0.412474
O O1 0.500000 0.693823 0.500000
O O2 0.425443 0.638184 0.288652
O O3 0.521879 0.728958 0.307502
O O4 0.133536 0.707237 0.208377
O O5 0.602370 0.913688 0.210381
O O6 0.761996 0.932602 0.082979
O O7 0.009566 0.952835 0.375085
O O8 0.760763 0.546187 0.145511
O O9 0.714343 0.500000 0.310089
O O10 0.115635 0.500000 0.403356
O O11 0.607817 0.301987 0.149443
O O12 0.250000 0.250000 0.000000
O O13 0.714426 0.365906 0.059748
#
# Coordination Sequence:
#
# PCOD8115613 Si02
#       7
#     8   8   4   8   4   8   4
#     4  12  27  45  70 109 145 191 238 303 368 431
#     4  11  25  44  72 102 142 186 241 295 356 435
#     4  11  26  45  72 102 143 188 230 299 362 439
#     4  12  24  46  73 102 143 193 244 299 357 429
#     4  12  22  41  72 102 140 179 244 302 346 416
#     4  11  24  42  71 105 132 188 246 291 351 426
#     4  11  26  49  66 105 152 182 228 293 381 428
#
# _framework density 22.632126
#
# number of rings (size 3 to 8) (size 9 to 14) (size 15 to 20)
#    0.000    0.545    3.636    3.818    5.091    3.273 
#    0.000    0.000    0.000    0.000    0.000    0.000 
#    0.000    0.000    0.000    0.000    0.000    0.000 
#
# Total GULP energy -272845.241462 kJ/mol
# GULP energy per Si atom -12402.056430 kJ/mol
# Density = 2.258061 g / cm^3
# Si number density = 22.632126 Si / 1000 Ang^3
#
#
#
# Elastic Constant Matrix: (Units=GPa)
#
#
# Indices 1 2 3 4 5 6 
#
# 1 93.7695 37.9229 30.7762 0.0000 3.9168 0.0000
# 2 37.9229 141.4100 40.5224 0.0000 10.1314 0.0000
# 3 30.7762 40.5224 105.8488 0.0000 -8.8485 0.0000
# 4 0.0000 0.0000 0.0000 22.8227 0.0000 -2.8225
# 5 3.9168 10.1314 -8.8485 0.0000 44.1599 0.0000
# 6 0.0000 0.0000 0.0000 -2.8225 0.0000 50.2043
#
#
#
# Elastic Compliance Matrix: (Units=1/GPa)
#
#
# Indices 1 2 3 4 5 6 
#
# 1 0.012647 -0.002507 -0.002810 0.000000 -0.001110 0.000000
# 2 -0.002507 0.008715 -0.002803 0.000000 -0.002339 0.000000
# 3 -0.002810 -0.002803 0.011607 0.000000 0.003218 0.000000
# 4 0.000000 0.000000 0.000000 0.044123 0.000000 0.002481
# 5 -0.001110 -0.002339 0.003218 0.000000 0.023925 0.000000
# 6 0.000000 0.000000 0.000000 0.002481 0.000000 0.020058
#
#
# Mechanical properties :
#
#
# Convention : Reuss Voigt Hill
#
# Bulk Modulus (GPa) = 59.77895 62.16347 60.97121
# Shear Modulus (GPa) = 34.99200 38.89117 36.94159
#
# Velocity S-wave (km/s) = 3.93634 4.14986 4.04451
# Velocity P-wave (km/s) = 6.86516 7.10552 6.98637
#
# Compressibility (1/GPa) = 0.01672830
#
# Stress axis : x y z
#
# Youngs Moduli (GPa) = 79.07025 114.74926 86.15800
#
# Poissons Ratio (x) = 0.28766 0.24213
# Poissons Ratio (y) = 0.19821 0.24149
# Poissons Ratio (z) = 0.22221 0.32163
#
# Static dielectric constant tensor:
#      x y z
#    x 4.327410 0.000000 -0.171250 
#    y 0.000000 4.187260 0.000000 
#    z -0.171250 0.000000 3.972120 
# 
# 
# High freq. dielectric constant tensor:
#      x y z
#    x 1.907990 0.000000 -0.012580 
#    y 0.000000 1.899100 0.000000 
#    z -0.012580 0.000000 1.883740 
# 
# From -- ./inp_files/124498.got.cif
#   From: 2010.06.25/outbox.cif.g09.slc.cpg/sg12_63_cif.got.tgz:124498.got - 2010.06.28 00:19:55.
