data_PCOD8115025
_publ_section_title
;
Structure prediction by ZEFSAII (Michael W. Deem and Ramdas Pophale) SiO2 
 PCOD8115025
Probable space group: C 2/M
;
_chemical_formula_sum "Si O2"
_cell_formula_units_Z 56
_cell_length_a 17.160558
_cell_length_b 29.286572
_cell_length_c 5.425107
_cell_angle_alpha 90.000000
_cell_angle_beta 110.131499
_cell_angle_gamma 90.000000
_cell_volume 2559.941194
_symmetry_space_group_name_H-M "C 2/M"
_symmetry_group_IT_number 12
_symmetry_cell_setting 'monoclinic'
loop_
_space_group_symop_operation_xyz
x,y,z
-x,y,-z
-x,-y,-z
x,-y,z
1/2+x,1/2+y,z
1/2-x,1/2+y,-z
1/2-x,1/2-y,-z
1/2+x,1/2-y,z
loop_
_atom_site_type_symbol
_atom_site_label
_atom_site_fract_x
_atom_site_fract_y
_atom_site_fract_z
Si Si1 0.290298 0.203993 0.627552
Si Si2 0.407264 0.425758 0.375867
Si Si3 0.933244 0.256911 0.108411
Si Si4 0.352616 0.670301 0.228842
Si Si5 0.189945 0.051393 0.229615
Si Si6 0.040403 0.645171 0.786611
Si Si7 0.290905 0.135792 0.235578
O O1 0.250000 0.250000 0.500000
O O2 0.354439 0.218432 0.903259
O O3 0.214341 0.172710 0.629762
O O4 0.334461 0.171466 0.473880
O O5 0.500000 0.445576 0.500000
O O6 0.413964 0.370809 0.360898
O O7 0.360826 0.439768 0.575119
O O8 0.364502 0.444253 0.080082
O O9 0.903623 0.217722 0.263702
O O10 0.978662 0.300541 0.275147
O O11 0.000000 0.232618 0.000000
O O12 0.297545 0.659234 0.927595
O O13 0.269252 0.085248 0.310392
O O14 0.224737 0.000000 0.277416
O O15 0.139319 0.632139 0.903254
O O16 0.000000 0.620882 0.500000
O O17 0.000000 0.627789 0.000000
#
# Coordination Sequence:
#
# PCOD8115025 Si02
#       7
#     8   8   8   8   8   8   8
#     4  12  21  37  63  87 122 173 216 263 312 377
#     4  11  25  43  67  97 134 171 218 270 334 384
#     4  11  23  38  57  91 128 172 221 266 316 374
#     4  11  23  38  58  87 126 171 215 265 311 379
#     4  11  25  45  70  99 127 169 219 273 332 394
#     4  11  24  40  61  92 126 165 210 261 320 374
#     4  11  22  41  65  88 126 168 220 263 322 392
#
# _framework density 21.875502999999998
#
# number of rings (size 3 to 8) (size 9 to 14) (size 15 to 20)
#    0.000    0.857    4.286    3.857    0.000    5.714 
#    0.000    0.000    0.000    0.857    0.000    0.000 
#    0.000    0.571    0.000    0.000    0.000    0.000 
#
# Total GULP energy -346919.735240 kJ/mol
# GULP energy per Si atom -12389.990544 kJ/mol
# Density = 2.182571 g / cm^3
# Si number density = 21.875503 Si / 1000 Ang^3
#
#
#
# Elastic Constant Matrix: (Units=GPa)
#
#
# Indices 1 2 3 4 5 6 
#
# 1 114.9623 27.5661 21.4818 0.0000 -25.8018 0.0000
# 2 27.5661 118.4923 20.7839 0.0000 -10.6921 0.0000
# 3 21.4818 20.7839 107.0844 0.0000 -21.0077 0.0000
# 4 0.0000 0.0000 0.0000 18.7997 0.0000 -1.6917
# 5 -25.8018 -10.6921 -21.0077 0.0000 33.1885 0.0000
# 6 0.0000 0.0000 0.0000 -1.6917 0.0000 13.2218
#
#
#
# Elastic Compliance Matrix: (Units=1/GPa)
#
#
# Indices 1 2 3 4 5 6 
#
# 1 0.010918 -0.001787 -0.000332 0.000000 0.007702 0.000000
# 2 -0.001787 0.009146 -0.001269 0.000000 0.000754 0.000000
# 3 -0.000332 -0.001269 0.010870 0.000000 0.006214 0.000000
# 4 0.000000 0.000000 0.000000 0.053812 0.000000 0.006885
# 5 0.007702 0.000754 0.006214 0.000000 0.040294 0.000000
# 6 0.000000 0.000000 0.000000 0.006885 0.000000 0.076514
#
#
# Mechanical properties :
#
#
# Convention : Reuss Voigt Hill
#
# Bulk Modulus (GPa) = 41.39417 53.35585 47.37501
# Shear Modulus (GPa) = 23.10733 31.08915 27.09824
#
# Velocity S-wave (km/s) = 3.25362 3.77395 3.52340
# Velocity P-wave (km/s) = 5.75138 6.59044 6.18516
#
# Compressibility (1/GPa) = 0.02415799
#
# Stress axis : x y z
#
# Youngs Moduli (GPa) = 91.59567 109.34220 91.99364
#
# Poissons Ratio (x) = 0.19535 0.03059
# Poissons Ratio (y) = 0.16364 0.11671
# Poissons Ratio (z) = 0.03045 0.13872
#
# Static dielectric constant tensor:
#      x y z
#    x 3.989260 0.000000 -0.167370 
#    y 0.000000 3.617260 0.000000 
#    z -0.167370 0.000000 3.687210 
# 
# 
# High freq. dielectric constant tensor:
#      x y z
#    x 1.866470 0.000000 -0.008810 
#    y 0.000000 1.832220 0.000000 
#    z -0.008810 0.000000 1.864310 
# 
# From -- ./inp_files/18172.got.cif
#   From: 2010.06.25/outbox.cif.g09.slc.cpg/sg12_10_cif.got.tgz:18172.got - 2010.06.28 00:19:55.
