data_PCOD8115164
_publ_section_title
;
Structure prediction by ZEFSAII (Michael W. Deem and Ramdas Pophale) SiO2 
 PCOD8115164
Probable space group: C 2/M
;
_chemical_formula_sum "Si O2"
_cell_formula_units_Z 48
_cell_length_a 23.178645
_cell_length_b 8.828098
_cell_length_c 12.480031
_cell_angle_alpha 90.000000
_cell_angle_beta 89.192323
_cell_angle_gamma 90.000000
_cell_volume 2553.452021
_symmetry_space_group_name_H-M "C 2/M"
_symmetry_group_IT_number 12
_symmetry_cell_setting 'monoclinic'
loop_
_space_group_symop_operation_xyz
x,y,z
-x,y,-z
-x,-y,-z
x,-y,z
1/2+x,1/2+y,z
1/2-x,1/2+y,-z
1/2-x,1/2-y,-z
1/2+x,1/2-y,z
loop_
_atom_site_type_symbol
_atom_site_label
_atom_site_fract_x
_atom_site_fract_y
_atom_site_fract_z
Si Si1 0.939255 0.174715 0.134680
Si Si2 0.871246 0.675602 0.703099
Si Si3 0.071939 0.174641 0.109510
Si Si4 0.866948 0.677500 0.319070
Si Si5 0.566916 0.323891 0.489083
Si Si6 0.747268 0.323240 0.616339
O O1 0.904312 0.280963 0.215031
O O2 0.006400 0.217175 0.141088
O O3 0.929983 0.000000 0.167511
O O4 0.916413 0.205178 0.015746
O O5 0.884930 0.500000 0.682639
O O6 0.884418 0.719991 0.825348
O O7 0.912805 0.777678 0.629261
O O8 0.805009 0.713254 0.680334
O O9 0.083742 0.000000 0.136821
O O10 0.857094 0.500000 0.323569
O O11 0.898315 0.726500 0.426521
O O12 0.804869 0.756561 0.312626
O O13 0.500000 0.285328 0.500000
O O14 0.579225 0.500000 0.509714
O O15 0.737583 0.500000 0.600281
O O16 0.750000 0.250000 0.500000
#
# Coordination Sequence:
#
# PCOD8115164 Si02
#       6
#     8   8   8   8   8   8
#     4   9  19  38  61  86 116 153 194 234 280 343
#     4  11  23  37  57  86 116 146 188 239 290 341
#     4   9  19  37  62  87 115 153 193 232 284 345
#     4  12  24  37  57  86 116 150 192 239 290 341
#     4  11  23  37  56  82 114 152 189 230 285 347
#     4  11  23  40  60  82 112 154 196 238 287 345
#
# _framework density 18.798081
#
# number of rings (size 3 to 8) (size 9 to 14) (size 15 to 20)
#    0.000    1.500    1.667    5.000    0.000    8.667 
#    0.000    2.500    0.000    0.000    0.000    0.000 
#    0.000    0.000    0.000    0.000    0.000    0.000 
#
# Total GULP energy -297734.855145 kJ/mol
# GULP energy per Si atom -12405.618964 kJ/mol
# Density = 1.875530 g / cm^3
# Si number density = 18.798081 Si / 1000 Ang^3
#
#
#
# Elastic Constant Matrix: (Units=GPa)
#
#
# Indices 1 2 3 4 5 6 
#
# 1 66.9335 36.2463 19.6931 0.0000 23.0009 0.0000
# 2 36.2463 82.0601 21.5817 0.0000 15.5079 0.0000
# 3 19.6931 21.5817 76.2619 0.0000 19.6560 0.0000
# 4 0.0000 0.0000 0.0000 35.2644 0.0000 2.8046
# 5 23.0009 15.5079 19.6560 0.0000 28.0534 0.0000
# 6 0.0000 0.0000 0.0000 2.8046 0.0000 24.2691
#
#
#
# Elastic Compliance Matrix: (Units=1/GPa)
#
#
# Indices 1 2 3 4 5 6 
#
# 1 0.024667 -0.007890 -0.000059 0.000000 -0.015821 0.000000
# 2 -0.007890 0.016481 -0.002374 0.000000 -0.000978 0.000000
# 3 -0.000059 -0.002374 0.016413 0.000000 -0.010139 0.000000
# 4 0.000000 0.000000 0.000000 0.028620 0.000000 -0.003307
# 5 -0.015821 -0.000978 -0.010139 0.000000 0.056263 0.000000
# 6 0.000000 0.000000 0.000000 -0.003307 0.000000 0.041587
#
#
# Mechanical properties :
#
#
# Convention : Reuss Voigt Hill
#
# Bulk Modulus (GPa) = 27.09025 42.25531 34.67278
# Shear Modulus (GPa) = 23.04333 27.36634 25.20483
#
# Velocity S-wave (km/s) = 3.50499 3.81964 3.66569
# Velocity P-wave (km/s) = 5.55179 6.47921 6.03335
#
# Compressibility (1/GPa) = 0.03691366
#
# Stress axis : x y z
#
# Youngs Moduli (GPa) = 40.53983 60.67772 60.92657
#
# Poissons Ratio (x) = 0.47875 0.00360
# Poissons Ratio (y) = 0.31986 0.14467
# Poissons Ratio (z) = 0.00239 0.14408
#
# Static dielectric constant tensor:
#      x y z
#    x 3.639560 0.000000 0.062480 
#    y 0.000000 3.451620 0.000000 
#    z 0.062480 0.000000 3.456750 
# 
# 
# High freq. dielectric constant tensor:
#      x y z
#    x 1.731730 0.000000 0.003360 
#    y 0.000000 1.736410 0.000000 
#    z 0.003360 0.000000 1.731030 
# 
# From -- ./inp_files/172256.got.cif
#   From: 2010.06.25/outbox.cif.g09.slc.cpg/sg12_87_cif.got.tgz:172256.got - 2010.06.28 00:19:55.
