data_PCOD8115681
_publ_section_title
;
Structure prediction by ZEFSAII (Michael W. Deem and Ramdas Pophale) SiO2 
 PCOD8115681
Probable space group: C 2/M
;
_chemical_formula_sum "Si O2"
_cell_formula_units_Z 32
_cell_length_a 11.786616
_cell_length_b 14.939994
_cell_length_c 9.341872
_cell_angle_alpha 90.000000
_cell_angle_beta 124.901671
_cell_angle_gamma 90.000000
_cell_volume 1349.145896
_symmetry_space_group_name_H-M "C 2/M"
_symmetry_group_IT_number 12
_symmetry_cell_setting 'monoclinic'
loop_
_space_group_symop_operation_xyz
x,y,z
-x,y,-z
-x,-y,-z
x,-y,z
1/2+x,1/2+y,z
1/2-x,1/2+y,-z
1/2-x,1/2-y,-z
1/2+x,1/2-y,z
loop_
_atom_site_type_symbol
_atom_site_label
_atom_site_fract_x
_atom_site_fract_y
_atom_site_fract_z
Si Si1 0.447417 0.102414 0.808412
Si Si2 0.887547 0.654112 0.325929
Si Si3 0.136172 0.843149 0.533027
Si Si4 0.602479 0.601294 0.193398
O O1 0.539169 0.167517 0.774377
O O2 0.281359 0.109181 0.670961
O O3 0.488865 0.000000 0.807426
O O4 0.500000 0.133025 0.000000
O O5 0.857898 0.746551 0.388559
O O6 0.748322 0.598023 0.216087
O O7 0.000000 0.598641 0.500000
O O8 0.112891 0.838124 0.343930
O O9 0.000000 0.893974 0.500000
O O10 0.558859 0.500000 0.203752
O O11 0.500000 0.642747 0.000000
#
# Coordination Sequence:
#
# PCOD8115681 Si02
#       4
#     8   8   8   8
#     4  11  26  46  72 105 139 184 238 290 348 416
#     4  11  24  45  72 100 139 185 236 283 348 417
#     4  11  26  45  69 103 143 185 230 288 352 416
#     4  11  25  44  71 105 142 185 233 288 353 418
#
# _framework density 23.718709
#
# number of rings (size 3 to 8) (size 9 to 14) (size 15 to 20)
#    0.000    1.000    2.500    2.250    7.000    5.000 
#    0.000    0.000    0.000    0.000    0.000    0.000 
#    0.000    0.000    0.000    0.000    0.000    0.000 
#
# Total GULP energy -198223.967860 kJ/mol
# GULP energy per Si atom -12388.997991 kJ/mol
# Density = 2.366472 g / cm^3
# Si number density = 23.718709 Si / 1000 Ang^3
#
#
#
# Elastic Constant Matrix: (Units=GPa)
#
#
# Indices 1 2 3 4 5 6 
#
# 1 190.0152 19.8053 91.6064 0.0000 -2.0543 0.0000
# 2 19.8053 72.2008 30.1405 0.0000 -16.0352 0.0000
# 3 91.6064 30.1405 218.5508 0.0000 -7.3715 0.0000
# 4 0.0000 0.0000 0.0000 20.8835 0.0000 -6.2613
# 5 -2.0543 -16.0352 -7.3715 0.0000 47.1933 0.0000
# 6 0.0000 0.0000 0.0000 -6.2613 0.0000 28.7338
#
#
#
# Elastic Compliance Matrix: (Units=1/GPa)
#
#
# Indices 1 2 3 4 5 6 
#
# 1 0.006635 -0.000787 -0.002686 0.000000 -0.000398 0.000000
# 2 -0.000787 0.015906 -0.001691 0.000000 0.005106 0.000000
# 3 -0.002686 -0.001691 0.005943 0.000000 0.000237 0.000000
# 4 0.000000 0.000000 0.000000 0.051232 0.000000 0.011164
# 5 -0.000398 0.005106 0.000237 0.000000 0.022944 0.000000
# 6 0.000000 0.000000 0.000000 0.011164 0.000000 0.037235
#
#
# Mechanical properties :
#
#
# Convention : Reuss Voigt Hill
#
# Bulk Modulus (GPa) = 55.08162 84.87457 69.97810
# Shear Modulus (GPa) = 31.99455 41.97641 36.98548
#
# Velocity S-wave (km/s) = 3.67674 4.21142 3.95313
# Velocity P-wave (km/s) = 6.42634 7.71424 7.09956
#
# Compressibility (1/GPa) = 0.01815487
#
# Stress axis : x y z
#
# Youngs Moduli (GPa) = 150.70505 62.86792 168.27217
#
# Poissons Ratio (x) = 0.04949 0.45200
# Poissons Ratio (y) = 0.11864 0.28462
# Poissons Ratio (z) = 0.40482 0.10634
#
# Static dielectric constant tensor:
#      x y z
#    x 4.967250 0.000000 0.194080 
#    y 0.000000 3.853380 0.000000 
#    z 0.194080 0.000000 4.506870 
# 
# 
# High freq. dielectric constant tensor:
#      x y z
#    x 1.960660 0.000000 0.006150 
#    y 0.000000 1.919750 0.000000 
#    z 0.006150 0.000000 1.948630 
# 
# From -- ./inp_files/46720.got.cif
#   From: 2010.06.25/outbox.cif.g09.slc.cpg/sg12_24_cif.got.tgz:46720.got - 2010.06.28 00:19:55.
