data_PCOD8115848
_publ_section_title
;
Structure prediction by ZEFSAII (Michael W. Deem and Ramdas Pophale) SiO2 
 PCOD8115848
Probable space group: C 2/M
;
_chemical_formula_sum "Si O2"
_cell_formula_units_Z 48
_cell_length_a 25.722982
_cell_length_b 10.280485
_cell_length_c 14.619932
_cell_angle_alpha 90.000000
_cell_angle_beta 139.583417
_cell_angle_gamma 90.000000
_cell_volume 2506.589854
_symmetry_space_group_name_H-M "C 2/M"
_symmetry_group_IT_number 12
_symmetry_cell_setting 'monoclinic'
loop_
_space_group_symop_operation_xyz
x,y,z
-x,y,-z
-x,-y,-z
x,-y,z
1/2+x,1/2+y,z
1/2-x,1/2+y,-z
1/2-x,1/2-y,-z
1/2+x,1/2-y,z
loop_
_atom_site_type_symbol
_atom_site_label
_atom_site_fract_x
_atom_site_fract_y
_atom_site_fract_z
Si Si1 0.942406 0.348411 0.790534
Si Si2 0.514513 0.000000 0.626196
Si Si3 0.503310 0.500000 0.613204
Si Si4 0.081521 0.743056 0.432955
Si Si5 0.718892 0.249776 0.757440
Si Si6 0.197002 0.500000 0.852419
Si Si7 0.617107 0.151258 0.091781
Si Si8 0.179846 0.000000 0.820572
O O1 0.929389 0.500000 0.752302
O O2 0.905445 0.262910 0.658950
O O3 0.896152 0.308622 0.820668
O O4 0.037017 0.319038 0.927283
O O5 0.500000 0.000000 0.500000
O O6 0.477807 0.127769 0.620483
O O7 0.607988 0.000000 0.772876
O O8 0.500000 0.500000 0.500000
O O9 0.459610 0.376627 0.595924
O O10 0.596796 0.500000 0.765831
O O11 0.166749 0.726488 0.596570
O O12 0.713443 0.126588 0.815157
O O13 0.811252 0.264690 0.853565
O O14 0.683792 0.373945 0.762136
O O15 0.249528 0.500000 0.012920
O O16 0.640111 0.000000 0.115793
#
# Coordination Sequence:
#
# PCOD8115848 Si02
#       8
#     8   4   4   8   8   4   8   4
#     4   9  20  40  66  94 113 154 205 252 299 351
#     4  12  22  42  61  86 119 159 202 253 288 344
#     4  12  24  42  57  86 129 165 192 239 296 376
#     4  12  23  38  65  89 118 162 202 242 301 353
#     4  12  23  41  61  90 122 159 201 248 299 353
#     4  12  28  38  59  94 123 155 204 257 296 342
#     4   9  20  40  66  90 121 152 200 252 299 360
#     4  12  26  42  59  86 123 167 202 237 300 362
#
# _framework density 19.149522999999999
#
# number of rings (size 3 to 8) (size 9 to 14) (size 15 to 20)
#    0.000    1.000    5.000    3.000    4.667    0.667 
#    0.000    0.833    0.000    2.000    0.000    0.000 
#    0.000    0.000    0.000    0.000    0.000    0.000 
#
# Total GULP energy -297701.754368 kJ/mol
# GULP energy per Si atom -12404.239765 kJ/mol
# Density = 1.910594 g / cm^3
# Si number density = 19.149523 Si / 1000 Ang^3
#
#
#
# Elastic Constant Matrix: (Units=GPa)
#
#
# Indices 1 2 3 4 5 6 
#
# 1 54.8832 32.1387 21.0930 0.0000 -3.7877 0.0000
# 2 32.1387 110.9066 15.4634 0.0000 -2.4630 0.0000
# 3 21.0930 15.4634 108.9572 0.0000 -9.9277 0.0000
# 4 0.0000 0.0000 0.0000 31.5744 0.0000 -15.0817
# 5 -3.7877 -2.4630 -9.9277 0.0000 47.7984 0.0000
# 6 0.0000 0.0000 0.0000 -15.0817 0.0000 84.8612
#
#
#
# Elastic Compliance Matrix: (Units=1/GPa)
#
#
# Indices 1 2 3 4 5 6 
#
# 1 0.023292 -0.006237 -0.003552 0.000000 0.000787 0.000000
# 2 -0.006237 0.010871 -0.000336 0.000000 -0.000004 0.000000
# 3 -0.003552 -0.000336 0.010077 0.000000 0.001794 0.000000
# 4 0.000000 0.000000 0.000000 0.034609 0.000000 0.006151
# 5 0.000787 -0.000004 0.001794 0.000000 0.021356 0.000000
# 6 0.000000 0.000000 0.000000 0.006151 0.000000 0.012877
#
#
# Mechanical properties :
#
#
# Convention : Reuss Voigt Hill
#
# Bulk Modulus (GPa) = 41.68451 45.79302 43.73877
# Shear Modulus (GPa) = 35.37859 46.58360 40.98109
#
# Velocity S-wave (km/s) = 4.30291 4.93752 4.63109
# Velocity P-wave (km/s) = 6.81923 7.51470 7.17540
#
# Compressibility (1/GPa) = 0.02398973
#
# Stress axis : x y z
#
# Youngs Moduli (GPa) = 42.93273 91.99075 99.23855
#
# Poissons Ratio (x) = 0.57374 0.35253
# Poissons Ratio (y) = 0.26777 0.03332
# Poissons Ratio (z) = 0.15251 0.03088
#
# Static dielectric constant tensor:
#      x y z
#    x 4.179610 0.000000 -0.122280 
#    y 0.000000 3.269740 0.000000 
#    z -0.122280 0.000000 3.716030 
# 
# 
# High freq. dielectric constant tensor:
#      x y z
#    x 1.747960 0.000000 -0.003390 
#    y 0.000000 1.739900 0.000000 
#    z -0.003390 0.000000 1.757570 
# 
# From -- ./inp_files/295949.got.cif
#   From: 2010.06.25/outbox.cif.g09.slc.cpg/sg12_148_cif.got.tgz:295949.got - 2010.06.28 00:19:55.
