data_PCOD8115388
_publ_section_title
;
Structure prediction by ZEFSAII (Michael W. Deem and Ramdas Pophale) SiO2 
 PCOD8115388
Probable space group: C 2/M
;
_chemical_formula_sum "Si O2"
_cell_formula_units_Z 56
_cell_length_a 19.418339
_cell_length_b 16.957100
_cell_length_c 19.411541
_cell_angle_alpha 90.000000
_cell_angle_beta 156.556093
_cell_angle_gamma 90.000000
_cell_volume 2542.987369
_symmetry_space_group_name_H-M "C 2/M"
_symmetry_group_IT_number 12
_symmetry_cell_setting 'monoclinic'
loop_
_space_group_symop_operation_xyz
x,y,z
-x,y,-z
-x,-y,-z
x,-y,z
1/2+x,1/2+y,z
1/2-x,1/2+y,-z
1/2-x,1/2-y,-z
1/2+x,1/2-y,z
loop_
_atom_site_type_symbol
_atom_site_label
_atom_site_fract_x
_atom_site_fract_y
_atom_site_fract_z
Si Si1 0.024818 0.841842 0.102199
Si Si2 0.674293 0.410204 0.960671
Si Si3 0.053156 0.157389 0.713711
Si Si4 0.942084 0.662644 0.024433
Si Si5 0.705170 0.908053 0.371809
Si Si6 0.509943 0.836166 0.310269
Si Si7 0.881206 0.410131 0.455227
O O1 0.223284 0.849533 0.306237
O O2 0.913221 0.901904 0.045065
O O3 0.965480 0.753862 0.065231
O O4 0.000000 0.864735 0.000000
O O5 0.727438 0.500000 0.997134
O O6 0.547089 0.381015 0.784023
O O7 0.844017 0.356300 0.111324
O O8 0.901999 0.114757 0.530100
O O9 0.002405 0.248429 0.672828
O O10 0.239066 0.142063 0.848276
O O11 0.066083 0.609350 0.184867
O O12 0.000000 0.645667 0.000000
O O13 0.671938 0.853874 0.409197
O O14 0.692737 0.000000 0.379252
O O15 0.512403 0.894605 0.377747
O O16 0.814350 0.500000 0.392259
O O17 0.000000 0.390834 0.500000
#
# Coordination Sequence:
#
# PCOD8115388 Si02
#       7
#     8   8   8   8   8   8   8
#     4  11  23  42  65  96 138 184 230 273 337 415
#     4  12  23  39  69 101 137 178 222 283 344 404
#     4  12  25  46  72 102 137 181 233 284 344 413
#     4  11  26  48  71 102 137 178 233 292 348 411
#     4  12  26  45  72 104 137 178 230 287 349 411
#     4  12  23  43  69  98 138 180 227 277 334 412
#     4  11  24  39  60  97 142 182 225 277 335 402
#
# _framework density 22.021343999999999
#
# number of rings (size 3 to 8) (size 9 to 14) (size 15 to 20)
#    0.000    0.429    2.857    6.429    2.000    3.714 
#    0.000    0.714    0.000    0.000    0.000    0.000 
#    0.000    0.000    0.000    0.000    0.000    0.000 
#
# Total GULP energy -347353.249735 kJ/mol
# GULP energy per Si atom -12405.473205 kJ/mol
# Density = 2.197122 g / cm^3
# Si number density = 22.021344 Si / 1000 Ang^3
#
#
#
# Elastic Constant Matrix: (Units=GPa)
#
#
# Indices 1 2 3 4 5 6 
#
# 1 110.3167 36.6827 40.8332 0.0109 9.0746 0.0008
# 2 36.6827 70.5592 40.7485 0.0039 10.2358 0.0009
# 3 40.8332 40.7485 136.4594 -0.0069 20.9322 -0.0050
# 4 0.0109 0.0039 -0.0069 30.5419 0.0041 3.4335
# 5 9.0746 10.2358 20.9322 0.0041 28.9742 -0.0011
# 6 0.0008 0.0009 -0.0050 3.4335 -0.0011 18.7418
#
#
#
# Elastic Compliance Matrix: (Units=1/GPa)
#
#
# Indices 1 2 3 4 5 6 
#
# 1 0.011393 -0.004743 -0.001915 -0.000004 -0.000509 0.000000
# 2 -0.004743 0.019284 -0.003961 -0.000001 -0.002465 -0.000002
# 3 -0.001915 -0.003961 0.009871 0.000004 -0.005132 0.000002
# 4 -0.000004 -0.000001 0.000004 0.033430 -0.000006 -0.006124
# 5 -0.000509 -0.002465 -0.005132 -0.000006 0.039252 0.000002
# 6 0.000000 -0.000002 0.000002 -0.006124 0.000002 0.054479
#
#
# Mechanical properties :
#
#
# Convention : Reuss Voigt Hill
#
# Bulk Modulus (GPa) = 51.78661 61.54045 56.66353
# Shear Modulus (GPa) = 25.59090 28.92298 27.25694
#
# Velocity S-wave (km/s) = 3.41265 3.62803 3.52199
# Velocity P-wave (km/s) = 6.25267 6.74956 6.50586
#
# Compressibility (1/GPa) = 0.01931001
#
# Stress axis : x y z
#
# Youngs Moduli (GPa) = 87.77617 51.85776 101.30583
#
# Poissons Ratio (x) = 0.24598 0.19395
# Poissons Ratio (y) = 0.41635 0.40125
# Poissons Ratio (z) = 0.16805 0.20540
#
# Static dielectric constant tensor:
#      x y z
#    x 4.138940 -0.000030 0.172460 
#    y -0.000030 3.842780 -0.000050 
#    z 0.172460 -0.000050 4.112660 
# 
# 
# High freq. dielectric constant tensor:
#      x y z
#    x 1.865440 0.000000 0.005800 
#    y 0.000000 1.865980 0.000000 
#    z 0.005800 0.000000 1.880900 
# 
# From -- ./inp_files/87807.got.cif
#   From: 2010.06.25/outbox.cif.g09.slc.cpg/sg12_44_cif.got.tgz:87807.got - 2010.06.28 00:19:55.
