data_PCOD8115328
_publ_section_title
;
Structure prediction by ZEFSAII (Michael W. Deem and Ramdas Pophale) SiO2 
 PCOD8115328
Probable space group: C 2/M
;
_chemical_formula_sum "Si O2"
_cell_formula_units_Z 40
_cell_length_a 18.181899
_cell_length_b 24.587178
_cell_length_c 9.769725
_cell_angle_alpha 90.000000
_cell_angle_beta 151.687828
_cell_angle_gamma 90.000000
_cell_volume 2071.384517
_symmetry_space_group_name_H-M "C 2/M"
_symmetry_group_IT_number 12
_symmetry_cell_setting 'monoclinic'
loop_
_space_group_symop_operation_xyz
x,y,z
-x,y,-z
-x,-y,-z
x,-y,z
1/2+x,1/2+y,z
1/2-x,1/2+y,-z
1/2-x,1/2-y,-z
1/2+x,1/2-y,z
loop_
_atom_site_type_symbol
_atom_site_label
_atom_site_fract_x
_atom_site_fract_y
_atom_site_fract_z
Si Si1 0.835864 0.561472 0.888675
Si Si2 0.831806 0.735815 0.274358
Si Si3 0.609193 0.652041 0.059530
Si Si4 0.102388 0.150580 0.536636
Si Si5 0.315110 0.938618 0.534104
O O1 0.779858 0.500000 0.829645
O O2 0.730158 0.606167 0.788401
O O3 0.821247 0.573617 0.704461
O O4 0.009092 0.569724 0.230445
O O5 0.737451 0.692360 0.209100
O O6 0.832048 0.788271 0.376332
O O7 0.000000 0.713925 0.500000
O O8 0.750000 0.750000 0.000000
O O9 0.696396 0.599985 0.262572
O O10 0.500000 0.678323 0.000000
O O11 0.495253 0.631201 0.753878
O O12 0.000000 0.157417 0.500000
O O13 0.259800 0.000000 0.414702
#
# Coordination Sequence:
#
# PCOD8115328 Si02
#       5
#     8   8   8   8   8
#     4   9  19  39  62  91 126 162 203 250 312 371
#     4  11  24  46  64  86 129 173 201 248 324 378
#     4  12  24  40  65 100 122 157 218 262 300 366
#     4  11  23  41  62  89 126 166 206 249 318 375
#     4   9  20  38  63  91 125 163 199 254 317 364
#
# _framework density 19.310756000000001
#
# number of rings (size 3 to 8) (size 9 to 14) (size 15 to 20)
#    0.000    1.600    6.000    1.200    2.800    2.400 
#    3.600    0.000    0.000    3.000    0.000    0.000 
#    0.000    0.000    0.000    0.000    0.000    0.000 
#
# Total GULP energy -247880.456125 kJ/mol
# GULP energy per Si atom -12394.022806 kJ/mol
# Density = 1.926680 g / cm^3
# Si number density = 19.310756 Si / 1000 Ang^3
#
#
#
# Elastic Constant Matrix: (Units=GPa)
#
#
# Indices 1 2 3 4 5 6 
#
# 1 67.1951 43.9884 34.6611 0.0000 9.7655 0.0000
# 2 43.9884 110.6969 40.7148 0.0000 17.0364 0.0000
# 3 34.6611 40.7148 104.5427 0.0000 0.1571 0.0000
# 4 0.0000 0.0000 0.0000 -4.1420 0.0000 -57.8236
# 5 9.7655 17.0364 0.1571 0.0000 34.2498 0.0000
# 6 0.0000 0.0000 0.0000 -57.8236 0.0000 -103.0574
#
#
#
# Elastic Compliance Matrix: (Units=1/GPa)
#
#
# Indices 1 2 3 4 5 6 
#
# 1 0.022065 -0.006555 -0.004758 0.000000 -0.003009 0.000000
# 2 -0.006555 0.013518 -0.003084 0.000000 -0.004841 0.000000
# 3 -0.004758 -0.003084 0.012340 0.000000 0.002834 0.000000
# 4 0.000000 0.000000 0.000000 0.035334 0.000000 -0.019825
# 5 -0.003009 -0.004841 0.002834 0.000000 0.032450 0.000000
# 6 0.000000 0.000000 0.000000 -0.019825 0.000000 0.001420
#
#
# Mechanical properties :
#
#
# Convention : Reuss Voigt Hill
#
# Bulk Modulus (GPa) = 52.27886 57.90705 55.09296
# Shear Modulus (GPa) = 32.83070 -3.71854 14.55608
#
# Velocity S-wave (km/s) = 4.12773 -1.38918 2.74849
# Velocity P-wave (km/s) = 7.06036 5.24204 6.21803
#
# Compressibility (1/GPa) = 0.01912819
#
# Stress axis : x y z
#
# Youngs Moduli (GPa) = 45.32102 73.97675 81.03793
#
# Poissons Ratio (x) = 0.48491 0.38560
# Poissons Ratio (y) = 0.29707 0.24992
# Poissons Ratio (z) = 0.21565 0.22815
#
# Static dielectric constant tensor:
#      x y z
#    x 3.285640 0.000000 0.123020 
#    y 0.000000 3.934900 0.000000 
#    z 0.123020 0.000000 3.579410 
# 
# 
# High freq. dielectric constant tensor:
#      x y z
#    x 1.741020 0.000000 0.011600 
#    y 0.000000 1.750220 0.000000 
#    z 0.011600 0.000000 1.763620 
# 
# From -- ./inp_files/41426.got.cif
#   From: 2010.06.25/outbox.cif.g09.slc.cpg/sg12_21_cif.got.tgz:41426.got - 2010.06.28 00:19:55.
