data_PCOD8115057
_publ_section_title
;
Structure prediction by ZEFSAII (Michael W. Deem and Ramdas Pophale) SiO2 
 PCOD8115057
Probable space group: C 2/M
;
_chemical_formula_sum "Si O2"
_cell_formula_units_Z 56
_cell_length_a 20.525607
_cell_length_b 18.016535
_cell_length_c 19.717104
_cell_angle_alpha 90.000000
_cell_angle_beta 159.528615
_cell_angle_gamma 90.000000
_cell_volume 2550.087836
_symmetry_space_group_name_H-M "C 2/M"
_symmetry_group_IT_number 12
_symmetry_cell_setting 'monoclinic'
loop_
_space_group_symop_operation_xyz
x,y,z
-x,y,-z
-x,-y,-z
x,-y,z
1/2+x,1/2+y,z
1/2-x,1/2+y,-z
1/2-x,1/2-y,-z
1/2+x,1/2-y,z
loop_
_atom_site_type_symbol
_atom_site_label
_atom_site_fract_x
_atom_site_fract_y
_atom_site_fract_z
Si Si1 0.755680 0.804716 0.625614
Si Si2 0.242510 0.355450 0.178311
Si Si3 0.712111 0.584754 0.228083
Si Si4 0.973021 0.084041 0.639253
Si Si5 0.835597 0.649933 0.747922
Si Si6 0.659018 0.188504 0.760732
Si Si7 0.106774 0.186898 0.885761
O O1 0.780906 0.882231 0.689392
O O2 0.801571 0.737872 0.721505
O O3 0.538390 0.802640 0.392364
O O4 0.891498 0.792038 0.693190
O O5 0.400083 0.409107 0.303233
O O6 0.229558 0.381757 0.243367
O O7 0.290930 0.268876 0.219434
O O8 0.052888 0.368783 0.951126
O O9 0.782657 0.500000 0.298258
O O10 0.844964 0.630404 0.305545
O O11 0.500000 0.590871 0.000000
O O12 0.771865 0.117335 0.422420
O O13 0.086687 0.124979 0.809184
O O14 0.943417 0.000000 0.633380
O O15 0.807020 0.157099 0.959696
O O16 0.250000 0.250000 0.000000
#
# Coordination Sequence:
#
# PCOD8115057 Si02
#       7
#     8   8   8   8   8   8   8
#     4  12  23  39  72 101 138 178 233 281 346 409
#     4  11  22  42  71 101 134 173 224 286 343 405
#     4  11  23  41  67 103 147 181 220 288 360 422
#     4  12  28  46  66  98 138 180 229 283 338 401
#     4  11  22  41  72 101 131 174 226 282 344 406
#     4  12  23  41  70 105 133 177 233 284 341 411
#     4  12  25  46  68  98 136 186 238 281 331 406
#
# _framework density 21.960027
#
# number of rings (size 3 to 8) (size 9 to 14) (size 15 to 20)
#    0.000    0.429    7.143    0.857    0.000    7.429 
#    0.000    1.429    0.000    0.000    0.000    0.000 
#    0.000    0.000    0.000    0.000    0.000    0.000 
#
# Total GULP energy -347102.543838 kJ/mol
# GULP energy per Si atom -12396.519423 kJ/mol
# Density = 2.191004 g / cm^3
# Si number density = 21.960027 Si / 1000 Ang^3
#
#
#
# Elastic Constant Matrix: (Units=GPa)
#
#
# Indices 1 2 3 4 5 6 
#
# 1 77.7655 37.1917 24.8152 -0.0075 16.4660 0.0149
# 2 37.1917 101.6670 23.8128 -0.0439 -3.7020 0.0265
# 3 24.8152 23.8128 95.4823 -0.0657 11.5102 -0.0001
# 4 -0.0075 -0.0439 -0.0657 21.8497 0.0082 -3.2176
# 5 16.4660 -3.7020 11.5102 0.0082 47.5669 0.0135
# 6 0.0149 0.0265 -0.0001 -3.2176 0.0135 22.1106
#
#
#
# Elastic Compliance Matrix: (Units=1/GPa)
#
#
# Indices 1 2 3 4 5 6 
#
# 1 0.017873 -0.006207 -0.002362 -0.000012 -0.006098 -0.000003
# 2 -0.006207 0.012705 -0.001992 0.000014 0.003619 -0.000011
# 3 -0.002362 -0.001992 0.011849 0.000033 -0.002205 0.000010
# 4 -0.000012 0.000014 0.000033 0.046770 -0.000013 0.006806
# 5 -0.006098 0.003619 -0.002205 -0.000013 0.023949 -0.000017
# 6 -0.000003 -0.000011 0.000010 0.006806 -0.000017 0.046218
#
#
# Mechanical properties :
#
#
# Convention : Reuss Voigt Hill
#
# Bulk Modulus (GPa) = 46.93509 49.61712 48.27611
# Shear Modulus (GPa) = 26.65436 30.91179 28.78308
#
# Velocity S-wave (km/s) = 3.48770 3.75592 3.62429
# Velocity P-wave (km/s) = 6.13499 6.43837 6.28851
#
# Compressibility (1/GPa) = 0.02130602
#
# Stress axis : x y z
#
# Youngs Moduli (GPa) = 55.95144 78.70928 84.39183
#
# Poissons Ratio (x) = 0.48855 0.19932
# Poissons Ratio (y) = 0.34729 0.16808
# Poissons Ratio (z) = 0.13215 0.15677
#
# Static dielectric constant tensor:
#      x y z
#    x 3.956430 -0.000090 0.102910 
#    y -0.000090 3.730590 -0.000310 
#    z 0.102910 -0.000310 4.307890 
# 
# 
# High freq. dielectric constant tensor:
#      x y z
#    x 1.859110 -0.000010 0.006150 
#    y -0.000010 1.832840 -0.000020 
#    z 0.006150 -0.000020 1.887400 
# 
# From -- ./inp_files/322709.got.cif
#   From: 2010.06.25/outbox.cif.g09.slc.cpg/sg12_162_cif.got.tgz:322709.got - 2010.06.28 00:19:55.
