data_PCOD8115112
_publ_section_title
;
Structure prediction by ZEFSAII (Michael W. Deem and Ramdas Pophale) SiO2 
 PCOD8115112
Probable space group: C 2/M
;
_chemical_formula_sum "Si O2"
_cell_formula_units_Z 40
_cell_length_a 18.682977
_cell_length_b 14.044410
_cell_length_c 12.641622
_cell_angle_alpha 90.000000
_cell_angle_beta 146.211222
_cell_angle_gamma 90.000000
_cell_volume 1844.721994
_symmetry_space_group_name_H-M "C 2/M"
_symmetry_group_IT_number 12
_symmetry_cell_setting 'monoclinic'
loop_
_space_group_symop_operation_xyz
x,y,z
-x,y,-z
-x,-y,-z
x,-y,z
1/2+x,1/2+y,z
1/2-x,1/2+y,-z
1/2-x,1/2-y,-z
1/2+x,1/2-y,z
loop_
_atom_site_type_symbol
_atom_site_label
_atom_site_fract_x
_atom_site_fract_y
_atom_site_fract_z
Si Si1 0.017883 0.391555 0.797328
Si Si2 0.579403 0.240275 0.695839
Si Si3 0.160161 0.239083 0.087653
Si Si4 0.994881 0.894653 0.237550
Si Si5 0.733436 0.662018 0.407251
O O1 0.059656 0.500000 0.873718
O O2 0.869468 0.392574 0.575822
O O3 0.100790 0.347442 0.802713
O O4 0.050770 0.323179 0.940098
O O5 0.500000 0.200120 0.500000
O O6 0.714657 0.279321 0.819020
O O7 0.496913 0.324555 0.650929
O O8 0.188211 0.204824 0.239889
O O9 0.116712 0.143206 0.975714
O O10 0.125063 0.902847 0.328222
O O11 0.960433 0.000000 0.235903
O O12 0.750000 0.750000 0.500000
#
# Coordination Sequence:
#
# PCOD8115112 Si02
#       5
#     8   8   8   8   8
#     4  11  24  42  69 100 131 173 228 274 326 398
#     4  11  22  44  66  94 134 178 218 273 336 389
#     4  11  24  42  68  95 135 176 218 274 334 389
#     4  11  24  40  66  98 130 172 221 271 330 398
#     4  12  22  44  68  92 137 174 213 274 338 392
#
# _framework density 21.683484
#
# number of rings (size 3 to 8) (size 9 to 14) (size 15 to 20)
#    0.000    0.800    6.000    3.600    0.000    6.400 
#    0.000    5.000    0.000    0.000    0.000    0.000 
#    0.000    0.000    0.000    0.000    0.000    0.000 
#
# Total GULP energy -247814.407255 kJ/mol
# GULP energy per Si atom -12390.720363 kJ/mol
# Density = 2.163413 g / cm^3
# Si number density = 21.683484 Si / 1000 Ang^3
#
#
#
# Elastic Constant Matrix: (Units=GPa)
#
#
# Indices 1 2 3 4 5 6 
#
# 1 79.7700 9.4078 10.4898 0.0000 8.4652 0.0000
# 2 9.4078 126.1783 4.4584 0.0000 3.8551 0.0000
# 3 10.4898 4.4584 86.6625 0.0000 9.2405 0.0000
# 4 0.0000 0.0000 0.0000 17.2552 0.0000 2.4635
# 5 8.4652 3.8551 9.2405 0.0000 23.7644 0.0000
# 6 0.0000 0.0000 0.0000 2.4635 0.0000 9.4992
#
#
#
# Elastic Compliance Matrix: (Units=1/GPa)
#
#
# Indices 1 2 3 4 5 6 
#
# 1 0.013219 -0.000820 -0.001116 0.000000 -0.004142 0.000000
# 2 -0.000820 0.008022 -0.000215 0.000000 -0.000926 0.000000
# 3 -0.001116 -0.000215 0.012142 0.000000 -0.004289 0.000000
# 4 0.000000 0.000000 0.000000 0.060182 0.000000 -0.015607
# 5 -0.004142 -0.000926 -0.004289 0.000000 0.045373 0.000000
# 6 0.000000 0.000000 0.000000 -0.015607 0.000000 0.109319
#
#
# Mechanical properties :
#
#
# Convention : Reuss Voigt Hill
#
# Bulk Modulus (GPa) = 34.38500 37.92478 36.15489
# Shear Modulus (GPa) = 19.06553 27.98742 23.52648
#
# Velocity S-wave (km/s) = 2.96846 3.59656 3.29750
# Velocity P-wave (km/s) = 5.25748 5.89705 5.58642
#
# Compressibility (1/GPa) = 0.02908245
#
# Stress axis : x y z
#
# Youngs Moduli (GPa) = 75.64861 124.65284 82.35541
#
# Poissons Ratio (x) = 0.10217 0.09193
# Poissons Ratio (y) = 0.06200 0.01769
# Poissons Ratio (z) = 0.08444 0.02677
#
# Static dielectric constant tensor:
#      x y z
#    x 3.395870 0.000000 -0.335640 
#    y 0.000000 3.643950 0.000000 
#    z -0.335640 0.000000 3.292900 
# 
# 
# High freq. dielectric constant tensor:
#      x y z
#    x 1.855830 0.000000 0.004860 
#    y 0.000000 1.830200 0.000000 
#    z 0.004860 0.000000 1.863340 
# 
# From -- ./inp_files/156335.got.cif
#   From: 2010.06.25/outbox.cif.g09.slc.cpg/sg12_79_cif.got.tgz:156335.got - 2010.06.28 00:19:55.
