data_PCOD8115982
_publ_section_title
;
Structure prediction by ZEFSAII (Michael W. Deem and Ramdas Pophale) SiO2 
 PCOD8115982
Probable space group: C 2/M
;
_chemical_formula_sum "Si O2"
_cell_formula_units_Z 56
_cell_length_a 9.483465
_cell_length_b 20.189265
_cell_length_c 26.044311
_cell_angle_alpha 90.000000
_cell_angle_beta 136.740606
_cell_angle_gamma 90.000000
_cell_volume 3417.296651
_symmetry_space_group_name_H-M "C 2/M"
_symmetry_group_IT_number 12
_symmetry_cell_setting 'monoclinic'
loop_
_space_group_symop_operation_xyz
x,y,z
-x,y,-z
-x,-y,-z
x,-y,z
1/2+x,1/2+y,z
1/2-x,1/2+y,-z
1/2-x,1/2-y,-z
1/2+x,1/2-y,z
loop_
_atom_site_type_symbol
_atom_site_label
_atom_site_fract_x
_atom_site_fract_y
_atom_site_fract_z
Si Si1 0.992020 0.314798 0.413823
Si Si2 0.569997 0.578658 0.863487
Si Si3 0.728315 0.073440 0.697960
Si Si4 0.663270 0.314798 0.413823
Si Si5 0.936474 0.073440 0.302040
Si Si6 0.616051 0.921341 0.136513
Si Si7 0.658666 0.420874 1.000000
O O1 0.192097 0.333592 0.500000
O O2 0.030304 0.250000 0.390153
O O3 0.951796 0.375465 0.364232
O O4 0.797144 0.301210 0.398572
O O5 0.588712 0.500000 0.868789
O O6 0.347495 0.598243 0.780807
O O7 0.754927 0.607847 0.877464
O O8 0.590121 0.607018 0.926287
O O9 0.891748 0.069278 0.695874
O O10 0.632088 0.000000 0.680900
O O11 0.505130 0.375466 0.364231
O O12 0.724268 0.098243 0.219193
O O13 0.908486 0.000000 0.319099
O O14 0.384975 0.892982 0.073713
O O15 0.613560 0.000000 0.131213
O O16 0.658883 0.500000 1.000000
O O17 0.500000 0.393070 0.000000
#
# Coordination Sequence:
#
# PCOD8115982 Si02
#       7
#     8   8   8   8   8   8   8
#     4   9  17  29  45  64  86 112 141 173 209 250
#     4   8  13  22  36  53  75 104 136 168 202 240
#     4   8  14  25  42  64  86 108 140 180 213 242
#     4   9  17  29  45  64  86 112 141 173 209 250
#     4   8  14  25  42  64  86 108 140 180 213 242
#     4   8  13  22  36  53  75 104 136 168 202 240
#     4   9  15  21  31  51  80 109 134 161 197 243
#
# _framework density 16.387222000000001
#
# number of rings (size 3 to 8) (size 9 to 14) (size 15 to 20)
#    0.000    3.571    0.000    2.143    0.000    2.286 
#    0.000    4.286    0.000    2.571    0.000    5.000 
#    0.000    0.000    0.000    0.000    0.000    0.000 
#
# Total GULP energy -347011.907074 kJ/mol
# GULP energy per Si atom -12393.282396 kJ/mol
# Density = 1.634992 g / cm^3
# Si number density = 16.387222 Si / 1000 Ang^3
#
#
#
# Elastic Constant Matrix: (Units=GPa)
#
#
# Indices 1 2 3 4 5 6 
#
# 1 62.6673 31.9800 51.4826 0.0000 1.3375 0.0000
# 2 31.9800 70.0430 69.7457 -0.0002 2.7654 0.0000
# 3 51.4826 69.7457 138.7002 -0.0008 4.2295 -0.0001
# 4 0.0000 -0.0002 -0.0008 4.7109 -0.0003 -0.7451
# 5 1.3375 2.7654 4.2295 -0.0003 14.9382 0.0000
# 6 0.0000 0.0000 -0.0001 -0.7451 0.0000 14.8836
#
#
#
# Elastic Compliance Matrix: (Units=1/GPa)
#
#
# Indices 1 2 3 4 5 6 
#
# 1 0.023536 -0.004110 -0.006686 -0.000001 0.000547 0.000000
# 2 -0.004110 0.029335 -0.013185 -0.000001 -0.001329 0.000000
# 3 -0.006686 -0.013185 0.016370 0.000002 -0.001596 0.000000
# 4 -0.000001 -0.000001 0.000002 0.213968 0.000004 0.010711
# 5 0.000547 -0.001329 -0.001596 0.000004 0.067591 0.000000
# 6 0.000000 0.000000 0.000000 0.010711 0.000000 0.067724
#
#
# Mechanical properties :
#
#
# Convention : Reuss Voigt Hill
#
# Bulk Modulus (GPa) = 46.99448 64.20301 55.59875
# Shear Modulus (GPa) = 10.55788 14.78669 12.67229
#
# Velocity S-wave (km/s) = 2.54101 3.00714 2.78385
# Velocity P-wave (km/s) = 6.11136 7.16386 6.65844
#
# Compressibility (1/GPa) = 0.02127909
#
# Stress axis : x y z
#
# Youngs Moduli (GPa) = 42.48883 34.08885 61.08612
#
# Poissons Ratio (x) = 0.14010 0.40842
# Poissons Ratio (y) = 0.17462 0.80543
# Poissons Ratio (z) = 0.28408 0.44947
#
# Static dielectric constant tensor:
#      x y z
#    x 2.961070 0.000000 0.034770 
#    y 0.000000 2.856010 0.000000 
#    z 0.034770 0.000000 3.436000 
# 
# 
# High freq. dielectric constant tensor:
#      x y z
#    x 1.602330 0.000000 0.003090 
#    y 0.000000 1.578220 0.000000 
#    z 0.003090 0.000000 1.644470 
# 
# From -- ./inp_files/257653.got.cif
#   From: 2010.06.25/outbox.cif.g09.slc.cpg/sg12_129_cif.got.tgz:257653.got - 2010.06.28 00:19:55.
