data_PCOD8115331
_publ_section_title
;
Structure prediction by ZEFSAII (Michael W. Deem and Ramdas Pophale) SiO2 
 PCOD8115331
Probable space group: C 2/M
;
_chemical_formula_sum "Si O2"
_cell_formula_units_Z 44
_cell_length_a 7.927494
_cell_length_b 32.198886
_cell_length_c 7.979867
_cell_angle_alpha 90.000000
_cell_angle_beta 80.052139
_cell_angle_gamma 90.000000
_cell_volume 2006.288486
_symmetry_space_group_name_H-M "C 2/M"
_symmetry_group_IT_number 12
_symmetry_cell_setting 'monoclinic'
loop_
_space_group_symop_operation_xyz
x,y,z
-x,y,-z
-x,-y,-z
x,-y,z
1/2+x,1/2+y,z
1/2-x,1/2+y,-z
1/2-x,1/2-y,-z
1/2+x,1/2-y,z
loop_
_atom_site_type_symbol
_atom_site_label
_atom_site_fract_x
_atom_site_fract_y
_atom_site_fract_z
Si Si1 0.477491 0.379183 0.311210
Si Si2 0.906596 0.626468 0.687783
Si Si3 0.000000 0.420009 0.000000
Si Si4 0.859757 0.953966 0.881257
Si Si5 0.485252 0.207968 0.194809
Si Si6 0.405875 0.706866 0.691984
O O1 0.500000 0.368790 0.500000
O O2 0.286534 0.390746 0.287008
O O3 0.603307 0.417618 0.256595
O O4 0.536003 0.335290 0.219136
O O5 0.000000 0.613414 0.500000
O O6 0.901620 0.676285 0.712645
O O7 0.006610 0.607254 0.829471
O O8 0.167537 0.448921 0.982553
O O9 0.876558 0.000000 0.797331
O O10 0.000000 0.948351 0.000000
O O11 0.557127 0.254334 0.194712
O O12 0.296102 0.204160 0.303035
O O13 0.500000 0.194036 0.000000
O O14 0.500000 0.714303 0.500000
#
# Coordination Sequence:
#
# PCOD8115331 Si02
#       6
#     8   8   4   8   8   8
#     4  11  24  44  69  99 135 183 229 288 349 412
#     4  12  24  43  70 101 143 183 234 287 343 416
#     4  12  23  46  72 106 140 184 230 282 351 414
#     4  11  24  44  71 101 138 179 224 286 352 418
#     4  12  24  40  62 100 137 183 235 289 345 410
#     4  11  23  41  63  92 137 185 233 286 348 411
#
# _framework density 21.931042999999999
#
# number of rings (size 3 to 8) (size 9 to 14) (size 15 to 20)
#    0.000    0.545    2.727    7.364    0.000    1.091 
#    0.000    0.000    0.000    2.727    0.000    0.000 
#    0.000    0.000    0.000    0.000    0.000    0.000 
#
# Total GULP energy -272831.273735 kJ/mol
# GULP energy per Si atom -12401.421533 kJ/mol
# Density = 2.188113 g / cm^3
# Si number density = 21.931043 Si / 1000 Ang^3
#
#
#
# Elastic Constant Matrix: (Units=GPa)
#
#
# Indices 1 2 3 4 5 6 
#
# 1 136.4393 39.6578 25.4296 0.0000 -8.7367 0.0000
# 2 39.6578 130.2275 27.4059 0.0000 -6.4901 0.0000
# 3 25.4296 27.4059 92.3540 0.0000 0.7223 0.0000
# 4 0.0000 0.0000 0.0000 5.6691 0.0000 -16.5688
# 5 -8.7367 -6.4901 0.7223 0.0000 34.9316 0.0000
# 6 0.0000 0.0000 0.0000 -16.5688 0.0000 6.3484
#
#
#
# Elastic Compliance Matrix: (Units=1/GPa)
#
#
# Indices 1 2 3 4 5 6 
#
# 1 0.008368 -0.002105 -0.001693 0.000000 0.001737 0.000000
# 2 -0.002105 0.008807 -0.002043 0.000000 0.001152 0.000000
# 3 -0.001693 -0.002043 0.011908 0.000000 -0.001049 0.000000
# 4 0.000000 0.000000 0.000000 -0.026614 0.000000 -0.069460
# 5 0.001737 0.001152 -0.001049 0.000000 0.029297 0.000000
# 6 0.000000 0.000000 0.000000 -0.069460 0.000000 -0.023766
#
#
# Mechanical properties :
#
#
# Convention : Reuss Voigt Hill
#
# Bulk Modulus (GPa) = 57.46671 60.44527 58.95599
# Shear Modulus (GPa) = 196.20000 27.15832 111.67916
#
# Velocity S-wave (km/s) = 9.46871 3.52284 7.14377
# Velocity P-wave (km/s) = 12.07486 6.64594 9.74604
#
# Compressibility (1/GPa) = 0.01740138
#
# Stress axis : x y z
#
# Youngs Moduli (GPa) = 119.50319 113.54141 83.97400
#
# Poissons Ratio (x) = 0.23906 0.14216
# Poissons Ratio (y) = 0.25161 0.17155
# Poissons Ratio (z) = 0.20231 0.23195
#
# Static dielectric constant tensor:
#      x y z
#    x 4.138560 0.000000 -0.126810 
#    y 0.000000 4.128390 0.000000 
#    z -0.126810 0.000000 3.693810 
# 
# 
# High freq. dielectric constant tensor:
#      x y z
#    x 1.877050 0.000000 -0.003850 
#    y 0.000000 1.866370 0.000000 
#    z -0.003850 0.000000 1.847620 
# 
# From -- ./inp_files/41619.got.cif
#   From: 2010.06.25/outbox.cif.g09.slc.cpg/sg12_21_cif.got.tgz:41619.got - 2010.06.28 00:19:55.
