data_PCOD8115041
_publ_section_title
;
Structure prediction by ZEFSAII (Michael W. Deem and Ramdas Pophale) SiO2 
 PCOD8115041
Probable space group: C 2/M
;
_chemical_formula_sum "Si O2"
_cell_formula_units_Z 32
_cell_length_a 13.653878
_cell_length_b 22.550486
_cell_length_c 9.400742
_cell_angle_alpha 90.000000
_cell_angle_beta 149.209847
_cell_angle_gamma 90.000000
_cell_volume 1481.682475
_symmetry_space_group_name_H-M "C 2/M"
_symmetry_group_IT_number 12
_symmetry_cell_setting 'monoclinic'
loop_
_space_group_symop_operation_xyz
x,y,z
-x,y,-z
-x,-y,-z
x,-y,z
1/2+x,1/2+y,z
1/2-x,1/2+y,-z
1/2-x,1/2-y,-z
1/2+x,1/2-y,z
loop_
_atom_site_type_symbol
_atom_site_label
_atom_site_fract_x
_atom_site_fract_y
_atom_site_fract_z
Si Si1 0.589444 0.368378 0.261141
Si Si2 0.140220 0.932087 0.803819
Si Si3 0.516914 0.871895 0.357195
Si Si4 0.029254 0.238198 0.693329
O O1 0.470936 0.420607 0.188494
O O2 0.575202 0.307774 0.333393
O O3 0.800152 0.396837 0.499900
O O4 0.500000 0.351675 0.000000
O O5 0.000000 0.915390 0.500000
O O6 0.207887 0.000000 0.880949
O O7 0.327256 0.889939 0.033257
O O8 0.500000 0.894536 0.500000
O O9 0.568236 0.802282 0.418214
O O10 0.000000 0.211463 0.500000
O O11 0.250000 0.250000 0.000000
#
# Coordination Sequence:
#
# PCOD8115041 Si02
#       4
#     8   8   8   8
#     4  12  23  43  69 102 135 175 223 271 335 400
#     4  11  26  48  69  95 133 175 227 285 332 390
#     4  11  23  43  67 100 135 175 222 271 332 403
#     4  11  22  41  67  97 141 175 215 269 334 396
#
# _framework density 21.597069000000001
#
# number of rings (size 3 to 8) (size 9 to 14) (size 15 to 20)
#    0.000    0.750    5.000    3.000    0.000    3.000 
#    0.000    2.500    0.000    0.000    0.000    0.000 
#    0.000    0.000    0.000    0.000    0.000    0.000 
#
# Total GULP energy -198366.534743 kJ/mol
# GULP energy per Si atom -12397.908421 kJ/mol
# Density = 2.154791 g / cm^3
# Si number density = 21.597069 Si / 1000 Ang^3
#
#
#
# Elastic Constant Matrix: (Units=GPa)
#
#
# Indices 1 2 3 4 5 6 
#
# 1 151.3190 30.2027 78.6283 0.0000 14.6357 0.0000
# 2 30.2027 82.6413 28.4896 0.0000 -10.5480 0.0000
# 3 78.6283 28.4896 157.6487 0.0000 -2.1263 0.0000
# 4 0.0000 0.0000 0.0000 27.4561 0.0000 -10.2760
# 5 14.6357 -10.5480 -2.1263 0.0000 51.1547 0.0000
# 6 0.0000 0.0000 0.0000 -10.2760 0.0000 8.2596
#
#
#
# Elastic Compliance Matrix: (Units=1/GPa)
#
#
# Indices 1 2 3 4 5 6 
#
# 1 0.009762 -0.002472 -0.004469 0.000000 -0.003488 0.000000
# 2 -0.002472 0.013876 -0.001227 0.000000 0.003518 0.000000
# 3 -0.004469 -0.001227 0.008813 0.000000 0.001392 0.000000
# 4 0.000000 0.000000 0.000000 0.068160 0.000000 0.084801
# 5 -0.003488 0.003518 0.001392 0.000000 0.021330 0.000000
# 6 0.000000 0.000000 0.000000 0.084801 0.000000 0.226576
#
#
# Mechanical properties :
#
#
# Convention : Reuss Voigt Hill
#
# Bulk Modulus (GPa) = 62.05897 74.02781 68.04339
# Shear Modulus (GPa) = 13.50533 34.32663 23.91598
#
# Velocity S-wave (km/s) = 2.50338 3.99107 3.33133
# Velocity P-wave (km/s) = 6.09534 7.45583 6.80964
#
# Compressibility (1/GPa) = 0.01611371
#
# Stress axis : x y z
#
# Youngs Moduli (GPa) = 102.44304 72.06690 113.47316
#
# Poissons Ratio (x) = 0.17816 0.50710
# Poissons Ratio (y) = 0.25326 0.13925
# Poissons Ratio (z) = 0.45781 0.08844
#
# Static dielectric constant tensor:
#      x y z
#    x 4.253760 0.000000 0.032750 
#    y 0.000000 3.897070 0.000000 
#    z 0.032750 0.000000 3.959760 
# 
# 
# High freq. dielectric constant tensor:
#      x y z
#    x 1.852230 0.000000 0.002010 
#    y 0.000000 1.837090 0.000000 
#    z 0.002010 0.000000 1.859090 
# 
# From -- ./inp_files/40079.got.cif
#   From: 2010.06.25/outbox.cif.g09.slc.cpg/sg12_21_cif.got.tgz:40079.got - 2010.06.28 00:19:55.
