data_PCOD8115846
_publ_section_title
;
Structure prediction by ZEFSAII (Michael W. Deem and Ramdas Pophale) SiO2 
 PCOD8115846
Probable space group: C 2/M
;
_chemical_formula_sum "Si O2"
_cell_formula_units_Z 48
_cell_length_a 9.977661
_cell_length_b 28.433534
_cell_length_c 17.476755
_cell_angle_alpha 90.000000
_cell_angle_beta 28.819691
_cell_angle_gamma 90.000000
_cell_volume 2390.104024
_symmetry_space_group_name_H-M "C 2/M"
_symmetry_group_IT_number 12
_symmetry_cell_setting 'monoclinic'
loop_
_space_group_symop_operation_xyz
x,y,z
-x,y,-z
-x,-y,-z
x,-y,z
1/2+x,1/2+y,z
1/2-x,1/2+y,-z
1/2-x,1/2-y,-z
1/2+x,1/2-y,z
loop_
_atom_site_type_symbol
_atom_site_label
_atom_site_fract_x
_atom_site_fract_y
_atom_site_fract_z
Si Si1 0.602142 0.863725 0.865732
Si Si2 0.974656 0.281241 0.349538
Si Si3 0.622072 0.053043 0.259794
Si Si4 0.975625 0.733673 0.174613
Si Si5 0.733132 0.445895 0.988357
Si Si6 0.648947 0.376375 0.508676
O O1 0.575621 0.820690 0.820063
O O2 0.412646 0.909433 0.947055
O O3 0.926609 0.877428 0.690075
O O4 0.500000 0.845715 0.000000
O O5 0.750000 0.250000 0.500000
O O6 0.015846 0.262270 0.244208
O O7 0.869168 0.334253 0.404025
O O8 0.251343 0.272008 0.259480
O O9 0.657295 0.058057 0.151985
O O10 0.344611 0.079102 0.424911
O O11 0.569991 0.000000 0.310415
O O12 0.909729 0.070105 0.155639
O O13 0.250000 0.750000 0.000000
O O14 0.769876 0.500000 0.998970
O O15 0.500000 0.376826 0.500000
#
# Coordination Sequence:
#
# PCOD8115846 Si02
#       6
#     8   8   8   8   8   8
#     4  12  25  43  61  91 132 166 216 264 318 387
#     4  12  23  44  65  93 130 165 211 268 313 376
#     4   9  19  37  65  98 125 161 211 264 318 380
#     4  12  26  43  65  94 127 170 215 260 320 380
#     4   9  19  38  64  94 129 164 207 262 323 380
#     4  12  22  41  64  94 125 166 215 266 318 373
#
# _framework density 20.082806999999999
#
# number of rings (size 3 to 8) (size 9 to 14) (size 15 to 20)
#    0.000    1.000    5.000    3.000    2.333    1.333 
#    0.000    0.833    0.000    2.000    0.000    0.000 
#    0.000    0.000    0.000    0.000    0.000    0.000 
#
# Total GULP energy -297430.024179 kJ/mol
# GULP energy per Si atom -12392.917674 kJ/mol
# Density = 2.003710 g / cm^3
# Si number density = 20.082807 Si / 1000 Ang^3
#
#
#
# Elastic Constant Matrix: (Units=GPa)
#
#
# Indices 1 2 3 4 5 6 
#
# 1 226.4532 72.6887 148.3559 -0.0011 -15.7974 0.0007
# 2 72.6887 103.5996 80.8174 -0.0003 -23.3099 0.0002
# 3 148.3559 80.8174 245.0096 -0.0016 -16.6129 0.0010
# 4 -0.0011 -0.0003 -0.0016 44.7022 0.0003 -5.8714
# 5 -15.7974 -23.3099 -16.6129 0.0003 42.4946 -0.0003
# 6 0.0007 0.0002 0.0010 -5.8714 -0.0003 22.1667
#
#
#
# Elastic Compliance Matrix: (Units=1/GPa)
#
#
# Indices 1 2 3 4 5 6 
#
# 1 0.007735 -0.002377 -0.003896 0.000000 0.000049 0.000000
# 2 -0.002377 0.015169 -0.003144 0.000000 0.006208 0.000000
# 3 -0.003896 -0.003144 0.007460 0.000000 -0.000256 0.000000
# 4 0.000000 0.000000 0.000000 0.023177 0.000000 0.006139
# 5 0.000049 0.006208 -0.000256 0.000000 0.026856 0.000000
# 6 0.000000 0.000000 0.000000 0.006139 0.000000 0.046739
#
#
# Mechanical properties :
#
#
# Convention : Reuss Voigt Hill
#
# Bulk Modulus (GPa) = 86.72025 130.97626 108.84826
# Shear Modulus (GPa) = 33.37518 40.08606 36.73062
#
# Velocity S-wave (km/s) = 4.08104 4.47255 4.28127
# Velocity P-wave (km/s) = 8.09207 9.59330 8.87448
#
# Compressibility (1/GPa) = 0.01153133
#
# Stress axis : x y z
#
# Youngs Moduli (GPa) = 129.28785 65.92280 134.04390
#
# Poissons Ratio (x) = 0.15667 0.52226
# Poissons Ratio (y) = 0.30726 0.42139
# Poissons Ratio (z) = 0.50373 0.20724
#
# Static dielectric constant tensor:
#      x y z
#    x 3.525050 0.000000 -0.034800 
#    y 0.000000 4.072340 0.000000 
#    z -0.034800 0.000000 3.861970 
# 
# 
# High freq. dielectric constant tensor:
#      x y z
#    x 1.761730 0.000000 -0.005770 
#    y 0.000000 1.792290 0.000000 
#    z -0.005770 0.000000 1.804530 
# 
# From -- ./inp_files/260236.got.cif
#   From: 2010.06.25/outbox.cif.g09.slc.cpg/sg12_131_cif.got.tgz:260236.got - 2010.06.28 00:19:55.
