data_PCOD8115460
_publ_section_title
;
Structure prediction by ZEFSAII (Michael W. Deem and Ramdas Pophale) SiO2 
 PCOD8115460
Probable space group: C 2/M
;
_chemical_formula_sum "Si O2"
_cell_formula_units_Z 44
_cell_length_a 7.848055
_cell_length_b 31.597772
_cell_length_c 11.487908
_cell_angle_alpha 90.000000
_cell_angle_beta 131.960579
_cell_angle_gamma 90.000000
_cell_volume 2118.369750
_symmetry_space_group_name_H-M "C 2/M"
_symmetry_group_IT_number 12
_symmetry_cell_setting 'monoclinic'
loop_
_space_group_symop_operation_xyz
x,y,z
-x,y,-z
-x,-y,-z
x,-y,z
1/2+x,1/2+y,z
1/2-x,1/2+y,-z
1/2-x,1/2-y,-z
1/2+x,1/2-y,z
loop_
_atom_site_type_symbol
_atom_site_label
_atom_site_fract_x
_atom_site_fract_y
_atom_site_fract_z
Si Si1 0.357473 0.730586 0.316849
Si Si2 0.892887 0.840147 0.164800
Si Si3 0.141850 0.383636 0.680611
Si Si4 0.106427 0.691371 0.821393
Si Si5 0.000000 0.400932 0.000000
Si Si6 0.228249 0.548708 0.891375
O O1 0.500000 0.736558 0.500000
O O2 0.488545 0.697171 0.292816
O O3 0.307998 0.775806 0.236955
O O4 0.110832 0.710919 0.217140
O O5 0.096901 0.871148 0.223992
O O6 0.800595 0.818065 0.005156
O O7 0.698203 0.869209 0.138443
O O8 0.032867 0.351470 0.723437
O O9 0.122143 0.430154 0.727749
O O10 0.000000 0.383780 0.500000
O O11 0.118673 0.429366 0.955182
O O12 0.155869 0.500000 0.862534
O O13 0.500000 0.554530 0.000000
#
# Coordination Sequence:
#
# PCOD8115460 Si02
#       6
#     8   8   8   8   4   8
#     4  12  24  39  58  93 134 174 221 278 338 383
#     4  12  23  41  67  94 129 174 231 271 325 394
#     4  12  24  43  68  96 134 175 219 280 341 394
#     4  12  23  41  59  91 127 177 229 270 327 394
#     4  12  21  44  70 102 132 168 228 270 327 384
#     4  11  23  43  72 103 135 173 219 271 332 407
#
# _framework density 20.770688
#
# number of rings (size 3 to 8) (size 9 to 14) (size 15 to 20)
#    0.000    0.182    5.455    4.636    0.000    1.818 
#    0.000    0.000    0.000    1.091    0.000    0.000 
#    0.000    0.000    0.000    0.000    0.000    0.000 
#
# Total GULP energy -272763.936567 kJ/mol
# GULP energy per Si atom -12398.360753 kJ/mol
# Density = 2.072341 g / cm^3
# Si number density = 20.770688 Si / 1000 Ang^3
#
#
#
# Elastic Constant Matrix: (Units=GPa)
#
#
# Indices 1 2 3 4 5 6 
#
# 1 93.3820 37.6584 41.7995 0.0000 -8.0281 0.0000
# 2 37.6584 142.5016 72.0613 0.0000 -12.5497 0.0000
# 3 41.7995 72.0613 148.5390 0.0000 -18.6978 0.0000
# 4 0.0000 0.0000 0.0000 26.3629 0.0000 -12.1813
# 5 -8.0281 -12.5497 -18.6978 0.0000 28.8569 0.0000
# 6 0.0000 0.0000 0.0000 -12.1813 0.0000 35.8972
#
#
#
# Elastic Compliance Matrix: (Units=1/GPa)
#
#
# Indices 1 2 3 4 5 6 
#
# 1 0.012718 -0.002021 -0.002465 0.000000 0.001062 0.000000
# 2 -0.002021 0.009659 -0.003984 0.000000 0.001057 0.000000
# 3 -0.002465 -0.003984 0.009858 0.000000 0.003969 0.000000
# 4 0.000000 0.000000 0.000000 0.044986 0.000000 0.015265
# 5 0.001062 0.001057 0.003969 0.000000 0.037981 0.000000
# 6 0.000000 0.000000 0.000000 0.015265 0.000000 0.033037
#
#
# Mechanical properties :
#
#
# Convention : Reuss Voigt Hill
#
# Bulk Modulus (GPa) = 65.37729 76.38456 70.88092
# Shear Modulus (GPa) = 29.36354 33.75029 31.55691
#
# Velocity S-wave (km/s) = 3.76400 4.03538 3.90205
# Velocity P-wave (km/s) = 7.10171 7.65293 7.38247
#
# Compressibility (1/GPa) = 0.01529583
#
# Stress axis : x y z
#
# Youngs Moduli (GPa) = 78.62656 103.52513 101.43592
#
# Poissons Ratio (x) = 0.20923 0.25002
# Poissons Ratio (y) = 0.15891 0.40416
# Poissons Ratio (z) = 0.19380 0.41248
#
# Static dielectric constant tensor:
#      x y z
#    x 3.891880 0.000000 -0.313260 
#    y 0.000000 4.190600 0.000000 
#    z -0.313260 0.000000 3.466090 
# 
# 
# High freq. dielectric constant tensor:
#      x y z
#    x 1.835540 0.000000 -0.009950 
#    y 0.000000 1.822130 0.000000 
#    z -0.009950 0.000000 1.798600 
# 
# From -- ./inp_files/125435.got.cif
#   From: 2010.06.25/outbox.cif.g09.slc.cpg/sg12_63_cif.got.tgz:125435.got - 2010.06.28 00:19:55.
