data_PCOD8115998
_publ_section_title
;
Structure prediction by ZEFSAII (Michael W. Deem and Ramdas Pophale) SiO2 
 PCOD8115998
Probable space group: C 2/M
;
_chemical_formula_sum "Si O2"
_cell_formula_units_Z 56
_cell_length_a 25.443279
_cell_length_b 9.453060
_cell_length_c 14.132872
_cell_angle_alpha 90.000000
_cell_angle_beta 104.185698
_cell_angle_gamma 90.000000
_cell_volume 3295.540620
_symmetry_space_group_name_H-M "C 2/M"
_symmetry_group_IT_number 12
_symmetry_cell_setting 'monoclinic'
loop_
_space_group_symop_operation_xyz
x,y,z
-x,y,-z
-x,-y,-z
x,-y,z
1/2+x,1/2+y,z
1/2-x,1/2+y,-z
1/2-x,1/2-y,-z
1/2+x,1/2-y,z
loop_
_atom_site_type_symbol
_atom_site_label
_atom_site_fract_x
_atom_site_fract_y
_atom_site_fract_z
Si Si1 0.704340 0.665279 0.597547
Si Si2 0.865111 0.832274 0.260215
Si Si3 0.966247 0.168664 0.196718
Si Si4 0.189572 0.834379 0.374920
Si Si5 0.592534 0.337988 0.012398
Si Si6 0.084606 0.168449 0.218071
Si Si7 0.699096 0.338675 0.948265
O O1 0.717050 0.500000 0.618212
O O2 0.657082 0.719361 0.647975
O O3 0.759096 0.750782 0.643862
O O4 0.682798 0.696605 0.483179
O O5 0.926207 0.775832 0.263203
O O6 0.824558 0.778466 0.160634
O O7 0.866923 0.000000 0.257856
O O8 0.028129 0.216923 0.242821
O O9 0.961753 0.000000 0.189816
O O10 0.945881 0.229892 0.085869
O O11 0.135474 0.774528 0.300779
O O12 0.198749 0.000000 0.359221
O O13 0.575136 0.500000 0.015641
O O14 0.585401 0.266097 0.112288
O O15 0.654996 0.323599 0.011260
O O16 0.088448 0.000000 0.216737
O O17 0.717452 0.500000 0.943938
O O18 0.750000 0.250000 0.000000
#
# Coordination Sequence:
#
# PCOD8115998 Si02
#       7
#     8   8   8   8   8   8   8
#     4   9  17  31  46  59  84 118 143 167 209 259
#     4   8  15  27  42  58  81 114 144 167 202 255
#     4   8  13  23  38  58  84 113 139 165 206 258
#     4   9  18  29  43  66  88 106 138 182 215 243
#     4   8  14  23  36  56  83 112 136 164 208 252
#     4   9  15  23  38  61  87 108 134 176 216 244
#     4   9  17  27  39  59  85 110 139 172 202 242
#
# _framework density 16.992660000000001
#
# number of rings (size 3 to 8) (size 9 to 14) (size 15 to 20)
#    0.000    3.429    0.000    2.143    2.000    1.714 
#    0.000    0.714    0.000    4.286    0.000    5.000 
#    0.000   10.286    0.000    0.000    0.000    0.000 
#
# Total GULP energy -346939.341292 kJ/mol
# GULP energy per Si atom -12390.690760 kJ/mol
# Density = 1.695398 g / cm^3
# Si number density = 16.992660 Si / 1000 Ang^3
#
#
#
# Elastic Constant Matrix: (Units=GPa)
#
#
# Indices 1 2 3 4 5 6 
#
# 1 138.2305 22.1813 79.0715 0.0000 -1.4419 0.0000
# 2 22.1813 17.0938 13.7284 0.0000 1.8895 0.0000
# 3 79.0715 13.7284 87.3310 0.0000 -2.7643 0.0000
# 4 0.0000 0.0000 0.0000 12.6388 0.0000 3.0938
# 5 -1.4419 1.8895 -2.7643 0.0000 32.6083 0.0000
# 6 0.0000 0.0000 0.0000 3.0938 0.0000 17.0024
#
#
#
# Elastic Compliance Matrix: (Units=1/GPa)
#
#
# Indices 1 2 3 4 5 6 
#
# 1 0.016594 -0.010870 -0.013308 0.000000 0.000235 0.000000
# 2 -0.010870 0.074828 -0.002079 0.000000 -0.004993 0.000000
# 3 -0.013308 -0.002079 0.023876 0.000000 0.001556 0.000000
# 4 0.000000 0.000000 0.000000 0.082810 0.000000 -0.015069
# 5 0.000235 -0.004993 0.001556 0.000000 0.031099 0.000000
# 6 0.000000 0.000000 0.000000 -0.015069 0.000000 0.061557
#
#
# Mechanical properties :
#
#
# Convention : Reuss Voigt Hill
#
# Bulk Modulus (GPa) = 15.92774 52.51307 34.22041
# Shear Modulus (GPa) = 13.72852 20.96149 17.34500
#
# Velocity S-wave (km/s) = 2.84546 3.51602 3.19836
# Velocity P-wave (km/s) = 4.49323 6.88866 5.81562
#
# Compressibility (1/GPa) = 0.06278355
#
# Stress axis : x y z
#
# Youngs Moduli (GPa) = 60.26432 13.36401 41.88301
#
# Poissons Ratio (x) = 0.14527 0.55738
# Poissons Ratio (y) = 0.65510 0.08706
# Poissons Ratio (z) = 0.80199 0.02778
#
# Static dielectric constant tensor:
#      x y z
#    x 3.530670 0.000000 -0.196420 
#    y 0.000000 2.600520 0.000000 
#    z -0.196420 0.000000 3.386710 
# 
# 
# High freq. dielectric constant tensor:
#      x y z
#    x 1.668320 0.000000 -0.005360 
#    y 0.000000 1.584220 0.000000 
#    z -0.005360 0.000000 1.650160 
# 
# From -- ./inp_files/231939.got.cif
#   From: 2010.06.25/outbox.cif.g09.slc.cpg/sg12_116_cif.got.tgz:231939.got - 2010.06.28 00:19:55.
