data_PCOD8115027
_publ_section_title
;
Structure prediction by ZEFSAII (Michael W. Deem and Ramdas Pophale) SiO2 
 PCOD8115027
Probable space group: C 2/M
;
_chemical_formula_sum "Si O2"
_cell_formula_units_Z 48
_cell_length_a 14.363392
_cell_length_b 27.717540
_cell_length_c 11.409764
_cell_angle_alpha 90.000000
_cell_angle_beta 151.283547
_cell_angle_gamma 90.000000
_cell_volume 2182.526255
_symmetry_space_group_name_H-M "C 2/M"
_symmetry_group_IT_number 12
_symmetry_cell_setting 'monoclinic'
loop_
_space_group_symop_operation_xyz
x,y,z
-x,y,-z
-x,-y,-z
x,-y,z
1/2+x,1/2+y,z
1/2-x,1/2+y,-z
1/2-x,1/2-y,-z
1/2+x,1/2-y,z
loop_
_atom_site_type_symbol
_atom_site_label
_atom_site_fract_x
_atom_site_fract_y
_atom_site_fract_z
Si Si1 0.288612 0.654082 0.491958
Si Si2 0.274977 0.706528 0.241112
Si Si3 0.850840 0.447909 0.002127
Si Si4 0.785265 0.946479 0.394843
Si Si5 0.879090 0.352765 0.142719
Si Si6 0.396174 0.691364 0.996867
O O1 0.208028 0.677871 0.283504
O O2 0.376764 0.599993 0.563027
O O3 0.455904 0.687444 0.730709
O O4 0.109714 0.654006 0.385688
O O5 0.500000 0.720333 0.500000
O O6 0.240703 0.673681 0.091056
O O7 0.145349 0.753809 0.082594
O O8 0.817584 0.500000 0.024207
O O9 0.694946 0.440532 0.724525
O O10 0.822080 0.408941 0.071760
O O11 0.060448 0.443900 0.177162
O O12 0.868417 0.000000 0.524277
O O13 0.805704 0.334047 0.188280
O O14 0.500000 0.665709 0.000000
#
# Coordination Sequence:
#
# PCOD8115027 Si02
#       6
#     8   8   8   8   8   8
#     4  11  23  42  67  93 131 164 201 261 314 374
#     4  12  25  42  66  92 126 161 207 261 322 374
#     4   8  14  28  58  97 129 156 194 243 310 384
#     4   8  14  29  59  98 130 157 190 243 315 380
#     4  11  22  41  65  93 128 168 201 253 317 369
#     4  12  29  44  61  88 122 169 225 258 304 366
#
# _framework density 21.992861000000001
#
# number of rings (size 3 to 8) (size 9 to 14) (size 15 to 20)
#    0.000    1.667    3.333    3.000    2.333    1.333 
#    0.000    0.833    0.000    5.000    0.000    4.667 
#    0.000    0.000    0.000    0.000    0.000    0.000 
#
# Total GULP energy -297442.191425 kJ/mol
# GULP energy per Si atom -12393.424643 kJ/mol
# Density = 2.194280 g / cm^3
# Si number density = 21.992861 Si / 1000 Ang^3
#
#
#
# Elastic Constant Matrix: (Units=GPa)
#
#
# Indices 1 2 3 4 5 6 
#
# 1 91.0206 47.3314 -16.5184 0.0000 3.2921 0.0000
# 2 47.3314 160.5149 29.0801 0.0000 0.2877 0.0000
# 3 -16.5184 29.0801 55.3066 0.0000 6.0210 0.0000
# 4 0.0000 0.0000 0.0000 -8.5588 0.0000 2.3776
# 5 3.2921 0.2877 6.0210 0.0000 20.4049 0.0000
# 6 0.0000 0.0000 0.0000 2.3776 0.0000 17.2734
#
#
#
# Elastic Compliance Matrix: (Units=1/GPa)
#
#
# Indices 1 2 3 4 5 6 
#
# 1 0.015993 -0.006269 0.008621 0.000000 -0.005036 0.000000
# 2 -0.006269 0.009363 -0.007120 0.000000 0.002980 0.000000
# 3 0.008621 -0.007120 0.025354 0.000000 -0.008772 0.000000
# 4 0.000000 0.000000 0.000000 -0.112536 0.000000 0.015490
# 5 -0.005036 0.002980 -0.008772 0.000000 0.052367 0.000000
# 6 0.000000 0.000000 0.000000 0.015490 0.000000 0.055760
#
#
# Mechanical properties :
#
#
# Convention : Reuss Voigt Hill
#
# Bulk Modulus (GPa) = 24.28648 47.40312 35.84480
# Shear Modulus (GPa) = 71.87917 22.28718 47.08317
#
# Velocity S-wave (km/s) = 5.72310 3.18682 4.63194
# Velocity P-wave (km/s) = 7.39856 5.92805 6.70375
#
# Compressibility (1/GPa) = 0.04117518
#
# Stress axis : x y z
#
# Youngs Moduli (GPa) = 62.52763 106.80428 39.44101
#
# Poissons Ratio (x) = 0.66952 -0.34002
# Poissons Ratio (y) = 0.39196 0.28081
# Poissons Ratio (z) = -0.53904 0.76042
#
# Static dielectric constant tensor:
#      x y z
#    x 4.009130 0.000000 0.221040 
#    y 0.000000 4.397350 0.000000 
#    z 0.221040 0.000000 3.696220 
# 
# 
# High freq. dielectric constant tensor:
#      x y z
#    x 1.851470 0.000000 0.037520 
#    y 0.000000 1.868380 0.000000 
#    z 0.037520 0.000000 1.844210 
# 
# From -- ./inp_files/149839.got.cif
#   From: 2010.06.25/outbox.cif.g09.slc.cpg/sg12_75_cif.got.tgz:149839.got - 2010.06.28 00:19:55.
