data_PCOD8115398
_publ_section_title
;
Structure prediction by ZEFSAII (Michael W. Deem and Ramdas Pophale) SiO2 
 PCOD8115398
Probable space group: C 2/M
;
_chemical_formula_sum "Si O2"
_cell_formula_units_Z 40
_cell_length_a 12.608001
_cell_length_b 26.477967
_cell_length_c 5.152583
_cell_angle_alpha 90.000000
_cell_angle_beta 103.856362
_cell_angle_gamma 90.000000
_cell_volume 1670.052003
_symmetry_space_group_name_H-M "C 2/M"
_symmetry_group_IT_number 12
_symmetry_cell_setting 'monoclinic'
loop_
_space_group_symop_operation_xyz
x,y,z
-x,y,-z
-x,-y,-z
x,-y,z
1/2+x,1/2+y,z
1/2-x,1/2+y,-z
1/2-x,1/2-y,-z
1/2+x,1/2-y,z
loop_
_atom_site_type_symbol
_atom_site_label
_atom_site_fract_x
_atom_site_fract_y
_atom_site_fract_z
Si Si1 0.570247 0.622497 0.798633
Si Si2 0.374795 0.270309 0.972531
Si Si3 0.628532 0.219909 0.531434
Si Si4 0.624324 0.895368 0.495882
Si Si5 0.225249 0.440466 0.063613
O O1 0.500000 0.634627 0.500000
O O2 0.656908 0.579664 0.775813
O O3 0.500000 0.602152 0.000000
O O4 0.632948 0.672641 0.931253
O O5 0.324000 0.259957 0.655759
O O6 0.180526 0.267835 0.846634
O O7 0.500000 0.253670 0.000000
O O8 0.500000 0.229032 0.500000
O O9 0.655767 0.162898 0.465958
O O10 0.500000 0.902161 0.500000
O O11 0.639220 0.924688 0.234196
O O12 0.698344 0.917785 0.766970
O O13 0.228465 0.500000 0.040529
#
# Coordination Sequence:
#
# PCOD8115398 Si02
#       5
#     8   8   8   8   8
#     4  11  23  42  67  95 131 173 215 263 323 385
#     4   9  16  31  57  90 124 163 202 245 306 376
#     4   9  17  32  58  90 125 163 200 246 308 378
#     4  11  24  44  68  96 130 170 213 265 328 388
#     4  12  27  45  66  95 128 166 224 282 323 377
#
# _framework density 23.951350000000001
#
# number of rings (size 3 to 8) (size 9 to 14) (size 15 to 20)
#    0.000    1.600    0.000    6.600    0.000    6.400 
#    0.000    6.000    0.000    0.000    0.000    0.000 
#    0.000    0.000    0.000    0.000    0.000    0.000 
#
# Total GULP energy -248101.821514 kJ/mol
# GULP energy per Si atom -12405.091076 kJ/mol
# Density = 2.389684 g / cm^3
# Si number density = 23.951350 Si / 1000 Ang^3
#
#
#
# Elastic Constant Matrix: (Units=GPa)
#
#
# Indices 1 2 3 4 5 6 
#
# 1 81.1754 43.6015 26.5385 0.0000 -14.1000 0.0000
# 2 43.6015 123.9867 46.1395 0.0000 -16.9324 0.0000
# 3 26.5385 46.1395 166.5929 0.0000 -9.1638 0.0000
# 4 0.0000 0.0000 0.0000 31.5066 0.0000 -3.0548
# 5 -14.1000 -16.9324 -9.1638 0.0000 42.7613 0.0000
# 6 0.0000 0.0000 0.0000 -3.0548 0.0000 32.3909
#
#
#
# Elastic Compliance Matrix: (Units=1/GPa)
#
#
# Indices 1 2 3 4 5 6 
#
# 1 0.015732 -0.004727 -0.001026 0.000000 0.003095 0.000000
# 2 -0.004727 0.010828 -0.002121 0.000000 0.002274 0.000000
# 3 -0.001026 -0.002121 0.006768 0.000000 0.000272 0.000000
# 4 0.000000 0.000000 0.000000 0.032032 0.000000 0.003021
# 5 0.003095 0.002274 0.000272 0.000000 0.025365 0.000000
# 6 0.000000 0.000000 0.000000 0.003021 0.000000 0.031158
#
#
# Mechanical properties :
#
#
# Convention : Reuss Voigt Hill
#
# Bulk Modulus (GPa) = 56.88788 67.14601 62.01694
# Shear Modulus (GPa) = 34.84530 38.36345 36.60437
#
# Velocity S-wave (km/s) = 3.81837 4.00650 3.91356
# Velocity P-wave (km/s) = 6.57594 7.03547 6.80958
#
# Compressibility (1/GPa) = 0.01757844
#
# Stress axis : x y z
#
# Youngs Moduli (GPa) = 63.56673 92.35664 147.74370
#
# Poissons Ratio (x) = 0.43662 0.15165
# Poissons Ratio (y) = 0.30051 0.31331
# Poissons Ratio (z) = 0.06525 0.19585
#
# Static dielectric constant tensor:
#      x y z
#    x 4.654320 0.000000 -0.017770 
#    y 0.000000 4.019810 0.000000 
#    z -0.017770 0.000000 4.850390 
# 
# 
# High freq. dielectric constant tensor:
#      x y z
#    x 1.993330 0.000000 -0.001330 
#    y 0.000000 1.924300 0.000000 
#    z -0.001330 0.000000 1.981280 
# 
# From -- ./inp_files/8509.got.cif
#   From: 2010.06.25/outbox.cif.g09.slc.cpg/sg12_5_cif.got.tgz:8509.got - 2010.06.28 00:19:55.
