data_PCOD8115039
_publ_section_title
;
Structure prediction by ZEFSAII (Michael W. Deem and Ramdas Pophale) SiO2 
 PCOD8115039
Probable space group: C 2/M
;
_chemical_formula_sum "Si O2"
_cell_formula_units_Z 40
_cell_length_a 21.518062
_cell_length_b 11.202075
_cell_length_c 9.787126
_cell_angle_alpha 90.000000
_cell_angle_beta 56.472138
_cell_angle_gamma 90.000000
_cell_volume 1966.633996
_symmetry_space_group_name_H-M "C 2/M"
_symmetry_group_IT_number 12
_symmetry_cell_setting 'monoclinic'
loop_
_space_group_symop_operation_xyz
x,y,z
-x,y,-z
-x,-y,-z
x,-y,z
1/2+x,1/2+y,z
1/2-x,1/2+y,-z
1/2-x,1/2-y,-z
1/2+x,1/2-y,z
loop_
_atom_site_type_symbol
_atom_site_label
_atom_site_fract_x
_atom_site_fract_y
_atom_site_fract_z
Si Si1 0.560581 0.500000 0.736420
Si Si2 0.170666 0.245297 0.023168
Si Si3 0.191401 0.366043 0.719972
Si Si4 0.644762 0.713763 0.535405
Si Si5 0.413753 0.138020 0.636771
Si Si6 0.610779 0.500000 0.980283
O O1 0.579528 0.615937 0.622649
O O2 0.473401 0.500000 0.866730
O O3 0.609929 0.500000 0.816009
O O4 0.105675 0.287088 0.204368
O O5 0.154688 0.113581 0.985239
O O6 0.250000 0.250000 0.000000
O O7 0.171243 0.338270 0.899564
O O8 0.166484 0.500000 0.718514
O O9 0.278652 0.353828 0.585391
O O10 0.143923 0.280654 0.680726
O O11 0.633226 0.809910 0.431189
O O12 0.500000 0.153315 0.500000
O O13 0.391310 0.000000 0.683806
#
# Coordination Sequence:
#
# PCOD8115039 Si02
#       6
#     4   8   8   8   8   4
#     4  11  22  45  69  95 137 170 225 270 328 397
#     4  12  25  42  67  95 133 172 218 273 331 388
#     4  11  23  39  63  97 128 168 222 264 322 385
#     4  11  22  41  67  94 130 172 214 272 322 384
#     4  11  25  44  65  94 132 172 214 266 331 396
#     4  11  26  43  67  99 132 179 218 272 330 394
#
# _framework density 20.339321999999999
#
# number of rings (size 3 to 8) (size 9 to 14) (size 15 to 20)
#    0.000    0.800    5.000    2.400    2.800    0.800 
#    0.000    2.000    0.000    4.800    0.000    0.000 
#    0.000    0.000    0.000    0.000    0.000    0.000 
#
# Total GULP energy -248115.130950 kJ/mol
# GULP energy per Si atom -12405.756547 kJ/mol
# Density = 2.029303 g / cm^3
# Si number density = 20.339322 Si / 1000 Ang^3
#
#
#
# Elastic Constant Matrix: (Units=GPa)
#
#
# Indices 1 2 3 4 5 6 
#
# 1 57.7969 35.1644 17.4126 0.0000 8.7192 0.0000
# 2 35.1644 118.4939 29.1395 0.0000 -5.6644 0.0000
# 3 17.4126 29.1395 110.9898 0.0000 9.0015 0.0000
# 4 0.0000 0.0000 0.0000 73.0037 0.0000 43.9726
# 5 8.7192 -5.6644 9.0015 0.0000 29.2773 0.0000
# 6 0.0000 0.0000 0.0000 43.9726 0.0000 83.7972
#
#
#
# Elastic Compliance Matrix: (Units=1/GPa)
#
#
# Indices 1 2 3 4 5 6 
#
# 1 0.023053 -0.006931 -0.001160 0.000000 -0.007850 0.000000
# 2 -0.006931 0.011293 -0.002279 0.000000 0.004950 0.000000
# 3 -0.001160 -0.002279 0.010049 0.000000 -0.003185 0.000000
# 4 0.000000 0.000000 0.000000 0.020028 0.000000 -0.010510
# 5 -0.007850 0.004950 -0.003185 0.000000 0.038431 0.000000
# 6 0.000000 0.000000 0.000000 -0.010510 0.000000 0.017449
#
#
# Mechanical properties :
#
#
# Convention : Reuss Voigt Hill
#
# Bulk Modulus (GPa) = 42.27674 50.07930 46.17802
# Shear Modulus (GPa) = 33.57339 50.91991 42.24665
#
# Velocity S-wave (km/s) = 4.06724 5.00895 4.56246
# Velocity P-wave (km/s) = 6.54885 7.62418 7.10688
#
# Compressibility (1/GPa) = 0.02365367
#
# Stress axis : x y z
#
# Youngs Moduli (GPa) = 43.37891 88.54898 99.51730
#
# Poissons Ratio (x) = 0.61374 0.11547
# Poissons Ratio (y) = 0.30066 0.22680
# Poissons Ratio (z) = 0.05033 0.20180
#
# Static dielectric constant tensor:
#      x y z
#    x 3.598360 0.000000 0.053430 
#    y 0.000000 3.785280 0.000000 
#    z 0.053430 0.000000 3.862940 
# 
# 
# High freq. dielectric constant tensor:
#      x y z
#    x 1.785870 0.000000 0.002790 
#    y 0.000000 1.810550 0.000000 
#    z 0.002790 0.000000 1.810550 
# 
# From -- ./inp_files/94146.got.cif
#   From: 2010.06.25/outbox.cif.g09.slc.cpg/sg12_48_cif.got.tgz:94146.got - 2010.06.28 00:19:55.
