data_PCOD8115712
_publ_section_title
;
Structure prediction by ZEFSAII (Michael W. Deem and Ramdas Pophale) SiO2 
 PCOD8115712
Probable space group: C 2/M
;
_chemical_formula_sum "Si O2"
_cell_formula_units_Z 32
_cell_length_a 14.240542
_cell_length_b 10.204875
_cell_length_c 11.766721
_cell_angle_alpha 90.000000
_cell_angle_beta 113.436707
_cell_angle_gamma 90.000000
_cell_volume 1568.901716
_symmetry_space_group_name_H-M "C 2/M"
_symmetry_group_IT_number 12
_symmetry_cell_setting 'monoclinic'
loop_
_space_group_symop_operation_xyz
x,y,z
-x,y,-z
-x,-y,-z
x,-y,z
1/2+x,1/2+y,z
1/2-x,1/2+y,-z
1/2-x,1/2-y,-z
1/2+x,1/2-y,z
loop_
_atom_site_type_symbol
_atom_site_label
_atom_site_fract_x
_atom_site_fract_y
_atom_site_fract_z
Si Si1 0.207995 0.757564 0.803653
Si Si2 0.623008 0.643184 0.979530
Si Si3 0.711584 0.149368 0.388256
Si Si4 0.013868 0.648617 0.800874
O O1 0.198338 0.858663 0.905058
O O2 0.220535 0.833792 0.692125
O O3 0.104905 0.667881 0.751443
O O4 0.309844 0.671749 0.875893
O O5 0.572364 0.500000 0.967780
O O6 0.533105 0.751164 0.916017
O O7 0.750000 0.250000 0.500000
O O8 0.593239 0.181687 0.309061
O O9 0.725081 0.000000 0.437918
O O10 0.014457 0.500000 0.847838
#
# Coordination Sequence:
#
# PCOD8115712 Si02
#       4
#     8   8   8   8
#     4   9  20  36  62  85 123 147 192 233 295 340
#     4   9  18  35  62  90 120 152 190 234 294 349
#     4  11  25  43  60  84 115 159 202 244 287 346
#     4   9  20  38  61  87 118 153 195 237 295 346
#
# _framework density 20.396433999999999
#
# number of rings (size 3 to 8) (size 9 to 14) (size 15 to 20)
#    1.500    1.000    0.000    1.500    0.000    6.000 
#    0.000    7.500    0.000    0.000    0.000    0.000 
#    0.000    0.000    0.000    0.000    0.000    0.000 
#
# Total GULP energy -198241.818751 kJ/mol
# GULP energy per Si atom -12390.113672 kJ/mol
# Density = 2.035001 g / cm^3
# Si number density = 20.396434 Si / 1000 Ang^3
#
#
#
# Elastic Constant Matrix: (Units=GPa)
#
#
# Indices 1 2 3 4 5 6 
#
# 1 74.9618 23.5914 39.0705 0.0000 12.9737 0.0000
# 2 23.5914 152.1954 56.7291 0.0000 20.1652 0.0000
# 3 39.0705 56.7291 84.7851 0.0000 7.3573 0.0000
# 4 0.0000 0.0000 0.0000 33.9124 0.0000 6.1764
# 5 12.9737 20.1652 7.3573 0.0000 34.2065 0.0000
# 6 0.0000 0.0000 0.0000 6.1764 0.0000 15.6617
#
#
#
# Elastic Compliance Matrix: (Units=1/GPa)
#
#
# Indices 1 2 3 4 5 6 
#
# 1 0.018595 0.001196 -0.008861 0.000000 -0.005852 0.000000
# 2 0.001196 0.009395 -0.006437 0.000000 -0.004608 0.000000
# 3 -0.008861 -0.006437 0.019936 0.000000 0.002868 0.000000
# 4 0.000000 0.000000 0.000000 0.031770 0.000000 -0.012529
# 5 -0.005852 -0.004608 0.002868 0.000000 0.033553 0.000000
# 6 0.000000 0.000000 0.000000 -0.012529 0.000000 0.068791
#
#
# Mechanical properties :
#
#
# Convention : Reuss Voigt Hill
#
# Bulk Modulus (GPa) = 50.70788 61.19158 55.94973
# Shear Modulus (GPa) = 23.06065 29.59287 26.32676
#
# Velocity S-wave (km/s) = 3.36612 3.81318 3.59660
# Velocity P-wave (km/s) = 6.32636 7.03231 6.68865
#
# Compressibility (1/GPa) = 0.01972080
#
# Stress axis : x y z
#
# Youngs Moduli (GPa) = 53.77755 106.43858 50.15953
#
# Poissons Ratio (x) = -0.12729 0.44448
# Poissons Ratio (y) = -0.06431 0.32290
# Poissons Ratio (z) = 0.47654 0.68519
#
# Static dielectric constant tensor:
#      x y z
#    x 3.583000 0.000000 0.156090 
#    y 0.000000 3.582270 0.000000 
#    z 0.156090 0.000000 3.389760 
# 
# 
# High freq. dielectric constant tensor:
#      x y z
#    x 1.800530 0.000000 0.013290 
#    y 0.000000 1.794760 0.000000 
#    z 0.013290 0.000000 1.768370 
# 
# From -- ./inp_files/139972.got.cif
#   From: 2010.06.25/outbox.cif.g09.slc.cpg/sg12_70_cif.got.tgz:139972.got - 2010.06.28 00:19:55.
