data_PCOD8115686
_publ_section_title
;
Structure prediction by ZEFSAII (Michael W. Deem and Ramdas Pophale) SiO2 
 PCOD8115686
Probable space group: C 2/M
;
_chemical_formula_sum "Si O2"
_cell_formula_units_Z 32
_cell_length_a 14.497224
_cell_length_b 11.289901
_cell_length_c 17.951481
_cell_angle_alpha 90.000000
_cell_angle_beta 151.360767
_cell_angle_gamma 90.000000
_cell_volume 1408.238777
_symmetry_space_group_name_H-M "C 2/M"
_symmetry_group_IT_number 12
_symmetry_cell_setting 'monoclinic'
loop_
_space_group_symop_operation_xyz
x,y,z
-x,y,-z
-x,-y,-z
x,-y,z
1/2+x,1/2+y,z
1/2-x,1/2+y,-z
1/2-x,1/2-y,-z
1/2+x,1/2-y,z
loop_
_atom_site_type_symbol
_atom_site_label
_atom_site_fract_x
_atom_site_fract_y
_atom_site_fract_z
Si Si1 0.788841 0.500000 0.382209
Si Si2 0.409181 0.500000 0.013489
Si Si3 0.849124 0.638474 0.797870
Si Si4 0.746226 0.756732 0.116415
Si Si5 0.337158 0.272034 0.640709
O O1 0.596011 0.500000 0.196806
O O2 0.782738 0.386823 0.427966
O O3 0.000000 0.500000 0.500000
O O4 0.500000 0.500000 0.000000
O O5 0.282497 0.619536 0.928348
O O6 0.800151 0.500000 0.775170
O O7 0.742130 0.720054 0.785185
O O8 0.788458 0.676366 0.671192
O O9 0.076982 0.659642 0.966356
O O10 0.935977 0.796861 0.207412
O O11 0.250000 0.250000 0.500000
#
# Coordination Sequence:
#
# PCOD8115686 Si02
#       5
#     4   4   8   8   8
#     4  12  30  50  74 105 149 190 243 301 364 431
#     4  12  22  44  80 105 141 190 242 306 353 425
#     4  11  25  46  73 103 144 184 238 303 355 429
#     4  11  24  45  75 109 139 187 250 292 363 422
#     4  12  30  45  71 106 144 193 236 297 359 430
#
# _framework density 22.723417999999999
#
# number of rings (size 3 to 8) (size 9 to 14) (size 15 to 20)
#    0.000    0.500    5.000    2.250   14.000    0.000 
#    0.000    1.250    0.000    0.000    0.000    0.000 
#    0.000    0.000    0.000    0.000    0.000    0.000 
#
# Total GULP energy -198211.716060 kJ/mol
# GULP energy per Si atom -12388.232254 kJ/mol
# Density = 2.267170 g / cm^3
# Si number density = 22.723418 Si / 1000 Ang^3
#
#
#
# Elastic Constant Matrix: (Units=GPa)
#
#
# Indices 1 2 3 4 5 6 
#
# 1 138.6331 66.8607 56.8584 -0.0009 -4.2804 -0.0006
# 2 66.8607 171.0787 56.2695 -0.0005 1.6717 0.0037
# 3 56.8584 56.2695 74.0274 0.0016 -17.3672 0.0037
# 4 -0.0009 -0.0005 0.0016 46.2551 0.0017 -11.1417
# 5 -4.2804 1.6717 -17.3672 0.0017 64.3742 0.0019
# 6 -0.0006 0.0037 0.0037 -11.1417 0.0019 45.2948
#
#
#
# Elastic Compliance Matrix: (Units=1/GPa)
#
#
# Indices 1 2 3 4 5 6 
#
# 1 0.011120 -0.001910 -0.007371 0.000001 -0.001200 0.000001
# 2 -0.001910 0.008351 -0.005297 0.000000 -0.001773 0.000000
# 3 -0.007371 -0.005297 0.024675 -0.000002 0.006304 -0.000002
# 4 0.000001 0.000000 -0.000002 0.022981 -0.000001 0.005653
# 5 -0.001200 -0.001773 0.006304 -0.000001 0.017201 -0.000001
# 6 0.000001 0.000000 -0.000002 0.005653 -0.000001 0.023468
#
#
# Mechanical properties :
#
#
# Convention : Reuss Voigt Hill
#
# Bulk Modulus (GPa) = 66.70496 82.63514 74.67005
# Shear Modulus (GPa) = 35.22373 44.76818 39.99596
#
# Velocity S-wave (km/s) = 3.94141 4.44343 4.19993
# Velocity P-wave (km/s) = 7.08038 7.92276 7.51338
#
# Compressibility (1/GPa) = 0.01499139
#
# Stress axis : x y z
#
# Youngs Moduli (GPa) = 89.92405 119.74293 40.52658
#
# Poissons Ratio (x) = 0.22871 0.29872
# Poissons Ratio (y) = 0.17175 0.21466
# Poissons Ratio (z) = 0.66282 0.63426
#
# Static dielectric constant tensor:
#      x y z
#    x 4.419640 0.000010 -0.101510 
#    y 0.000010 5.184840 0.000010 
#    z -0.101510 0.000010 4.172860 
# 
# 
# High freq. dielectric constant tensor:
#      x y z
#    x 1.916450 0.000000 -0.010750 
#    y 0.000000 1.900280 0.000000 
#    z -0.010750 0.000000 1.892080 
# 
# From -- ./inp_files/269432.got.cif
#   From: 2010.06.25/outbox.cif.g09.slc.cpg/sg12_135_cif.got.tgz:269432.got - 2010.06.28 00:19:55.
