data_PCOD8115621
_publ_section_title
;
Structure prediction by ZEFSAII (Michael W. Deem and Ramdas Pophale) SiO2 
 PCOD8115621
Probable space group: C 2/M
;
_chemical_formula_sum "Si O2"
_cell_formula_units_Z 44
_cell_length_a 15.721685
_cell_length_b 19.094563
_cell_length_c 6.673926
_cell_angle_alpha 90.000000
_cell_angle_beta 89.578331
_cell_angle_gamma 90.000000
_cell_volume 2003.449683
_symmetry_space_group_name_H-M "C 2/M"
_symmetry_group_IT_number 12
_symmetry_cell_setting 'monoclinic'
loop_
_space_group_symop_operation_xyz
x,y,z
-x,y,-z
-x,-y,-z
x,-y,z
1/2+x,1/2+y,z
1/2-x,1/2+y,-z
1/2-x,1/2-y,-z
1/2+x,1/2-y,z
loop_
_atom_site_type_symbol
_atom_site_label
_atom_site_fract_x
_atom_site_fract_y
_atom_site_fract_z
Si Si1 0.305599 0.918664 0.746271
Si Si2 0.000000 0.862841 0.000000
Si Si3 0.373875 0.320312 0.690050
Si Si4 0.708374 0.818747 0.898324
Si Si5 0.899185 0.681918 0.475943
Si Si6 0.610470 0.578495 0.654683
O O1 0.362398 0.891385 0.559434
O O2 0.207366 0.905291 0.704940
O O3 0.326945 0.000000 0.781493
O O4 0.327989 0.874778 0.944376
O O5 0.937914 0.812931 0.875324
O O6 0.054534 0.912109 0.853578
O O7 0.283940 0.352789 0.763123
O O8 0.356780 0.243142 0.607570
O O9 0.417447 0.370074 0.523593
O O10 0.628340 0.803273 0.753529
O O11 0.750000 0.750000 0.000000
O O12 0.000000 0.683853 0.500000
O O13 0.598565 0.500000 0.574413
#
# Coordination Sequence:
#
# PCOD8115621 Si02
#       6
#     8   4   8   8   8   8
#     4  11  25  46  71 100 135 180 231 282 345 410
#     4  12  25  40  66 102 141 180 228 284 331 410
#     4  12  25  42  70 101 138 178 227 277 344 407
#     4  12  24  45  75  98 135 182 225 278 346 407
#     4  12  27  45  72 103 135 176 232 289 340 400
#     4  11  24  43  65  99 141 184 228 277 340 410
#
# _framework density 21.962119000000001
#
# number of rings (size 3 to 8) (size 9 to 14) (size 15 to 20)
#    0.000    0.364    5.455    3.545    2.545    4.727 
#    0.000    0.909    0.000    0.000    0.000    0.000 
#    0.000    0.000    0.000    0.000    0.000    0.000 
#
# Total GULP energy -272895.271413 kJ/mol
# GULP energy per Si atom -12404.330519 kJ/mol
# Density = 2.191213 g / cm^3
# Si number density = 21.962119 Si / 1000 Ang^3
#
#
#
# Elastic Constant Matrix: (Units=GPa)
#
#
# Indices 1 2 3 4 5 6 
#
# 1 91.8560 15.5175 52.0542 0.0000 10.7297 0.0000
# 2 15.5175 117.1048 53.8088 0.0000 3.9768 0.0000
# 3 52.0542 53.8088 140.2182 0.0000 19.7401 0.0000
# 4 0.0000 0.0000 0.0000 35.6796 0.0000 -6.5403
# 5 10.7297 3.9768 19.7401 0.0000 51.0258 0.0000
# 6 0.0000 0.0000 0.0000 -6.5403 0.0000 12.1312
#
#
#
# Elastic Compliance Matrix: (Units=1/GPa)
#
#
# Indices 1 2 3 4 5 6 
#
# 1 0.013868 0.000606 -0.005250 0.000000 -0.000933 0.000000
# 2 0.000606 0.010423 -0.004328 0.000000 0.000735 0.000000
# 3 -0.005250 -0.004328 0.011146 0.000000 -0.002871 0.000000
# 4 0.000000 0.000000 0.000000 0.031101 0.000000 0.016767
# 5 -0.000933 0.000735 -0.002871 0.000000 0.020847 0.000000
# 6 0.000000 0.000000 0.000000 0.016767 0.000000 0.091472
#
#
# Mechanical properties :
#
#
# Convention : Reuss Voigt Hill
#
# Bulk Modulus (GPa) = 57.16502 65.77111 61.46806
# Shear Modulus (GPa) = 24.67535 34.95389 29.81462
#
# Velocity S-wave (km/s) = 3.35556 3.99376 3.68849
# Velocity P-wave (km/s) = 6.41081 7.16096 6.79624
#
# Compressibility (1/GPa) = 0.01749322
#
# Stress axis : x y z
#
# Youngs Moduli (GPa) = 72.10787 95.94273 89.72044
#
# Poissons Ratio (x) = -0.05816 0.47101
# Poissons Ratio (y) = -0.04371 0.38833
# Poissons Ratio (z) = 0.37855 0.41526
#
# Static dielectric constant tensor:
#      x y z
#    x 3.976000 0.000000 -0.051950 
#    y 0.000000 3.782520 0.000000 
#    z -0.051950 0.000000 4.171140 
# 
# 
# High freq. dielectric constant tensor:
#      x y z
#    x 1.869270 0.000000 -0.001350 
#    y 0.000000 1.848510 0.000000 
#    z -0.001350 0.000000 1.879470 
# 
# From -- ./inp_files/16131.got.cif
#   From: 2010.06.25/outbox.cif.g09.slc.cpg/sg12_9_cif.got.tgz:16131.got - 2010.06.28 00:19:55.
