data_PCOD8115069
_publ_section_title
;
Structure prediction by ZEFSAII (Michael W. Deem and Ramdas Pophale) SiO2 
 PCOD8115069
Probable space group: C 2/M
;
_chemical_formula_sum "Si O2"
_cell_formula_units_Z 28
_cell_length_a 9.313098
_cell_length_b 21.807350
_cell_length_c 12.430370
_cell_angle_alpha 90.000000
_cell_angle_beta 146.077079
_cell_angle_gamma 90.000000
_cell_volume 1408.884306
_symmetry_space_group_name_H-M "C 2/M"
_symmetry_group_IT_number 12
_symmetry_cell_setting 'monoclinic'
loop_
_space_group_symop_operation_xyz
x,y,z
-x,y,-z
-x,-y,-z
x,-y,z
1/2+x,1/2+y,z
1/2-x,1/2+y,-z
1/2-x,1/2-y,-z
1/2+x,1/2-y,z
loop_
_atom_site_type_symbol
_atom_site_label
_atom_site_fract_x
_atom_site_fract_y
_atom_site_fract_z
Si Si1 0.283159 0.500000 0.724253
Si Si2 0.000000 0.101068 0.000000
Si Si3 0.257329 0.821148 0.979612
Si Si4 0.196086 0.000000 0.789992
Si Si5 0.671211 0.365902 0.703845
O O1 0.299840 0.559785 0.809310
O O2 0.521665 0.500000 0.789168
O O3 0.000000 0.500000 0.500000
O O4 0.844944 0.144410 0.981419
O O5 0.539829 0.846636 0.137977
O O6 0.250000 0.750000 0.000000
O O7 0.088785 0.836301 0.767671
O O8 0.133160 0.060722 0.683221
O O9 0.500000 0.000000 0.000000
O O10 0.500000 0.339347 0.500000
#
# Coordination Sequence:
#
# PCOD8115069 Si02
#       5
#     4   4   8   4   8
#     4  11  25  39  65 101 133 167 211 277 339 386
#     4  11  22  42  66  92 134 167 212 268 334 391
#     4  11  24  44  66  93 130 175 219 269 325 385
#     4  12  20  45  68  97 134 173 217 268 338 403
#     4  11  24  42  68  98 127 170 222 269 325 395
#
# _framework density 19.873881999999998
#
# number of rings (size 3 to 8) (size 9 to 14) (size 15 to 20)
#    0.000    0.857    5.714    2.143    4.000    2.286 
#    0.000    2.857    0.000    0.000    0.000    0.000 
#    0.000    0.000    0.000    0.000    0.000    0.000 
#
# Total GULP energy -173572.391997 kJ/mol
# GULP energy per Si atom -12398.028000 kJ/mol
# Density = 1.982865 g / cm^3
# Si number density = 19.873882 Si / 1000 Ang^3
#
#
#
# Elastic Constant Matrix: (Units=GPa)
#
#
# Indices 1 2 3 4 5 6 
#
# 1 150.5903 62.4090 57.9868 0.0001 -11.9078 0.0000
# 2 62.4090 177.1350 45.0773 0.0000 -16.0183 0.0000
# 3 57.9868 45.0773 139.8685 0.0001 -22.4691 0.0000
# 4 0.0001 0.0000 0.0001 10.5284 0.0001 -3.2817
# 5 -11.9078 -16.0183 -22.4691 0.0001 23.3215 0.0000
# 6 0.0000 0.0000 0.0000 -3.2817 0.0000 49.5488
#
#
#
# Elastic Compliance Matrix: (Units=1/GPa)
#
#
# Indices 1 2 3 4 5 6 
#
# 1 0.008711 -0.002337 -0.002842 0.000000 0.000105 0.000000
# 2 -0.002337 0.006928 -0.000818 0.000000 0.002777 0.000000
# 3 -0.002842 -0.000818 0.009782 0.000000 0.007412 0.000000
# 4 0.000000 0.000000 0.000000 0.096983 -0.000001 0.006423
# 5 0.000105 0.002777 0.007412 -0.000001 0.051981 0.000000
# 6 0.000000 0.000000 0.000000 0.006423 0.000000 0.020608
#
#
# Mechanical properties :
#
#
# Convention : Reuss Voigt Hill
#
# Bulk Modulus (GPa) = 74.46531 88.72668 81.59600
# Shear Modulus (GPa) = 23.64497 36.82112 30.23305
#
# Velocity S-wave (km/s) = 3.45302 4.30902 3.90455
# Velocity P-wave (km/s) = 7.31082 8.33658 7.84049
#
# Compressibility (1/GPa) = 0.01342907
#
# Stress axis : x y z
#
# Youngs Moduli (GPa) = 114.79188 144.34291 102.22963
#
# Poissons Ratio (x) = 0.33727 0.29050
# Poissons Ratio (y) = 0.26822 0.08361
# Poissons Ratio (z) = 0.32620 0.11806
#
# Static dielectric constant tensor:
#      x y z
#    x 4.119330 0.000000 -0.448800 
#    y 0.000000 3.963560 0.000000 
#    z -0.448800 0.000000 3.698600 
# 
# 
# High freq. dielectric constant tensor:
#      x y z
#    x 1.790670 0.000000 -0.017720 
#    y 0.000000 1.786780 0.000000 
#    z -0.017720 0.000000 1.766970 
# 
# From -- ./inp_files/119888.got.cif
#   From: 2010.06.25/outbox.cif.g09.slc.cpg/sg12_60_cif.got.tgz:119888.got - 2010.06.28 00:19:55.
