data_PCOD8115088
_publ_section_title
;
Structure prediction by ZEFSAII (Michael W. Deem and Ramdas Pophale) SiO2 
 PCOD8115088
Probable space group: C 2/M
;
_chemical_formula_sum "Si O2"
_cell_formula_units_Z 32
_cell_length_a 23.318036
_cell_length_b 7.809093
_cell_length_c 14.602245
_cell_angle_alpha 90.000000
_cell_angle_beta 37.513184
_cell_angle_gamma 90.000000
_cell_volume 1619.159105
_symmetry_space_group_name_H-M "C 2/M"
_symmetry_group_IT_number 12
_symmetry_cell_setting 'monoclinic'
loop_
_space_group_symop_operation_xyz
x,y,z
-x,y,-z
-x,-y,-z
x,-y,z
1/2+x,1/2+y,z
1/2-x,1/2+y,-z
1/2-x,1/2-y,-z
1/2+x,1/2-y,z
loop_
_atom_site_type_symbol
_atom_site_label
_atom_site_fract_x
_atom_site_fract_y
_atom_site_fract_z
Si Si1 0.181183 0.191593 0.666512
Si Si2 0.844124 0.500000 0.690615
Si Si3 0.990238 0.311187 0.838595
Si Si4 0.993363 0.500000 0.658827
Si Si5 0.205287 0.695038 0.833608
O O1 0.250000 0.250000 0.500000
O O2 0.195254 0.310011 0.736688
O O3 0.074408 0.191186 0.765237
O O4 0.207556 0.000000 0.663394
O O5 0.903524 0.500000 0.707867
O O6 0.785026 0.325118 0.765908
O O7 0.909664 0.500000 0.518707
O O8 0.005160 0.500000 0.864247
O O9 0.990087 0.330221 0.727717
O O10 0.891344 0.235932 0.998757
O O11 0.228406 0.500000 0.836782
#
# Coordination Sequence:
#
# PCOD8115088 Si02
#       5
#     8   4   8   4   8
#     4  12  23  36  61  94 131 168 207 256 317 386
#     4  11  22  42  71  88 127 167 223 252 316 380
#     4   9  21  40  59  87 128 162 206 256 319 362
#     4   9  22  44  63  90 127 173 203 274 310 366
#     4  11  23  40  63  95 125 167 206 264 313 371
#
# _framework density 19.763345000000001
#
# number of rings (size 3 to 8) (size 9 to 14) (size 15 to 20)
#    0.750    0.750    1.250    4.500    1.750    4.000 
#    0.000    3.750    0.000    0.000    0.000    0.000 
#    0.000    0.000    0.000    0.000    0.000    0.000 
#
# Total GULP energy -198378.710304 kJ/mol
# GULP energy per Si atom -12398.669394 kJ/mol
# Density = 1.971836 g / cm^3
# Si number density = 19.763345 Si / 1000 Ang^3
#
#
#
# Elastic Constant Matrix: (Units=GPa)
#
#
# Indices 1 2 3 4 5 6 
#
# 1 63.3738 22.3175 15.5654 0.0015 -17.0679 -0.0007
# 2 22.3175 90.8863 29.8893 0.0088 -18.4507 -0.0031
# 3 15.5654 29.8893 108.5026 0.0068 -22.7444 -0.0021
# 4 0.0015 0.0088 0.0068 28.8025 -0.0025 -5.5192
# 5 -17.0679 -18.4507 -22.7444 -0.0025 31.7933 0.0000
# 6 -0.0007 -0.0031 -0.0021 -5.5192 0.0000 28.3746
#
#
#
# Elastic Compliance Matrix: (Units=1/GPa)
#
#
# Indices 1 2 3 4 5 6 
#
# 1 0.019127 -0.002926 -0.000166 0.000001 0.008451 0.000000
# 2 -0.002926 0.013408 -0.002320 -0.000003 0.004551 0.000001
# 3 -0.000166 -0.002320 0.011268 -0.000001 0.006625 0.000000
# 4 0.000001 -0.000003 -0.000001 0.036063 0.000001 0.007015
# 5 0.008451 0.004551 0.006625 0.000001 0.043370 0.000001
# 6 0.000000 0.000001 0.000000 0.007015 0.000001 0.036607
#
#
# Mechanical properties :
#
#
# Convention : Reuss Voigt Hill
#
# Bulk Modulus (GPa) = 30.32331 44.25635 37.28983
# Shear Modulus (GPa) = 27.52371 30.79346 29.15858
#
# Velocity S-wave (km/s) = 3.73589 3.95157 3.84524
# Velocity P-wave (km/s) = 5.82972 6.57736 6.21479
#
# Compressibility (1/GPa) = 0.03297793
#
# Stress axis : x y z
#
# Youngs Moduli (GPa) = 52.28287 74.58209 88.74607
#
# Poissons Ratio (x) = 0.21826 0.01476
# Poissons Ratio (y) = 0.15300 0.20587
# Poissons Ratio (z) = 0.00869 0.17302
#
# Static dielectric constant tensor:
#      x y z
#    x 3.430280 0.000000 0.011260 
#    y 0.000000 3.404030 0.000000 
#    z 0.011260 0.000000 3.744500 
# 
# 
# High freq. dielectric constant tensor:
#      x y z
#    x 1.758970 0.000000 0.001040 
#    y 0.000000 1.756460 0.000000 
#    z 0.001040 0.000000 1.790130 
# 
# From -- ./inp_files/238191.got.cif
#   From: 2010.06.25/outbox.cif.g09.slc.cpg/sg12_120_cif.got.tgz:238191.got - 2010.06.28 00:19:55.
