data_PCOD8115062
_publ_section_title
;
Structure prediction by ZEFSAII (Michael W. Deem and Ramdas Pophale) SiO2 
 PCOD8115062
Probable space group: C 2/M
;
_chemical_formula_sum "Si O2"
_cell_formula_units_Z 48
_cell_length_a 19.052780
_cell_length_b 19.271860
_cell_length_c 14.331225
_cell_angle_alpha 90.000000
_cell_angle_beta 153.034790
_cell_angle_gamma 90.000000
_cell_volume 2386.130148
_symmetry_space_group_name_H-M "C 2/M"
_symmetry_group_IT_number 12
_symmetry_cell_setting 'monoclinic'
loop_
_space_group_symop_operation_xyz
x,y,z
-x,y,-z
-x,-y,-z
x,-y,z
1/2+x,1/2+y,z
1/2-x,1/2+y,-z
1/2-x,1/2-y,-z
1/2+x,1/2-y,z
loop_
_atom_site_type_symbol
_atom_site_label
_atom_site_fract_x
_atom_site_fract_y
_atom_site_fract_z
Si Si1 0.012338 0.079259 0.208113
Si Si2 0.650243 0.078955 0.467582
Si Si3 0.276795 0.650507 0.788400
Si Si4 0.919552 0.688649 0.104520
Si Si5 0.000000 0.739649 0.000000
Si Si6 0.921879 0.183728 0.240627
Si Si7 0.500000 0.235988 0.500000
O O1 0.984115 0.110713 0.276959
O O2 0.192842 0.088780 0.403563
O O3 0.961441 0.000000 0.149561
O O4 0.908211 0.115181 0.005801
O O5 0.687794 0.094354 0.620167
O O6 0.521783 0.131840 0.278724
O O7 0.588310 0.000000 0.386022
O O8 0.351596 0.710001 0.811361
O O9 0.148825 0.688440 0.701835
O O10 0.926749 0.764995 0.157713
O O11 0.976269 0.692453 0.064185
O O12 0.741323 0.666950 0.903366
O O13 0.035832 0.216070 0.453114
#
# Coordination Sequence:
#
# PCOD8115062 Si02
#       7
#     8   8   8   8   4   8   4
#     4  11  24  41  62  91 129 168 206 253 313 376
#     4  11  24  40  62  93 128 166 206 254 315 376
#     4  12  21  39  62  94 127 162 206 261 316 368
#     4  11  23  40  64  93 127 162 212 261 308 369
#     4  12  22  38  66  96 120 164 210 264 316 358
#     4  11  22  42  62  91 128 165 208 261 307 371
#     4  12  24  38  66  96 124 162 216 258 310 368
#
# _framework density 20.116254000000001
#
# number of rings (size 3 to 8) (size 9 to 14) (size 15 to 20)
#    0.000    0.667    6.667    1.500    2.333    3.333 
#    0.000    1.667    0.000    0.000    0.000    0.000 
#    0.000    0.000    0.000    0.000    0.000    0.000 
#
# Total GULP energy -297559.959030 kJ/mol
# GULP energy per Si atom -12398.331626 kJ/mol
# Density = 2.007047 g / cm^3
# Si number density = 20.116254 Si / 1000 Ang^3
#
#
#
# Elastic Constant Matrix: (Units=GPa)
#
#
# Indices 1 2 3 4 5 6 
#
# 1 102.1395 38.9398 12.2630 0.0000 5.9205 0.0000
# 2 38.9398 104.3963 44.9399 0.0000 12.9987 0.0000
# 3 12.2630 44.9399 68.1156 0.0000 12.7589 0.0000
# 4 0.0000 0.0000 0.0000 21.7058 0.0000 0.0582
# 5 5.9205 12.9987 12.7589 0.0000 19.6488 0.0000
# 6 0.0000 0.0000 0.0000 0.0582 0.0000 29.5591
#
#
#
# Elastic Compliance Matrix: (Units=1/GPa)
#
#
# Indices 1 2 3 4 5 6 
#
# 1 0.011491 -0.004671 0.001232 0.000000 -0.001173 0.000000
# 2 -0.004671 0.015498 -0.008797 0.000000 -0.003133 0.000000
# 3 0.001232 -0.008797 0.021907 0.000000 -0.008777 0.000000
# 4 0.000000 0.000000 0.000000 0.046071 0.000000 -0.000091
# 5 -0.001173 -0.003133 -0.008777 0.000000 0.059019 0.000000
# 6 0.000000 0.000000 0.000000 -0.000091 0.000000 0.033831
#
#
# Mechanical properties :
#
#
# Convention : Reuss Voigt Hill
#
# Bulk Modulus (GPa) = 40.94111 51.88189 46.41150
# Shear Modulus (GPa) = 22.68293 26.08332 24.38312
#
# Velocity S-wave (km/s) = 3.36161 3.60478 3.48531
# Velocity P-wave (km/s) = 5.95514 6.57061 6.27043
#
# Compressibility (1/GPa) = 0.02442533
#
# Stress axis : x y z
#
# Youngs Moduli (GPa) = 87.02289 64.52357 45.64715
#
# Poissons Ratio (x) = 0.30137 -0.05626
# Poissons Ratio (y) = 0.40646 0.40157
# Poissons Ratio (z) = -0.10725 0.56764
#
# Static dielectric constant tensor:
#      x y z
#    x 3.713010 0.000000 0.181760 
#    y 0.000000 3.663100 0.000000 
#    z 0.181760 0.000000 3.617220 
# 
# 
# High freq. dielectric constant tensor:
#      x y z
#    x 1.789940 0.000000 0.012150 
#    y 0.000000 1.772790 0.000000 
#    z 0.012150 0.000000 1.783110 
# 
# From -- ./inp_files/226970.got.cif
#   From: 2010.06.25/outbox.cif.g09.slc.cpg/sg12_114_cif.got.tgz:226970.got - 2010.06.28 00:19:55.
