data_PCOD8115248
_publ_section_title
;
Structure prediction by ZEFSAII (Michael W. Deem and Ramdas Pophale) SiO2 
 PCOD8115248
Probable space group: C 2/M
;
_chemical_formula_sum "Si O2"
_cell_formula_units_Z 36
_cell_length_a 23.272711
_cell_length_b 15.012123
_cell_length_c 7.323696
_cell_angle_alpha 90.000000
_cell_angle_beta 41.102458
_cell_angle_gamma 90.000000
_cell_volume 1682.108875
_symmetry_space_group_name_H-M "C 2/M"
_symmetry_group_IT_number 12
_symmetry_cell_setting 'monoclinic'
loop_
_space_group_symop_operation_xyz
x,y,z
-x,y,-z
-x,-y,-z
x,-y,z
1/2+x,1/2+y,z
1/2-x,1/2+y,-z
1/2-x,1/2-y,-z
1/2+x,1/2-y,z
loop_
_atom_site_type_symbol
_atom_site_label
_atom_site_fract_x
_atom_site_fract_y
_atom_site_fract_z
Si Si1 0.840910 0.719386 0.471855
Si Si2 0.347823 0.769166 0.043828
Si Si3 0.423645 0.597670 0.323498
Si Si4 0.000000 0.845584 0.500000
Si Si5 0.095131 0.398520 0.362744
O O1 0.737458 0.705135 0.754816
O O2 0.867364 0.696413 0.201572
O O3 0.852662 0.824819 0.478848
O O4 0.900263 0.658133 0.460254
O O5 0.428592 0.715925 0.768159
O O6 0.335500 0.856592 0.946106
O O7 0.383832 0.500000 0.371130
O O8 0.458742 0.591930 0.445572
O O9 0.500000 0.621970 0.000000
O O10 0.121494 0.500000 0.342752
O O11 0.000000 0.392562 0.500000
#
# Coordination Sequence:
#
# PCOD8115248 Si02
#       5
#     8   8   8   4   8
#     4  11  24  43  66  95 130 175 210 270 325 386
#     4  11  23  42  68  92 131 170 216 262 332 379
#     4  11  23  39  63  95 127 165 211 258 321 386
#     4  12  21  40  67  90 122 170 205 266 317 386
#     4  11  24  42  67  96 128 172 224 267 319 383
#
# _framework density 21.401706999999998
#
# number of rings (size 3 to 8) (size 9 to 14) (size 15 to 20)
#    0.000    0.889    5.556    1.000    0.000    1.778 
#    0.000    6.667    0.000    0.000    0.000    0.000 
#    0.000    0.000    0.000    0.000    0.000    0.000 
#
# Total GULP energy -223163.582805 kJ/mol
# GULP energy per Si atom -12397.976823 kJ/mol
# Density = 2.135300 g / cm^3
# Si number density = 21.401707 Si / 1000 Ang^3
#
#
#
# Elastic Constant Matrix: (Units=GPa)
#
#
# Indices 1 2 3 4 5 6 
#
# 1 112.4285 30.1186 36.8183 0.0000 30.6935 0.0000
# 2 30.1186 129.6201 31.3346 0.0000 8.4498 0.0000
# 3 36.8183 31.3346 117.9824 0.0000 16.8511 0.0000
# 4 0.0000 0.0000 0.0000 16.3671 0.0000 -2.1585
# 5 30.6935 8.4498 16.8511 0.0000 39.9059 0.0000
# 6 0.0000 0.0000 0.0000 -2.1585 0.0000 23.8928
#
#
#
# Elastic Compliance Matrix: (Units=1/GPa)
#
#
# Indices 1 2 3 4 5 6 
#
# 1 0.012329 -0.001800 -0.002202 0.000000 -0.008172 0.000000
# 2 -0.001800 0.008536 -0.001750 0.000000 0.000316 0.000000
# 3 -0.002202 -0.001750 0.009932 0.000000 -0.002130 0.000000
# 4 0.000000 0.000000 0.000000 0.061835 0.000000 0.005586
# 5 -0.008172 0.000316 -0.002130 0.000000 0.032176 0.000000
# 6 0.000000 0.000000 0.000000 0.005586 0.000000 0.042358
#
#
# Mechanical properties :
#
#
# Convention : Reuss Voigt Hill
#
# Bulk Modulus (GPa) = 51.83584 61.84157 56.83870
# Shear Modulus (GPa) = 27.01221 33.48377 30.24799
#
# Velocity S-wave (km/s) = 3.55653 3.95971 3.76353
# Velocity P-wave (km/s) = 6.41391 7.06145 6.74546
#
# Compressibility (1/GPa) = 0.01929167
#
# Stress axis : x y z
#
# Youngs Moduli (GPa) = 81.11123 117.15662 100.68303
#
# Poissons Ratio (x) = 0.21084 0.22173
# Poissons Ratio (y) = 0.14597 0.17624
# Poissons Ratio (z) = 0.17863 0.20508
#
# Static dielectric constant tensor:
#      x y z
#    x 4.009370 0.000000 0.264230 
#    y 0.000000 3.898880 0.000000 
#    z 0.264230 0.000000 4.075140 
# 
# 
# High freq. dielectric constant tensor:
#      x y z
#    x 1.845820 0.000000 0.017540 
#    y 0.000000 1.827660 0.000000 
#    z 0.017540 0.000000 1.844170 
# 
# From -- ./inp_files/111453.got.cif
#   From: 2010.06.25/outbox.cif.g09.slc.cpg/sg12_56_cif.got.tgz:111453.got - 2010.06.28 00:19:55.
