data_PCOD8115545
_publ_section_title
;
Structure prediction by ZEFSAII (Michael W. Deem and Ramdas Pophale) SiO2 
 PCOD8115545
Probable space group: C 2/M
;
_chemical_formula_sum "Si O2"
_cell_formula_units_Z 40
_cell_length_a 15.752467
_cell_length_b 24.438995
_cell_length_c 5.047200
_cell_angle_alpha 90.000000
_cell_angle_beta 74.033887
_cell_angle_gamma 90.000000
_cell_volume 1868.089345
_symmetry_space_group_name_H-M "C 2/M"
_symmetry_group_IT_number 12
_symmetry_cell_setting 'monoclinic'
loop_
_space_group_symop_operation_xyz
x,y,z
-x,y,-z
-x,-y,-z
x,-y,z
1/2+x,1/2+y,z
1/2-x,1/2+y,-z
1/2-x,1/2-y,-z
1/2+x,1/2-y,z
loop_
_atom_site_type_symbol
_atom_site_label
_atom_site_fract_x
_atom_site_fract_y
_atom_site_fract_z
Si Si1 0.182057 0.717814 0.372784
Si Si2 0.797079 0.877486 0.047052
Si Si3 0.231607 0.436485 0.592250
Si Si4 0.060688 0.369631 0.694389
Si Si5 0.057758 0.799376 0.193031
O O1 0.250000 0.750000 0.500000
O O2 0.229317 0.671521 0.161085
O O3 0.108100 0.689116 0.618599
O O4 0.135500 0.757534 0.202672
O O5 0.785643 0.924286 0.277268
O O6 0.777748 0.901526 0.778083
O O7 0.896944 0.854846 0.955353
O O8 0.236712 0.500000 0.655136
O O9 0.129738 0.419156 0.658803
O O10 0.000000 0.384296 0.500000
O O11 0.000000 0.365330 0.000000
O O12 0.000000 0.812824 0.500000
O O13 0.000000 0.775297 0.000000
#
# Coordination Sequence:
#
# PCOD8115545 Si02
#       5
#     8   8   8   8   8
#     4  11  24  41  64  94 134 179 216 248 304 381
#     4  11  24  43  64  92 127 162 211 262 305 374
#     4  11  24  44  69  90 117 166 215 260 318 378
#     4  11  24  40  60  92 132 163 204 262 313 366
#     4  12  25  40  64  95 131 168 207 257 316 379
#
# _framework density 21.412251999999999
#
# number of rings (size 3 to 8) (size 9 to 14) (size 15 to 20)
#    0.000    0.800    0.000    9.000    0.000   12.000 
#    0.000    0.000    0.000   12.000    0.000    0.000 
#    0.000    0.000    0.000    0.000    0.000    0.000 
#
# Total GULP energy -248104.183406 kJ/mol
# GULP energy per Si atom -12405.209170 kJ/mol
# Density = 2.136352 g / cm^3
# Si number density = 21.412252 Si / 1000 Ang^3
#
#
#
# Elastic Constant Matrix: (Units=GPa)
#
#
# Indices 1 2 3 4 5 6 
#
# 1 115.7554 40.6157 33.1107 0.0000 28.8168 0.0000
# 2 40.6157 92.2231 7.2661 0.0000 -0.9397 0.0000
# 3 33.1107 7.2661 116.6962 0.0000 0.7309 0.0000
# 4 0.0000 0.0000 0.0000 28.3284 0.0000 5.2564
# 5 28.8168 -0.9397 0.7309 0.0000 39.7226 0.0000
# 6 0.0000 0.0000 0.0000 5.2564 0.0000 18.6175
#
#
#
# Elastic Compliance Matrix: (Units=1/GPa)
#
#
# Indices 1 2 3 4 5 6 
#
# 1 0.014503 -0.006207 -0.003662 0.000000 -0.010601 0.000000
# 2 -0.006207 0.013556 0.000887 0.000000 0.004807 0.000000
# 3 -0.003662 0.000887 0.009537 0.000000 0.002502 0.000000
# 4 0.000000 0.000000 0.000000 0.037252 0.000000 -0.010518
# 5 -0.010601 0.004807 0.002502 0.000000 0.032933 0.000000
# 6 0.000000 0.000000 0.000000 -0.010518 0.000000 0.056682
#
#
# Mechanical properties :
#
#
# Convention : Reuss Voigt Hill
#
# Bulk Modulus (GPa) = 50.93618 54.07330 52.50474
# Shear Modulus (GPa) = 26.45893 33.57917 30.01905
#
# Velocity S-wave (km/s) = 3.51905 3.96437 3.74833
# Velocity P-wave (km/s) = 6.35229 6.80171 6.58084
#
# Compressibility (1/GPa) = 0.01963241
#
# Stress axis : x y z
#
# Youngs Moduli (GPa) = 68.94967 73.76860 104.84969
#
# Poissons Ratio (x) = 0.45787 0.38398
# Poissons Ratio (y) = 0.42796 -0.09299
# Poissons Ratio (z) = 0.25251 -0.06543
#
# Static dielectric constant tensor:
#      x y z
#    x 4.105200 0.000000 -0.128120 
#    y 0.000000 3.798340 0.000000 
#    z -0.128120 0.000000 4.125780 
# 
# 
# High freq. dielectric constant tensor:
#      x y z
#    x 1.847300 0.000000 0.001320 
#    y 0.000000 1.822280 0.000000 
#    z 0.001320 0.000000 1.866060 
# 
# From -- ./inp_files/11532.got.cif
#   From: 2010.06.25/outbox.cif.g09.slc.cpg/sg12_6_cif.got.tgz:11532.got - 2010.06.28 00:19:55.
