data_PCOD8115469
_publ_section_title
;
Structure prediction by ZEFSAII (Michael W. Deem and Ramdas Pophale) SiO2 
 PCOD8115469
Probable space group: C 2/M
;
_chemical_formula_sum "Si O2"
_cell_formula_units_Z 48
_cell_length_a 9.887279
_cell_length_b 21.990157
_cell_length_c 11.544292
_cell_angle_alpha 90.000000
_cell_angle_beta 112.243371
_cell_angle_gamma 90.000000
_cell_volume 2323.209661
_symmetry_space_group_name_H-M "C 2/M"
_symmetry_group_IT_number 12
_symmetry_cell_setting 'monoclinic'
loop_
_space_group_symop_operation_xyz
x,y,z
-x,y,-z
-x,-y,-z
x,-y,z
1/2+x,1/2+y,z
1/2-x,1/2+y,-z
1/2-x,1/2-y,-z
1/2+x,1/2-y,z
loop_
_atom_site_type_symbol
_atom_site_label
_atom_site_fract_x
_atom_site_fract_y
_atom_site_fract_z
Si Si1 0.326290 0.115810 0.259267
Si Si2 0.842746 0.071128 0.006200
Si Si3 0.660923 0.618427 0.740708
Si Si4 0.662116 0.500000 0.595447
Si Si5 0.135174 0.679363 0.355579
Si Si6 0.665596 0.000000 0.583576
Si Si7 0.358898 0.318941 0.632228
O O1 0.493695 0.136717 0.320135
O O2 0.218883 0.168857 0.269739
O O3 0.290500 0.058552 0.328592
O O4 0.285621 0.097665 0.115631
O O5 0.829665 0.108932 0.119477
O O6 0.817561 0.000000 0.022264
O O7 0.000000 0.082450 0.000000
O O8 0.699788 0.557448 0.685850
O O9 0.781500 0.667835 0.739009
O O10 0.499303 0.639910 0.654845
O O11 0.500000 0.500000 0.500000
O O12 0.757766 0.500000 0.513407
O O13 0.244422 0.663320 0.495289
O O14 0.088070 0.749337 0.351555
O O15 0.500000 0.000000 0.500000
#
# Coordination Sequence:
#
# PCOD8115469 Si02
#       7
#     8   8   8   4   8   4   8
#     4  12  23  43  67  97 131 178 223 264 333 398
#     4  11  24  45  68  94 133 184 221 268 330 401
#     4  12  23  43  66  98 131 172 225 269 329 391
#     4  12  24  35  63 101 125 158 213 285 327 381
#     4  11  25  42  67 100 136 174 215 276 335 386
#     4  12  24  39  63  99 137 164 205 277 347 397
#     4  11  23  44  68  96 136 177 218 267 332 397
#
# _framework density 20.661069999999999
#
# number of rings (size 3 to 8) (size 9 to 14) (size 15 to 20)
#    0.000    0.500    3.333    7.000    0.000    3.333 
#    0.000    5.833    0.000    0.000    0.000    0.000 
#    0.000    0.000    0.000    0.000    0.000    0.000 
#
# Total GULP energy -297731.218306 kJ/mol
# GULP energy per Si atom -12405.467429 kJ/mol
# Density = 2.061404 g / cm^3
# Si number density = 20.661070 Si / 1000 Ang^3
#
#
#
# Elastic Constant Matrix: (Units=GPa)
#
#
# Indices 1 2 3 4 5 6 
#
# 1 140.5772 49.6143 47.5223 0.0000 -9.8719 0.0000
# 2 49.6143 95.7070 62.5117 0.0000 0.1645 0.0000
# 3 47.5223 62.5117 122.4993 0.0000 -13.6700 0.0000
# 4 0.0000 0.0000 0.0000 17.4825 0.0000 -3.8778
# 5 -9.8719 0.1645 -13.6700 0.0000 30.7892 0.0000
# 6 0.0000 0.0000 0.0000 -3.8778 0.0000 29.6303
#
#
#
# Elastic Compliance Matrix: (Units=1/GPa)
#
#
# Indices 1 2 3 4 5 6 
#
# 1 0.009080 -0.003874 -0.001282 0.000000 0.002363 0.000000
# 2 -0.003874 0.017765 -0.008114 0.000000 -0.004939 0.000000
# 3 -0.001282 -0.008114 0.013425 0.000000 0.005593 0.000000
# 4 0.000000 0.000000 0.000000 0.058910 0.000000 0.007710
# 5 0.002363 -0.004939 0.005593 0.000000 0.035746 0.000000
# 6 0.000000 0.000000 0.000000 0.007710 0.000000 0.034758
#
#
# Mechanical properties :
#
#
# Convention : Reuss Voigt Hill
#
# Bulk Modulus (GPa) = 72.82861 75.34223 74.08542
# Shear Modulus (GPa) = 24.90030 28.85609 26.87819
#
# Velocity S-wave (km/s) = 3.47534 3.74122 3.61073
# Velocity P-wave (km/s) = 7.17145 7.43016 7.30195
#
# Compressibility (1/GPa) = 0.01373087
#
# Stress axis : x y z
#
# Youngs Moduli (GPa) = 110.13192 56.29116 74.48621
#
# Poissons Ratio (x) = 0.21806 0.09549
# Poissons Ratio (y) = 0.42662 0.60437
# Poissons Ratio (z) = 0.14119 0.45674
#
# Static dielectric constant tensor:
#      x y z
#    x 3.734010 0.000000 -0.095900 
#    y 0.000000 4.082960 0.000000 
#    z -0.095900 0.000000 3.757000 
# 
# 
# High freq. dielectric constant tensor:
#      x y z
#    x 1.819440 0.000000 -0.006870 
#    y 0.000000 1.818390 0.000000 
#    z -0.006870 0.000000 1.802980 
# 
# From -- ./inp_files/122614.got.cif
#   From: 2010.06.25/outbox.cif.g09.slc.cpg/sg12_62_cif.got.tgz:122614.got - 2010.06.28 00:19:55.
