data_PCOD8115583
_publ_section_title
;
Structure prediction by ZEFSAII (Michael W. Deem and Ramdas Pophale) SiO2 
 PCOD8115583
Probable space group: C 2/M
;
_chemical_formula_sum "Si O2"
_cell_formula_units_Z 64
_cell_length_a 13.998557
_cell_length_b 29.309734
_cell_length_c 9.114064
_cell_angle_alpha 90.000000
_cell_angle_beta 58.962296
_cell_angle_gamma 90.000000
_cell_volume 3204.062414
_symmetry_space_group_name_H-M "C 2/M"
_symmetry_group_IT_number 12
_symmetry_cell_setting 'monoclinic'
loop_
_space_group_symop_operation_xyz
x,y,z
-x,y,-z
-x,-y,-z
x,-y,z
1/2+x,1/2+y,z
1/2-x,1/2+y,-z
1/2-x,1/2-y,-z
1/2+x,1/2-y,z
loop_
_atom_site_type_symbol
_atom_site_label
_atom_site_fract_x
_atom_site_fract_y
_atom_site_fract_z
Si Si1 0.167693 0.551990 0.450699
Si Si2 0.297773 0.315319 0.698469
Si Si3 0.932863 0.550614 0.781888
Si Si4 0.045092 0.778542 0.200059
Si Si5 0.004526 0.320588 0.661907
Si Si6 0.674348 0.719731 0.807699
Si Si7 0.892101 0.632621 0.994108
Si Si8 0.759078 0.352366 0.541375
O O1 0.209939 0.500000 0.454781
O O2 0.148555 0.555338 0.292371
O O3 0.253751 0.592898 0.423172
O O4 0.056711 0.563702 0.630250
O O5 0.410564 0.311525 0.705723
O O6 0.237658 0.266468 0.719089
O O7 0.329968 0.335569 0.512160
O O8 0.220284 0.352413 0.839534
O O9 0.931303 0.500000 0.844724
O O10 0.892319 0.579010 0.955690
O O11 0.014720 0.732659 0.308027
O O12 0.935148 0.792359 0.200375
O O13 0.146119 0.776025 0.002027
O O14 0.123409 0.338301 0.628483
O O15 0.000000 0.337797 0.500000
O O16 0.902328 0.343477 0.828023
O O17 0.750529 0.676231 0.701700
O O18 0.000000 0.648365 0.000000
#
# Coordination Sequence:
#
# PCOD8115583 Si02
#       8
#     8   8   8   8   8   8   8   8
#     4   9  18  35  57  86 118 147 191 246 294 350
#     4  12  24  38  56  85 119 159 200 242 290 337
#     4   9  18  32  54  83 116 152 191 236 292 359
#     4  11  25  41  56  79 120 160 191 254 288 326
#     4  12  23  35  56  81 112 157 200 231 281 344
#     4  11  24  42  57  83 117 156 206 237 289 350
#     4  12  21  36  53  81 121 158 194 239 287 345
#     4  12  23  37  61  88 111 156 201 240 286 362
#
# _framework density 19.974640999999998
#
# number of rings (size 3 to 8) (size 9 to 14) (size 15 to 20)
#    0.000    1.000    5.000    3.000    5.250    0.250 
#    0.000    0.625    0.000    0.000    0.000    4.375 
#    0.000    0.000    0.000    0.000    0.000    0.000 
#
# Total GULP energy -396524.611688 kJ/mol
# GULP energy per Si atom -12391.394115 kJ/mol
# Density = 1.992918 g / cm^3
# Si number density = 19.974641 Si / 1000 Ang^3
#
#
#
# Elastic Constant Matrix: (Units=GPa)
#
#
# Indices 1 2 3 4 5 6 
#
# 1 63.5867 17.6729 -0.8285 0.0000 14.9375 0.0000
# 2 17.6729 119.9968 21.4463 0.0000 7.1625 0.0000
# 3 -0.8285 21.4463 60.4417 0.0000 10.6738 0.0000
# 4 0.0000 0.0000 0.0000 39.1205 0.0000 2.1167
# 5 14.9375 7.1625 10.6738 0.0000 23.1109 0.0000
# 6 0.0000 0.0000 0.0000 2.1167 0.0000 28.5174
#
#
#
# Elastic Compliance Matrix: (Units=1/GPa)
#
#
# Indices 1 2 3 4 5 6 
#
# 1 0.019728 -0.002746 0.003643 0.000000 -0.013583 0.000000
# 2 -0.002746 0.009323 -0.003428 0.000000 0.000469 0.000000
# 3 0.003643 -0.003428 0.019642 0.000000 -0.010364 0.000000
# 4 0.000000 0.000000 0.000000 0.025665 0.000000 -0.001905
# 5 -0.013583 0.000469 -0.010364 0.000000 0.056690 0.000000
# 6 0.000000 0.000000 0.000000 -0.001905 0.000000 0.035208
#
#
# Mechanical properties :
#
#
# Convention : Reuss Voigt Hill
#
# Bulk Modulus (GPa) = 22.91984 35.62296 29.27140
# Shear Modulus (GPa) = 26.90195 31.86539 29.38367
#
# Velocity S-wave (km/s) = 3.67387 3.99844 3.83959
# Velocity P-wave (km/s) = 5.43100 6.26016 5.86026
#
# Compressibility (1/GPa) = 0.04363033
#
# Stress axis : x y z
#
# Youngs Moduli (GPa) = 50.68943 107.26478 50.91257
#
# Poissons Ratio (x) = 0.29454 -0.18550
# Poissons Ratio (y) = 0.13919 0.17455
# Poissons Ratio (z) = -0.18468 0.36775
#
# Static dielectric constant tensor:
#      x y z
#    x 3.594530 0.000000 0.175440 
#    y 0.000000 3.685530 0.000000 
#    z 0.175440 0.000000 3.765160 
# 
# 
# High freq. dielectric constant tensor:
#      x y z
#    x 1.752820 0.000000 0.027000 
#    y 0.000000 1.765640 0.000000 
#    z 0.027000 0.000000 1.782160 
# 
# From -- ./inp_files/68215.got.cif
#   From: 2010.06.25/outbox.cif.g09.slc.cpg/sg12_35_cif.got.tgz:68215.got - 2010.06.28 00:19:55.
