data_PCOD8115224
_publ_section_title
;
Structure prediction by ZEFSAII (Michael W. Deem and Ramdas Pophale) SiO2 
 PCOD8115224
Probable space group: C 2/M
;
_chemical_formula_sum "Si O2"
_cell_formula_units_Z 56
_cell_length_a 8.779085
_cell_length_b 26.425948
_cell_length_c 12.504039
_cell_angle_alpha 90.000000
_cell_angle_beta 108.510863
_cell_angle_gamma 90.000000
_cell_volume 2750.801004
_symmetry_space_group_name_H-M "C 2/M"
_symmetry_group_IT_number 12
_symmetry_cell_setting 'monoclinic'
loop_
_space_group_symop_operation_xyz
x,y,z
-x,y,-z
-x,-y,-z
x,-y,z
1/2+x,1/2+y,z
1/2-x,1/2+y,-z
1/2-x,1/2-y,-z
1/2+x,1/2-y,z
loop_
_atom_site_type_symbol
_atom_site_label
_atom_site_fract_x
_atom_site_fract_y
_atom_site_fract_z
Si Si1 0.253472 0.944573 0.728514
Si Si2 0.152370 0.592324 0.468243
Si Si3 0.543268 0.289153 0.633537
Si Si4 0.027105 0.613921 0.887980
Si Si5 0.597322 0.813439 0.315680
Si Si6 0.929802 0.110706 0.688927
Si Si7 0.654620 0.559039 0.108790
O O1 0.328174 0.945384 0.626771
O O2 0.388813 0.927744 0.841508
O O3 0.106755 0.906514 0.696465
O O4 0.193343 0.000000 0.748766
O O5 0.124603 0.649455 0.421696
O O6 0.308043 0.588110 0.576187
O O7 0.000000 0.573011 0.500000
O O8 0.500000 0.296959 0.500000
O O9 0.502004 0.233459 0.663109
O O10 0.732411 0.296836 0.695021
O O11 0.438747 0.328297 0.682145
O O12 0.197079 0.585565 0.917149
O O13 0.009691 0.659144 0.798743
O O14 0.000000 0.636828 0.000000
O O15 0.878430 0.091367 0.792768
O O16 0.691631 0.500000 0.143391
O O17 0.500000 0.563287 0.000000
#
# Coordination Sequence:
#
# PCOD8115224 Si02
#       7
#     8   8   8   8   8   8   8
#     4  11  23  40  64  93 127 171 217 265 323 387
#     4  11  23  39  59  93 137 169 212 266 321 385
#     4  12  23  41  67 100 130 172 213 262 321 388
#     4  11  24  46  68  94 130 168 214 270 325 386
#     4  11  25  41  65  99 128 168 218 262 327 382
#     4  12  22  41  65  94 133 169 214 270 322 381
#     4  11  26  44  68  99 127 170 222 267 320 379
#
# _framework density 20.357707000000001
#
# number of rings (size 3 to 8) (size 9 to 14) (size 15 to 20)
#    0.000    0.714    4.286    4.714    4.000    4.286 
#    0.000    1.429    0.000    0.000    0.000    0.000 
#    0.000    0.000    0.000    0.000    0.000    0.000 
#
# Total GULP energy -347277.178418 kJ/mol
# GULP energy per Si atom -12402.756372 kJ/mol
# Density = 2.031137 g / cm^3
# Si number density = 20.357707 Si / 1000 Ang^3
#
#
#
# Elastic Constant Matrix: (Units=GPa)
#
#
# Indices 1 2 3 4 5 6 
#
# 1 113.4092 21.8884 36.8964 0.0000 7.7349 0.0000
# 2 21.8884 113.4254 37.9110 0.0000 -2.2121 0.0000
# 3 36.8964 37.9110 116.2544 0.0000 -2.4496 0.0000
# 4 0.0000 0.0000 0.0000 13.9190 0.0000 -0.5242
# 5 7.7349 -2.2121 -2.4496 0.0000 40.8725 0.0000
# 6 0.0000 0.0000 0.0000 -0.5242 0.0000 33.7750
#
#
#
# Elastic Compliance Matrix: (Units=1/GPa)
#
#
# Indices 1 2 3 4 5 6 
#
# 1 0.010111 -0.001016 -0.002923 0.000000 -0.002144 0.000000
# 2 -0.001016 0.010002 -0.002927 0.000000 0.000558 0.000000
# 3 -0.002923 -0.002927 0.010506 0.000000 0.001024 0.000000
# 4 0.000000 0.000000 0.000000 0.071886 0.000000 0.001116
# 5 -0.002144 0.000558 0.001024 0.000000 0.024964 0.000000
# 6 0.000000 0.000000 0.000000 0.001116 0.000000 0.029625
#
#
# Mechanical properties :
#
#
# Convention : Reuss Voigt Hill
#
# Bulk Modulus (GPa) = 59.22121 59.60895 59.41508
# Shear Modulus (GPa) = 28.33598 34.13951 31.23775
#
# Velocity S-wave (km/s) = 3.73487 4.09954 3.92145
# Velocity P-wave (km/s) = 6.91032 7.19393 7.05355
#
# Compressibility (1/GPa) = 0.01688584
#
# Stress axis : x y z
#
# Youngs Moduli (GPa) = 98.90406 99.98232 95.18684
#
# Poissons Ratio (x) = 0.10159 0.27821
# Poissons Ratio (y) = 0.10049 0.27865
# Poissons Ratio (z) = 0.28907 0.29269
#
# Static dielectric constant tensor:
#      x y z
#    x 3.869310 0.000000 0.071890 
#    y 0.000000 3.704320 0.000000 
#    z 0.071890 0.000000 3.565220 
# 
# 
# High freq. dielectric constant tensor:
#      x y z
#    x 1.812340 0.000000 0.004640 
#    y 0.000000 1.795200 0.000000 
#    z 0.004640 0.000000 1.793930 
# 
# From -- ./inp_files/124341.got.cif
#   From: 2010.06.25/outbox.cif.g09.slc.cpg/sg12_63_cif.got.tgz:124341.got - 2010.06.28 00:19:55.
