data_PCOD8115226
_publ_section_title
;
Structure prediction by ZEFSAII (Michael W. Deem and Ramdas Pophale) SiO2 
 PCOD8115226
Probable space group: C 2/M
;
_chemical_formula_sum "Si O2"
_cell_formula_units_Z 64
_cell_length_a 24.293975
_cell_length_b 18.906384
_cell_length_c 9.809224
_cell_angle_alpha 90.000000
_cell_angle_beta 52.373284
_cell_angle_gamma 90.000000
_cell_volume 3568.368209
_symmetry_space_group_name_H-M "C 2/M"
_symmetry_group_IT_number 12
_symmetry_cell_setting 'monoclinic'
loop_
_space_group_symop_operation_xyz
x,y,z
-x,y,-z
-x,-y,-z
x,-y,z
1/2+x,1/2+y,z
1/2-x,1/2+y,-z
1/2-x,1/2-y,-z
1/2+x,1/2-y,z
loop_
_atom_site_type_symbol
_atom_site_label
_atom_site_fract_x
_atom_site_fract_y
_atom_site_fract_z
Si Si1 0.272146 0.919809 0.813926
Si Si2 0.820368 0.296593 0.555979
Si Si3 0.947637 0.214582 0.961454
Si Si4 0.604603 0.419730 0.373701
Si Si5 0.540734 0.718528 0.568744
Si Si6 0.234082 0.580793 0.865323
Si Si7 0.814125 0.298589 0.245474
Si Si8 0.110343 0.921527 0.050297
O O1 0.313470 0.869854 0.647927
O O2 0.300090 0.000000 0.754771
O O3 0.281666 0.894234 0.956047
O O4 0.191649 0.917261 0.896650
O O5 0.887814 0.259058 0.514173
O O6 0.827435 0.312164 0.384814
O O7 0.754541 0.246621 0.681098
O O8 0.928995 0.131497 0.990990
O O9 0.986506 0.236039 0.767015
O O10 0.877881 0.258693 0.080834
O O11 0.000000 0.233286 0.000000
O O12 0.579294 0.500000 0.441951
O O13 0.557928 0.365587 0.531462
O O14 0.684772 0.411652 0.292424
O O15 0.595193 0.400395 0.229350
O O16 0.500000 0.747823 0.500000
O O17 0.210369 0.500000 0.883168
O O18 0.191285 0.626508 0.821960
O O19 0.082583 0.000000 0.061319
#
# Coordination Sequence:
#
# PCOD8115226 Si02
#       8
#     8   8   8   8   8   8   8   8
#     4   9  19  36  62  91 115 143 195 251 288 334
#     4  11  23  39  60  87 116 154 203 242 284 341
#     4  12  24  39  54  82 125 156 191 241 294 344
#     4   9  18  35  57  85 118 154 197 236 277 343
#     4  12  24  37  57  89 118 154 200 240 289 342
#     4   9  19  36  62  91 116 146 194 246 290 339
#     4  11  23  39  61  83 118 161 196 238 288 349
#     4   9  18  35  57  83 117 159 194 229 287 347
#
# _framework density 17.935369999999999
#
# number of rings (size 3 to 8) (size 9 to 14) (size 15 to 20)
#    0.000    1.750    5.000    1.500    1.750    2.000 
#    0.000    0.000    0.000    1.500    0.000    0.000 
#    0.000    0.000    0.000    0.000    0.000    0.000 
#
# Total GULP energy -396778.477022 kJ/mol
# GULP energy per Si atom -12399.327407 kJ/mol
# Density = 1.789455 g / cm^3
# Si number density = 17.935370 Si / 1000 Ang^3
#
#
#
# Elastic Constant Matrix: (Units=GPa)
#
#
# Indices 1 2 3 4 5 6 
#
# 1 112.1203 48.6301 50.6925 0.0000 -0.5878 0.0000
# 2 48.6301 83.0774 50.9716 0.0000 1.9376 0.0000
# 3 50.6925 50.9716 120.4034 0.0000 -1.2016 0.0000
# 4 0.0000 0.0000 0.0000 29.1099 0.0000 -0.2869
# 5 -0.5878 1.9376 -1.2016 0.0000 23.2411 0.0000
# 6 0.0000 0.0000 0.0000 -0.2869 0.0000 27.4580
#
#
#
# Elastic Compliance Matrix: (Units=1/GPa)
#
#
# Indices 1 2 3 4 5 6 
#
# 1 0.012704 -0.005638 -0.002956 0.000000 0.000639 0.000000
# 2 -0.005638 0.018831 -0.005618 0.000000 -0.002003 0.000000
# 3 -0.002956 -0.005618 0.011938 0.000000 0.001011 0.000000
# 4 0.000000 0.000000 0.000000 0.034356 0.000000 0.000359
# 5 0.000639 -0.002003 0.001011 0.000000 0.043263 0.000000
# 6 0.000000 0.000000 0.000000 0.000359 0.000000 0.036423
#
#
# Mechanical properties :
#
#
# Convention : Reuss Voigt Hill
#
# Bulk Modulus (GPa) = 66.44582 68.46549 67.45566
# Shear Modulus (GPa) = 26.18423 26.98226 26.58325
#
# Velocity S-wave (km/s) = 3.82504 3.88289 3.85407
# Velocity P-wave (km/s) = 7.52567 7.63929 7.58269
#
# Compressibility (1/GPa) = 0.01504986
#
# Stress axis : x y z
#
# Youngs Moduli (GPa) = 78.71569 53.10423 83.76448
#
# Poissons Ratio (x) = 0.29940 0.24757
# Poissons Ratio (y) = 0.44379 0.47060
# Poissons Ratio (z) = 0.23264 0.29835
#
# Static dielectric constant tensor:
#      x y z
#    x 3.255730 0.000000 -0.012400 
#    y 0.000000 3.286750 0.000000 
#    z -0.012400 0.000000 3.263660 
# 
# 
# High freq. dielectric constant tensor:
#      x y z
#    x 1.689030 0.000000 0.000200 
#    y 0.000000 1.687180 0.000000 
#    z 0.000200 0.000000 1.692430 
# 
# From -- ./inp_files/99093.got.cif
#   From: 2010.06.25/outbox.cif.g09.slc.cpg/sg12_50_cif.got.tgz:99093.got - 2010.06.28 00:19:55.
