data_PCOD8115480
_publ_section_title
;
Structure prediction by ZEFSAII (Michael W. Deem and Ramdas Pophale) SiO2 
 PCOD8115480
Probable space group: C 2/M
;
_chemical_formula_sum "Si O2"
_cell_formula_units_Z 48
_cell_length_a 9.784487
_cell_length_b 20.587569
_cell_length_c 11.992733
_cell_angle_alpha 90.000000
_cell_angle_beta 63.578111
_cell_angle_gamma 90.000000
_cell_volume 2163.451525
_symmetry_space_group_name_H-M "C 2/M"
_symmetry_group_IT_number 12
_symmetry_cell_setting 'monoclinic'
loop_
_space_group_symop_operation_xyz
x,y,z
-x,y,-z
-x,-y,-z
x,-y,z
1/2+x,1/2+y,z
1/2-x,1/2+y,-z
1/2-x,1/2-y,-z
1/2+x,1/2-y,z
loop_
_atom_site_type_symbol
_atom_site_label
_atom_site_fract_x
_atom_site_fract_y
_atom_site_fract_z
Si Si1 0.278962 0.573412 0.405179
Si Si2 0.630081 0.880596 0.681974
Si Si3 0.348966 0.314461 0.988784
Si Si4 0.415733 0.637280 0.722584
Si Si5 0.811291 0.426014 0.808396
Si Si6 0.926230 0.263677 0.418042
O O1 0.232316 0.500000 0.443690
O O2 0.202436 0.612863 0.532597
O O3 0.461973 0.580247 0.340015
O O4 0.217827 0.597181 0.307729
O O5 0.755192 0.887188 0.732410
O O6 0.494154 0.929778 0.760804
O O7 0.556260 0.808327 0.699308
O O8 0.399083 0.348222 0.857586
O O9 0.500000 0.292121 0.000000
O O10 0.250000 0.250000 0.000000
O O11 0.261675 0.371807 0.085883
O O12 0.474651 0.699503 0.635333
O O13 0.748026 0.500000 0.852728
O O14 0.750000 0.250000 0.500000
O O15 0.000000 0.297874 0.500000
#
# Coordination Sequence:
#
# PCOD8115480 Si02
#       6
#     8   8   8   8   8   8
#     4  11  23  44  72 103 140 186 233 289 357 425
#     4  12  25  41  69 105 147 178 231 295 360 427
#     4  12  29  50  77 103 141 191 244 301 350 426
#     4  12  26  43  66 104 140 184 234 293 360 419
#     4  11  26  49  75 104 142 194 243 290 356 431
#     4  12  22  39  65 100 144 182 225 289 358 432
#
# _framework density 22.186771
#
# number of rings (size 3 to 8) (size 9 to 14) (size 15 to 20)
#    0.000    0.333    5.000    3.500    4.667    4.333 
#    0.000    0.833    0.000    0.000    0.000    0.000 
#    0.000    0.000    0.000    0.000    0.000    0.000 
#
# Total GULP energy -297582.117817 kJ/mol
# GULP energy per Si atom -12399.254909 kJ/mol
# Density = 2.213627 g / cm^3
# Si number density = 22.186771 Si / 1000 Ang^3
#
#
#
# Elastic Constant Matrix: (Units=GPa)
#
#
# Indices 1 2 3 4 5 6 
#
# 1 173.6250 26.0367 38.6769 0.0000 7.0843 0.0000
# 2 26.0367 90.0710 32.2432 0.0000 0.2938 0.0000
# 3 38.6769 32.2432 98.0517 0.0000 6.6460 0.0000
# 4 0.0000 0.0000 0.0000 26.1553 0.0000 0.6793
# 5 7.0843 0.2938 6.6460 0.0000 32.0228 0.0000
# 6 0.0000 0.0000 0.0000 0.6793 0.0000 33.4534
#
#
#
# Elastic Compliance Matrix: (Units=1/GPa)
#
#
# Indices 1 2 3 4 5 6 
#
# 1 0.006435 -0.001102 -0.002110 0.000000 -0.000976 0.000000
# 2 -0.001102 0.012790 -0.003834 0.000000 0.000922 0.000000
# 3 -0.002110 -0.003834 0.012433 0.000000 -0.002078 0.000000
# 4 0.000000 0.000000 0.000000 0.038253 0.000000 -0.000777
# 5 -0.000976 0.000922 -0.002078 0.000000 0.031866 0.000000
# 6 0.000000 0.000000 0.000000 -0.000777 0.000000 0.029908
#
#
# Mechanical properties :
#
#
# Convention : Reuss Voigt Hill
#
# Bulk Modulus (GPa) = 56.92569 61.74015 59.33292
# Shear Modulus (GPa) = 32.97475 35.97903 34.47689
#
# Velocity S-wave (km/s) = 3.85935 4.03133 3.94628
# Velocity P-wave (km/s) = 6.75075 7.03965 6.89672
#
# Compressibility (1/GPa) = 0.01756676
#
# Stress axis : x y z
#
# Youngs Moduli (GPa) = 155.41209 78.18473 80.43432
#
# Poissons Ratio (x) = 0.08613 0.16970
# Poissons Ratio (y) = 0.17120 0.30838
# Poissons Ratio (z) = 0.32788 0.29975
#
# Static dielectric constant tensor:
#      x y z
#    x 4.303930 0.000000 -0.030630 
#    y 0.000000 4.090610 0.000000 
#    z -0.030630 0.000000 3.909330 
# 
# 
# High freq. dielectric constant tensor:
#      x y z
#    x 1.891590 0.000000 0.000550 
#    y 0.000000 1.877960 0.000000 
#    z 0.000550 0.000000 1.865640 
# 
# From -- ./inp_files/122425.got.cif
#   From: 2010.06.25/outbox.cif.g09.slc.cpg/sg12_62_cif.got.tgz:122425.got - 2010.06.28 00:19:55.
