data_PCOD8115250
_publ_section_title
;
Structure prediction by ZEFSAII (Michael W. Deem and Ramdas Pophale) SiO2 
 PCOD8115250
Probable space group: C 2/M
;
_chemical_formula_sum "Si O2"
_cell_formula_units_Z 56
_cell_length_a 26.583345
_cell_length_b 8.579391
_cell_length_c 12.482819
_cell_angle_alpha 90.000000
_cell_angle_beta 67.962268
_cell_angle_gamma 90.000000
_cell_volume 2638.936620
_symmetry_space_group_name_H-M "C 2/M"
_symmetry_group_IT_number 12
_symmetry_cell_setting 'monoclinic'
loop_
_space_group_symop_operation_xyz
x,y,z
-x,y,-z
-x,-y,-z
x,-y,z
1/2+x,1/2+y,z
1/2-x,1/2+y,-z
1/2-x,1/2-y,-z
1/2+x,1/2-y,z
loop_
_atom_site_type_symbol
_atom_site_label
_atom_site_fract_x
_atom_site_fract_y
_atom_site_fract_z
Si Si1 0.891402 0.681447 0.717952
Si Si2 0.957200 0.678299 0.125591
Si Si3 0.613265 0.679481 0.499315
Si Si4 0.303820 0.183473 0.405709
Si Si5 0.190759 0.683386 0.028893
Si Si6 0.002712 0.822216 0.695988
Si Si7 0.655028 0.681183 0.834469
O O1 0.905672 0.500000 0.714446
O O2 0.868123 0.723078 0.619410
O O3 0.846375 0.729323 0.840548
O O4 0.945250 0.782245 0.690465
O O5 0.936564 0.500000 0.137532
O O6 0.906918 0.792885 0.150314
O O7 0.986788 0.707767 0.213808
O O8 0.000000 0.714561 0.000000
O O9 0.629314 0.500000 0.469314
O O10 0.643771 0.744104 0.578958
O O11 0.549009 0.700317 0.569354
O O12 0.250000 0.250000 0.500000
O O13 0.305297 0.229977 0.279552
O O14 0.304871 0.000000 0.417731
O O15 0.194407 0.500000 0.011013
O O16 0.250000 0.750000 0.000000
O O17 0.163729 0.756491 0.946257
O O18 0.002187 0.000000 0.737485
O O19 0.669172 0.500000 0.818647
#
# Coordination Sequence:
#
# PCOD8115250 Si02
#       7
#     8   8   8   8   8   8   8
#     4  11  25  43  66  96 133 175 223 274 330 395
#     4  11  23  39  63  95 132 174 220 271 328 391
#     4  11  24  43  67  99 136 174 220 271 327 393
#     4  12  26  45  71 100 134 175 221 273 332 393
#     4  11  26  47  69  96 130 173 224 276 332 395
#     4  11  23  40  64  96 133 172 219 270 326 394
#     4  12  25  44  69  99 134 172 220 273 331 394
#
# _framework density 21.220669000000001
#
# number of rings (size 3 to 8) (size 9 to 14) (size 15 to 20)
#    0.000    0.714    1.429    6.000    2.000   10.286 
#    0.000    0.000    0.000    0.000    0.000    0.000 
#    0.000    0.000    0.000    0.000    0.000    0.000 
#
# Total GULP energy -347441.525504 kJ/mol
# GULP energy per Si atom -12408.625911 kJ/mol
# Density = 2.117237 g / cm^3
# Si number density = 21.220669 Si / 1000 Ang^3
#
#
#
# Elastic Constant Matrix: (Units=GPa)
#
#
# Indices 1 2 3 4 5 6 
#
# 1 69.6791 41.6011 31.3354 0.0000 -7.1535 0.0000
# 2 41.6011 96.6454 54.4178 0.0000 -20.6516 0.0000
# 3 31.3354 54.4178 141.9972 0.0000 -1.8597 0.0000
# 4 0.0000 0.0000 0.0000 35.6041 0.0000 2.9776
# 5 -7.1535 -20.6516 -1.8597 0.0000 36.8484 0.0000
# 6 0.0000 0.0000 0.0000 2.9776 0.0000 38.9835
#
#
#
# Elastic Compliance Matrix: (Units=1/GPa)
#
#
# Indices 1 2 3 4 5 6 
#
# 1 0.019541 -0.007799 -0.001332 0.000000 -0.000645 0.000000
# 2 -0.007799 0.018499 -0.005256 0.000000 0.008588 0.000000
# 3 -0.001332 -0.005256 0.009315 0.000000 -0.002734 0.000000
# 4 0.000000 0.000000 0.000000 0.028267 0.000000 -0.002159
# 5 -0.000645 0.008588 -0.002734 0.000000 0.031688 0.000000
# 6 0.000000 0.000000 0.000000 -0.002159 0.000000 0.025817
#
#
# Mechanical properties :
#
#
# Convention : Reuss Voigt Hill
#
# Bulk Modulus (GPa) = 53.81923 62.55895 58.18909
# Shear Modulus (GPa) = 29.74540 34.35170 32.04855
#
# Velocity S-wave (km/s) = 3.74801 4.02778 3.89041
# Velocity P-wave (km/s) = 6.64431 7.15366 6.90369
#
# Compressibility (1/GPa) = 0.01858072
#
# Stress axis : x y z
#
# Youngs Moduli (GPa) = 51.17545 54.05760 107.35812
#
# Poissons Ratio (x) = 0.42161 0.14297
# Poissons Ratio (y) = 0.39913 0.56425
# Poissons Ratio (z) = 0.06815 0.28411
#
# Static dielectric constant tensor:
#      x y z
#    x 3.807380 0.000000 0.028980 
#    y 0.000000 3.801380 0.000000 
#    z 0.028980 0.000000 4.082830 
# 
# 
# High freq. dielectric constant tensor:
#      x y z
#    x 1.833490 0.000000 -0.000570 
#    y 0.000000 1.845120 0.000000 
#    z -0.000570 0.000000 1.850730 
# 
# From -- ./inp_files/180776.got.cif
#   From: 2010.06.25/outbox.cif.g09.slc.cpg/sg12_91_cif.got.tgz:180776.got - 2010.06.28 00:19:55.
