data_PCOD8115290
_publ_section_title
;
Structure prediction by ZEFSAII (Michael W. Deem and Ramdas Pophale) SiO2 
 PCOD8115290
Probable space group: C 2/M
;
_chemical_formula_sum "Si O2"
_cell_formula_units_Z 48
_cell_length_a 15.751882
_cell_length_b 8.451035
_cell_length_c 16.580370
_cell_angle_alpha 90.000000
_cell_angle_beta 90.709307
_cell_angle_gamma 90.000000
_cell_volume 2207.004850
_symmetry_space_group_name_H-M "C 2/M"
_symmetry_group_IT_number 12
_symmetry_cell_setting 'monoclinic'
loop_
_space_group_symop_operation_xyz
x,y,z
-x,y,-z
-x,-y,-z
x,-y,z
1/2+x,1/2+y,z
1/2-x,1/2+y,-z
1/2-x,1/2-y,-z
1/2+x,1/2-y,z
loop_
_atom_site_type_symbol
_atom_site_label
_atom_site_fract_x
_atom_site_fract_y
_atom_site_fract_z
Si Si1 0.749867 0.314421 0.589560
Si Si2 0.086262 0.316695 0.671896
Si Si3 0.844521 0.320285 0.156765
Si Si4 0.668304 0.816897 0.162667
Si Si5 0.409415 0.313789 0.687813
Si Si6 0.596397 0.317891 0.004111
O O1 0.767972 0.500000 0.591124
O O2 0.750000 0.250000 0.500000
O O3 0.658229 0.281753 0.627158
O O4 0.824957 0.228266 0.638091
O O5 0.097596 0.500000 0.649137
O O6 0.092708 0.289246 0.768177
O O7 0.992952 0.256477 0.644610
O O8 0.851821 0.500000 0.126049
O O9 0.750251 0.285473 0.187247
O O10 0.863583 0.203673 0.083323
O O11 0.594563 0.760374 0.222295
O O12 0.688268 0.000000 0.176724
O O13 0.643754 0.789571 0.069666
O O14 0.419624 0.500000 0.694438
O O15 0.604836 0.500000 0.030300
O O16 0.500000 0.260822 0.000000
#
# Coordination Sequence:
#
# PCOD8115290 Si02
#       6
#     8   8   8   8   8   8
#     4  12  26  47  74 104 139 177 221 274 336 402
#     4  11  24  44  71 103 138 179 226 277 336 400
#     4  11  23  40  64  92 129 172 221 275 333 396
#     4  12  24  40  64  92 128 173 224 276 335 396
#     4  12  25  44  70 102 139 179 226 277 335 401
#     4  11  24  40  59  87 126 170 222 277 333 394
#
# _framework density 21.748933999999998
#
# number of rings (size 3 to 8) (size 9 to 14) (size 15 to 20)
#    0.000    0.500    1.667    7.500    0.000    6.667 
#    0.000    3.333    0.000    0.000    0.000    0.000 
#    0.000    0.000    0.000    0.000    0.000    0.000 
#
# Total GULP energy -297783.575836 kJ/mol
# GULP energy per Si atom -12407.648993 kJ/mol
# Density = 2.169943 g / cm^3
# Si number density = 21.748934 Si / 1000 Ang^3
#
#
#
# Elastic Constant Matrix: (Units=GPa)
#
#
# Indices 1 2 3 4 5 6 
#
# 1 122.4931 8.3193 25.5388 0.0000 -11.3193 0.0000
# 2 8.3193 79.3592 31.8184 0.0000 0.0920 0.0000
# 3 25.5388 31.8184 93.1785 0.0000 -7.2793 0.0000
# 4 0.0000 0.0000 0.0000 34.8052 0.0000 -7.6157
# 5 -11.3193 0.0920 -7.2793 0.0000 18.5738 0.0000
# 6 0.0000 0.0000 0.0000 -7.6157 0.0000 21.2723
#
#
#
# Elastic Compliance Matrix: (Units=1/GPa)
#
#
# Indices 1 2 3 4 5 6 
#
# 1 0.009037 -0.000124 -0.002068 0.000000 0.004698 0.000000
# 2 -0.000124 0.014681 -0.005148 0.000000 -0.002166 0.000000
# 3 -0.002068 -0.005148 0.013370 0.000000 0.004005 0.000000
# 4 0.000000 0.000000 0.000000 0.031173 0.000000 0.011160
# 5 0.004698 -0.002166 0.004005 0.000000 0.058283 0.000000
# 6 0.000000 0.000000 0.000000 0.011160 0.000000 0.051005
#
#
# Mechanical properties :
#
#
# Convention : Reuss Voigt Hill
#
# Bulk Modulus (GPa) = 44.62703 47.37597 46.00150
# Shear Modulus (GPa) = 25.03782 30.22054 27.62918
#
# Velocity S-wave (km/s) = 3.39664 3.73167 3.56809
# Velocity P-wave (km/s) = 5.99555 6.35591 6.17836
#
# Compressibility (1/GPa) = 0.02240794
#
# Stress axis : x y z
#
# Youngs Moduli (GPa) = 110.65190 68.11699 74.79559
#
# Poissons Ratio (x) = 0.00843 0.15466
# Poissons Ratio (y) = 0.01370 0.38508
# Poissons Ratio (z) = 0.22880 0.35069
#
# Static dielectric constant tensor:
#      x y z
#    x 4.042320 0.000000 -0.018380 
#    y 0.000000 3.898230 0.000000 
#    z -0.018380 0.000000 3.890870 
# 
# 
# High freq. dielectric constant tensor:
#      x y z
#    x 1.867980 0.000000 -0.002470 
#    y 0.000000 1.866270 0.000000 
#    z -0.002470 0.000000 1.851700 
# 
# From -- ./inp_files/267725.got.cif
#   From: 2010.06.25/outbox.cif.g09.slc.cpg/sg12_134_cif.got.tgz:267725.got - 2010.06.28 00:19:55.
