data_PCOD8115223
_publ_section_title
;
Structure prediction by ZEFSAII (Michael W. Deem and Ramdas Pophale) SiO2 
 PCOD8115223
Probable space group: C 2/M
;
_chemical_formula_sum "Si O2"
_cell_formula_units_Z 64
_cell_length_a 14.594982
_cell_length_b 8.362175
_cell_length_c 33.689391
_cell_angle_alpha 90.000000
_cell_angle_beta 50.299468
_cell_angle_gamma 90.000000
_cell_volume 3163.476110
_symmetry_space_group_name_H-M "C 2/M"
_symmetry_group_IT_number 12
_symmetry_cell_setting 'monoclinic'
loop_
_space_group_symop_operation_xyz
x,y,z
-x,y,-z
-x,-y,-z
x,-y,z
1/2+x,1/2+y,z
1/2-x,1/2+y,-z
1/2-x,1/2-y,-z
1/2+x,1/2-y,z
loop_
_atom_site_type_symbol
_atom_site_label
_atom_site_fract_x
_atom_site_fract_y
_atom_site_fract_z
Si Si1 0.414734 0.685615 0.631760
Si Si2 0.391940 0.311230 0.003382
Si Si3 0.676963 0.187494 0.557233
Si Si4 0.972425 0.683884 0.264962
Si Si5 0.823410 0.815439 0.742891
Si Si6 0.266662 0.686042 0.376672
Si Si7 0.929466 0.185302 0.192275
Si Si8 0.638315 0.310765 0.077395
O O1 0.389541 0.500000 0.630431
O O2 0.553887 0.717928 0.593724
O O3 0.355882 0.739124 0.689433
O O4 0.354691 0.790289 0.614001
O O5 0.402511 0.500000 0.000966
O O6 0.398944 0.247179 0.956070
O O7 0.500000 0.237965 0.000000
O O8 0.264653 0.260471 0.056645
O O9 0.750000 0.250000 0.500000
O O10 0.751297 0.228094 0.576127
O O11 0.653151 0.000000 0.560065
O O12 0.953082 0.500000 0.258351
O O13 0.103458 0.708872 0.246366
O O14 0.877189 0.733056 0.324169
O O15 0.958014 0.792605 0.230455
O O16 0.684783 0.786755 0.789166
O O17 0.856504 0.000000 0.740377
O O18 0.293577 0.500000 0.375451
O O19 0.039616 0.248912 0.135753
O O20 0.903911 0.000000 0.190910
O O21 0.650070 0.500000 0.074128
#
# Coordination Sequence:
#
# PCOD8115223 Si02
#       8
#     8   8   8   8   8   8   8   8
#     4  11  23  41  66  94 124 160 204 252 302 365
#     4   9  18  35  60  86 116 156 203 249 301 360
#     4  12  26  45  68  95 127 162 204 255 310 366
#     4  12  24  39  61  89 120 160 207 252 305 364
#     4  11  23  39  62  90 122 160 205 250 302 365
#     4  12  24  41  66  94 124 160 203 250 305 366
#     4  11  23  39  59  87 127 165 205 255 305 362
#     4   9  20  37  56  85 121 157 198 249 304 358
#
# _framework density 20.230910999999999
#
# number of rings (size 3 to 8) (size 9 to 14) (size 15 to 20)
#    0.000    1.125    2.500    4.500    0.000    3.750 
#    0.000    3.750    0.000    0.000    0.000    0.000 
#    0.000    0.000    0.000    0.000    0.000    0.000 
#
# Total GULP energy -397006.602477 kJ/mol
# GULP energy per Si atom -12406.456327 kJ/mol
# Density = 2.018486 g / cm^3
# Si number density = 20.230911 Si / 1000 Ang^3
#
#
#
# Elastic Constant Matrix: (Units=GPa)
#
#
# Indices 1 2 3 4 5 6 
#
# 1 100.4444 18.7497 7.8396 0.0008 -5.0462 0.0007
# 2 18.7497 50.1961 23.2425 -0.0006 -1.9932 -0.0006
# 3 7.8396 23.2425 72.3390 0.0010 -11.2428 0.0011
# 4 0.0008 -0.0006 0.0010 27.9128 0.0000 -3.6253
# 5 -5.0462 -1.9932 -11.2428 0.0000 27.7446 0.0000
# 6 0.0007 -0.0006 0.0011 -3.6253 0.0000 34.5667
#
#
#
# Elastic Compliance Matrix: (Units=1/GPa)
#
#
# Indices 1 2 3 4 5 6 
#
# 1 0.010791 -0.004169 0.000457 0.000000 0.001849 0.000000
# 2 -0.004169 0.025070 -0.007941 0.000001 -0.002175 0.000001
# 3 0.000457 -0.007941 0.017342 -0.000001 0.006540 -0.000001
# 4 0.000000 0.000001 -0.000001 0.036321 0.000000 0.003809
# 5 0.001849 -0.002175 0.006540 0.000000 0.038873 0.000000
# 6 0.000000 0.000001 -0.000001 0.003809 0.000000 0.029329
#
#
# Mechanical properties :
#
#
# Convention : Reuss Voigt Hill
#
# Bulk Modulus (GPa) = 33.44790 35.84922 34.64856
# Shear Modulus (GPa) = 26.17830 29.58801 27.88315
#
# Velocity S-wave (km/s) = 3.60109 3.82843 3.71650
# Velocity P-wave (km/s) = 5.81888 6.10746 5.96492
#
# Compressibility (1/GPa) = 0.02989724
#
# Stress axis : x y z
#
# Youngs Moduli (GPa) = 92.66829 39.88851 57.66281
#
# Poissons Ratio (x) = 0.16630 -0.02637
# Poissons Ratio (y) = 0.38635 0.45791
# Poissons Ratio (z) = -0.04239 0.31676
#
# Static dielectric constant tensor:
#      x y z
#    x 3.840960 0.000000 0.068450 
#    y 0.000000 3.648040 0.000000 
#    z 0.068450 0.000000 3.743250 
# 
# 
# High freq. dielectric constant tensor:
#      x y z
#    x 1.801450 0.000000 -0.000820 
#    y 0.000000 1.792640 0.000000 
#    z -0.000820 0.000000 1.785510 
# 
# From -- ./inp_files/375496.got.cif
#   From: 2010.06.25/outbox.cif.g09.slc.cpg/sg12_188_cif.got.tgz:375496.got - 2010.06.28 00:19:55.
