data_PCOD8115781
_publ_section_title
;
Structure prediction by ZEFSAII (Michael W. Deem and Ramdas Pophale) SiO2 
 PCOD8115781
Probable space group: C 2/M
;
_chemical_formula_sum "Si O2"
_cell_formula_units_Z 40
_cell_length_a 7.686563
_cell_length_b 27.328646
_cell_length_c 9.123022
_cell_angle_alpha 90.000000
_cell_angle_beta 88.070607
_cell_angle_gamma 90.000000
_cell_volume 1915.326186
_symmetry_space_group_name_H-M "C 2/M"
_symmetry_group_IT_number 12
_symmetry_cell_setting 'monoclinic'
loop_
_space_group_symop_operation_xyz
x,y,z
-x,y,-z
-x,-y,-z
x,-y,z
1/2+x,1/2+y,z
1/2-x,1/2+y,-z
1/2-x,1/2-y,-z
1/2+x,1/2-y,z
loop_
_atom_site_type_symbol
_atom_site_label
_atom_site_fract_x
_atom_site_fract_y
_atom_site_fract_z
Si Si1 0.834817 0.442637 0.604686
Si Si2 0.000000 0.886183 0.500000
Si Si3 0.618831 0.696054 0.283097
Si Si4 0.500000 0.656348 0.000000
Si Si5 0.507515 0.197919 0.336896
Si Si6 0.647104 0.878636 0.121281
O O1 0.803241 0.500000 0.612147
O O2 0.663140 0.419156 0.539163
O O3 0.870553 0.424941 0.770193
O O4 0.000000 0.429017 0.500000
O O5 0.954538 0.851648 0.636253
O O6 0.566838 0.746479 0.361792
O O7 0.824423 0.693234 0.264011
O O8 0.542003 0.695103 0.124265
O O9 0.664302 0.621300 0.961302
O O10 0.500000 0.173812 0.500000
O O11 0.639481 0.169414 0.226667
O O12 0.500000 0.880707 0.000000
#
# Coordination Sequence:
#
# PCOD8115781 Si02
#       6
#     8   4   8   4   8   8
#     4  11  26  48  77 105 131 173 231 292 347 403
#     4  12  23  46  70 102 138 182 225 282 340 406
#     4  12  25  40  68  98 142 186 233 276 336 404
#     4  12  26  44  63 100 138 188 227 276 338 410
#     4  12  25  42  65 103 138 188 233 284 332 398
#     4  12  25  45  69  98 142 183 227 280 342 407
#
# _framework density 20.884170999999998
#
# number of rings (size 3 to 8) (size 9 to 14) (size 15 to 20)
#    0.000    0.200    5.000    5.100    1.400    2.000 
#    0.000    0.500    0.000    0.000    0.000    0.000 
#    0.000    0.000    0.000    0.000    0.000    0.000 
#
# Total GULP energy -248063.560511 kJ/mol
# GULP energy per Si atom -12403.178026 kJ/mol
# Density = 2.083664 g / cm^3
# Si number density = 20.884171 Si / 1000 Ang^3
#
#
#
# Elastic Constant Matrix: (Units=GPa)
#
#
# Indices 1 2 3 4 5 6 
#
# 1 153.6829 54.2616 51.4887 0.0000 -7.2443 0.0000
# 2 54.2616 128.8826 43.4588 0.0000 -3.9483 0.0000
# 3 51.4887 43.4588 132.8283 0.0000 6.5706 0.0000
# 4 0.0000 0.0000 0.0000 24.6128 0.0000 0.4404
# 5 -7.2443 -3.9483 6.5706 0.0000 41.9423 0.0000
# 6 0.0000 0.0000 0.0000 0.4404 0.0000 38.4867
#
#
#
# Elastic Compliance Matrix: (Units=1/GPa)
#
#
# Indices 1 2 3 4 5 6 
#
# 1 0.008330 -0.002635 -0.002445 0.000000 0.001574 0.000000
# 2 -0.002635 0.009623 -0.002166 0.000000 0.000790 0.000000
# 3 -0.002445 -0.002166 0.009288 0.000000 -0.002081 0.000000
# 4 0.000000 0.000000 0.000000 0.040638 0.000000 -0.000465
# 5 0.001574 0.000790 -0.002081 0.000000 0.024515 0.000000
# 6 0.000000 0.000000 0.000000 -0.000465 0.000000 0.025988
#
#
# Mechanical properties :
#
#
# Convention : Reuss Voigt Hill
#
# Bulk Modulus (GPa) = 78.43387 79.31245 78.87316
# Shear Modulus (GPa) = 36.46351 38.75399 37.60875
#
# Velocity S-wave (km/s) = 4.18304 4.31241 4.24822
# Velocity P-wave (km/s) = 7.80823 7.92816 7.86842
#
# Compressibility (1/GPa) = 0.01274959
#
# Stress axis : x y z
#
# Youngs Moduli (GPa) = 120.04126 103.91917 107.66574
#
# Poissons Ratio (x) = 0.27378 0.26325
# Poissons Ratio (y) = 0.31626 0.23323
# Poissons Ratio (z) = 0.29351 0.22511
#
# Static dielectric constant tensor:
#      x y z
#    x 4.016930 0.000000 -0.012490 
#    y 0.000000 3.774430 0.000000 
#    z -0.012490 0.000000 4.024940 
# 
# 
# High freq. dielectric constant tensor:
#      x y z
#    x 1.840110 0.000000 0.002840 
#    y 0.000000 1.802170 0.000000 
#    z 0.002840 0.000000 1.833840 
# 
# From -- ./inp_files/40465.got.cif
#   From: 2010.06.25/outbox.cif.g09.slc.cpg/sg12_21_cif.got.tgz:40465.got - 2010.06.28 00:19:55.
