data_PCOD8115833
_publ_section_title
;
Structure prediction by ZEFSAII (Michael W. Deem and Ramdas Pophale) SiO2 
 PCOD8115833
Probable space group: C 2/M
;
_chemical_formula_sum "Si O2"
_cell_formula_units_Z 48
_cell_length_a 21.498154
_cell_length_b 16.899227
_cell_length_c 16.496874
_cell_angle_alpha 90.000000
_cell_angle_beta 26.799733
_cell_angle_gamma 90.000000
_cell_volume 2702.242143
_symmetry_space_group_name_H-M "C 2/M"
_symmetry_group_IT_number 12
_symmetry_cell_setting 'monoclinic'
loop_
_space_group_symop_operation_xyz
x,y,z
-x,y,-z
-x,-y,-z
x,-y,z
1/2+x,1/2+y,z
1/2-x,1/2+y,-z
1/2-x,1/2-y,-z
1/2+x,1/2-y,z
loop_
_atom_site_type_symbol
_atom_site_label
_atom_site_fract_x
_atom_site_fract_y
_atom_site_fract_z
Si Si1 0.627458 0.500000 0.410851
Si Si2 0.140696 0.088431 0.886999
Si Si3 0.989370 0.186430 0.183602
Si Si4 0.939846 0.360759 0.251944
Si Si5 0.652738 0.349992 0.495315
Si Si6 0.702823 0.173651 0.424179
Si Si7 0.426288 0.000000 0.997579
O O1 0.500000 0.500000 0.500000
O O2 0.620529 0.419580 0.470616
O O3 0.764186 0.500000 0.198535
O O4 0.272915 0.121325 0.684097
O O5 0.176738 0.000000 0.872765
O O6 0.000000 0.089810 0.000000
O O7 0.117355 0.141903 0.993399
O O8 0.023981 0.279155 0.146128
O O9 0.967068 0.147955 0.297635
O O10 0.847714 0.180102 0.300223
O O11 0.801090 0.365107 0.361478
O O12 0.902742 0.370241 0.391021
O O13 0.038885 0.426009 0.099599
O O14 0.651722 0.261558 0.457659
O O15 0.500000 0.000000 0.000000
#
# Coordination Sequence:
#
# PCOD8115833 Si02
#       7
#     4   8   8   8   8   8   4
#     4  12  26  38  52  77 111 145 179 226 272 320
#     4   9  16  23  37  68 107 140 164 197 261 322
#     4   8  16  27  46  72 105 140 169 214 258 318
#     4   9  17  30  49  78 105 131 175 217 265 311
#     4   9  17  33  50  71 103 141 174 213 271 310
#     4   8  16  28  46  72 106 139 165 212 265 313
#     4  12  22  32  54  83 103 141 181 222 270 312
#
# _framework density 17.763027000000001
#
# number of rings (size 3 to 8) (size 9 to 14) (size 15 to 20)
#    0.000    2.833    1.667    2.000    4.667    0.667 
#    0.000    0.000    0.000    4.000    0.000    0.000 
#    0.000    2.000    0.000    0.000    0.000    0.000 
#
# Total GULP energy -297378.894594 kJ/mol
# GULP energy per Si atom -12390.787275 kJ/mol
# Density = 1.772260 g / cm^3
# Si number density = 17.763027 Si / 1000 Ang^3
#
#
#
# Elastic Constant Matrix: (Units=GPa)
#
#
# Indices 1 2 3 4 5 6 
#
# 1 50.2773 57.2175 54.4354 0.0000 17.3432 0.0000
# 2 57.2175 154.2564 87.7370 0.0000 38.6358 0.0000
# 3 54.4354 87.7370 120.8511 -0.0004 42.2446 0.0002
# 4 0.0000 0.0000 -0.0004 30.5232 0.0001 16.4039
# 5 17.3432 38.6358 42.2446 0.0001 32.5434 -0.0001
# 6 0.0000 0.0000 0.0002 16.4039 -0.0001 20.0096
#
#
#
# Elastic Compliance Matrix: (Units=1/GPa)
#
#
# Indices 1 2 3 4 5 6 
#
# 1 0.046118 -0.009783 -0.016731 0.000000 0.008756 0.000000
# 2 -0.009783 0.013571 -0.002996 0.000000 -0.007009 0.000000
# 3 -0.016731 -0.002996 0.024945 0.000001 -0.019908 -0.000001
# 4 0.000000 0.000000 0.000001 0.058564 -0.000001 -0.048011
# 5 0.008756 -0.007009 -0.019908 -0.000001 0.060225 0.000001
# 6 0.000000 0.000000 -0.000001 -0.048011 0.000001 0.089336
#
#
# Mechanical properties :
#
#
# Convention : Reuss Voigt Hill
#
# Bulk Modulus (GPa) = 39.04204 80.46273 59.75239
# Shear Modulus (GPa) = 13.87670 25.01491 19.44581
#
# Velocity S-wave (km/s) = 2.79805 3.75675 3.31227
# Velocity P-wave (km/s) = 5.69788 8.01335 6.95268
#
# Compressibility (1/GPa) = 0.02561341
#
# Stress axis : x y z
#
# Youngs Moduli (GPa) = 21.68364 73.68752 40.08853
#
# Poissons Ratio (x) = 0.72087 0.67074
# Poissons Ratio (y) = 0.21213 0.12009
# Poissons Ratio (z) = 0.36280 0.22074
#
# Static dielectric constant tensor:
#      x y z
#    x 2.928380 0.000000 0.629020 
#    y 0.000000 3.612470 0.000000 
#    z 0.629020 0.000000 3.456940 
# 
# 
# High freq. dielectric constant tensor:
#      x y z
#    x 1.625160 0.000000 0.049780 
#    y 0.000000 1.701590 0.000000 
#    z 0.049780 0.000000 1.677690 
# 
# From -- ./inp_files/226772.got.cif
#   From: 2010.06.25/outbox.cif.g09.slc.cpg/sg12_114_cif.got.tgz:226772.got - 2010.06.28 00:19:55.
