data_PCOD8115215
_publ_section_title
;
Structure prediction by ZEFSAII (Michael W. Deem and Ramdas Pophale) SiO2 
 PCOD8115215
Probable space group: C 2/M
;
_chemical_formula_sum "Si O2"
_cell_formula_units_Z 52
_cell_length_a 18.804701
_cell_length_b 12.390576
_cell_length_c 12.105584
_cell_angle_alpha 90.000000
_cell_angle_beta 109.928222
_cell_angle_gamma 90.000000
_cell_volume 2651.716732
_symmetry_space_group_name_H-M "C 2/M"
_symmetry_group_IT_number 12
_symmetry_cell_setting 'monoclinic'
loop_
_space_group_symop_operation_xyz
x,y,z
-x,y,-z
-x,-y,-z
x,-y,z
1/2+x,1/2+y,z
1/2-x,1/2+y,-z
1/2-x,1/2-y,-z
1/2+x,1/2-y,z
loop_
_atom_site_type_symbol
_atom_site_label
_atom_site_fract_x
_atom_site_fract_y
_atom_site_fract_z
Si Si1 0.566048 0.624997 0.328297
Si Si2 0.014892 0.714512 0.127925
Si Si3 0.858557 0.377545 0.079255
Si Si4 0.367474 0.123933 0.322913
Si Si5 0.730609 0.706790 0.371296
Si Si6 0.000000 0.760140 0.500000
Si Si7 0.324390 0.873390 0.824119
O O1 0.545183 0.500000 0.311262
O O2 0.513070 0.687910 0.214123
O O3 0.652705 0.641432 0.336780
O O4 0.549146 0.666713 0.442786
O O5 0.091014 0.644817 0.175890
O O6 0.948958 0.630023 0.118108
O O7 0.000000 0.767272 0.000000
O O8 0.832746 0.500000 0.062411
O O9 0.837278 0.328456 0.188182
O O10 0.818675 0.327145 0.948199
O O11 0.298512 0.128263 0.372162
O O12 0.441140 0.187539 0.401706
O O13 0.392714 0.000000 0.321596
O O14 0.750000 0.750000 0.500000
O O15 0.730661 0.805657 0.283923
O O16 0.303801 0.000000 0.804805
#
# Coordination Sequence:
#
# PCOD8115215 Si02
#       7
#     8   8   8   8   8   4   8
#     4  11  23  39  59  83 116 154 193 236 285 346
#     4   9  17  33  57  85 118 149 185 240 285 337
#     4   9  17  33  58  87 115 147 189 242 292 331
#     4  11  23  39  62  87 117 151 190 241 291 341
#     4  11  23  41  56  84 120 156 193 231 287 350
#     4  12  22  42  60  88 114 148 198 238 290 338
#     4   9  19  34  57  87 116 151 194 236 285 340
#
# _framework density 19.609938
#
# number of rings (size 3 to 8) (size 9 to 14) (size 15 to 20)
#    0.000    1.846    3.077    1.385    0.000    4.000 
#    0.000    0.000    0.000    0.000    0.000    0.000 
#    0.000    0.000    0.000    0.000    0.000    0.000 
#
# Total GULP energy -322237.940482 kJ/mol
# GULP energy per Si atom -12393.766942 kJ/mol
# Density = 1.956530 g / cm^3
# Si number density = 19.609938 Si / 1000 Ang^3
#
#
#
# Elastic Constant Matrix: (Units=GPa)
#
#
# Indices 1 2 3 4 5 6 
#
# 1 62.6153 7.9640 21.1716 0.0000 -12.4652 0.0000
# 2 7.9640 76.5482 39.9190 0.0000 -3.9493 0.0000
# 3 21.1716 39.9190 143.9107 0.0000 -14.0768 0.0000
# 4 0.0000 0.0000 0.0000 25.6777 0.0000 -1.8642
# 5 -12.4652 -3.9493 -14.0768 0.0000 32.8441 0.0000
# 6 0.0000 0.0000 0.0000 -1.8642 0.0000 18.6403
#
#
#
# Elastic Compliance Matrix: (Units=1/GPa)
#
#
# Indices 1 2 3 4 5 6 
#
# 1 0.017857 -0.000566 -0.001893 0.000000 0.005898 0.000000
# 2 -0.000566 0.015291 -0.004174 0.000000 -0.000165 0.000000
# 3 -0.001893 -0.004174 0.008627 0.000000 0.002477 0.000000
# 4 0.000000 0.000000 0.000000 0.039229 0.000000 0.003923
# 5 0.005898 -0.000165 0.002477 0.000000 0.033727 0.000000
# 6 0.000000 0.000000 0.000000 0.003923 0.000000 0.054040
#
#
# Mechanical properties :
#
#
# Convention : Reuss Voigt Hill
#
# Bulk Modulus (GPa) = 35.07826 46.79816 40.93821
# Shear Modulus (GPa) = 26.10408 29.70038 27.90223
#
# Velocity S-wave (km/s) = 3.65247 3.89595 3.77618
# Velocity P-wave (km/s) = 5.97614 6.64487 6.31936
#
# Compressibility (1/GPa) = 0.02850768
#
# Stress axis : x y z
#
# Youngs Moduli (GPa) = 56.00132 65.39817 115.90852
#
# Poissons Ratio (x) = 0.03704 0.21942
# Poissons Ratio (y) = 0.03171 0.48385
# Poissons Ratio (z) = 0.10601 0.27300
#
# Static dielectric constant tensor:
#      x y z
#    x 3.834450 0.000000 -0.287530 
#    y 0.000000 3.294720 0.000000 
#    z -0.287530 0.000000 3.996530 
# 
# 
# High freq. dielectric constant tensor:
#      x y z
#    x 1.753750 0.000000 -0.014170 
#    y 0.000000 1.740440 0.000000 
#    z -0.014170 0.000000 1.786230 
# 
# From -- ./inp_files/165092.got.cif
#   From: 2010.06.25/outbox.cif.g09.slc.cpg/sg12_83_cif.got.tgz:165092.got - 2010.06.28 00:19:55.
