data_PCOD8115866
_publ_section_title
;
Structure prediction by ZEFSAII (Michael W. Deem and Ramdas Pophale) SiO2 
 PCOD8115866
Probable space group: C 2/M
;
_chemical_formula_sum "Si O2"
_cell_formula_units_Z 48
_cell_length_a 31.663927
_cell_length_b 8.820747
_cell_length_c 9.562113
_cell_angle_alpha 90.000000
_cell_angle_beta 103.455809
_cell_angle_gamma 90.000000
_cell_volume 2597.381897
_symmetry_space_group_name_H-M "C 2/M"
_symmetry_group_IT_number 12
_symmetry_cell_setting 'monoclinic'
loop_
_space_group_symop_operation_xyz
x,y,z
-x,y,-z
-x,-y,-z
x,-y,z
1/2+x,1/2+y,z
1/2-x,1/2+y,-z
1/2-x,1/2-y,-z
1/2+x,1/2-y,z
loop_
_atom_site_type_symbol
_atom_site_label
_atom_site_fract_x
_atom_site_fract_y
_atom_site_fract_z
Si Si1 0.548433 0.819712 0.047504
Si Si2 0.380716 0.821964 0.115463
Si Si3 0.263587 0.822273 0.364782
Si Si4 0.645047 0.322626 0.624143
Si Si5 0.186699 0.672272 0.171697
Si Si6 0.888632 0.674769 0.667111
O O1 0.571248 0.764256 0.208274
O O2 0.547778 0.000000 0.050443
O O3 0.500000 0.751064 0.000000
O O4 0.576333 0.768525 0.934854
O O5 0.379465 0.723039 0.253505
O O6 0.382606 0.000000 0.152846
O O7 0.338452 0.785407 0.989337
O O8 0.250000 0.750000 0.500000
O O9 0.309867 0.765558 0.348876
O O10 0.228083 0.781358 0.219383
O O11 0.266162 0.000000 0.387717
O O12 0.654246 0.500000 0.627385
O O13 0.613696 0.277091 0.472327
O O14 0.203404 0.500000 0.177820
O O15 0.155708 0.693192 0.281100
O O16 0.895516 0.500000 0.629302
#
# Coordination Sequence:
#
# PCOD8115866 Si02
#       6
#     8   8   8   8   8   8
#     4   8  15  32  61  91 110 132 175 225 272 326
#     4   9  19  36  57  81 111 144 177 224 276 321
#     4  12  23  35  54  79 108 143 185 229 268 316
#     4  12  24  36  52  77 110 149 186 226 269 319
#     4   9  18  34  55  78 105 142 186 227 268 316
#     4   9  17  32  56  81 108 141 177 224 272 321
#
# _framework density 18.480146999999999
#
# number of rings (size 3 to 8) (size 9 to 14) (size 15 to 20)
#    0.000    2.167    1.667    5.000    0.000    1.333 
#    0.000    3.333    0.000    7.000    0.000    0.000 
#    0.000    0.000    0.000    0.000    0.000    0.000 
#
# Total GULP energy -297622.565973 kJ/mol
# GULP energy per Si atom -12400.940249 kJ/mol
# Density = 1.843809 g / cm^3
# Si number density = 18.480147 Si / 1000 Ang^3
#
#
#
# Elastic Constant Matrix: (Units=GPa)
#
#
# Indices 1 2 3 4 5 6 
#
# 1 125.4169 41.1279 57.0729 0.0000 14.2562 0.0000
# 2 41.1279 98.6001 48.2796 0.0000 2.2413 0.0000
# 3 57.0729 48.2796 126.3226 0.0000 0.8501 0.0000
# 4 0.0000 0.0000 0.0000 24.3975 0.0000 1.3581
# 5 14.2562 2.2413 0.8501 0.0000 23.3731 0.0000
# 6 0.0000 0.0000 0.0000 1.3581 0.0000 17.9126
#
#
#
# Elastic Compliance Matrix: (Units=1/GPa)
#
#
# Indices 1 2 3 4 5 6 
#
# 1 0.011459 -0.002604 -0.004138 0.000000 -0.006589 0.000000
# 2 -0.002604 0.013093 -0.003831 0.000000 0.000472 0.000000
# 3 -0.004138 -0.003831 0.011233 0.000000 0.002483 0.000000
# 4 0.000000 0.000000 0.000000 0.041162 0.000000 -0.003121
# 5 -0.006589 0.000472 0.002483 0.000000 0.046668 0.000000
# 6 0.000000 0.000000 0.000000 -0.003121 0.000000 0.056063
#
#
# Mechanical properties :
#
#
# Convention : Reuss Voigt Hill
#
# Bulk Modulus (GPa) = 68.30412 71.47780 69.89096
# Shear Modulus (GPa) = 24.30683 26.72725 25.51704
#
# Velocity S-wave (km/s) = 3.63063 3.80711 3.71992
# Velocity P-wave (km/s) = 7.39029 7.62152 7.50679
#
# Compressibility (1/GPa) = 0.01464041
#
# Stress axis : x y z
#
# Youngs Moduli (GPa) = 87.26518 76.37560 89.02277
#
# Poissons Ratio (x) = 0.19889 0.36836
# Poissons Ratio (y) = 0.22724 0.34103
# Poissons Ratio (z) = 0.36108 0.29258
#
# Static dielectric constant tensor:
#      x y z
#    x 3.561060 0.000000 0.175500 
#    y 0.000000 3.170560 0.000000 
#    z 0.175500 0.000000 3.462510 
# 
# 
# High freq. dielectric constant tensor:
#      x y z
#    x 1.704610 0.000000 0.009960 
#    y 0.000000 1.695500 0.000000 
#    z 0.009960 0.000000 1.720980 
# 
# From -- ./inp_files/108781.got.cif
#   From: 2010.06.25/outbox.cif.g09.slc.cpg/sg12_55_cif.got.tgz:108781.got - 2010.06.28 00:19:55.
