data_PCOD8115625
_publ_section_title
;
Structure prediction by ZEFSAII (Michael W. Deem and Ramdas Pophale) SiO2 
 PCOD8115625
Probable space group: C 2/M
;
_chemical_formula_sum "Si O2"
_cell_formula_units_Z 36
_cell_length_a 9.172471
_cell_length_b 26.081189
_cell_length_c 7.653843
_cell_angle_alpha 90.000000
_cell_angle_beta 67.870604
_cell_angle_gamma 90.000000
_cell_volume 1696.139561
_symmetry_space_group_name_H-M "C 2/M"
_symmetry_group_IT_number 12
_symmetry_cell_setting 'monoclinic'
loop_
_space_group_symop_operation_xyz
x,y,z
-x,y,-z
-x,-y,-z
x,-y,z
1/2+x,1/2+y,z
1/2-x,1/2+y,-z
1/2-x,1/2-y,-z
1/2+x,1/2-y,z
loop_
_atom_site_type_symbol
_atom_site_label
_atom_site_fract_x
_atom_site_fract_y
_atom_site_fract_z
Si Si1 0.707450 0.849848 0.771799
Si Si2 0.372232 0.557865 0.199660
Si Si3 0.365046 0.860734 0.807076
Si Si4 0.500000 0.590474 0.500000
Si Si5 0.670690 0.245966 0.354559
O O1 0.555731 0.858409 0.712999
O O2 0.748766 0.790646 0.796860
O O3 0.851931 0.874514 0.608202
O O4 0.680373 0.873611 0.973642
O O5 0.319268 0.500000 0.177843
O O6 0.216330 0.593785 0.267649
O O7 0.453484 0.556642 0.353574
O O8 0.500000 0.577836 0.000000
O O9 0.301710 0.806950 0.760872
O O10 0.500000 0.257957 0.500000
O O11 0.750000 0.250000 0.500000
#
# Coordination Sequence:
#
# PCOD8115625 Si02
#       5
#     8   8   8   4   8
#     4  11  24  43  67 100 137 177 224 270 336 401
#     4  11  25  47  72 101 133 173 224 284 343 396
#     4  11  25  44  65  98 137 178 223 280 333 396
#     4  12  23  44  74 102 134 174 225 276 334 406
#     4  12  23  39  64  97 138 179 221 269 327 399
#
# _framework density 21.224668000000001
#
# number of rings (size 3 to 8) (size 9 to 14) (size 15 to 20)
#    0.000    0.667    5.556    2.333    0.000    0.000 
#    4.000    5.556    0.000    0.000    0.000    0.000 
#    0.000    0.000    0.000    0.000    0.000    0.000 
#
# Total GULP energy -223052.535428 kJ/mol
# GULP energy per Si atom -12391.807524 kJ/mol
# Density = 2.117636 g / cm^3
# Si number density = 21.224668 Si / 1000 Ang^3
#
#
#
# Elastic Constant Matrix: (Units=GPa)
#
#
# Indices 1 2 3 4 5 6 
#
# 1 156.3187 64.2846 42.6339 0.0000 -2.0830 0.0000
# 2 64.2846 114.7221 17.2180 0.0000 -11.5230 0.0000
# 3 42.6339 17.2180 81.3769 0.0000 -1.1381 0.0000
# 4 0.0000 0.0000 0.0000 26.3179 0.0000 2.9905
# 5 -2.0830 -11.5230 -1.1381 0.0000 43.0602 0.0000
# 6 0.0000 0.0000 0.0000 2.9905 0.0000 30.8295
#
#
#
# Elastic Compliance Matrix: (Units=1/GPa)
#
#
# Indices 1 2 3 4 5 6 
#
# 1 0.009427 -0.004784 -0.003939 0.000000 -0.000928 0.000000
# 2 -0.004784 0.011677 0.000076 0.000000 0.002895 0.000000
# 3 -0.003939 0.000076 0.014339 0.000000 0.000209 0.000000
# 4 0.000000 0.000000 0.000000 0.038420 0.000000 -0.003727
# 5 -0.000928 0.002895 0.000209 0.000000 0.023959 0.000000
# 6 0.000000 0.000000 0.000000 -0.003727 0.000000 0.032798
#
#
# Mechanical properties :
#
#
# Convention : Reuss Voigt Hill
#
# Bulk Modulus (GPa) = 55.10212 66.74342 60.92277
# Shear Modulus (GPa) = 32.47510 35.26026 33.86768
#
# Velocity S-wave (km/s) = 3.91585 4.08031 3.99892
# Velocity P-wave (km/s) = 6.81637 7.32892 7.07728
#
# Compressibility (1/GPa) = 0.01814812
#
# Stress axis : x y z
#
# Youngs Moduli (GPa) = 106.08121 85.63886 69.73911
#
# Poissons Ratio (x) = 0.40972 0.27473
# Poissons Ratio (y) = 0.50752 -0.00533
# Poissons Ratio (z) = 0.41790 -0.00654
#
# Static dielectric constant tensor:
#      x y z
#    x 3.957730 0.000000 0.087460 
#    y 0.000000 3.525430 0.000000 
#    z 0.087460 0.000000 3.838660 
# 
# 
# High freq. dielectric constant tensor:
#      x y z
#    x 1.848010 0.000000 0.007060 
#    y 0.000000 1.818370 0.000000 
#    z 0.007060 0.000000 1.841800 
# 
# From -- ./inp_files/39066.got.cif
#   From: 2010.06.25/outbox.cif.g09.slc.cpg/sg12_20_cif.got.tgz:39066.got - 2010.06.28 00:19:55.
