data_PCOD8115372
_publ_section_title
;
Structure prediction by ZEFSAII (Michael W. Deem and Ramdas Pophale) SiO2 
 PCOD8115372
Probable space group: C 2/M
;
_chemical_formula_sum "Si O2"
_cell_formula_units_Z 56
_cell_length_a 18.136617
_cell_length_b 18.663033
_cell_length_c 8.946362
_cell_angle_alpha 90.000000
_cell_angle_beta 67.850538
_cell_angle_gamma 90.000000
_cell_volume 2804.732140
_symmetry_space_group_name_H-M "C 2/M"
_symmetry_group_IT_number 12
_symmetry_cell_setting 'monoclinic'
loop_
_space_group_symop_operation_xyz
x,y,z
-x,y,-z
-x,-y,-z
x,-y,z
1/2+x,1/2+y,z
1/2-x,1/2+y,-z
1/2-x,1/2-y,-z
1/2+x,1/2-y,z
loop_
_atom_site_type_symbol
_atom_site_label
_atom_site_fract_x
_atom_site_fract_y
_atom_site_fract_z
Si Si1 0.549111 0.578467 0.111460
Si Si2 0.807457 0.830956 0.087315
Si Si3 0.006897 0.341450 0.671769
Si Si4 0.351093 0.824818 0.980311
Si Si5 0.453291 0.313550 0.384039
Si Si6 0.777884 0.169711 0.454624
Si Si7 0.855394 0.584104 0.274463
O O1 0.555810 0.500000 0.182049
O O2 0.503185 0.631487 0.252113
O O3 0.500000 0.572502 0.000000
O O4 0.637347 0.605244 0.010886
O O5 0.731831 0.833530 0.039487
O O6 0.782734 0.846199 0.275706
O O7 0.856054 0.756319 0.038473
O O8 0.048703 0.266070 0.684591
O O9 0.061790 0.402684 0.701978
O O10 0.000000 0.354652 0.500000
O O11 0.919589 0.342489 0.809607
O O12 0.357774 0.879561 0.111051
O O13 0.500000 0.304945 0.500000
O O14 0.363188 0.341255 0.470138
O O15 0.750000 0.250000 0.500000
O O16 0.717943 0.113790 0.573348
O O17 0.843592 0.500000 0.261169
#
# Coordination Sequence:
#
# PCOD8115372 Si02
#       7
#     8   8   8   8   8   8   8
#     4  11  24  42  63  95 131 169 213 267 332 389
#     4  11  23  41  69  99 130 173 223 272 328 391
#     4  11  23  43  72 102 129 173 228 275 328 401
#     4  11  24  40  70 101 130 171 225 273 328 399
#     4  11  24  39  69 100 130 171 225 270 325 392
#     4  12  23  42  69  97 132 176 220 270 327 399
#     4  12  28  45  66  99 138 176 219 280 339 391
#
# _framework density 19.966256000000001
#
# number of rings (size 3 to 8) (size 9 to 14) (size 15 to 20)
#    0.000    0.714    5.714    1.286    4.000    3.429 
#    0.000    1.429    0.000    0.000    0.000    0.000 
#    0.000    0.000    0.000    0.000    0.000    0.000 
#
# Total GULP energy -347286.493303 kJ/mol
# GULP energy per Si atom -12403.089047 kJ/mol
# Density = 1.992081 g / cm^3
# Si number density = 19.966256 Si / 1000 Ang^3
#
#
#
# Elastic Constant Matrix: (Units=GPa)
#
#
# Indices 1 2 3 4 5 6 
#
# 1 93.0939 24.6156 51.3446 0.0000 5.2572 0.0000
# 2 24.6156 108.2328 51.2502 0.0000 12.3820 0.0000
# 3 51.3446 51.2502 127.7364 0.0000 -16.7931 0.0000
# 4 0.0000 0.0000 0.0000 -2.5125 0.0000 -11.7492
# 5 5.2572 12.3820 -16.7931 0.0000 23.5903 0.0000
# 6 0.0000 0.0000 0.0000 -11.7492 0.0000 23.7506
#
#
#
# Elastic Compliance Matrix: (Units=1/GPa)
#
#
# Indices 1 2 3 4 5 6 
#
# 1 0.015367 0.001464 -0.008071 0.000000 -0.009938 0.000000
# 2 0.001464 0.014309 -0.008119 0.000000 -0.013616 0.000000
# 3 -0.008071 -0.008119 0.016689 0.000000 0.017941 0.000000
# 4 0.000000 0.000000 0.000000 -0.120124 0.000000 -0.059424
# 5 -0.009938 -0.013616 0.017941 0.000000 0.064523 0.000000
# 6 0.000000 0.000000 0.000000 -0.059424 0.000000 0.012708
#
#
# Mechanical properties :
#
#
# Convention : Reuss Voigt Hill
#
# Bulk Modulus (GPa) = 59.12944 64.83155 61.98049
# Shear Modulus (GPa) = 129.65813 22.42252 76.04033
#
# Velocity S-wave (km/s) = 8.06719 3.35479 6.17795
# Velocity P-wave (km/s) = 10.79128 6.89545 9.05536
#
# Compressibility (1/GPa) = 0.01691205
#
# Stress axis : x y z
#
# Youngs Moduli (GPa) = 65.07268 69.88648 59.91971
#
# Poissons Ratio (x) = -0.10229 0.48360
# Poissons Ratio (y) = -0.09524 0.48651
# Poissons Ratio (z) = 0.52519 0.56744
#
# Static dielectric constant tensor:
#      x y z
#    x 3.752320 0.000000 -0.042090 
#    y 0.000000 11.896110 0.000000 
#    z -0.042090 0.000000 3.392270 
# 
# 
# High freq. dielectric constant tensor:
#      x y z
#    x 1.796220 0.000000 -0.004180 
#    y 0.000000 1.772790 0.000000 
#    z -0.004180 0.000000 1.790150 
# 
# From -- ./inp_files/75873.got.cif
#   From: 2010.06.25/outbox.cif.g09.slc.cpg/sg12_38_cif.got.tgz:75873.got - 2010.06.28 00:19:55.
