data_PCOD8115938
_publ_section_title
;
Structure prediction by ZEFSAII (Michael W. Deem and Ramdas Pophale) SiO2 
 PCOD8115938
Probable space group: C 2/M
;
_chemical_formula_sum "Si O2"
_cell_formula_units_Z 28
_cell_length_a 9.268714
_cell_length_b 32.255541
_cell_length_c 4.959679
_cell_angle_alpha 90.000000
_cell_angle_beta 122.906529
_cell_angle_gamma 90.000000
_cell_volume 1244.881652
_symmetry_space_group_name_H-M "C 2/M"
_symmetry_group_IT_number 12
_symmetry_cell_setting 'monoclinic'
loop_
_space_group_symop_operation_xyz
x,y,z
-x,y,-z
-x,-y,-z
x,-y,z
1/2+x,1/2+y,z
1/2-x,1/2+y,-z
1/2-x,1/2-y,-z
1/2+x,1/2-y,z
loop_
_atom_site_type_symbol
_atom_site_label
_atom_site_fract_x
_atom_site_fract_y
_atom_site_fract_z
Si Si1 0.691180 0.418100 0.089362
Si Si2 0.622319 0.711878 0.377980
Si Si3 0.193355 0.371556 0.292387
Si Si4 0.123247 0.500000 0.871230
O O1 0.806416 0.405257 0.464878
O O2 0.756658 0.459845 0.015168
O O3 0.500000 0.424414 0.000000
O O4 0.692501 0.384137 0.851468
O O5 0.500000 0.719587 0.500000
O O6 0.750000 0.750000 0.500000
O O7 0.733907 0.670518 0.512255
O O8 0.500000 0.708588 0.000000
O O9 0.000000 0.365366 0.000000
O O10 0.000000 0.500000 0.500000
O O11 0.000000 0.500000 0.000000
#
# Coordination Sequence:
#
# PCOD8115938 Si02
#       4
#     8   8   8   4
#     4  12  25  44  69  99 134 176 224 278 334 395
#     4  12  26  46  70 101 137 177 222 275 332 396
#     4  12  25  44  69  99 134 177 224 275 333 397
#     4  12  25  44  67  98 135 176 223 276 333 396
#
# _framework density 22.492097000000001
#
# number of rings (size 3 to 8) (size 9 to 14) (size 15 to 20)
#    0.000    0.000    0.000   12.429    0.000    2.286 
#    0.000    4.286    0.000    0.000    0.000    0.000 
#    0.000    0.000    0.000    0.000    0.000    0.000 
#
# Total GULP energy -173683.961186 kJ/mol
# GULP energy per Si atom -12405.997228 kJ/mol
# Density = 2.244090 g / cm^3
# Si number density = 22.492097 Si / 1000 Ang^3
#
#
#
# Elastic Constant Matrix: (Units=GPa)
#
#
# Indices 1 2 3 4 5 6 
#
# 1 187.3376 88.9610 79.0698 0.0000 -9.3069 0.0000
# 2 88.9610 150.7589 79.9386 0.0000 10.9964 0.0000
# 3 79.0698 79.9386 194.9135 0.0000 -2.0676 0.0000
# 4 0.0000 0.0000 0.0000 38.3560 0.0000 0.6691
# 5 -9.3069 10.9964 -2.0676 0.0000 50.2977 0.0000
# 6 0.0000 0.0000 0.0000 0.6691 0.0000 45.7057
#
#
#
# Elastic Compliance Matrix: (Units=1/GPa)
#
#
# Indices 1 2 3 4 5 6 
#
# 1 0.008058 -0.004095 -0.001565 0.000000 0.002322 0.000000
# 2 -0.004095 0.010762 -0.002787 0.000000 -0.003225 0.000000
# 3 -0.001565 -0.002787 0.006915 0.000000 0.000604 0.000000
# 4 0.000000 0.000000 0.000000 0.026078 0.000000 -0.000382
# 5 0.002322 -0.003225 0.000604 0.000000 0.021041 0.000000
# 6 0.000000 0.000000 0.000000 -0.000382 0.000000 0.021885
#
#
# Mechanical properties :
#
#
# Convention : Reuss Voigt Hill
#
# Bulk Modulus (GPa) = 113.09639 114.32763 113.71201
# Shear Modulus (GPa) = 43.63753 45.87459 44.75606
#
# Velocity S-wave (km/s) = 4.40947 4.52108 4.46562
# Velocity P-wave (km/s) = 8.73593 8.84274 8.78949
#
# Compressibility (1/GPa) = 0.00884201
#
# Stress axis : x y z
#
# Youngs Moduli (GPa) = 124.09602 92.91656 144.61705
#
# Poissons Ratio (x) = 0.38046 0.22633
# Poissons Ratio (y) = 0.50812 0.40306
# Poissons Ratio (z) = 0.19422 0.25896
#
# Static dielectric constant tensor:
#      x y z
#    x 4.303780 0.000000 -0.243240 
#    y 0.000000 4.227600 0.000000 
#    z -0.243240 0.000000 4.441010 
# 
# 
# High freq. dielectric constant tensor:
#      x y z
#    x 1.910050 0.000000 -0.005320 
#    y 0.000000 1.897020 0.000000 
#    z -0.005320 0.000000 1.909680 
# 
# From -- ./inp_files/3984.got.cif
#   From: 2010.06.25/outbox.cif.g09.slc.cpg/sg12_2_cif.got.tgz:3984.got - 2010.06.28 00:19:55.
