data_PCOD8115381
_publ_section_title
;
Structure prediction by ZEFSAII (Michael W. Deem and Ramdas Pophale) SiO2 
 PCOD8115381
Probable space group: C 2/M
;
_chemical_formula_sum "Si O2"
_cell_formula_units_Z 52
_cell_length_a 7.828321
_cell_length_b 19.416558
_cell_length_c 20.066355
_cell_angle_alpha 90.000000
_cell_angle_beta 126.953845
_cell_angle_gamma 90.000000
_cell_volume 2437.369582
_symmetry_space_group_name_H-M "C 2/M"
_symmetry_group_IT_number 12
_symmetry_cell_setting 'monoclinic'
loop_
_space_group_symop_operation_xyz
x,y,z
-x,y,-z
-x,-y,-z
x,-y,z
1/2+x,1/2+y,z
1/2-x,1/2+y,-z
1/2-x,1/2-y,-z
1/2+x,1/2-y,z
loop_
_atom_site_type_symbol
_atom_site_label
_atom_site_fract_x
_atom_site_fract_y
_atom_site_fract_z
Si Si1 0.328107 0.832754 0.204400
Si Si2 0.351105 0.580886 0.524752
Si Si3 0.883074 0.183366 0.171902
Si Si4 0.000000 0.363477 0.000000
Si Si5 0.969515 0.423406 0.350950
Si Si6 0.007663 0.923281 0.302170
Si Si7 0.751478 0.078614 0.938212
O O1 0.417056 0.756174 0.215570
O O2 0.486695 0.870572 0.293574
O O3 0.354108 0.872277 0.141095
O O4 0.083433 0.833314 0.171707
O O5 0.500000 0.605580 0.500000
O O6 0.357229 0.500000 0.539416
O O7 0.440642 0.613040 0.614441
O O8 0.111337 0.603283 0.447022
O O9 0.665772 0.185619 0.077923
O O10 0.853887 0.125505 0.222624
O O11 0.135656 0.411217 0.981962
O O12 0.053997 0.500000 0.349110
O O13 0.728054 0.429663 0.315388
O O14 0.903951 0.000000 0.283348
O O15 0.722645 0.000000 0.908537
O O16 0.000000 0.097743 0.000000
#
# Coordination Sequence:
#
# PCOD8115381 Si02
#       7
#     8   8   8   4   8   8   8
#     4  11  23  42  61  89 125 162 207 255 307 373
#     4   9  17  30  54  87 120 150 190 244 302 363
#     4  11  25  40  63  88 121 165 211 254 314 369
#     4  12  25  44  66  92 123 166 210 260 311 376
#     4   9  18  35  61  87 116 158 198 243 305 366
#     4   9  19  37  59  85 118 154 199 251 302 367
#     4  11  24  42  66  94 125 158 203 258 310 366
#
# _framework density 21.334474
#
# number of rings (size 3 to 8) (size 9 to 14) (size 15 to 20)
#    0.000    1.846    1.538    2.077    1.077    7.385 
#    0.000    2.308    0.000    0.000    0.000    0.000 
#    0.000    0.000    0.000    0.000    0.000    0.000 
#
# Total GULP energy -322362.474971 kJ/mol
# GULP energy per Si atom -12398.556730 kJ/mol
# Density = 2.128592 g / cm^3
# Si number density = 21.334474 Si / 1000 Ang^3
#
#
#
# Elastic Constant Matrix: (Units=GPa)
#
#
# Indices 1 2 3 4 5 6 
#
# 1 69.4659 17.2761 31.9946 0.0000 -15.0628 0.0000
# 2 17.2761 103.0935 60.6414 0.0000 -16.5954 0.0000
# 3 31.9946 60.6414 143.7239 0.0000 -18.3084 0.0000
# 4 0.0000 0.0000 0.0000 20.1357 0.0000 -4.0954
# 5 -15.0628 -16.5954 -18.3084 0.0000 34.4581 0.0000
# 6 0.0000 0.0000 0.0000 -4.0954 0.0000 24.2583
#
#
#
# Elastic Compliance Matrix: (Units=1/GPa)
#
#
# Indices 1 2 3 4 5 6 
#
# 1 0.017071 -0.000169 -0.002991 0.000000 0.005792 0.000000
# 2 -0.000169 0.013325 -0.005123 0.000000 0.003621 0.000000
# 3 -0.002991 -0.005123 0.009980 0.000000 0.001528 0.000000
# 4 0.000000 0.000000 0.000000 0.051429 0.000000 0.008682
# 5 0.005792 0.003621 0.001528 0.000000 0.034108 0.000000
# 6 0.000000 0.000000 0.000000 0.008682 0.000000 0.042689
#
#
# Mechanical properties :
#
#
# Convention : Reuss Voigt Hill
#
# Bulk Modulus (GPa) = 42.00069 59.56751 50.78410
# Shear Modulus (GPa) = 25.89267 29.52849 27.71058
#
# Velocity S-wave (km/s) = 3.48753 3.72435 3.60789
# Velocity P-wave (km/s) = 5.99556 6.81731 6.41960
#
# Compressibility (1/GPa) = 0.02380913
#
# Stress axis : x y z
#
# Youngs Moduli (GPa) = 58.57857 75.04828 100.20169
#
# Poissons Ratio (x) = 0.01268 0.29972
# Poissons Ratio (y) = 0.00990 0.51335
# Poissons Ratio (z) = 0.17522 0.38449
#
# Static dielectric constant tensor:
#      x y z
#    x 3.802180 0.000000 -0.124790 
#    y 0.000000 3.755430 0.000000 
#    z -0.124790 0.000000 4.047350 
# 
# 
# High freq. dielectric constant tensor:
#      x y z
#    x 1.839540 0.000000 -0.004970 
#    y 0.000000 1.806250 0.000000 
#    z -0.004970 0.000000 1.847440 
# 
# From -- ./inp_files/301182.got.cif
#   From: 2010.06.25/outbox.cif.g09.slc.cpg/sg12_151_cif.got.tgz:301182.got - 2010.06.28 00:19:55.
