data_PCOD8115654
_publ_section_title
;
Structure prediction by ZEFSAII (Michael W. Deem and Ramdas Pophale) SiO2 
 PCOD8115654
Probable space group: C 2/M
;
_chemical_formula_sum "Si O2"
_cell_formula_units_Z 40
_cell_length_a 9.457073
_cell_length_b 9.352231
_cell_length_c 21.065180
_cell_angle_alpha 90.000000
_cell_angle_beta 89.941775
_cell_angle_gamma 90.000000
_cell_volume 1863.103222
_symmetry_space_group_name_H-M "C 2/M"
_symmetry_group_IT_number 12
_symmetry_cell_setting 'monoclinic'
loop_
_space_group_symop_operation_xyz
x,y,z
-x,y,-z
-x,-y,-z
x,-y,z
1/2+x,1/2+y,z
1/2-x,1/2+y,-z
1/2-x,1/2-y,-z
1/2+x,1/2-y,z
loop_
_atom_site_type_symbol
_atom_site_label
_atom_site_fract_x
_atom_site_fract_y
_atom_site_fract_z
Si Si1 0.460743 0.330659 0.234647
Si Si2 0.652979 0.500000 0.081500
Si Si3 0.766442 0.335143 0.435204
Si Si4 0.543210 0.834907 0.359192
Si Si5 0.206301 0.266467 0.152531
Si Si6 0.821072 0.000000 0.068039
O O1 0.499566 0.500000 0.240554
O O2 0.478046 0.249846 0.300496
O O3 0.299789 0.308329 0.213418
O O4 0.549272 0.247998 0.180644
O O5 0.739533 0.622741 0.115795
O O6 0.482465 0.500000 0.095138
O O7 0.680161 0.500000 0.007075
O O8 0.713394 0.500000 0.442290
O O9 0.750000 0.250000 0.500000
O O10 0.680647 0.251611 0.381051
O O11 0.930400 0.334387 0.416137
O O12 0.581783 0.000000 0.341486
O O13 0.227308 0.372476 0.094516
#
# Coordination Sequence:
#
# PCOD8115654 Si02
#       6
#     8   4   8   8   8   4
#     4  12  26  44  65  93 137 170 219 272 326 392
#     4  11  24  45  67  95 135 165 214 276 327 392
#     4  11  24  44  69 100 138 174 221 273 326 385
#     4  11  26  43  66 101 130 177 224 272 323 388
#     4  12  22  45  65  96 126 175 213 271 330 390
#     4  11  24  45  67  97 131 169 214 272 331 394
#
# _framework density 21.469556999999998
#
# number of rings (size 3 to 8) (size 9 to 14) (size 15 to 20)
#    0.000    0.600    4.000    3.600    2.800    8.800 
#    0.000    1.000    0.000    0.000    0.000    0.000 
#    0.000    0.000    0.000    0.000    0.000    0.000 
#
# Total GULP energy -247868.155676 kJ/mol
# GULP energy per Si atom -12393.407784 kJ/mol
# Density = 2.142069 g / cm^3
# Si number density = 21.469557 Si / 1000 Ang^3
#
#
#
# Elastic Constant Matrix: (Units=GPa)
#
#
# Indices 1 2 3 4 5 6 
#
# 1 42.6465 30.9099 0.0763 0.0000 -3.9221 0.0000
# 2 30.9099 171.2293 43.8955 0.0000 -6.6579 0.0000
# 3 0.0763 43.8955 91.5603 0.0000 -1.6088 0.0000
# 4 0.0000 0.0000 0.0000 40.6730 0.0000 3.3831
# 5 -3.9221 -6.6579 -1.6088 0.0000 34.2353 0.0000
# 6 0.0000 0.0000 0.0000 3.3831 0.0000 34.0574
#
#
#
# Elastic Compliance Matrix: (Units=1/GPa)
#
#
# Indices 1 2 3 4 5 6 
#
# 1 0.027713 -0.005610 0.002705 0.000000 0.002211 0.000000
# 2 -0.005610 0.007839 -0.003741 0.000000 0.000706 0.000000
# 3 0.002705 -0.003741 0.012716 0.000000 0.000180 0.000000
# 4 0.000000 0.000000 0.000000 0.024791 0.000000 -0.002463
# 5 0.002211 0.000706 0.000180 0.000000 0.029609 0.000000
# 6 0.000000 0.000000 0.000000 -0.002463 0.000000 0.029607
#
#
# Mechanical properties :
#
#
# Convention : Reuss Voigt Hill
#
# Bulk Modulus (GPa) = 28.59037 50.57772 39.58405
# Shear Modulus (GPa) = 31.80113 37.16343 34.48228
#
# Velocity S-wave (km/s) = 3.85284 4.16502 4.01197
# Velocity P-wave (km/s) = 5.75657 6.83658 6.31969
#
# Compressibility (1/GPa) = 0.03497681
#
# Stress axis : x y z
#
# Youngs Moduli (GPa) = 36.08358 127.56027 78.63925
#
# Poissons Ratio (x) = 0.71566 -0.21275
# Poissons Ratio (y) = 0.20244 0.29421
# Poissons Ratio (z) = -0.09762 0.47724
#
# Static dielectric constant tensor:
#      x y z
#    x 3.852370 0.000000 -0.011420 
#    y 0.000000 4.137110 0.000000 
#    z -0.011420 0.000000 3.936960 
# 
# 
# High freq. dielectric constant tensor:
#      x y z
#    x 1.835210 0.000000 -0.005990 
#    y 0.000000 1.861730 0.000000 
#    z -0.005990 0.000000 1.859450 
# 
# From -- ./inp_files/331767.got.cif
#   From: 2010.06.25/outbox.cif.g09.slc.cpg/sg12_166_cif.got.tgz:331767.got - 2010.06.28 00:19:55.
