data_PCOD8115411
_publ_section_title
;
Structure prediction by ZEFSAII (Michael W. Deem and Ramdas Pophale) SiO2 
 PCOD8115411
Probable space group: C 2/M
;
_chemical_formula_sum "Si O2"
_cell_formula_units_Z 40
_cell_length_a 19.030471
_cell_length_b 8.515345
_cell_length_c 12.009293
_cell_angle_alpha 90.000000
_cell_angle_beta 77.710933
_cell_angle_gamma 90.000000
_cell_volume 1901.525301
_symmetry_space_group_name_H-M "C 2/M"
_symmetry_group_IT_number 12
_symmetry_cell_setting 'monoclinic'
loop_
_space_group_symop_operation_xyz
x,y,z
-x,y,-z
-x,-y,-z
x,-y,z
1/2+x,1/2+y,z
1/2-x,1/2+y,-z
1/2-x,1/2-y,-z
1/2+x,1/2-y,z
loop_
_atom_site_type_symbol
_atom_site_label
_atom_site_fract_x
_atom_site_fract_y
_atom_site_fract_z
Si Si1 0.172842 0.818775 0.547630
Si Si2 0.049786 0.182194 0.182327
Si Si3 0.573547 0.178219 0.411663
Si Si4 0.673170 0.817092 0.990998
Si Si5 0.600881 0.180879 0.788424
O O1 0.250000 0.750000 0.500000
O O2 0.130422 0.796335 0.446798
O O3 0.134010 0.726636 0.659390
O O4 0.177098 0.000000 0.578871
O O5 0.063754 0.283963 0.286549
O O6 0.970975 0.220829 0.160085
O O7 0.053860 0.000000 0.211395
O O8 0.110341 0.223321 0.073000
O O9 0.500000 0.204190 0.500000
O O10 0.601301 0.000000 0.414400
O O11 0.660756 0.790330 0.863406
O O12 0.669336 0.000000 0.023995
O O13 0.750000 0.750000 0.000000
O O14 0.577637 0.000000 0.791633
#
# Coordination Sequence:
#
# PCOD8115411 Si02
#       5
#     8   8   8   8   8
#     4  12  26  43  67  98 136 176 218 269 328 391
#     4  12  25  42  69 100 133 172 219 270 327 395
#     4  11  23  42  69  98 133 173 218 269 324 387
#     4  11  26  46  69  96 132 172 219 274 330 389
#     4  11  24  45  69  96 131 173 222 272 326 387
#
# _framework density 21.035744999999999
#
# number of rings (size 3 to 8) (size 9 to 14) (size 15 to 20)
#    0.000    0.600    2.000    6.000    2.800    6.400 
#    0.000    0.000    0.000    0.000    0.000    0.000 
#    0.000    0.000    0.000    0.000    0.000    0.000 
#
# Total GULP energy -248139.027866 kJ/mol
# GULP energy per Si atom -12406.951393 kJ/mol
# Density = 2.098787 g / cm^3
# Si number density = 21.035745 Si / 1000 Ang^3
#
#
#
# Elastic Constant Matrix: (Units=GPa)
#
#
# Indices 1 2 3 4 5 6 
#
# 1 137.8159 44.0351 43.1511 0.0000 -0.0758 0.0000
# 2 44.0351 79.5344 15.6645 0.0000 -1.6352 0.0000
# 3 43.1511 15.6645 69.0893 0.0000 6.0735 0.0000
# 4 0.0000 0.0000 0.0000 40.3384 0.0000 -5.3224
# 5 -0.0758 -1.6352 6.0735 0.0000 40.4876 0.0000
# 6 0.0000 0.0000 0.0000 -5.3224 0.0000 48.0748
#
#
#
# Elastic Compliance Matrix: (Units=1/GPa)
#
#
# Indices 1 2 3 4 5 6 
#
# 1 0.010497 -0.004706 -0.005547 0.000000 0.000662 0.000000
# 2 -0.004706 0.015310 -0.000594 0.000000 0.000699 0.000000
# 3 -0.005547 -0.000594 0.018318 0.000000 -0.002782 0.000000
# 4 0.000000 0.000000 0.000000 0.025158 0.000000 0.002785
# 5 0.000662 0.000699 -0.002782 0.000000 0.025146 0.000000
# 6 0.000000 0.000000 0.000000 0.002785 0.000000 0.021109
#
#
# Mechanical properties :
#
#
# Convention : Reuss Voigt Hill
#
# Bulk Modulus (GPa) = 44.58013 54.68233 49.63123
# Shear Modulus (GPa) = 34.55252 38.01942 36.28597
#
# Velocity S-wave (km/s) = 4.05725 4.25593 4.15778
# Velocity P-wave (km/s) = 6.57168 7.08534 6.83334
#
# Compressibility (1/GPa) = 0.02243152
#
# Stress axis : x y z
#
# Youngs Moduli (GPa) = 95.26682 65.31794 54.59157
#
# Poissons Ratio (x) = 0.30736 0.30284
# Poissons Ratio (y) = 0.44828 0.03241
# Poissons Ratio (z) = 0.52847 0.03877
#
# Static dielectric constant tensor:
#      x y z
#    x 4.095160 0.000000 0.276240 
#    y 0.000000 3.927200 0.000000 
#    z 0.276240 0.000000 4.044910 
# 
# 
# High freq. dielectric constant tensor:
#      x y z
#    x 1.835240 0.000000 0.005210 
#    y 0.000000 1.838340 0.000000 
#    z 0.005210 0.000000 1.832740 
# 
# From -- ./inp_files/151688.got.cif
#   From: 2010.06.25/outbox.cif.g09.slc.cpg/sg12_76_cif.got.tgz:151688.got - 2010.06.28 00:19:55.
