data_PCOD8115655
_publ_section_title
;
Structure prediction by ZEFSAII (Michael W. Deem and Ramdas Pophale) SiO2 
 PCOD8115655
Probable space group: C 2/M
;
_chemical_formula_sum "Si O2"
_cell_formula_units_Z 56
_cell_length_a 17.169355
_cell_length_b 27.194160
_cell_length_c 8.440919
_cell_angle_alpha 90.000000
_cell_angle_beta 39.701658
_cell_angle_gamma 90.000000
_cell_volume 2517.546645
_symmetry_space_group_name_H-M "C 2/M"
_symmetry_group_IT_number 12
_symmetry_cell_setting 'monoclinic'
loop_
_space_group_symop_operation_xyz
x,y,z
-x,y,-z
-x,-y,-z
x,-y,z
1/2+x,1/2+y,z
1/2-x,1/2+y,-z
1/2-x,1/2-y,-z
1/2+x,1/2-y,z
loop_
_atom_site_type_symbol
_atom_site_label
_atom_site_fract_x
_atom_site_fract_y
_atom_site_fract_z
Si Si1 0.378808 0.074971 0.752667
Si Si2 0.978021 0.824935 0.719036
Si Si3 0.330252 0.500000 0.900143
Si Si4 0.833947 0.106969 0.425160
Si Si5 0.401199 0.132387 0.023141
Si Si6 0.900794 0.000000 0.424839
Si Si7 0.758670 0.347884 0.741246
Si Si8 0.028683 0.715771 0.640245
O O1 0.500000 0.046466 0.500000
O O2 0.403383 0.087842 0.895924
O O3 0.365437 0.123081 0.665176
O O4 0.252052 0.046764 0.930781
O O5 0.000000 0.834779 0.500000
O O6 0.039784 0.868216 0.722237
O O7 0.026124 0.772091 0.702097
O O8 0.834542 0.827456 0.981790
O O9 0.364461 0.500000 0.663853
O O10 0.451394 0.500000 0.818947
O O11 0.844442 0.048084 0.429022
O O12 0.807971 0.117997 0.282669
O O13 0.732064 0.133042 0.692214
O O14 0.430006 0.184795 0.896066
O O15 0.500000 0.118744 0.000000
O O16 0.833993 0.303666 0.540327
O O17 0.000000 0.714114 0.500000
#
# Coordination Sequence:
#
# PCOD8115655 Si02
#       8
#     8   8   4   8   8   4   8   8
#     4  12  22  44  69  99 140 179 237 290 351 416
#     4  11  28  43  70 103 139 186 237 288 347 419
#     4  11  25  41  71 101 134 185 235 290 349 419
#     4  12  26  46  71 103 141 185 234 294 348 415
#     4  12  22  42  70 102 138 184 227 289 351 412
#     4  11  26  47  71 103 140 185 236 288 356 409
#     4  12  24  46  70 100 143 182 232 289 348 420
#     4  11  24  44  69 101 141 189 226 287 352 414
#
# _framework density 22.243877999999999
#
# number of rings (size 3 to 8) (size 9 to 14) (size 15 to 20)
#    0.000    0.429    5.714    2.357    4.000    3.429 
#    0.000    5.000    0.000    0.000    0.000    0.000 
#    0.000    0.000    0.000    0.000    0.000    0.000 
#
# Total GULP energy -347267.354433 kJ/mol
# GULP energy per Si atom -12402.405515 kJ/mol
# Density = 2.219325 g / cm^3
# Si number density = 22.243878 Si / 1000 Ang^3
#
#
#
# Elastic Constant Matrix: (Units=GPa)
#
#
# Indices 1 2 3 4 5 6 
#
# 1 98.5524 35.5006 22.0367 0.0000 2.9744 0.0000
# 2 35.5006 128.7323 37.2641 0.0000 -3.3760 0.0000
# 3 22.0367 37.2641 139.5941 0.0000 -13.5374 0.0000
# 4 0.0000 0.0000 0.0000 29.2247 0.0000 -8.2620
# 5 2.9744 -3.3760 -13.5374 0.0000 37.8730 0.0000
# 6 0.0000 0.0000 0.0000 -8.2620 0.0000 31.7257
#
#
#
# Elastic Compliance Matrix: (Units=1/GPa)
#
#
# Indices 1 2 3 4 5 6 
#
# 1 0.011496 -0.002863 -0.001204 0.000000 -0.001589 0.000000
# 2 -0.002863 0.009132 -0.001953 0.000000 0.000341 0.000000
# 3 -0.001204 -0.001953 0.008150 0.000000 0.002834 0.000000
# 4 0.000000 0.000000 0.000000 0.036937 0.000000 0.009619
# 5 -0.001589 0.000341 0.002834 0.000000 0.027572 0.000000
# 6 0.000000 0.000000 0.000000 0.009619 0.000000 0.034025
#
#
# Mechanical properties :
#
#
# Convention : Reuss Voigt Hill
#
# Bulk Modulus (GPa) = 59.74921 61.83129 60.79025
# Shear Modulus (GPa) = 34.49921 37.90317 36.20119
#
# Velocity S-wave (km/s) = 3.94249 4.13241 4.03856
# Velocity P-wave (km/s) = 6.90243 7.11522 7.00964
#
# Compressibility (1/GPa) = 0.01673662
#
# Stress axis : x y z
#
# Youngs Moduli (GPa) = 86.99049 109.50749 122.70212
#
# Poissons Ratio (x) = 0.31353 0.14779
# Poissons Ratio (y) = 0.24906 0.23959
# Poissons Ratio (z) = 0.10478 0.21383
#
# Static dielectric constant tensor:
#      x y z
#    x 3.903990 0.000000 -0.041940 
#    y 0.000000 4.009180 0.000000 
#    z -0.041940 0.000000 4.198840 
# 
# 
# High freq. dielectric constant tensor:
#      x y z
#    x 1.873530 0.000000 -0.004690 
#    y 0.000000 1.870200 0.000000 
#    z -0.004690 0.000000 1.896950 
# 
# From -- ./inp_files/80045.got.cif
#   From: 2010.06.25/outbox.cif.g09.slc.cpg/sg12_41_cif.got.tgz:80045.got - 2010.06.28 00:19:55.
