data_PCOD8115017
_publ_section_title
;
Structure prediction by ZEFSAII (Michael W. Deem and Ramdas Pophale) SiO2 
 PCOD8115017
Probable space group: C 2/M
;
_chemical_formula_sum "Si O2"
_cell_formula_units_Z 52
_cell_length_a 18.901569
_cell_length_b 29.406649
_cell_length_c 8.974210
_cell_angle_alpha 90.000000
_cell_angle_beta 146.717738
_cell_angle_gamma 90.000000
_cell_volume 2737.318069
_symmetry_space_group_name_H-M "C 2/M"
_symmetry_group_IT_number 12
_symmetry_cell_setting 'monoclinic'
loop_
_space_group_symop_operation_xyz
x,y,z
-x,y,-z
-x,-y,-z
x,-y,z
1/2+x,1/2+y,z
1/2-x,1/2+y,-z
1/2-x,1/2-y,-z
1/2+x,1/2-y,z
loop_
_atom_site_type_symbol
_atom_site_label
_atom_site_fract_x
_atom_site_fract_y
_atom_site_fract_z
Si Si1 0.500000 0.882762 0.500000
Si Si2 0.304937 0.949648 0.596281
Si Si3 0.367291 0.716881 0.680282
Si Si4 0.251966 0.176712 0.110904
Si Si5 0.431336 0.949137 0.114434
Si Si6 0.629071 0.271580 0.644710
Si Si7 0.859431 0.871071 0.814300
O O1 0.614779 0.850811 0.646590
O O2 0.439721 0.913702 0.263637
O O3 0.438786 0.950824 0.748279
O O4 0.218012 0.916817 0.345338
O O5 0.242705 0.000000 0.484030
O O6 0.322213 0.934429 0.800424
O O7 0.250000 0.750000 0.500000
O O8 0.410474 0.711552 0.586659
O O9 0.303323 0.669422 0.615793
O O10 0.500000 0.729549 0.000000
O O11 0.274976 0.228562 0.208172
O O12 0.150184 0.147927 0.032173
O O13 0.194572 0.185079 0.844331
O O14 0.400811 0.000000 0.123359
O O15 0.500000 0.255046 0.500000
O O16 0.000000 0.881467 0.000000
#
# Coordination Sequence:
#
# PCOD8115017 Si02
#       7
#     4   8   8   8   8   8   8
#     4  12  21  36  60  94 120 148 208 246 293 366
#     4   9  19  38  61  89 119 155 198 243 306 366
#     4  11  24  40  62  89 121 158 208 253 303 357
#     4  11  24  38  58  90 116 159 204 240 300 359
#     4   9  19  36  60  88 123 154 185 249 314 356
#     4  11  23  42  60  79 124 162 197 248 305 355
#     4  11  22  41  60  86 121 157 206 250 293 363
#
# _framework density 18.996696
#
# number of rings (size 3 to 8) (size 9 to 14) (size 15 to 20)
#    0.000    1.538    3.846    3.000    4.308    0.308 
#    2.769    0.000    0.000    0.000    0.000    2.154 
#    0.000    0.000    0.000    0.000    0.000    0.000 
#
# Total GULP energy -322128.710945 kJ/mol
# GULP energy per Si atom -12389.565806 kJ/mol
# Density = 1.895346 g / cm^3
# Si number density = 18.996696 Si / 1000 Ang^3
#
#
#
# Elastic Constant Matrix: (Units=GPa)
#
#
# Indices 1 2 3 4 5 6 
#
# 1 82.8534 27.6057 37.0635 0.0000 -15.0917 0.0000
# 2 27.6057 104.8090 48.8218 0.0000 -10.4646 0.0000
# 3 37.0635 48.8218 92.7900 0.0000 -16.3198 0.0000
# 4 0.0000 0.0000 0.0000 31.2459 0.0000 -6.8666
# 5 -15.0917 -10.4646 -16.3198 0.0000 38.6043 0.0000
# 6 0.0000 0.0000 0.0000 -6.8666 0.0000 14.1321
#
#
#
# Elastic Compliance Matrix: (Units=1/GPa)
#
#
# Indices 1 2 3 4 5 6 
#
# 1 0.015325 -0.001484 -0.004708 0.000000 0.003599 0.000000
# 2 -0.001484 0.012798 -0.006085 0.000000 0.000316 0.000000
# 3 -0.004708 -0.006085 0.016470 0.000000 0.003473 0.000000
# 4 0.000000 0.000000 0.000000 0.035830 0.000000 0.017409
# 5 0.003599 0.000316 0.003473 0.000000 0.028865 0.000000
# 6 0.000000 0.000000 0.000000 0.017409 0.000000 0.079220
#
#
# Mechanical properties :
#
#
# Convention : Reuss Voigt Hill
#
# Bulk Modulus (GPa) = 49.90209 56.38160 53.14184
# Shear Modulus (GPa) = 22.75391 27.92724 25.34057
#
# Velocity S-wave (km/s) = 3.46465 3.83836 3.65629
# Velocity P-wave (km/s) = 6.50622 7.02767 6.77197
#
# Compressibility (1/GPa) = 0.02003924
#
# Stress axis : x y z
#
# Youngs Moduli (GPa) = 65.25087 78.13484 60.71654
#
# Poissons Ratio (x) = 0.11598 0.28583
# Poissons Ratio (y) = 0.09686 0.36948
# Poissons Ratio (z) = 0.30717 0.47548
#
# Static dielectric constant tensor:
#      x y z
#    x 3.527730 0.000000 -0.210710 
#    y 0.000000 4.012590 0.000000 
#    z -0.210710 0.000000 3.089040 
# 
# 
# High freq. dielectric constant tensor:
#      x y z
#    x 1.738800 0.000000 -0.009640 
#    y 0.000000 1.736130 0.000000 
#    z -0.009640 0.000000 1.731070 
# 
# From -- ./inp_files/91506.got.cif
#   From: 2010.06.25/outbox.cif.g09.slc.cpg/sg12_46_cif.got.tgz:91506.got - 2010.06.28 00:19:55.
