data_PCOD8115619
_publ_section_title
;
Structure prediction by ZEFSAII (Michael W. Deem and Ramdas Pophale) SiO2 
 PCOD8115619
Probable space group: C 2/M
;
_chemical_formula_sum "Si O2"
_cell_formula_units_Z 40
_cell_length_a 14.539804
_cell_length_b 26.096604
_cell_length_c 5.114078
_cell_angle_alpha 90.000000
_cell_angle_beta 75.601359
_cell_angle_gamma 90.000000
_cell_volume 1879.530833
_symmetry_space_group_name_H-M "C 2/M"
_symmetry_group_IT_number 12
_symmetry_cell_setting 'monoclinic'
loop_
_space_group_symop_operation_xyz
x,y,z
-x,y,-z
-x,-y,-z
x,-y,z
1/2+x,1/2+y,z
1/2-x,1/2+y,-z
1/2-x,1/2-y,-z
1/2+x,1/2-y,z
loop_
_atom_site_type_symbol
_atom_site_label
_atom_site_fract_x
_atom_site_fract_y
_atom_site_fract_z
Si Si1 0.707092 0.777979 0.280964
Si Si2 0.000000 0.823683 0.000000
Si Si3 0.549504 0.940089 0.715656
Si Si4 0.500000 0.256796 0.500000
Si Si5 0.812088 0.118794 0.149737
Si Si6 0.733917 0.440443 0.334635
O O1 0.750000 0.750000 0.500000
O O2 0.592342 0.776734 0.362226
O O3 0.734885 0.837351 0.258354
O O4 0.750000 0.750000 0.000000
O O5 0.029403 0.790464 0.728975
O O6 0.089025 0.858110 0.018114
O O7 0.500000 0.914292 0.500000
O O8 0.660821 0.930275 0.633753
O O9 0.525699 0.000000 0.735065
O O10 0.500000 0.913743 0.000000
O O11 0.831872 0.087459 0.403947
O O12 0.775544 0.081496 0.948737
O O13 0.707554 0.500000 0.341228
#
# Coordination Sequence:
#
# PCOD8115619 Si02
#       6
#     8   4   8   4   8   8
#     4  12  23  43  70 104 137 172 223 275 340 415
#     4  12  24  42  73  96 130 182 229 264 352 412
#     4   9  17  33  58  83 112 160 215 261 319 388
#     4  12  22  44  70 100 140 182 210 278 350 408
#     4  12  24  43  67 100 131 176 229 277 332 406
#     4  11  24  43  65  92 135 180 225 283 332 379
#
# _framework density 21.281905999999999
#
# number of rings (size 3 to 8) (size 9 to 14) (size 15 to 20)
#    0.000    0.800    4.000    4.200    0.000    3.200 
#    5.400    3.000    0.000    0.000    0.000    0.000 
#    0.000    0.000    0.000    0.000    0.000    0.000 
#
# Total GULP energy -248073.713205 kJ/mol
# GULP energy per Si atom -12403.685660 kJ/mol
# Density = 2.123347 g / cm^3
# Si number density = 21.281906 Si / 1000 Ang^3
#
#
#
# Elastic Constant Matrix: (Units=GPa)
#
#
# Indices 1 2 3 4 5 6 
#
# 1 107.1971 36.7938 34.5076 0.0000 -10.6771 0.0000
# 2 36.7938 124.3916 47.5767 0.0000 -0.3835 0.0000
# 3 34.5076 47.5767 147.4124 0.0000 10.8246 0.0000
# 4 0.0000 0.0000 0.0000 30.3720 0.0000 9.7824
# 5 -10.6771 -0.3835 10.8246 0.0000 45.4718 0.0000
# 6 0.0000 0.0000 0.0000 9.7824 0.0000 19.2464
#
#
#
# Elastic Compliance Matrix: (Units=1/GPa)
#
#
# Indices 1 2 3 4 5 6 
#
# 1 0.011150 -0.002514 -0.002025 0.000000 0.003079 0.000000
# 2 -0.002514 0.009767 -0.002571 0.000000 0.000104 0.000000
# 3 -0.002025 -0.002571 0.008269 0.000000 -0.002465 0.000000
# 4 0.000000 0.000000 0.000000 0.039370 0.000000 -0.020011
# 5 0.003079 0.000104 -0.002465 0.000000 0.023302 0.000000
# 6 0.000000 0.000000 0.000000 -0.020011 0.000000 0.062129
#
#
# Mechanical properties :
#
#
# Convention : Reuss Voigt Hill
#
# Bulk Modulus (GPa) = 66.82320 68.52857 67.67589
# Shear Modulus (GPa) = 28.86919 36.35956 32.61437
#
# Velocity S-wave (km/s) = 3.68708 4.13785 3.91895
# Velocity P-wave (km/s) = 7.04225 7.42290 7.23508
#
# Compressibility (1/GPa) = 0.01496486
#
# Stress axis : x y z
#
# Youngs Moduli (GPa) = 89.68612 102.39046 120.94027
#
# Poissons Ratio (x) = 0.25743 0.24487
# Poissons Ratio (y) = 0.22548 0.31096
# Poissons Ratio (z) = 0.18159 0.26327
#
# Static dielectric constant tensor:
#      x y z
#    x 3.711580 0.000000 0.192360 
#    y 0.000000 3.707750 0.000000 
#    z 0.192360 0.000000 3.982030 
# 
# 
# High freq. dielectric constant tensor:
#      x y z
#    x 1.836690 0.000000 0.004880 
#    y 0.000000 1.819180 0.000000 
#    z 0.004880 0.000000 1.858860 
# 
# From -- ./inp_files/11545.got.cif
#   From: 2010.06.25/outbox.cif.g09.slc.cpg/sg12_6_cif.got.tgz:11545.got - 2010.06.28 00:19:55.
