data_PCOD8115775
_publ_section_title
;
Structure prediction by ZEFSAII (Michael W. Deem and Ramdas Pophale) SiO2 
 PCOD8115775
Probable space group: C 2/M
;
_chemical_formula_sum "Si O2"
_cell_formula_units_Z 56
_cell_length_a 11.771690
_cell_length_b 17.381382
_cell_length_c 13.959535
_cell_angle_alpha 90.000000
_cell_angle_beta 62.417327
_cell_angle_gamma 90.000000
_cell_volume 2531.606537
_symmetry_space_group_name_H-M "C 2/M"
_symmetry_group_IT_number 12
_symmetry_cell_setting 'monoclinic'
loop_
_space_group_symop_operation_xyz
x,y,z
-x,y,-z
-x,-y,-z
x,-y,z
1/2+x,1/2+y,z
1/2-x,1/2+y,-z
1/2-x,1/2-y,-z
1/2+x,1/2-y,z
loop_
_atom_site_type_symbol
_atom_site_label
_atom_site_fract_x
_atom_site_fract_y
_atom_site_fract_z
Si Si1 0.059992 0.686555 0.876576
Si Si2 0.973752 0.651367 0.620698
Si Si3 0.926526 0.913948 0.312568
Si Si4 0.346694 0.316471 0.697583
Si Si5 0.865953 0.412599 0.829763
Si Si6 0.598582 0.636871 0.886125
Si Si7 0.755266 0.163474 0.531036
O O1 0.211328 0.669643 0.804036
O O2 0.049218 0.778636 0.874484
O O3 0.975100 0.641907 0.832066
O O4 0.000000 0.657135 0.000000
O O5 0.891505 0.728285 0.673133
O O6 0.894938 0.583703 0.703743
O O7 0.000000 0.635818 0.500000
O O8 0.111098 0.646526 0.618745
O O9 0.890460 0.912341 0.214848
O O10 0.805764 0.887040 0.423078
O O11 0.049734 0.862106 0.282588
O O12 0.961049 0.000000 0.329301
O O13 0.343420 0.348366 0.590050
O O14 0.863866 0.500000 0.871973
O O15 0.731321 0.368345 0.893679
O O16 0.500000 0.599894 0.000000
O O17 0.750000 0.250000 0.500000
#
# Coordination Sequence:
#
# PCOD8115775 Si02
#       7
#     8   8   8   8   8   8   8
#     4  11  26  46  77 104 136 185 246 299 352 429
#     4  12  22  39  71  97 134 184 233 280 344 420
#     4  12  27  44  68 105 146 186 232 295 368 434
#     4  12  23  43  71 103 139 180 239 295 355 424
#     4  12  27  46  69 104 146 183 231 299 368 429
#     4  11  26  48  76 102 137 187 249 298 351 431
#     4  12  22  41  68 100 137 181 232 289 344 417
#
# _framework density 22.120341
#
# number of rings (size 3 to 8) (size 9 to 14) (size 15 to 20)
#    0.000    0.286    5.714    3.429    2.000    5.143 
#    0.000    0.000    0.000    0.000    0.000    0.000 
#    0.000    0.000    0.000    0.000    0.000    0.000 
#
# Total GULP energy -347010.131934 kJ/mol
# GULP energy per Si atom -12393.218998 kJ/mol
# Density = 2.206999 g / cm^3
# Si number density = 22.120341 Si / 1000 Ang^3
#
#
#
# Elastic Constant Matrix: (Units=GPa)
#
#
# Indices 1 2 3 4 5 6 
#
# 1 117.2865 19.8816 37.4217 0.0000 -19.2467 0.0000
# 2 19.8816 79.4885 20.0757 0.0000 7.0136 0.0000
# 3 37.4217 20.0757 144.2029 0.0000 -15.9706 0.0000
# 4 0.0000 0.0000 0.0000 8.4450 0.0000 1.1011
# 5 -19.2467 7.0136 -15.9706 0.0000 36.7811 0.0000
# 6 0.0000 0.0000 0.0000 1.1011 0.0000 12.3715
#
#
#
# Elastic Compliance Matrix: (Units=1/GPa)
#
#
# Indices 1 2 3 4 5 6 
#
# 1 0.010376 -0.002607 -0.001758 0.000000 0.005163 0.000000
# 2 -0.002607 0.014122 -0.001827 0.000000 -0.004850 0.000000
# 3 -0.001758 -0.001827 0.007965 0.000000 0.002887 0.000000
# 4 0.000000 0.000000 0.000000 0.119803 0.000000 -0.010663
# 5 0.005163 -0.004850 0.002887 0.000000 0.032068 0.000000
# 6 0.000000 0.000000 0.000000 -0.010663 0.000000 0.081780
#
#
# Mechanical properties :
#
#
# Convention : Reuss Voigt Hill
#
# Bulk Modulus (GPa) = 49.80096 55.08176 52.44136
# Shear Modulus (GPa) = 17.53218 29.09279 23.31248
#
# Velocity S-wave (km/s) = 2.81834 3.63051 3.24989
# Velocity P-wave (km/s) = 5.75788 6.52144 6.15152
#
# Compressibility (1/GPa) = 0.02007993
#
# Stress axis : x y z
#
# Youngs Moduli (GPa) = 96.37404 70.81272 125.55104
#
# Poissons Ratio (x) = 0.18460 0.22071
# Poissons Ratio (y) = 0.25124 0.22934
# Poissons Ratio (z) = 0.16942 0.12935
#
# Static dielectric constant tensor:
#      x y z
#    x 4.019200 0.000000 -0.090370 
#    y 0.000000 3.757850 0.000000 
#    z -0.090370 0.000000 4.086860 
# 
# 
# High freq. dielectric constant tensor:
#      x y z
#    x 1.883210 0.000000 -0.011430 
#    y 0.000000 1.843730 0.000000 
#    z -0.011430 0.000000 1.890820 
# 
# From -- ./inp_files/206564.got.cif
#   From: 2010.06.25/outbox.cif.g09.slc.cpg/sg12_104_cif.got.tgz:206564.got - 2010.06.28 00:19:55.
