data_PCOD8115016
_publ_section_title
;
Structure prediction by ZEFSAII (Michael W. Deem and Ramdas Pophale) SiO2 
 PCOD8115016
Probable space group: C 2/M
;
_chemical_formula_sum "Si O2"
_cell_formula_units_Z 44
_cell_length_a 21.673621
_cell_length_b 17.602972
_cell_length_c 13.581304
_cell_angle_alpha 90.000000
_cell_angle_beta 156.677087
_cell_angle_gamma 90.000000
_cell_volume 2051.438242
_symmetry_space_group_name_H-M "C 2/M"
_symmetry_group_IT_number 12
_symmetry_cell_setting 'monoclinic'
loop_
_space_group_symop_operation_xyz
x,y,z
-x,y,-z
-x,-y,-z
x,-y,z
1/2+x,1/2+y,z
1/2-x,1/2+y,-z
1/2-x,1/2-y,-z
1/2+x,1/2-y,z
loop_
_atom_site_type_symbol
_atom_site_label
_atom_site_fract_x
_atom_site_fract_y
_atom_site_fract_z
Si Si1 0.000000 0.366667 0.500000
Si Si2 0.540129 0.000000 0.204780
Si Si3 0.119704 0.654062 0.101182
Si Si4 0.078591 0.500000 0.755419
Si Si5 0.912847 0.000000 0.768714
Si Si6 0.210247 0.236614 0.057126
Si Si7 0.558580 0.376250 0.339843
Si Si8 0.057561 0.000000 0.692390
O O1 0.974910 0.421526 0.371456
O O2 0.850203 0.314587 0.304954
O O3 0.501367 0.000000 0.259865
O O4 0.726974 0.000000 0.482260
O O5 0.463625 0.073726 0.042720
O O6 0.181426 0.692006 0.089012
O O7 0.262876 0.644208 0.384920
O O8 0.000000 0.699791 0.000000
O O9 0.260812 0.500000 0.029528
O O10 0.975004 0.924535 0.807137
O O11 0.000000 0.000000 0.000000
O O12 0.250000 0.250000 0.000000
O O13 0.042759 0.198667 0.816140
O O14 0.509262 0.423369 0.362154
O O15 0.000000 0.000000 0.500000
#
# Coordination Sequence:
#
# PCOD8115016 Si02
#       8
#     4   4   8   4   4   8   8   4
#     4  11  24  46  68 101 144 184 230 299 358 440
#     4  12  24  47  73 104 137 183 250 299 363 430
#     4  12  26  48  74 102 143 193 242 300 364 443
#     4  11  23  40  74 105 132 184 239 288 364 417
#     4  11  26  46  75 102 142 188 238 310 363 423
#     4  12  27  46  69 105 151 188 238 297 371 436
#     4  11  25  46  69 106 142 184 245 295 360 435
#     4  11  22  40  74 104 136 179 235 300 352 416
#
# _framework density 21.448367000000001
#
# number of rings (size 3 to 8) (size 9 to 14) (size 15 to 20)
#    0.000    0.545    3.636    4.636    5.091    1.455 
#    0.000    0.000    0.000    0.000    0.000    0.000 
#    0.000    0.000    0.000    0.000    0.000    0.000 
#
# Total GULP energy -272583.094283 kJ/mol
# GULP energy per Si atom -12390.140649 kJ/mol
# Density = 2.139955 g / cm^3
# Si number density = 21.448367 Si / 1000 Ang^3
#
#
#
# Elastic Constant Matrix: (Units=GPa)
#
#
# Indices 1 2 3 4 5 6 
#
# 1 155.9320 45.2116 47.4981 0.0000 -8.7752 0.0000
# 2 45.2116 104.4190 51.8092 0.0000 -3.1721 0.0000
# 3 47.4981 51.8092 168.9799 0.0000 1.2000 0.0000
# 4 0.0000 0.0000 0.0000 37.3772 0.0000 9.1650
# 5 -8.7752 -3.1721 1.2000 0.0000 44.1982 0.0000
# 6 0.0000 0.0000 0.0000 9.1650 0.0000 -16.7629
#
#
#
# Elastic Compliance Matrix: (Units=1/GPa)
#
#
# Indices 1 2 3 4 5 6 
#
# 1 0.007659 -0.002597 -0.001367 0.000000 0.001371 0.000000
# 2 -0.002597 0.012212 -0.003017 0.000000 0.000443 0.000000
# 3 -0.001367 -0.003017 0.007232 0.000000 -0.000684 0.000000
# 4 0.000000 0.000000 0.000000 0.023592 0.000000 0.012899
# 5 0.001371 0.000443 -0.000684 0.000000 0.022948 0.000000
# 6 0.000000 0.000000 0.000000 0.012899 0.000000 -0.052603
#
#
# Mechanical properties :
#
#
# Convention : Reuss Voigt Hill
#
# Bulk Modulus (GPa) = 76.09273 79.81876 77.95574
# Shear Modulus (GPa) = 126.96437 31.94994 79.45716
#
# Velocity S-wave (km/s) = 7.70220 3.86375 6.09313
# Velocity P-wave (km/s) = 10.70760 7.56306 9.26964
#
# Compressibility (1/GPa) = 0.01314186
#
# Stress axis : x y z
#
# Youngs Moduli (GPa) = 130.55868 81.88878 138.27501
#
# Poissons Ratio (x) = 0.21264 0.18896
# Poissons Ratio (y) = 0.33902 0.41722
# Poissons Ratio (z) = 0.17842 0.24709
#
# Static dielectric constant tensor:
#      x y z
#    x 4.289350 0.000000 0.240930 
#    y 0.000000 4.020880 0.000000 
#    z 0.240930 0.000000 4.434540 
# 
# 
# High freq. dielectric constant tensor:
#      x y z
#    x 1.858810 0.000000 0.004010 
#    y 0.000000 1.838210 0.000000 
#    z 0.004010 0.000000 1.865450 
# 
# From -- ./inp_files/241593.got.cif
#   From: 2010.06.25/outbox.cif.g09.slc.cpg/sg12_121_cif.got.tgz:241593.got - 2010.06.28 00:19:55.
