data_PCOD8115891
_publ_section_title
;
Structure prediction by ZEFSAII (Michael W. Deem and Ramdas Pophale) SiO2 
 PCOD8115891
Probable space group: C 2/M
;
_chemical_formula_sum "Si O2"
_cell_formula_units_Z 48
_cell_length_a 19.527132
_cell_length_b 13.872797
_cell_length_c 8.518982
_cell_angle_alpha 90.000000
_cell_angle_beta 90.326914
_cell_angle_gamma 90.000000
_cell_volume 2307.720057
_symmetry_space_group_name_H-M "C 2/M"
_symmetry_group_IT_number 12
_symmetry_cell_setting 'monoclinic'
loop_
_space_group_symop_operation_xyz
x,y,z
-x,y,-z
-x,-y,-z
x,-y,z
1/2+x,1/2+y,z
1/2-x,1/2+y,-z
1/2-x,1/2-y,-z
1/2+x,1/2-y,z
loop_
_atom_site_type_symbol
_atom_site_label
_atom_site_fract_x
_atom_site_fract_y
_atom_site_fract_z
Si Si1 0.245339 0.500000 0.437589
Si Si2 0.393727 0.206630 0.156192
Si Si3 0.650266 0.000000 0.943614
Si Si4 0.773587 0.793249 0.336828
Si Si5 0.398876 0.000000 0.702163
Si Si6 0.850477 0.205505 0.830327
Si Si7 0.970231 0.299066 0.668016
Si Si8 0.791927 0.000000 0.795882
O O1 0.278582 0.408258 0.351551
O O2 0.163000 0.500000 0.423348
O O3 0.260705 0.500000 0.621892
O O4 0.346797 0.248792 0.294664
O O5 0.472711 0.221471 0.200031
O O6 0.381577 0.093075 0.139266
O O7 0.378764 0.264222 0.998393
O O8 0.731884 0.000000 0.923542
O O9 0.634187 0.000000 0.126722
O O10 0.750000 0.750000 0.500000
O O11 0.719464 0.764348 0.201248
O O12 0.446857 0.090845 0.675799
O O13 0.905611 0.230296 0.697436
O O14 0.839200 0.091916 0.825061
O O15 0.000000 0.273276 0.500000
#
# Coordination Sequence:
#
# PCOD8115891 Si02
#       8
#     4   8   4   8   4   8   8   4
#     4  12  24  42  73 106 144 176 237 286 356 413
#     4  12  26  43  73 102 146 188 233 292 357 418
#     4  12  23  43  73 107 144 177 232 287 367 411
#     4  12  23  43  70 103 142 186 234 290 350 416
#     4  12  26  42  72 108 147 182 227 287 365 437
#     4  12  25  47  68 103 140 188 238 291 350 418
#     4  12  27  46  69 102 146 185 237 288 357 425
#     4  12  28  43  75 105 142 183 241 297 346 415
#
# _framework density 20.79975
#
# number of rings (size 3 to 8) (size 9 to 14) (size 15 to 20)
#    0.000    0.000    6.667    2.750    4.667    0.667 
#    0.000    2.917    0.000    0.000    0.000    0.000 
#    0.000    0.000    0.000    0.000    0.000    0.000 
#
# Total GULP energy -297802.926678 kJ/mol
# GULP energy per Si atom -12408.455278 kJ/mol
# Density = 2.075241 g / cm^3
# Si number density = 20.799750 Si / 1000 Ang^3
#
#
#
# Elastic Constant Matrix: (Units=GPa)
#
#
# Indices 1 2 3 4 5 6 
#
# 1 90.1224 31.7904 5.7306 0.0000 5.1972 0.0000
# 2 31.7904 152.5423 28.3231 0.0000 4.5756 0.0000
# 3 5.7306 28.3231 79.2601 0.0000 1.4382 0.0000
# 4 0.0000 0.0000 0.0000 26.8549 0.0000 -10.8634
# 5 5.1972 4.5756 1.4382 0.0000 45.5700 0.0000
# 6 0.0000 0.0000 0.0000 -10.8634 0.0000 32.8464
#
#
#
# Elastic Compliance Matrix: (Units=1/GPa)
#
#
# Indices 1 2 3 4 5 6 
#
# 1 0.012034 -0.002481 0.000037 0.000000 -0.001124 0.000000
# 2 -0.002481 0.007551 -0.002512 0.000000 -0.000396 0.000000
# 3 0.000037 -0.002512 0.013515 0.000000 -0.000179 0.000000
# 4 0.000000 0.000000 0.000000 0.042989 0.000000 0.014218
# 5 -0.001124 -0.000396 -0.000179 0.000000 0.022118 0.000000
# 6 0.000000 0.000000 0.000000 0.014218 0.000000 0.035147
#
#
# Mechanical properties :
#
#
# Convention : Reuss Voigt Hill
#
# Bulk Modulus (GPa) = 43.12612 50.40145 46.76378
# Shear Modulus (GPa) = 33.11395 38.12629 35.62012
#
# Velocity S-wave (km/s) = 3.99436 4.28602 4.14276
# Velocity P-wave (km/s) = 6.48477 6.98410 6.73906
#
# Compressibility (1/GPa) = 0.02318781
#
# Stress axis : x y z
#
# Youngs Moduli (GPa) = 83.10008 132.43567 73.99304
#
# Poissons Ratio (x) = 0.32857 -0.00273
# Poissons Ratio (y) = 0.20617 0.18585
# Poissons Ratio (z) = -0.00307 0.33264
#
# Static dielectric constant tensor:
#      x y z
#    x 3.968060 0.000000 -0.025110 
#    y 0.000000 4.374520 0.000000 
#    z -0.025110 0.000000 3.848090 
# 
# 
# High freq. dielectric constant tensor:
#      x y z
#    x 1.817220 0.000000 -0.000400 
#    y 0.000000 1.818120 0.000000 
#    z -0.000400 0.000000 1.829300 
# 
# From -- ./inp_files/73699.got.cif
#   From: 2010.06.25/outbox.cif.g09.slc.cpg/sg12_37_cif.got.tgz:73699.got - 2010.06.28 00:19:55.
