data_PCOD8115150
_publ_section_title
;
Structure prediction by ZEFSAII (Michael W. Deem and Ramdas Pophale) SiO2 
 PCOD8115150
Probable space group: C 2/M
;
_chemical_formula_sum "Si O2"
_cell_formula_units_Z 48
_cell_length_a 27.857764
_cell_length_b 8.759589
_cell_length_c 17.390838
_cell_angle_alpha 90.000000
_cell_angle_beta 34.580476
_cell_angle_gamma 90.000000
_cell_volume 2408.600317
_symmetry_space_group_name_H-M "C 2/M"
_symmetry_group_IT_number 12
_symmetry_cell_setting 'monoclinic'
loop_
_space_group_symop_operation_xyz
x,y,z
-x,y,-z
-x,-y,-z
x,-y,z
1/2+x,1/2+y,z
1/2-x,1/2+y,-z
1/2-x,1/2-y,-z
1/2+x,1/2-y,z
loop_
_atom_site_type_symbol
_atom_site_label
_atom_site_fract_x
_atom_site_fract_y
_atom_site_fract_z
Si Si1 0.635708 0.319801 0.009208
Si Si2 0.126078 0.672495 0.174035
Si Si3 0.768078 0.679925 0.705982
Si Si4 0.597607 0.679096 0.368521
Si Si5 0.203515 0.820006 0.488978
Si Si6 0.476847 0.827711 0.266925
O O1 0.627787 0.500000 0.026511
O O2 0.675232 0.254528 0.037702
O O3 0.542292 0.246836 0.118671
O O4 0.694092 0.269579 0.861555
O O5 0.160027 0.500000 0.140172
O O6 0.140029 0.765080 0.233530
O O7 0.025686 0.671606 0.284706
O O8 0.771814 0.500000 0.689098
O O9 0.857762 0.736684 0.619637
O O10 0.749955 0.757959 0.648341
O O11 0.500000 0.725270 0.500000
O O12 0.611429 0.500000 0.359175
O O13 0.250000 0.750000 0.500000
O O14 0.105679 0.774200 0.617852
O O15 0.211337 0.000000 0.481429
O O16 0.452999 0.000000 0.273079
#
# Coordination Sequence:
#
# PCOD8115150 Si02
#       6
#     8   8   8   8   8   8
#     4   9  19  37  61  88 121 161 200 244 297 354
#     4   9  19  34  57  84 118 160 199 241 292 349
#     4  11  24  41  62  89 123 157 200 253 302 355
#     4  11  23  36  55  85 121 162 207 251 296 351
#     4  12  25  42  66  91 120 155 197 248 302 361
#     4   9  19  37  62  89 120 157 198 242 294 354
#
# _framework density 19.928585999999999
#
# number of rings (size 3 to 8) (size 9 to 14) (size 15 to 20)
#    1.000    0.833    0.000    4.500    0.000    7.333 
#    0.000    0.833    0.000    5.000    0.000    0.000 
#    0.000    0.000    0.000    0.000    0.000    0.000 
#
# Total GULP energy -297548.516261 kJ/mol
# GULP energy per Si atom -12397.854844 kJ/mol
# Density = 1.988323 g / cm^3
# Si number density = 19.928586 Si / 1000 Ang^3
#
#
#
# Elastic Constant Matrix: (Units=GPa)
#
#
# Indices 1 2 3 4 5 6 
#
# 1 85.3265 31.3347 28.1561 -0.0032 31.9376 0.0003
# 2 31.3347 111.8951 41.3962 -0.0024 18.6291 0.0043
# 3 28.1561 41.3962 94.3066 -0.0079 29.6023 0.0061
# 4 -0.0032 -0.0024 -0.0079 34.2367 0.0044 1.8612
# 5 31.9376 18.6291 29.6023 0.0044 24.3740 -0.0015
# 6 0.0003 0.0043 0.0061 1.8612 -0.0015 34.3000
#
#
#
# Elastic Compliance Matrix: (Units=1/GPa)
#
#
# Indices 1 2 3 4 5 6 
#
# 1 0.024769 -0.002797 0.005413 0.000008 -0.036892 -0.000003
# 2 -0.002797 0.011231 -0.004122 0.000000 0.000087 -0.000001
# 3 0.005413 -0.004122 0.019449 0.000009 -0.027562 -0.000005
# 4 0.000008 0.000000 0.000009 0.029295 -0.000026 -0.001590
# 5 -0.036892 0.000087 -0.027562 -0.000026 0.122775 0.000012
# 6 -0.000003 -0.000001 -0.000005 -0.001590 0.000012 0.029241
#
#
# Mechanical properties :
#
#
# Convention : Reuss Voigt Hill
#
# Bulk Modulus (GPa) = 19.07083 54.81136 36.94110
# Shear Modulus (GPa) = 19.43633 31.29154 25.36393
#
# Velocity S-wave (km/s) = 3.12637 3.96685 3.57142
# Velocity P-wave (km/s) = 4.75632 6.96741 5.96521
#
# Compressibility (1/GPa) = 0.05243609
#
# Stress axis : x y z
#
# Youngs Moduli (GPa) = 40.37284 89.04254 51.41699
#
# Poissons Ratio (x) = 0.24903 -0.27830
# Poissons Ratio (y) = 0.11291 0.21195
# Poissons Ratio (z) = -0.21852 0.36705
#
# Static dielectric constant tensor:
#      x y z
#    x 3.263010 0.000000 0.075740 
#    y 0.000000 3.660440 0.000020 
#    z 0.075740 0.000020 3.603270 
# 
# 
# High freq. dielectric constant tensor:
#      x y z
#    x 1.752400 0.000000 0.001320 
#    y 0.000000 1.793350 0.000000 
#    z 0.001320 0.000000 1.779760 
# 
# From -- ./inp_files/295350.got.cif
#   From: 2010.06.25/outbox.cif.g09.slc.cpg/sg12_148_cif.got.tgz:295350.got - 2010.06.28 00:19:55.
