data_PCOD8115851
_publ_section_title
;
Structure prediction by ZEFSAII (Michael W. Deem and Ramdas Pophale) SiO2 
 PCOD8115851
Probable space group: C 2/M
;
_chemical_formula_sum "Si O2"
_cell_formula_units_Z 36
_cell_length_a 4.981157
_cell_length_b 30.288559
_cell_length_c 11.509365
_cell_angle_alpha 90.000000
_cell_angle_beta 71.364503
_cell_angle_gamma 90.000000
_cell_volume 1645.401134
_symmetry_space_group_name_H-M "C 2/M"
_symmetry_group_IT_number 12
_symmetry_cell_setting 'monoclinic'
loop_
_space_group_symop_operation_xyz
x,y,z
-x,y,-z
-x,-y,-z
x,-y,z
1/2+x,1/2+y,z
1/2-x,1/2+y,-z
1/2-x,1/2-y,-z
1/2+x,1/2-y,z
loop_
_atom_site_type_symbol
_atom_site_label
_atom_site_fract_x
_atom_site_fract_y
_atom_site_fract_z
Si Si1 0.687894 0.500000 0.588818
Si Si2 0.193316 0.131296 0.363599
Si Si3 0.000000 0.672433 0.000000
Si Si4 0.091754 0.279225 0.748454
Si Si5 0.500000 0.388817 0.000000
Si Si6 0.286650 0.585536 0.263846
O O1 0.500000 0.500000 0.500000
O O2 0.628146 0.541852 0.678376
O O3 0.000000 0.500000 0.500000
O O4 0.298493 0.181569 0.349159
O O5 0.459833 0.098103 0.329282
O O6 0.000000 0.120405 0.500000
O O7 0.996559 0.124071 0.278500
O O8 0.015152 0.703282 0.886026
O O9 0.273663 0.641928 0.967944
O O10 0.314372 0.239628 0.724983
O O11 0.653574 0.419645 0.882390
#
# Coordination Sequence:
#
# PCOD8115851 Si02
#       6
#     4   8   4   8   4   8
#     4  12  26  45  72 105 138 172 219 272 317 398
#     4  12  25  44  68  94 135 183 224 272 333 401
#     4  12  22  43  64  97 131 176 227 275 334 395
#     4  12  24  40  64  97 129 176 229 281 333 385
#     4  12  22  42  72  96 133 174 219 276 330 402
#     4  12  24  45  70 101 134 173 224 269 336 396
#
# _framework density 21.879166000000001
#
# number of rings (size 3 to 8) (size 9 to 14) (size 15 to 20)
#    0.000    0.000    4.444    7.333    0.000    1.333 
#    0.000    0.000    0.000    5.333    0.000    0.000 
#    0.000    0.000    0.000    0.000    0.000    0.000 
#
# Total GULP energy -223288.099830 kJ/mol
# GULP energy per Si atom -12404.894435 kJ/mol
# Density = 2.182937 g / cm^3
# Si number density = 21.879166 Si / 1000 Ang^3
#
#
#
# Elastic Constant Matrix: (Units=GPa)
#
#
# Indices 1 2 3 4 5 6 
#
# 1 110.8076 16.1287 43.1901 0.0000 -15.7877 0.0000
# 2 16.1287 84.5019 59.9737 0.0000 -14.1145 0.0000
# 3 43.1901 59.9737 146.8638 0.0000 -14.6529 0.0000
# 4 0.0000 0.0000 0.0000 46.5742 0.0000 5.5023
# 5 -15.7877 -14.1145 -14.6529 0.0000 28.9407 0.0000
# 6 0.0000 0.0000 0.0000 5.5023 0.0000 30.6686
#
#
#
# Elastic Compliance Matrix: (Units=1/GPa)
#
#
# Indices 1 2 3 4 5 6 
#
# 1 0.010765 0.000917 -0.003064 0.000000 0.004768 0.000000
# 2 0.000917 0.017438 -0.006837 0.000000 0.005543 0.000000
# 3 -0.003064 -0.006837 0.010535 0.000000 0.000328 0.000000
# 4 0.000000 0.000000 0.000000 0.021936 0.000000 -0.003936
# 5 0.004768 0.005543 0.000328 0.000000 0.040024 0.000000
# 6 0.000000 0.000000 0.000000 -0.003936 0.000000 0.033313
#
#
# Mechanical properties :
#
#
# Convention : Reuss Voigt Hill
#
# Bulk Modulus (GPa) = 48.15275 64.52870 56.34072
# Shear Modulus (GPa) = 31.46574 36.09540 33.78057
#
# Velocity S-wave (km/s) = 3.79642 4.06613 3.93359
# Velocity P-wave (km/s) = 6.42444 7.18344 6.81451
#
# Compressibility (1/GPa) = 0.02076725
#
# Stress axis : x y z
#
# Youngs Moduli (GPa) = 92.89358 57.34723 94.92109
#
# Poissons Ratio (x) = -0.05257 0.29088
# Poissons Ratio (y) = -0.08515 0.64902
# Poissons Ratio (z) = 0.28466 0.39211
#
# Static dielectric constant tensor:
#      x y z
#    x 4.128080 0.000000 -0.038050 
#    y 0.000000 4.202300 0.000000 
#    z -0.038050 0.000000 4.028090 
# 
# 
# High freq. dielectric constant tensor:
#      x y z
#    x 1.881760 0.000000 -0.004380 
#    y 0.000000 1.850950 0.000000 
#    z -0.004380 0.000000 1.870650 
# 
# From -- ./inp_files/115404.got.cif
#   From: 2010.06.25/outbox.cif.g09.slc.cpg/sg12_58_cif.got.tgz:115404.got - 2010.06.28 00:19:55.
