data_PCOD8115124
_publ_section_title
;
Structure prediction by ZEFSAII (Michael W. Deem and Ramdas Pophale) SiO2 
 PCOD8115124
Probable space group: C 2/M
;
_chemical_formula_sum "Si O2"
_cell_formula_units_Z 36
_cell_length_a 9.489320
_cell_length_b 17.588032
_cell_length_c 10.269222
_cell_angle_alpha 90.000000
_cell_angle_beta 71.980006
_cell_angle_gamma 90.000000
_cell_volume 1629.847370
_symmetry_space_group_name_H-M "C 2/M"
_symmetry_group_IT_number 12
_symmetry_cell_setting 'monoclinic'
loop_
_space_group_symop_operation_xyz
x,y,z
-x,y,-z
-x,-y,-z
x,-y,z
1/2+x,1/2+y,z
1/2-x,1/2+y,-z
1/2-x,1/2-y,-z
1/2+x,1/2-y,z
loop_
_atom_site_type_symbol
_atom_site_label
_atom_site_fract_x
_atom_site_fract_y
_atom_site_fract_z
Si Si1 0.704493 0.000000 0.323557
Si Si2 0.500000 0.126555 0.000000
Si Si3 0.448247 0.500000 0.759082
Si Si4 0.098687 0.285635 0.724386
Si Si5 0.923347 0.161395 0.659363
Si Si6 0.000000 0.624049 0.500000
Si Si7 0.787357 0.500000 0.983216
O O1 0.635562 0.925943 0.408779
O O2 0.877208 0.000000 0.299502
O O3 0.675933 0.000000 0.178520
O O4 0.488356 0.177397 0.131366
O O5 0.645015 0.074826 0.970041
O O6 0.384705 0.574645 0.705856
O O7 0.386197 0.500000 0.925866
O O8 0.274384 0.287456 0.698926
O O9 0.063202 0.325806 0.598070
O O10 0.037374 0.199120 0.731092
O O11 0.000000 0.162805 0.500000
#
# Coordination Sequence:
#
# PCOD8115124 Si02
#       7
#     4   4   4   8   8   4   4
#     4  11  24  41  72 109 142 188 240 296 344 440
#     4  11  24  46  74  99 140 192 244 285 358 430
#     4  12  26  46  70 108 147 183 239 296 363 415
#     4  12  26  47  74 104 143 189 241 294 358 418
#     4  12  27  46  74 106 146 186 237 297 359 424
#     4  11  24  44  74 105 144 190 236 291 360 426
#     4  11  22  45  70 100 143 195 234 290 356 433
#
# _framework density 22.087955999999998
#
# number of rings (size 3 to 8) (size 9 to 14) (size 15 to 20)
#    0.000    0.444    5.556    2.667    3.111    2.667 
#    4.000    0.000    0.000    0.000    0.000    0.000 
#    0.000    0.000    0.000    0.000    0.000    0.000 
#
# Total GULP energy -223249.478408 kJ/mol
# GULP energy per Si atom -12402.748800 kJ/mol
# Density = 2.203768 g / cm^3
# Si number density = 22.087956 Si / 1000 Ang^3
#
#
#
# Elastic Constant Matrix: (Units=GPa)
#
#
# Indices 1 2 3 4 5 6 
#
# 1 107.1017 33.1911 40.9359 0.0000 -13.6177 0.0000
# 2 33.1911 125.6277 54.2137 0.0000 3.6613 0.0000
# 3 40.9359 54.2137 145.6452 0.0000 -8.6127 0.0000
# 4 0.0000 0.0000 0.0000 -26.3403 0.0000 -16.2955
# 5 -13.6177 3.6613 -8.6127 0.0000 44.5335 0.0000
# 6 0.0000 0.0000 0.0000 -16.2955 0.0000 36.5372
#
#
#
# Elastic Compliance Matrix: (Units=1/GPa)
#
#
# Indices 1 2 3 4 5 6 
#
# 1 0.011232 -0.002120 -0.002179 0.000000 0.003187 0.000000
# 2 -0.002120 0.009981 -0.003243 0.000000 -0.002096 0.000000
# 3 -0.002179 -0.003243 0.008762 0.000000 0.001295 0.000000
# 4 0.000000 0.000000 0.000000 -0.029755 0.000000 -0.013271
# 5 0.003187 -0.002096 0.001295 0.000000 0.023852 0.000000
# 6 0.000000 0.000000 0.000000 -0.013271 0.000000 0.021451
#
#
# Mechanical properties :
#
#
# Convention : Reuss Voigt Hill
#
# Bulk Modulus (GPa) = 67.15858 70.56179 68.86018
# Shear Modulus (GPa) = 76.25170 27.61502 51.93336
#
# Velocity S-wave (km/s) = 5.88190 3.53969 4.85419
# Velocity P-wave (km/s) = 8.75215 6.98005 7.91585
#
# Compressibility (1/GPa) = 0.01489013
#
# Stress axis : x y z
#
# Youngs Moduli (GPa) = 89.03001 100.19215 114.12442
#
# Poissons Ratio (x) = 0.21240 0.24872
# Poissons Ratio (y) = 0.18874 0.37014
# Poissons Ratio (z) = 0.19403 0.32495
#
# Static dielectric constant tensor:
#      x y z
#    x 3.973330 0.000000 -0.091730 
#    y 0.000000 4.288600 0.000000 
#    z -0.091730 0.000000 4.107150 
# 
# 
# High freq. dielectric constant tensor:
#      x y z
#    x 1.867360 0.000000 -0.014030 
#    y 0.000000 1.876550 0.000000 
#    z -0.014030 0.000000 1.886890 
# 
# From -- ./inp_files/118850.got.cif
#   From: 2010.06.25/outbox.cif.g09.slc.cpg/sg12_60_cif.got.tgz:118850.got - 2010.06.28 00:19:55.
