data_PCOD8115378
_publ_section_title
;
Structure prediction by ZEFSAII (Michael W. Deem and Ramdas Pophale) SiO2 
 PCOD8115378
Probable space group: C 2/M
;
_chemical_formula_sum "Si O2"
_cell_formula_units_Z 32
_cell_length_a 11.018778
_cell_length_b 16.499824
_cell_length_c 9.203642
_cell_angle_alpha 90.000000
_cell_angle_beta 65.210569
_cell_angle_gamma 90.000000
_cell_volume 1519.108780
_symmetry_space_group_name_H-M "C 2/M"
_symmetry_group_IT_number 12
_symmetry_cell_setting 'monoclinic'
loop_
_space_group_symop_operation_xyz
x,y,z
-x,y,-z
-x,-y,-z
x,-y,z
1/2+x,1/2+y,z
1/2-x,1/2+y,-z
1/2-x,1/2-y,-z
1/2+x,1/2-y,z
loop_
_atom_site_type_symbol
_atom_site_label
_atom_site_fract_x
_atom_site_fract_y
_atom_site_fract_z
Si Si1 0.865607 0.342177 0.720615
Si Si2 0.654564 0.905679 0.581286
Si Si3 0.381227 0.344597 0.663198
Si Si4 0.631294 0.593081 0.015567
O O1 0.806453 0.373842 0.598033
O O2 0.903729 0.248507 0.692636
O O3 0.998847 0.391755 0.693392
O O4 0.757810 0.354576 0.900773
O O5 0.739548 0.855975 0.655716
O O6 0.689235 0.000000 0.575878
O O7 0.500000 0.375283 0.500000
O O8 0.386620 0.398766 0.803896
O O9 0.657052 0.500000 0.961136
O O10 0.500000 0.626221 0.000000
#
# Coordination Sequence:
#
# PCOD8115378 Si02
#       4
#     8   8   8   8
#     4  11  23  43  67  94 133 174 219 265 329 388
#     4  11  23  41  70  98 131 174 219 268 324 390
#     4  12  25  42  67  99 133 171 219 272 326 386
#     4  11  25  43  66  95 133 174 216 269 331 388
#
# _framework density 21.064983000000002
#
# number of rings (size 3 to 8) (size 9 to 14) (size 15 to 20)
#    0.000    0.750    2.500    6.750    3.500    5.000 
#    0.000    2.500    0.000    0.000    0.000    0.000 
#    0.000    0.000    0.000    0.000    0.000    0.000 
#
# Total GULP energy -198556.181043 kJ/mol
# GULP energy per Si atom -12409.761315 kJ/mol
# Density = 2.101704 g / cm^3
# Si number density = 21.064983 Si / 1000 Ang^3
#
#
#
# Elastic Constant Matrix: (Units=GPa)
#
#
# Indices 1 2 3 4 5 6 
#
# 1 106.9577 3.5311 60.7572 0.0000 14.4270 0.0000
# 2 3.5311 62.4318 1.0842 0.0000 -2.3846 0.0000
# 3 60.7572 1.0842 140.1574 0.0000 -10.1744 0.0000
# 4 0.0000 0.0000 0.0000 30.5888 0.0000 -4.2658
# 5 14.4270 -2.3846 -10.1744 0.0000 36.8977 0.0000
# 6 0.0000 0.0000 0.0000 -4.2658 0.0000 23.9503
#
#
#
# Elastic Compliance Matrix: (Units=1/GPa)
#
#
# Indices 1 2 3 4 5 6 
#
# 1 0.014181 -0.000971 -0.006681 0.000000 -0.007450 0.000000
# 2 -0.000971 0.016124 0.000407 0.000000 0.001534 0.000000
# 3 -0.006681 0.000407 0.010428 0.000000 0.005514 0.000000
# 4 0.000000 0.000000 0.000000 0.033524 0.000000 0.005971
# 5 -0.007450 0.001534 0.005514 0.000000 0.031634 0.000000
# 6 0.000000 0.000000 0.000000 0.005971 0.000000 0.042817
#
#
# Mechanical properties :
#
#
# Convention : Reuss Voigt Hill
#
# Bulk Modulus (GPa) = 38.10220 48.92133 43.51176
# Shear Modulus (GPa) = 29.07896 34.56565 31.82230
#
# Velocity S-wave (km/s) = 3.71946 4.05520 3.89095
# Velocity P-wave (km/s) = 6.04756 6.72314 6.39428
#
# Compressibility (1/GPa) = 0.02624521
#
# Stress axis : x y z
#
# Youngs Moduli (GPa) = 70.51459 62.01981 95.89503
#
# Poissons Ratio (x) = 0.06020 0.64066
# Poissons Ratio (y) = 0.06844 -0.03906
# Poissons Ratio (z) = 0.47110 -0.02527
#
# Static dielectric constant tensor:
#      x y z
#    x 3.779840 0.000000 0.012080 
#    y 0.000000 3.732410 0.000000 
#    z 0.012080 0.000000 3.806030 
# 
# 
# High freq. dielectric constant tensor:
#      x y z
#    x 1.832950 0.000000 -0.002230 
#    y 0.000000 1.832760 0.000000 
#    z -0.002230 0.000000 1.826800 
# 
# From -- ./inp_files/45204.got.cif
#   From: 2010.06.25/outbox.cif.g09.slc.cpg/sg12_23_cif.got.tgz:45204.got - 2010.06.28 00:19:55.
