data_PCOD8115189
_publ_section_title
;
Structure prediction by ZEFSAII (Michael W. Deem and Ramdas Pophale) SiO2 
 PCOD8115189
Probable space group: C 2/M
;
_chemical_formula_sum "Si O2"
_cell_formula_units_Z 40
_cell_length_a 29.478586
_cell_length_b 8.573788
_cell_length_c 14.705823
_cell_angle_alpha 90.000000
_cell_angle_beta 30.517111
_cell_angle_gamma 90.000000
_cell_volume 1887.372870
_symmetry_space_group_name_H-M "C 2/M"
_symmetry_group_IT_number 12
_symmetry_cell_setting 'monoclinic'
loop_
_space_group_symop_operation_xyz
x,y,z
-x,y,-z
-x,-y,-z
x,-y,z
1/2+x,1/2+y,z
1/2-x,1/2+y,-z
1/2-x,1/2-y,-z
1/2+x,1/2-y,z
loop_
_atom_site_type_symbol
_atom_site_label
_atom_site_fract_x
_atom_site_fract_y
_atom_site_fract_z
Si Si1 0.717065 0.822598 0.776373
Si Si2 0.970463 0.818620 0.950627
Si Si3 0.394267 0.180251 0.423196
Si Si4 0.498778 0.682483 0.606060
Si Si5 0.686193 0.820086 0.034682
O O1 0.788885 0.717973 0.598220
O O2 0.733382 0.803707 0.855927
O O3 0.732543 0.000000 0.719691
O O4 0.617115 0.776925 0.923461
O O5 0.051148 0.780756 0.743528
O O6 0.947461 0.000000 0.983462
O O7 0.000000 0.769412 0.000000
O O8 0.425577 0.223486 0.470775
O O9 0.411102 0.000000 0.373500
O O10 0.500000 0.739104 0.500000
O O11 0.519802 0.500000 0.577686
O O12 0.403616 0.719624 0.814520
O O13 0.664201 0.000000 0.094966
O O14 0.750000 0.750000 0.000000
#
# Coordination Sequence:
#
# PCOD8115189 Si02
#       5
#     8   8   8   8   8
#     4  11  24  43  67  97 133 174 221 272 329 393
#     4  11  25  46  72 100 131 171 220 276 337 396
#     4  12  25  42  67  98 133 176 220 270 331 394
#     4  11  23  39  61  91 130 174 220 272 327 387
#     4  11  23  38  60  92 129 173 220 269 327 389
#
# _framework density 21.193480999999998
#
# number of rings (size 3 to 8) (size 9 to 14) (size 15 to 20)
#    0.000    0.800    2.000    5.400    0.000   11.200 
#    0.000    0.000    0.000    0.000    0.000    0.000 
#    0.000    0.000    0.000    0.000    0.000    0.000 
#
# Total GULP energy -248152.442856 kJ/mol
# GULP energy per Si atom -12407.622143 kJ/mol
# Density = 2.114524 g / cm^3
# Si number density = 21.193481 Si / 1000 Ang^3
#
#
#
# Elastic Constant Matrix: (Units=GPa)
#
#
# Indices 1 2 3 4 5 6 
#
# 1 102.4349 33.8362 29.7199 0.0000 8.0342 0.0000
# 2 33.8362 63.5167 7.7856 0.0000 1.2450 0.0000
# 3 29.7199 7.7856 109.1532 0.0000 -7.7355 0.0000
# 4 0.0000 0.0000 0.0000 33.9418 0.0000 -4.1384
# 5 8.0342 1.2450 -7.7355 0.0000 27.8530 0.0000
# 6 0.0000 0.0000 0.0000 -4.1384 0.0000 27.3090
#
#
#
# Elastic Compliance Matrix: (Units=1/GPa)
#
#
# Indices 1 2 3 4 5 6 
#
# 1 0.013291 -0.006567 -0.003470 0.000000 -0.004504 0.000000
# 2 -0.006567 0.019157 0.000505 0.000000 0.001178 0.000000
# 3 -0.003470 0.000505 0.010343 0.000000 0.003851 0.000000
# 4 0.000000 0.000000 0.000000 0.030017 0.000000 0.004549
# 5 -0.004504 0.001178 0.003851 0.000000 0.038219 0.000000
# 6 0.000000 0.000000 0.000000 0.004549 0.000000 0.037307
#
#
# Mechanical properties :
#
#
# Convention : Reuss Voigt Hill
#
# Bulk Modulus (GPa) = 42.14342 46.42090 44.28216
# Shear Modulus (GPa) = 28.52137 31.40497 29.96317
#
# Velocity S-wave (km/s) = 3.67244 3.85362 3.76412
# Velocity P-wave (km/s) = 6.15717 6.46154 6.31119
#
# Compressibility (1/GPa) = 0.02372849
#
# Stress axis : x y z
#
# Youngs Moduli (GPa) = 75.23644 52.19972 96.68333
#
# Poissons Ratio (x) = 0.34279 0.33547
# Poissons Ratio (y) = 0.49407 -0.04883
# Poissons Ratio (z) = 0.26105 -0.02637
#
# Static dielectric constant tensor:
#      x y z
#    x 3.704440 0.000000 0.157910 
#    y 0.000000 3.885030 0.000000 
#    z 0.157910 0.000000 3.852770 
# 
# 
# High freq. dielectric constant tensor:
#      x y z
#    x 1.831630 0.000000 -0.003230 
#    y 0.000000 1.840210 0.000000 
#    z -0.003230 0.000000 1.840580 
# 
# From -- ./inp_files/211253.got.cif
#   From: 2010.06.25/outbox.cif.g09.slc.cpg/sg12_106_cif.got.tgz:211253.got - 2010.06.28 00:19:55.
