data_PCOD8115657
_publ_section_title
;
Structure prediction by ZEFSAII (Michael W. Deem and Ramdas Pophale) SiO2 
 PCOD8115657
Probable space group: C 2/M
;
_chemical_formula_sum "Si O2"
_cell_formula_units_Z 36
_cell_length_a 14.854191
_cell_length_b 14.748434
_cell_length_c 11.436293
_cell_angle_alpha 90.000000
_cell_angle_beta 136.296695
_cell_angle_gamma 90.000000
_cell_volume 1731.053682
_symmetry_space_group_name_H-M "C 2/M"
_symmetry_group_IT_number 12
_symmetry_cell_setting 'monoclinic'
loop_
_space_group_symop_operation_xyz
x,y,z
-x,y,-z
-x,-y,-z
x,-y,z
1/2+x,1/2+y,z
1/2-x,1/2+y,-z
1/2-x,1/2-y,-z
1/2+x,1/2-y,z
loop_
_atom_site_type_symbol
_atom_site_label
_atom_site_fract_x
_atom_site_fract_y
_atom_site_fract_z
Si Si1 0.688155 0.000000 0.074185
Si Si2 0.803936 0.341703 0.495079
Si Si3 0.386498 0.000000 0.737641
Si Si4 0.339505 0.678386 0.151645
Si Si5 0.036468 0.103509 0.160183
Si Si6 0.500000 0.766212 0.500000
O O1 0.696058 0.000000 0.221097
O O2 0.757383 0.912364 0.087019
O O3 0.539814 0.000000 0.896678
O O4 0.750000 0.250000 0.500000
O O5 0.848497 0.407859 0.638666
O O6 0.691150 0.390509 0.316311
O O7 0.925634 0.328131 0.523547
O O8 0.468184 0.662955 0.195364
O O9 0.390866 0.708047 0.327986
O O10 0.250000 0.750000 0.000000
O O11 0.989039 0.000000 0.126323
O O12 0.000000 0.144306 0.000000
#
# Coordination Sequence:
#
# PCOD8115657 Si02
#       6
#     4   8   4   8   8   4
#     4  11  26  44  70 100 135 187 231 279 352 408
#     4  12  24  46  69 102 139 175 231 281 345 410
#     4  11  26  46  67  99 144 181 225 291 343 410
#     4  12  25  46  70 103 140 179 236 285 343 417
#     4  11  24  44  69  98 136 181 227 286 342 404
#     4  12  26  42  74 104 134 192 226 284 352 408
#
# _framework density 20.796582000000001
#
# number of rings (size 3 to 8) (size 9 to 14) (size 15 to 20)
#    0.000    0.444    4.444    4.000    0.000    0.889 
#    0.000    0.000    0.000    0.000    0.000    0.000 
#    0.000    0.000    0.000    0.000    0.000    0.000 
#
# Total GULP energy -223297.060132 kJ/mol
# GULP energy per Si atom -12405.392230 kJ/mol
# Density = 2.074925 g / cm^3
# Si number density = 20.796582 Si / 1000 Ang^3
#
#
#
# Elastic Constant Matrix: (Units=GPa)
#
#
# Indices 1 2 3 4 5 6 
#
# 1 121.1848 54.7114 36.2269 0.0000 2.2550 0.0000
# 2 54.7114 132.7258 47.9566 0.0000 -8.8422 0.0000
# 3 36.2269 47.9566 121.2642 0.0000 -15.7802 0.0000
# 4 0.0000 0.0000 0.0000 59.9269 0.0000 -8.7254
# 5 2.2550 -8.8422 -15.7802 0.0000 36.2808 0.0000
# 6 0.0000 0.0000 0.0000 -8.7254 0.0000 26.5122
#
#
#
# Elastic Compliance Matrix: (Units=1/GPa)
#
#
# Indices 1 2 3 4 5 6 
#
# 1 0.010615 -0.003825 -0.001978 0.000000 -0.002452 0.000000
# 2 -0.003825 0.010184 -0.002683 0.000000 0.001553 0.000000
# 3 -0.001978 -0.002683 0.010419 0.000000 0.004001 0.000000
# 4 0.000000 0.000000 0.000000 0.017527 0.000000 0.005768
# 5 -0.002452 0.001553 0.004001 0.000000 0.029834 0.000000
# 6 0.000000 0.000000 0.000000 0.005768 0.000000 0.039617
#
#
# Mechanical properties :
#
#
# Convention : Reuss Voigt Hill
#
# Bulk Modulus (GPa) = 70.18700 72.55164 71.36932
# Shear Modulus (GPa) = 35.73599 40.29598 38.01598
#
# Velocity S-wave (km/s) = 4.14981 4.40662 4.28014
# Velocity P-wave (km/s) = 7.53550 7.80084 7.66932
#
# Compressibility (1/GPa) = 0.01424765
#
# Stress axis : x y z
#
# Youngs Moduli (GPa) = 94.20251 98.19680 95.97934
#
# Poissons Ratio (x) = 0.37556 0.18984
# Poissons Ratio (y) = 0.36028 0.25749
# Poissons Ratio (z) = 0.18632 0.26343
#
# Static dielectric constant tensor:
#      x y z
#    x 3.883650 0.000000 -0.036260 
#    y 0.000000 3.763470 0.000000 
#    z -0.036260 0.000000 3.960060 
# 
# 
# High freq. dielectric constant tensor:
#      x y z
#    x 1.826210 0.000000 0.001410 
#    y 0.000000 1.819700 0.000000 
#    z 0.001410 0.000000 1.833660 
# 
# From -- ./inp_files/143987.got.cif
#   From: 2010.06.25/outbox.cif.g09.slc.cpg/sg12_72_cif.got.tgz:143987.got - 2010.06.28 00:19:55.
