data_PCOD8115615
_publ_section_title
;
Structure prediction by ZEFSAII (Michael W. Deem and Ramdas Pophale) SiO2 
 PCOD8115615
Probable space group: C 2/M
;
_chemical_formula_sum "Si O2"
_cell_formula_units_Z 56
_cell_length_a 9.306306
_cell_length_b 15.869516
_cell_length_c 25.708034
_cell_angle_alpha 90.000000
_cell_angle_beta 43.225254
_cell_angle_gamma 90.000000
_cell_volume 2600.261154
_symmetry_space_group_name_H-M "C 2/M"
_symmetry_group_IT_number 12
_symmetry_cell_setting 'monoclinic'
loop_
_space_group_symop_operation_xyz
x,y,z
-x,y,-z
-x,-y,-z
x,-y,z
1/2+x,1/2+y,z
1/2-x,1/2+y,-z
1/2-x,1/2-y,-z
1/2+x,1/2-y,z
loop_
_atom_site_type_symbol
_atom_site_label
_atom_site_fract_x
_atom_site_fract_y
_atom_site_fract_z
Si Si1 0.621579 0.168329 0.713140
Si Si2 0.503739 0.407034 0.440093
Si Si3 0.465835 0.094172 0.160966
Si Si4 0.397447 0.170569 0.471716
Si Si5 0.131266 0.094922 0.161174
Si Si6 0.239529 0.247315 0.942425
Si Si7 0.207237 0.665148 0.293862
O O1 0.595315 0.093604 0.761760
O O2 0.640227 0.254276 0.740666
O O3 0.436251 0.171272 0.719701
O O4 0.847436 0.159887 0.626732
O O5 0.500000 0.377237 0.500000
O O6 0.600922 0.500000 0.408444
O O7 0.265880 0.407091 0.481234
O O8 0.265842 0.115467 0.177507
O O9 0.639862 0.165837 0.110285
O O10 0.551192 0.000000 0.125372
O O11 0.500000 0.182915 0.500000
O O12 0.250000 0.250000 0.500000
O O13 0.566610 0.150826 0.382153
O O14 0.185445 0.164469 0.103064
O O15 0.881851 0.092634 0.240537
O O16 0.186138 0.000000 0.126535
O O17 0.250000 0.250000 0.000000
O O18 0.000000 0.228882 0.000000
#
# Coordination Sequence:
#
# PCOD8115615 Si02
#       7
#     8   8   8   8   8   8   8
#     4  12  24  42  69 100 135 185 235 288 350 416
#     4  11  24  43  63  92 135 179 228 292 354 409
#     4  11  26  48  74 107 145 186 232 284 350 420
#     4  12  24  41  66  95 128 175 233 291 350 408
#     4  11  27  49  73 106 146 190 236 285 349 424
#     4  12  26  48  78 109 142 182 228 282 348 416
#     4  12  25  41  70 100 136 184 239 290 347 416
#
# _framework density 21.536297000000001
#
# number of rings (size 3 to 8) (size 9 to 14) (size 15 to 20)
#    0.000    0.429    5.714    2.571    4.000    3.143 
#    0.000    0.000    0.000    0.000    0.000    0.000 
#    0.000    0.000    0.000    0.000    0.000    0.000 
#
# Total GULP energy -347036.679866 kJ/mol
# GULP energy per Si atom -12394.167138 kJ/mol
# Density = 2.148728 g / cm^3
# Si number density = 21.536297 Si / 1000 Ang^3
#
#
#
# Elastic Constant Matrix: (Units=GPa)
#
#
# Indices 1 2 3 4 5 6 
#
# 1 191.9239 52.9207 72.6214 0.0009 2.6552 -0.0008
# 2 52.9207 119.5800 53.7711 -0.0010 1.5114 -0.0016
# 3 72.6214 53.7711 123.2661 -0.0031 -7.3717 -0.0027
# 4 0.0009 -0.0010 -0.0031 23.2183 -0.0003 -4.0595
# 5 2.6552 1.5114 -7.3717 -0.0003 46.2234 0.0003
# 6 -0.0008 -0.0016 -0.0027 -4.0595 0.0003 21.0524
#
#
#
# Elastic Compliance Matrix: (Units=1/GPa)
#
#
# Indices 1 2 3 4 5 6 
#
# 1 0.006961 -0.001493 -0.003504 -0.000001 -0.000910 0.000000
# 2 -0.001493 0.010777 -0.003874 0.000000 -0.000884 0.000000
# 3 -0.003504 -0.003874 0.012001 0.000002 0.002242 0.000001
# 4 -0.000001 0.000000 0.000002 0.044572 0.000001 0.008595
# 5 -0.000910 -0.000884 0.002242 0.000001 0.022073 0.000000
# 6 0.000000 0.000000 0.000001 0.008595 0.000000 0.049158
#
#
# Mechanical properties :
#
#
# Convention : Reuss Voigt Hill
#
# Bulk Modulus (GPa) = 83.36387 88.15516 85.75951
# Shear Modulus (GPa) = 29.88968 35.12927 32.50948
#
# Velocity S-wave (km/s) = 3.72946 4.04315 3.88947
# Velocity P-wave (km/s) = 7.57217 7.92580 7.75100
#
# Compressibility (1/GPa) = 0.01199560
#
# Stress axis : x y z
#
# Youngs Moduli (GPa) = 143.66725 92.79238 83.32829
#
# Poissons Ratio (x) = 0.13858 0.29196
# Poissons Ratio (y) = 0.21456 0.32282
# Poissons Ratio (z) = 0.50337 0.35949
#
# Static dielectric constant tensor:
#      x y z
#    x 3.968920 -0.000010 0.122430 
#    y -0.000010 3.995220 0.000000 
#    z 0.122430 0.000000 3.542850 
# 
# 
# High freq. dielectric constant tensor:
#      x y z
#    x 1.859380 0.000000 -0.002510 
#    y 0.000000 1.849810 0.000000 
#    z -0.002510 0.000000 1.850020 
# 
# From -- ./inp_files/356665.got.cif
#   From: 2010.06.25/outbox.cif.g09.slc.cpg/sg12_179_cif.got.tgz:356665.got - 2010.06.28 00:19:55.
