data_PCOD8115161
_publ_section_title
;
Structure prediction by ZEFSAII (Michael W. Deem and Ramdas Pophale) SiO2 
 PCOD8115161
Probable space group: C 2/M
;
_chemical_formula_sum "Si O2"
_cell_formula_units_Z 32
_cell_length_a 26.704395
_cell_length_b 8.943437
_cell_length_c 7.780580
_cell_angle_alpha 90.000000
_cell_angle_beta 91.747441
_cell_angle_gamma 90.000000
_cell_volume 1857.364557
_symmetry_space_group_name_H-M "C 2/M"
_symmetry_group_IT_number 12
_symmetry_cell_setting 'monoclinic'
loop_
_space_group_symop_operation_xyz
x,y,z
-x,y,-z
-x,-y,-z
x,-y,z
1/2+x,1/2+y,z
1/2-x,1/2+y,-z
1/2-x,1/2-y,-z
1/2+x,1/2-y,z
loop_
_atom_site_type_symbol
_atom_site_label
_atom_site_fract_x
_atom_site_fract_y
_atom_site_fract_z
Si Si1 0.645019 0.824220 0.362272
Si Si2 0.146602 0.831053 0.697498
Si Si3 0.696404 0.176380 0.014048
Si Si4 0.555089 0.330656 0.477464
O O1 0.671637 0.743887 0.529265
O O2 0.674424 0.776304 0.195475
O O3 0.586964 0.767205 0.343108
O O4 0.645698 0.000000 0.391622
O O5 0.086181 0.830138 0.661393
O O6 0.167330 0.000000 0.719809
O O7 0.158735 0.735928 0.866097
O O8 0.701386 0.000000 0.996397
O O9 0.750000 0.250000 0.000000
O O10 0.500000 0.260300 0.500000
O O11 0.550020 0.500000 0.406054
#
# Coordination Sequence:
#
# PCOD8115161 Si02
#       4
#     8   8   8   8
#     4   9  19  35  54  79 108 138 175 218 263 313
#     4   9  19  35  56  79 107 140 176 218 262 310
#     4  11  23  37  55  78 107 141 179 220 263 314
#     4   8  16  33  56  80 106 139 176 213 259 313
#
# _framework density 17.228712000000002
#
# number of rings (size 3 to 8) (size 9 to 14) (size 15 to 20)
#    1.500    1.250    0.000    1.500    0.000    5.500 
#    0.000    1.250    0.000    7.500    0.000    0.000 
#    0.000    0.000    0.000    0.000    0.000    0.000 
#
# Total GULP energy -198223.530564 kJ/mol
# GULP energy per Si atom -12388.970660 kJ/mol
# Density = 1.718950 g / cm^3
# Si number density = 17.228712 Si / 1000 Ang^3
#
#
#
# Elastic Constant Matrix: (Units=GPa)
#
#
# Indices 1 2 3 4 5 6 
#
# 1 68.1411 26.6978 7.4539 0.0000 -6.0996 0.0000
# 2 26.6978 75.9979 40.1442 0.0000 -8.0966 0.0000
# 3 7.4539 40.1442 74.1557 0.0000 -0.1616 0.0000
# 4 0.0000 0.0000 0.0000 29.1045 0.0000 4.0080
# 5 -6.0996 -8.0966 -0.1616 0.0000 25.4160 0.0000
# 6 0.0000 0.0000 0.0000 4.0080 0.0000 19.8393
#
#
#
# Elastic Compliance Matrix: (Units=1/GPa)
#
#
# Indices 1 2 3 4 5 6 
#
# 1 0.017356 -0.006959 0.002027 0.000000 0.001961 0.000000
# 2 -0.006959 0.022117 -0.011262 0.000000 0.005304 0.000000
# 3 0.002027 -0.011262 0.019372 0.000000 -0.002978 0.000000
# 4 0.000000 0.000000 0.000000 0.035342 0.000000 -0.007140
# 5 0.001961 0.005304 -0.002978 0.000000 0.041487 0.000000
# 6 0.000000 0.000000 0.000000 -0.007140 0.000000 0.051847
#
#
# Mechanical properties :
#
#
# Convention : Reuss Voigt Hill
#
# Bulk Modulus (GPa) = 37.79788 40.76517 39.28153
# Shear Modulus (GPa) = 21.86016 24.47187 23.16602
#
# Velocity S-wave (km/s) = 3.56592 3.77292 3.67088
# Velocity P-wave (km/s) = 6.24026 6.53395 6.38879
#
# Compressibility (1/GPa) = 0.02645651
#
# Stress axis : x y z
#
# Youngs Moduli (GPa) = 57.61792 45.21465 51.62209
#
# Poissons Ratio (x) = 0.31463 -0.10463
# Poissons Ratio (y) = 0.40094 0.58136
# Poissons Ratio (z) = -0.11678 0.50920
#
# Static dielectric constant tensor:
#      x y z
#    x 3.109980 0.000000 -0.019660 
#    y 0.000000 3.271060 0.000000 
#    z -0.019660 0.000000 3.130840 
# 
# 
# High freq. dielectric constant tensor:
#      x y z
#    x 1.651980 0.000000 0.001550 
#    y 0.000000 1.677540 0.000000 
#    z 0.001550 0.000000 1.647000 
# 
# From -- ./inp_files/30175.got.cif
#   From: 2010.06.25/outbox.cif.g09.slc.cpg/sg12_16_cif.got.tgz:30175.got - 2010.06.28 00:19:55.
