data_PCOD8115792
_publ_section_title
;
Structure prediction by ZEFSAII (Michael W. Deem and Ramdas Pophale) SiO2 
 PCOD8115792
Probable space group: C 2/M
;
_chemical_formula_sum "Si O2"
_cell_formula_units_Z 40
_cell_length_a 27.302340
_cell_length_b 14.266218
_cell_length_c 8.481479
_cell_angle_alpha 90.000000
_cell_angle_beta 148.468602
_cell_angle_gamma 90.000000
_cell_volume 1727.641190
_symmetry_space_group_name_H-M "C 2/M"
_symmetry_group_IT_number 12
_symmetry_cell_setting 'monoclinic'
loop_
_space_group_symop_operation_xyz
x,y,z
-x,y,-z
-x,-y,-z
x,-y,z
1/2+x,1/2+y,z
1/2-x,1/2+y,-z
1/2-x,1/2-y,-z
1/2+x,1/2-y,z
loop_
_atom_site_type_symbol
_atom_site_label
_atom_site_fract_x
_atom_site_fract_y
_atom_site_fract_z
Si Si1 0.889760 0.109518 0.520150
Si Si2 0.107118 0.107643 0.130405
Si Si3 0.085544 0.389833 0.353208
Si Si4 0.594140 0.235683 0.666448
Si Si5 0.764627 0.215093 0.715059
O O1 0.850281 0.148505 0.583047
O O2 0.855450 0.176349 0.286190
O O3 0.867053 0.000000 0.424445
O O4 0.999381 0.133312 0.823477
O O5 0.157776 0.134009 0.107833
O O6 0.117271 0.000000 0.194249
O O7 0.105683 0.500000 0.419833
O O8 0.065568 0.350620 0.474062
O O9 0.174738 0.334125 0.538416
O O10 0.000000 0.369129 0.000000
O O11 0.500000 0.264536 0.500000
O O12 0.680247 0.209895 0.021610
O O13 0.750000 0.250000 0.500000
#
# Coordination Sequence:
#
# PCOD8115792 Si02
#       5
#     8   8   8   8   8
#     4   9  19  35  61 100 137 165 199 256 340 413
#     4   9  18  35  60  92 131 168 199 252 330 407
#     4  11  27  49  70  94 133 186 237 282 326 391
#     4  12  24  41  69 102 132 174 223 282 344 403
#     4  12  24  42  66  99 131 171 224 278 340 398
#
# _framework density 23.152956
#
# number of rings (size 3 to 8) (size 9 to 14) (size 15 to 20)
#    0.000    1.400    2.000    4.800    2.800    2.400 
#    0.000    4.000    0.000    0.000    0.000    0.000 
#    0.000    0.000    0.000    0.000    0.000    0.000 
#
# Total GULP energy -247782.046499 kJ/mol
# GULP energy per Si atom -12389.102325 kJ/mol
# Density = 2.310026 g / cm^3
# Si number density = 23.152956 Si / 1000 Ang^3
#
#
#
# Elastic Constant Matrix: (Units=GPa)
#
#
# Indices 1 2 3 4 5 6 
#
# 1 114.2638 17.7146 32.2087 0.0000 -4.6584 0.0000
# 2 17.7146 95.3528 30.5419 0.0000 -24.3160 0.0000
# 3 32.2087 30.5419 147.2535 0.0000 -21.4065 0.0000
# 4 0.0000 0.0000 0.0000 22.5606 0.0000 -12.4569
# 5 -4.6584 -24.3160 -21.4065 0.0000 42.0104 0.0000
# 6 0.0000 0.0000 0.0000 -12.4569 0.0000 22.4591
#
#
#
# Elastic Compliance Matrix: (Units=1/GPa)
#
#
# Indices 1 2 3 4 5 6 
#
# 1 0.009463 -0.001326 -0.001894 0.000000 -0.000683 0.000000
# 2 -0.001326 0.012866 -0.001423 0.000000 0.006575 0.000000
# 3 -0.001894 -0.001423 0.007938 0.000000 0.003011 0.000000
# 4 0.000000 0.000000 0.000000 0.063892 0.000000 0.035438
# 5 -0.000683 0.006575 0.003011 0.000000 0.029068 0.000000
# 6 0.000000 0.000000 0.000000 0.035438 0.000000 0.064181
#
#
# Mechanical properties :
#
#
# Convention : Reuss Voigt Hill
#
# Bulk Modulus (GPa) = 47.65915 57.53338 52.59627
# Shear Modulus (GPa) = 24.54735 35.83302 30.19018
#
# Velocity S-wave (km/s) = 3.25964 3.93831 3.61494
# Velocity P-wave (km/s) = 5.89883 6.75156 6.33955
#
# Compressibility (1/GPa) = 0.02098233
#
# Stress axis : x y z
#
# Youngs Moduli (GPa) = 105.67153 77.72390 125.97290
#
# Poissons Ratio (x) = 0.10303 0.23863
# Poissons Ratio (y) = 0.14007 0.17923
# Poissons Ratio (z) = 0.20017 0.11059
#
# Static dielectric constant tensor:
#      x y z
#    x 7.712190 0.000000 -1.069940 
#    y 0.000000 4.378040 0.000000 
#    z -1.069940 0.000000 4.720740 
# 
# 
# High freq. dielectric constant tensor:
#      x y z
#    x 1.937190 0.000000 -0.008280 
#    y 0.000000 1.906510 0.000000 
#    z -0.008280 0.000000 1.922940 
# 
# From -- ./inp_files/112113.got.cif
#   From: 2010.06.25/outbox.cif.g09.slc.cpg/sg12_57_cif.got.tgz:112113.got - 2010.06.28 00:19:55.
