data_PCOD8115386
_publ_section_title
;
Structure prediction by ZEFSAII (Michael W. Deem and Ramdas Pophale) SiO2 
 PCOD8115386
Probable space group: C 2/M
;
_chemical_formula_sum "Si O2"
_cell_formula_units_Z 40
_cell_length_a 18.078804
_cell_length_b 7.466225
_cell_length_c 17.255087
_cell_angle_alpha 90.000000
_cell_angle_beta 122.048510
_cell_angle_gamma 90.000000
_cell_volume 1974.142173
_symmetry_space_group_name_H-M "C 2/M"
_symmetry_group_IT_number 12
_symmetry_cell_setting 'monoclinic'
loop_
_space_group_symop_operation_xyz
x,y,z
-x,y,-z
-x,-y,-z
x,-y,z
1/2+x,1/2+y,z
1/2-x,1/2+y,-z
1/2-x,1/2-y,-z
1/2+x,1/2-y,z
loop_
_atom_site_type_symbol
_atom_site_label
_atom_site_fract_x
_atom_site_fract_y
_atom_site_fract_z
Si Si1 0.443820 0.790015 0.718591
Si Si2 0.788032 0.789449 0.908093
Si Si3 0.117165 0.705180 0.893864
Si Si4 0.276827 0.709390 0.727692
Si Si5 0.962058 0.000000 0.602263
Si Si6 0.638292 0.500000 0.612434
O O1 0.525151 0.713906 0.814609
O O2 0.357250 0.751345 0.717899
O O3 0.440833 0.680257 0.637539
O O4 0.450834 0.000000 0.702414
O O5 0.698697 0.703475 0.893659
O O6 0.802077 0.724154 0.828262
O O7 0.780736 0.000000 0.907365
O O8 0.870146 0.729531 0.006552
O O9 0.113929 0.500000 0.869181
O O10 0.252097 0.500000 0.712205
O O11 0.193792 0.819550 0.652847
O O12 0.899377 0.000000 0.494212
O O13 0.063012 0.000000 0.634724
#
# Coordination Sequence:
#
# PCOD8115386 Si02
#       6
#     8   8   8   8   4   4
#     4  11  23  42  64  95 132 168 211 263 323 379
#     4   9  19  34  56  87 123 168 213 255 310 372
#     4   9  19  34  56  87 123 168 213 255 310 372
#     4  11  23  42  64  95 132 168 211 263 323 379
#     4  11  26  46  70  97 123 165 217 264 325 388
#     4  11  26  46  70  97 123 165 217 264 325 388
#
# _framework density 20.261966000000001
#
# number of rings (size 3 to 8) (size 9 to 14) (size 15 to 20)
#    0.000    1.800    2.000    1.200    2.800    4.800 
#    0.000    6.000    0.000    0.000    0.000    0.000 
#    0.000    0.000    0.000    0.000    0.000    0.000 
#
# Total GULP energy -247989.807460 kJ/mol
# GULP energy per Si atom -12399.490373 kJ/mol
# Density = 2.021585 g / cm^3
# Si number density = 20.261966 Si / 1000 Ang^3
#
#
#
# Elastic Constant Matrix: (Units=GPa)
#
#
# Indices 1 2 3 4 5 6 
#
# 1 122.8601 43.9233 68.2611 0.0000 -24.7203 0.0000
# 2 43.9233 102.4201 49.9818 0.0000 -2.3599 0.0000
# 3 68.2611 49.9818 118.9255 0.0000 -19.6895 0.0000
# 4 0.0000 0.0000 0.0000 31.2638 0.0000 4.4663
# 5 -24.7203 -2.3599 -19.6895 0.0000 17.3927 0.0000
# 6 0.0000 0.0000 0.0000 4.4663 0.0000 -7.4628
#
#
#
# Elastic Compliance Matrix: (Units=1/GPa)
#
#
# Indices 1 2 3 4 5 6 
#
# 1 0.015283 -0.004037 -0.004393 0.000000 0.016201 0.000000
# 2 -0.004037 0.013734 -0.005041 0.000000 -0.009581 0.000000
# 3 -0.004393 -0.005041 0.014647 0.000000 0.009653 0.000000
# 4 0.000000 0.000000 0.000000 0.029467 0.000000 0.017635
# 5 0.016201 -0.009581 0.009653 0.000000 0.090149 0.000000
# 6 0.000000 0.000000 0.000000 0.017635 0.000000 -0.123444
#
#
# Mechanical properties :
#
#
# Convention : Reuss Voigt Hill
#
# Bulk Modulus (GPa) = 59.80369 74.28201 67.04285
# Shear Modulus (GPa) = 69.10387 20.37472 44.73929
#
# Velocity S-wave (km/s) = 5.84630 3.17450 4.70408
# Velocity P-wave (km/s) = 8.66901 7.08357 7.91608
#
# Compressibility (1/GPa) = 0.01672138
#
# Stress axis : x y z
#
# Youngs Moduli (GPa) = 65.43107 72.80947 68.27144
#
# Poissons Ratio (x) = 0.29393 0.29995
# Poissons Ratio (y) = 0.26414 0.34419
# Poissons Ratio (z) = 0.28747 0.36707
#
# Static dielectric constant tensor:
#      x y z
#    x 3.818850 0.000000 0.007570 
#    y 0.000000 3.724580 0.000000 
#    z 0.007570 0.000000 3.766480 
# 
# 
# High freq. dielectric constant tensor:
#      x y z
#    x 1.789800 0.000000 -0.000330 
#    y 0.000000 1.796700 0.000000 
#    z -0.000330 0.000000 1.792990 
# 
# From -- ./inp_files/220627.got.cif
#   From: 2010.06.25/outbox.cif.g09.slc.cpg/sg12_111_cif.got.tgz:220627.got - 2010.06.28 00:19:55.
