data_PCOD8115493
_publ_section_title
;
Structure prediction by ZEFSAII (Michael W. Deem and Ramdas Pophale) SiO2 
 PCOD8115493
Probable space group: C 2/M
;
_chemical_formula_sum "Si O2"
_cell_formula_units_Z 64
_cell_length_a 9.837851
_cell_length_b 25.419653
_cell_length_c 18.857898
_cell_angle_alpha 90.000000
_cell_angle_beta 41.059213
_cell_angle_gamma 90.000000
_cell_volume 3097.575034
_symmetry_space_group_name_H-M "C 2/M"
_symmetry_group_IT_number 12
_symmetry_cell_setting 'monoclinic'
loop_
_space_group_symop_operation_xyz
x,y,z
-x,y,-z
-x,-y,-z
x,-y,z
1/2+x,1/2+y,z
1/2-x,1/2+y,-z
1/2-x,1/2-y,-z
1/2+x,1/2-y,z
loop_
_atom_site_type_symbol
_atom_site_label
_atom_site_fract_x
_atom_site_fract_y
_atom_site_fract_z
Si Si1 0.058002 0.059864 0.897601
Si Si2 0.764206 0.401915 0.082837
Si Si3 0.608291 0.206541 0.024393
Si Si4 0.945286 0.629170 0.703441
Si Si5 0.829476 0.310914 0.264105
Si Si6 0.996067 0.875794 0.681465
Si Si7 0.321497 0.200205 0.625620
Si Si8 0.669544 0.438451 0.491009
O O1 0.231096 0.098877 0.799635
O O2 0.857900 0.061832 0.924894
O O3 0.141329 0.000000 0.865578
O O4 0.000000 0.077551 0.000000
O O5 0.658347 0.402364 0.201573
O O6 0.758857 0.343140 0.053412
O O7 0.000000 0.422359 0.000000
O O8 0.432077 0.189571 0.147175
O O9 0.500000 0.233597 0.000000
O O10 0.750000 0.250000 0.000000
O O11 0.919285 0.676361 0.658083
O O12 0.020704 0.654781 0.746349
O O13 0.112628 0.588437 0.609710
O O14 0.611015 0.339143 0.336152
O O15 0.800777 0.253397 0.308353
O O16 0.167755 0.842247 0.653806
O O17 0.099741 0.923460 0.597738
O O18 0.500000 0.214628 0.500000
O O19 0.500000 0.420363 0.500000
O O20 0.707279 0.500000 0.472341
#
# Coordination Sequence:
#
# PCOD8115493 Si02
#       8
#     8   8   8   8   8   8   8   8
#     4  11  26  46  73 105 137 176 227 289 353 407
#     4  11  23  45  69  97 137 179 226 282 336 414
#     4  11  24  40  62  95 134 180 226 273 327 402
#     4  12  25  47  71 100 139 185 226 284 346 408
#     4  12  26  41  68  99 137 187 223 279 337 408
#     4  12  23  46  66 100 136 176 229 281 344 399
#     4  12  27  43  68 103 138 180 231 281 342 411
#     4  11  25  45  72 102 132 177 235 289 345 413
#
# _framework density 20.661322999999999
#
# number of rings (size 3 to 8) (size 9 to 14) (size 15 to 20)
#    0.000    0.500    6.250    2.625    3.500    2.250 
#    0.000    0.625    0.000    0.000    0.000    0.000 
#    0.000    0.000    0.000    0.000    0.000    0.000 
#
# Total GULP energy -396954.599888 kJ/mol
# GULP energy per Si atom -12404.831246 kJ/mol
# Density = 2.061430 g / cm^3
# Si number density = 20.661323 Si / 1000 Ang^3
#
#
#
# Elastic Constant Matrix: (Units=GPa)
#
#
# Indices 1 2 3 4 5 6 
#
# 1 121.3977 22.3635 43.7644 0.0002 5.7137 -0.0001
# 2 22.3635 62.8443 39.2901 -0.0001 6.7137 -0.0001
# 3 43.7644 39.2901 134.8402 0.0047 13.5935 -0.0019
# 4 0.0002 -0.0001 0.0047 -7.4407 -0.0012 2.9389
# 5 5.7137 6.7137 13.5935 -0.0012 36.0083 0.0005
# 6 -0.0001 -0.0001 -0.0019 2.9389 0.0005 33.5681
#
#
#
# Elastic Compliance Matrix: (Units=1/GPa)
#
#
# Indices 1 2 3 4 5 6 
#
# 1 0.009490 -0.001763 -0.002544 -0.000001 -0.000217 0.000000
# 2 -0.001763 0.019868 -0.005064 -0.000003 -0.001513 0.000000
# 3 -0.002544 -0.005064 0.009961 0.000007 -0.002412 0.000000
# 4 -0.000001 -0.000003 0.000007 -0.129904 -0.000006 0.011373
# 5 -0.000217 -0.001513 -0.002412 -0.000006 0.028998 0.000000
# 6 0.000000 0.000000 0.000000 0.011373 0.000000 0.028794
#
#
# Mechanical properties :
#
#
# Convention : Reuss Voigt Hill
#
# Bulk Modulus (GPa) = 48.60407 58.87981 53.74194
# Shear Modulus (GPa) = -695.29166 26.67142 -334.31012
#
# Velocity S-wave (km/s) = -18.36434 3.59679 -12.73405
# Velocity P-wave (km/s) = 20.64195 6.76821 13.78915
#
# Compressibility (1/GPa) = 0.02057441
#
# Stress axis : x y z
#
# Youngs Moduli (GPa) = 105.37802 50.33335 100.39258
#
# Poissons Ratio (x) = 0.08874 0.25545
# Poissons Ratio (y) = 0.18578 0.50842
# Poissons Ratio (z) = 0.26813 0.25491
#
# Static dielectric constant tensor:
#      x y z
#    x 4.036390 0.000000 0.015910 
#    y 0.000000 3.575250 0.000000 
#    z 0.015910 0.000000 3.910500 
# 
# 
# High freq. dielectric constant tensor:
#      x y z
#    x 1.826570 0.000000 0.004970 
#    y 0.000000 1.804250 0.000000 
#    z 0.004970 0.000000 1.821670 
# 
# From -- ./inp_files/260289.got.cif
#   From: 2010.06.25/outbox.cif.g09.slc.cpg/sg12_131_cif.got.tgz:260289.got - 2010.06.28 00:19:55.
