data_PCOD8115692
_publ_section_title
;
Structure prediction by ZEFSAII (Michael W. Deem and Ramdas Pophale) SiO2 
 PCOD8115692
Probable space group: C 2/M
;
_chemical_formula_sum "Si O2"
_cell_formula_units_Z 28
_cell_length_a 8.975193
_cell_length_b 25.113805
_cell_length_c 8.606505
_cell_angle_alpha 90.000000
_cell_angle_beta 145.440726
_cell_angle_gamma 90.000000
_cell_volume 1100.434411
_symmetry_space_group_name_H-M "C 2/M"
_symmetry_group_IT_number 12
_symmetry_cell_setting 'monoclinic'
loop_
_space_group_symop_operation_xyz
x,y,z
-x,y,-z
-x,-y,-z
x,-y,z
1/2+x,1/2+y,z
1/2-x,1/2+y,-z
1/2-x,1/2-y,-z
1/2+x,1/2-y,z
loop_
_atom_site_type_symbol
_atom_site_label
_atom_site_fract_x
_atom_site_fract_y
_atom_site_fract_z
Si Si1 0.292447 0.145978 0.689832
Si Si2 0.712507 0.060074 0.546344
Si Si3 0.000000 0.133148 0.000000
Si Si4 0.421141 0.218134 0.271150
O O1 0.382745 0.089605 0.692102
O O2 0.314239 0.194651 0.582194
O O3 0.000000 0.142387 0.500000
O O4 0.500000 0.160650 0.000000
O O5 0.500000 0.059982 0.500000
O O6 0.961142 0.094705 0.817659
O O7 0.799264 0.000000 0.580339
O O8 0.743847 0.167676 0.812551
O O9 0.500000 0.249936 0.500000
O O10 0.250000 0.250000 0.000000
#
# Coordination Sequence:
#
# PCOD8115692 Si02
#       4
#     8   8   4   8
#     4  12  27  51  79 114 167 208 261 333 404 476
#     4  11  24  46  80 114 153 210 265 324 401 480
#     4  12  21  50  80 110 158 194 273 324 394 476
#     4  12  29  52  81 113 156 215 274 333 404 479
#
# _framework density 25.444499
#
# number of rings (size 3 to 8) (size 9 to 14) (size 15 to 20)
#    0.000    0.286    5.714    2.143    2.000    5.714 
#    0.000    2.857    0.000    0.000    0.000    0.000 
#    0.000    0.000    0.000    0.000    0.000    0.000 
#
# Total GULP energy -173603.804340 kJ/mol
# GULP energy per Si atom -12400.271739 kJ/mol
# Density = 2.538659 g / cm^3
# Si number density = 25.444499 Si / 1000 Ang^3
#
#
#
# Elastic Constant Matrix: (Units=GPa)
#
#
# Indices 1 2 3 4 5 6 
#
# 1 156.6483 48.7857 54.5689 0.0000 -4.1211 0.0000
# 2 48.7857 108.9403 19.6614 0.0000 -29.4082 0.0000
# 3 54.5689 19.6614 133.8576 0.0000 -30.1841 0.0000
# 4 0.0000 0.0000 0.0000 50.2731 0.0000 -16.2755
# 5 -4.1211 -29.4082 -30.1841 0.0000 53.3712 0.0000
# 6 0.0000 0.0000 0.0000 -16.2755 0.0000 30.2691
#
#
#
# Elastic Compliance Matrix: (Units=1/GPa)
#
#
# Indices 1 2 3 4 5 6 
#
# 1 0.009013 -0.004393 -0.003917 0.000000 -0.003940 0.000000
# 2 -0.004393 0.012933 0.001629 0.000000 0.007709 0.000000
# 3 -0.003917 0.001629 0.010273 0.000000 0.006405 0.000000
# 4 0.000000 0.000000 0.000000 0.024084 0.000000 0.012950
# 5 -0.003940 0.007709 0.006405 0.000000 0.026302 0.000000
# 6 0.000000 0.000000 0.000000 0.012950 0.000000 0.040000
#
#
# Mechanical properties :
#
#
# Convention : Reuss Voigt Hill
#
# Bulk Modulus (GPa) = 53.03028 71.71982 62.37505
# Shear Modulus (GPa) = 35.14891 45.21136 40.18013
#
# Velocity S-wave (km/s) = 3.72074 4.21986 3.97814
# Velocity P-wave (km/s) = 6.27259 7.21047 6.75782
#
# Compressibility (1/GPa) = 0.01885715
#
# Stress axis : x y z
#
# Youngs Moduli (GPa) = 110.95401 77.31941 97.34668
#
# Poissons Ratio (x) = 0.33964 0.38135
# Poissons Ratio (y) = 0.48738 -0.15861
# Poissons Ratio (z) = 0.43465 -0.12598
#
# Static dielectric constant tensor:
#      x y z
#    x 4.909550 0.000000 -0.489440 
#    y 0.000000 4.935510 0.000000 
#    z -0.489440 0.000000 4.493850 
# 
# 
# High freq. dielectric constant tensor:
#      x y z
#    x 2.026270 0.000000 -0.008480 
#    y 0.000000 2.023240 0.000000 
#    z -0.008480 0.000000 2.015970 
# 
# From -- ./inp_files/40031.got.cif
#   From: 2010.06.25/outbox.cif.g09.slc.cpg/sg12_21_cif.got.tgz:40031.got - 2010.06.28 00:19:55.
