data_PCOD8115266
_publ_section_title
;
Structure prediction by ZEFSAII (Michael W. Deem and Ramdas Pophale) SiO2 
 PCOD8115266
Probable space group: C 2/M
;
_chemical_formula_sum "Si O2"
_cell_formula_units_Z 60
_cell_length_a 16.245302
_cell_length_b 29.301856
_cell_length_c 5.823382
_cell_angle_alpha 90.000000
_cell_angle_beta 77.690187
_cell_angle_gamma 90.000000
_cell_volume 2708.300165
_symmetry_space_group_name_H-M "C 2/M"
_symmetry_group_IT_number 12
_symmetry_cell_setting 'monoclinic'
loop_
_space_group_symop_operation_xyz
x,y,z
-x,y,-z
-x,-y,-z
x,-y,z
1/2+x,1/2+y,z
1/2-x,1/2+y,-z
1/2-x,1/2-y,-z
1/2+x,1/2-y,z
loop_
_atom_site_type_symbol
_atom_site_label
_atom_site_fract_x
_atom_site_fract_y
_atom_site_fract_z
Si Si1 0.500000 0.897193 0.000000
Si Si2 0.451594 0.612553 0.776486
Si Si3 0.189615 0.822785 0.027392
Si Si4 0.431586 0.825645 0.370183
Si Si5 0.851470 0.450217 0.892159
Si Si6 0.804502 0.267738 0.255591
Si Si7 0.222281 0.615915 0.389501
Si Si8 0.691118 0.448606 0.297475
O O1 0.514378 0.865468 0.774750
O O2 0.417919 0.927635 0.022629
O O3 0.500000 0.615244 0.500000
O O4 0.392809 0.567703 0.784701
O O5 0.500000 0.608166 0.000000
O O6 0.397725 0.659414 0.814212
O O7 0.179306 0.773162 0.926855
O O8 0.218035 0.862940 0.840099
O O9 0.258856 0.813494 0.183460
O O10 0.500000 0.804443 0.500000
O O11 0.401570 0.782223 0.242274
O O12 0.339575 0.843182 0.504313
O O13 0.884897 0.500000 0.803726
O O14 0.841634 0.422426 0.664735
O O15 0.762508 0.452730 0.066710
O O16 0.750000 0.250000 0.500000
O O17 0.282316 0.591161 0.539048
O O18 0.677181 0.500000 0.413386
#
# Coordination Sequence:
#
# PCOD8115266 Si02
#       8
#     4   8   8   8   8   8   8   8
#     4  12  23  44  62 102 146 188 236 296 369 442
#     4  12  28  50  76 112 152 199 246 315 389 449
#     4  11  25  47  75 102 134 188 246 306 376 448
#     4  12  25  40  67  99 139 187 229 297 369 440
#     4  11  23  39  66 103 143 187 241 298 359 441
#     4  11  25  46  73 103 136 184 248 307 360 451
#     4  12  21  44  71 101 136 194 246 294 370 447
#     4  11  25  45  74 106 142 194 250 300 365 450
#
# _framework density 22.154116999999999
#
# number of rings (size 3 to 8) (size 9 to 14) (size 15 to 20)
#    0.000    0.533    5.333    3.000    1.867    0.533 
#    3.600    0.667    0.000    0.000    0.000    0.000 
#    0.000    0.000    0.000    0.000    0.000    0.000 
#
# Total GULP energy -371647.255820 kJ/mol
# GULP energy per Si atom -12388.241861 kJ/mol
# Density = 2.210369 g / cm^3
# Si number density = 22.154117 Si / 1000 Ang^3
#
#
#
# Elastic Constant Matrix: (Units=GPa)
#
#
# Indices 1 2 3 4 5 6 
#
# 1 145.7899 55.8374 42.8252 0.0000 21.6994 0.0000
# 2 55.8374 99.8193 9.1040 0.0000 10.5995 0.0000
# 3 42.8252 9.1040 76.3119 0.0000 8.7902 0.0000
# 4 0.0000 0.0000 0.0000 -25.0579 0.0000 -130.3005
# 5 21.6994 10.5995 8.7902 0.0000 46.2897 0.0000
# 6 0.0000 0.0000 0.0000 -130.3005 0.0000 -306.0432
#
#
#
# Elastic Compliance Matrix: (Units=1/GPa)
#
#
# Indices 1 2 3 4 5 6 
#
# 1 0.010808 -0.005274 -0.005103 0.000000 -0.002890 0.000000
# 2 -0.005274 0.012912 0.001508 0.000000 -0.000771 0.000000
# 3 -0.005103 0.001508 0.015900 0.000000 -0.000972 0.000000
# 4 0.000000 0.000000 0.000000 0.032875 0.000000 -0.013997
# 5 -0.002890 -0.000771 -0.000972 0.000000 0.023319 0.000000
# 6 0.000000 0.000000 0.000000 -0.013997 0.000000 0.002692
#
#
# Mechanical properties :
#
#
# Convention : Reuss Voigt Hill
#
# Bulk Modulus (GPa) = 45.69872 59.71714 52.70793
# Shear Modulus (GPa) = 40.47321 -42.68531 -1.10605
#
# Velocity S-wave (km/s) = 4.27885 -4.39423 -0.70734
# Velocity P-wave (km/s) = 6.71445 1.12612 4.81415
#
# Compressibility (1/GPa) = 0.02188245
#
# Stress axis : x y z
#
# Youngs Moduli (GPa) = 92.52215 77.44479 62.89237
#
# Poissons Ratio (x) = 0.40842 0.32096
# Poissons Ratio (y) = 0.48793 -0.09483
# Poissons Ratio (z) = 0.47218 -0.11677
#
# Static dielectric constant tensor:
#      x y z
#    x 4.103330 0.000000 0.174740 
#    y 0.000000 4.415310 0.000000 
#    z 0.174740 0.000000 4.090540 
# 
# 
# High freq. dielectric constant tensor:
#      x y z
#    x 1.878230 0.000000 0.010640 
#    y 0.000000 1.888230 0.000000 
#    z 0.010640 0.000000 1.868230 
# 
# From -- ./inp_files/18124.got.cif
#   From: 2010.06.25/outbox.cif.g09.slc.cpg/sg12_10_cif.got.tgz:18124.got - 2010.06.28 00:19:55.
