data_PCOD8115500
_publ_section_title
;
Structure prediction by ZEFSAII (Michael W. Deem and Ramdas Pophale) SiO2 
 PCOD8115500
Probable space group: C 2/M
;
_chemical_formula_sum "Si O2"
_cell_formula_units_Z 40
_cell_length_a 31.020066
_cell_length_b 9.432730
_cell_length_c 14.806581
_cell_angle_alpha 90.000000
_cell_angle_beta 24.422508
_cell_angle_gamma 90.000000
_cell_volume 1791.309653
_symmetry_space_group_name_H-M "C 2/M"
_symmetry_group_IT_number 12
_symmetry_cell_setting 'monoclinic'
loop_
_space_group_symop_operation_xyz
x,y,z
-x,y,-z
-x,-y,-z
x,-y,z
1/2+x,1/2+y,z
1/2-x,1/2+y,-z
1/2-x,1/2-y,-z
1/2+x,1/2-y,z
loop_
_atom_site_type_symbol
_atom_site_label
_atom_site_fract_x
_atom_site_fract_y
_atom_site_fract_z
Si Si1 0.578992 0.206121 0.193432
Si Si2 0.454196 0.500000 0.186646
Si Si3 0.698245 0.000000 0.658089
Si Si4 0.699434 0.000000 0.084662
Si Si5 0.900140 0.500000 0.538021
Si Si6 0.084564 0.000000 0.264725
Si Si7 0.890297 0.757672 0.063142
Si Si8 0.727718 0.000000 0.394740
O O1 0.658715 0.139909 0.112903
O O2 0.466744 0.140940 0.427603
O O3 0.576748 0.372251 0.210349
O O4 0.611804 0.174754 0.028004
O O5 0.325865 0.500000 0.436252
O O6 0.500000 0.500000 0.000000
O O7 0.501676 0.351127 0.135998
O O8 0.634907 0.137961 0.813896
O O9 0.679886 0.000000 0.585960
O O10 0.684800 0.000000 0.221364
O O11 0.821465 0.000000 0.844463
O O12 0.862151 0.500000 0.508123
O O13 0.000000 0.000000 0.500000
O O14 0.793595 0.860899 0.253254
#
# Coordination Sequence:
#
# PCOD8115500 Si02
#       8
#     8   4   4   4   4   4   8   4
#     4  11  24  44  66 103 136 175 233 284 351 428
#     4  11  25  46  73 102 148 191 239 309 357 425
#     4  12  25  48  76 101 147 194 243 296 372 422
#     4  11  23  46  68  92 140 180 225 281 348 429
#     4  11  24  43  71  96 135 185 226 286 356 419
#     4  12  24  41  69 100 131 181 231 286 352 414
#     4  11  25  46  69 107 143 184 244 295 354 436
#     4  11  25  45  69 100 140 185 232 296 357 418
#
# _framework density 22.330031000000002
#
# number of rings (size 3 to 8) (size 9 to 14) (size 15 to 20)
#    0.000    0.800    2.000    7.200    2.800    1.600 
#    3.600    1.500    0.000    0.000    0.000    0.000 
#    0.000    0.000    0.000    0.000    0.000    0.000 
#
# Total GULP energy -247850.466548 kJ/mol
# GULP energy per Si atom -12392.523327 kJ/mol
# Density = 2.227921 g / cm^3
# Si number density = 22.330031 Si / 1000 Ang^3
#
#
#
# Elastic Constant Matrix: (Units=GPa)
#
#
# Indices 1 2 3 4 5 6 
#
# 1 150.1644 36.5810 54.8358 0.0000 5.0062 0.0000
# 2 36.5810 135.7069 35.3444 0.0000 -10.3309 0.0000
# 3 54.8358 35.3444 98.3511 0.0000 9.5568 0.0000
# 4 0.0000 0.0000 0.0000 26.5013 0.0000 21.9784
# 5 5.0062 -10.3309 9.5568 0.0000 42.3787 0.0000
# 6 0.0000 0.0000 0.0000 21.9784 0.0000 24.3136
#
#
#
# Elastic Compliance Matrix: (Units=1/GPa)
#
#
# Indices 1 2 3 4 5 6 
#
# 1 0.008531 -0.001208 -0.004290 0.000000 -0.000335 0.000000
# 2 -0.001208 0.008615 -0.002699 0.000000 0.002851 0.000000
# 3 -0.004290 -0.002699 0.013848 0.000000 -0.003274 0.000000
# 4 0.000000 0.000000 0.000000 0.150741 0.000000 -0.136263
# 5 -0.000335 0.002851 -0.003274 0.000000 0.025070 0.000000
# 6 0.000000 0.000000 0.000000 -0.136263 0.000000 0.164304
#
#
# Mechanical properties :
#
#
# Convention : Reuss Voigt Hill
#
# Bulk Modulus (GPa) = 68.49781 70.86051 69.67916
# Shear Modulus (GPa) = 12.74307 35.80281 24.27294
#
# Velocity S-wave (km/s) = 2.39146 4.00853 3.30056
# Velocity P-wave (km/s) = 6.19413 7.29565 6.76734
#
# Compressibility (1/GPa) = 0.01459901
#
# Stress axis : x y z
#
# Youngs Moduli (GPa) = 117.21419 116.08279 72.21342
#
# Poissons Ratio (x) = 0.14021 0.30980
# Poissons Ratio (y) = 0.14158 0.19494
# Poissons Ratio (z) = 0.50286 0.31336
#
# Static dielectric constant tensor:
#      x y z
#    x 4.751210 0.000000 0.047210 
#    y 0.000000 4.322620 0.000000 
#    z 0.047210 0.000000 4.164100 
# 
# 
# High freq. dielectric constant tensor:
#      x y z
#    x 1.891530 0.000000 0.007930 
#    y 0.000000 1.895490 0.000000 
#    z 0.007930 0.000000 1.881050 
# 
# From -- ./inp_files/249563.got.cif
#   From: 2010.06.25/outbox.cif.g09.slc.cpg/sg12_125_cif.got.tgz:249563.got - 2010.06.28 00:19:55.
