data_PCOD8115079
_publ_section_title
;
Structure prediction by ZEFSAII (Michael W. Deem and Ramdas Pophale) SiO2 
 PCOD8115079
Probable space group: C 2/M
;
_chemical_formula_sum "Si O2"
_cell_formula_units_Z 40
_cell_length_a 18.762496
_cell_length_b 11.388588
_cell_length_c 15.025021
_cell_angle_alpha 90.000000
_cell_angle_beta 140.311899
_cell_angle_gamma 90.000000
_cell_volume 2050.264768
_symmetry_space_group_name_H-M "C 2/M"
_symmetry_group_IT_number 12
_symmetry_cell_setting 'monoclinic'
loop_
_space_group_symop_operation_xyz
x,y,z
-x,y,-z
-x,-y,-z
x,-y,z
1/2+x,1/2+y,z
1/2-x,1/2+y,-z
1/2-x,1/2-y,-z
1/2+x,1/2-y,z
loop_
_atom_site_type_symbol
_atom_site_label
_atom_site_fract_x
_atom_site_fract_y
_atom_site_fract_z
Si Si1 0.258996 0.762603 0.371387
Si Si2 0.414100 0.500000 0.048470
Si Si3 0.908554 0.360609 0.663993
Si Si4 0.122542 0.219061 0.862019
Si Si5 0.881931 0.131488 0.339647
Si Si6 0.843408 0.000000 0.792834
O O1 0.167394 0.674874 0.324923
O O2 0.363581 0.784452 0.537320
O O3 0.295538 0.705680 0.314215
O O4 0.209026 0.888153 0.303519
O O5 0.406368 0.612461 0.102271
O O6 0.528424 0.500000 0.106833
O O7 0.322765 0.500000 0.880382
O O8 0.900914 0.500000 0.640413
O O9 0.038104 0.325716 0.804739
O O10 0.104246 0.188468 0.742525
O O11 0.250000 0.250000 0.000000
O O12 0.000000 0.130495 0.500000
O O13 0.834626 0.000000 0.284486
#
# Coordination Sequence:
#
# PCOD8115079 Si02
#       6
#     8   4   8   8   8   4
#     4  11  22  42  67  98 130 170 213 276 327 389
#     4  11  24  44  66  94 130 179 222 266 323 405
#     4  11  24  41  66  99 134 168 218 272 330 387
#     4  12  25  44  66  94 136 175 217 268 331 394
#     4  11  23  41  66  95 129 169 217 264 323 390
#     4  11  22  42  70  95 128 170 227 267 325 398
#
# _framework density 19.509675000000001
#
# number of rings (size 3 to 8) (size 9 to 14) (size 15 to 20)
#    0.000    0.800    6.000    1.800    1.400    0.000 
#    1.800    1.500    0.000    3.600    0.000    0.000 
#    0.000    0.000    0.000    0.000    0.000    0.000 
#
# Total GULP energy -248014.763349 kJ/mol
# GULP energy per Si atom -12400.738167 kJ/mol
# Density = 1.946527 g / cm^3
# Si number density = 19.509675 Si / 1000 Ang^3
#
#
#
# Elastic Constant Matrix: (Units=GPa)
#
#
# Indices 1 2 3 4 5 6 
#
# 1 109.4045 46.6290 38.8520 0.0000 -6.2216 0.0000
# 2 46.6290 112.3430 21.0518 0.0000 10.5866 0.0000
# 3 38.8520 21.0518 84.2398 0.0000 7.6034 0.0000
# 4 0.0000 0.0000 0.0000 24.5818 0.0000 -5.8419
# 5 -6.2216 10.5866 7.6034 0.0000 39.3571 0.0000
# 6 0.0000 0.0000 0.0000 -5.8419 0.0000 35.6859
#
#
#
# Elastic Compliance Matrix: (Units=1/GPa)
#
#
# Indices 1 2 3 4 5 6 
#
# 1 0.013424 -0.004993 -0.005349 0.000000 0.004499 0.000000
# 2 -0.004993 0.011369 -0.000194 0.000000 -0.003810 0.000000
# 3 -0.005349 -0.000194 0.014715 0.000000 -0.003636 0.000000
# 4 0.000000 0.000000 0.000000 0.042327 0.000000 0.006929
# 5 0.004499 -0.003810 -0.003636 0.000000 0.027847 0.000000
# 6 0.000000 0.000000 0.000000 0.006929 0.000000 0.029157
#
#
# Mechanical properties :
#
#
# Convention : Reuss Voigt Hill
#
# Bulk Modulus (GPa) = 54.24793 57.67254 55.96024
# Shear Modulus (GPa) = 30.10998 33.22193 31.66596
#
# Velocity S-wave (km/s) = 3.93279 4.13103 4.03313
# Velocity P-wave (km/s) = 6.96337 7.23734 7.10167
#
# Compressibility (1/GPa) = 0.01843388
#
# Stress axis : x y z
#
# Youngs Moduli (GPa) = 74.49273 87.95632 67.95850
#
# Poissons Ratio (x) = 0.43919 0.36354
# Poissons Ratio (y) = 0.37196 0.01321
# Poissons Ratio (z) = 0.39850 0.01710
#
# Static dielectric constant tensor:
#      x y z
#    x 3.701250 0.000000 -0.052840 
#    y 0.000000 3.628220 0.000000 
#    z -0.052840 0.000000 3.661450 
# 
# 
# High freq. dielectric constant tensor:
#      x y z
#    x 1.773390 0.000000 -0.005420 
#    y 0.000000 1.767770 0.000000 
#    z -0.005420 0.000000 1.762460 
# 
# From -- ./inp_files/153318.got.cif
#   From: 2010.06.25/outbox.cif.g09.slc.cpg/sg12_77_cif.got.tgz:153318.got - 2010.06.28 00:19:55.
