data_PCOD8115841
_publ_section_title
;
Structure prediction by ZEFSAII (Michael W. Deem and Ramdas Pophale) SiO2 
 PCOD8115841
Probable space group: C 2/M
;
_chemical_formula_sum "Si O2"
_cell_formula_units_Z 44
_cell_length_a 15.549565
_cell_length_b 25.168829
_cell_length_c 4.996876
_cell_angle_alpha 90.000000
_cell_angle_beta 77.431830
_cell_angle_gamma 90.000000
_cell_volume 1908.738630
_symmetry_space_group_name_H-M "C 2/M"
_symmetry_group_IT_number 12
_symmetry_cell_setting 'monoclinic'
loop_
_space_group_symop_operation_xyz
x,y,z
-x,y,-z
-x,-y,-z
x,-y,z
1/2+x,1/2+y,z
1/2-x,1/2+y,-z
1/2-x,1/2-y,-z
1/2+x,1/2-y,z
loop_
_atom_site_type_symbol
_atom_site_label
_atom_site_fract_x
_atom_site_fract_y
_atom_site_fract_z
Si Si1 0.940899 0.822730 0.802142
Si Si2 0.900052 0.338284 0.493630
Si Si3 0.304803 0.409853 0.957892
Si Si4 0.803368 0.562131 0.462418
Si Si5 0.841213 0.278459 0.001930
Si Si6 0.939796 0.000000 0.791738
O O1 0.920732 0.760881 0.867229
O O2 0.000000 0.830196 0.500000
O O3 0.844994 0.851531 0.869692
O O4 0.000000 0.846613 0.000000
O O5 0.889870 0.401127 0.442373
O O6 0.843030 0.328492 0.800102
O O7 0.000000 0.324892 0.500000
O O8 0.859024 0.300017 0.290126
O O9 0.274432 0.419653 0.283631
O O10 0.224317 0.424458 0.819967
O O11 0.383240 0.447703 0.824583
O O12 0.826913 0.500000 0.483215
O O13 0.750000 0.250000 0.000000
O O14 0.000000 0.000000 0.500000
O O15 0.000000 0.000000 0.000000
#
# Coordination Sequence:
#
# PCOD8115841 Si02
#       6
#     8   8   8   8   8   4
#     4  12  24  41  65  97 137 175 216 273 333 401
#     4  12  26  45  71 102 137 175 228 288 344 405
#     4  12  24  43  64  98 132 179 228 272 333 403
#     4  12  24  45  69  96 131 180 227 284 340 397
#     4  12  25  45  70 101 134 179 225 274 343 414
#     4  12  22  38  62  92 131 174 223 276 328 386
#
# _framework density 23.051871999999999
#
# number of rings (size 3 to 8) (size 9 to 14) (size 15 to 20)
#    0.000    0.000    1.818   10.364    0.000    0.364 
#    0.000    0.000    0.000    4.364    0.000    0.000 
#    0.000    0.000    0.000    0.000    0.000    0.000 
#
# Total GULP energy -272762.371013 kJ/mol
# GULP energy per Si atom -12398.289592 kJ/mol
# Density = 2.299940 g / cm^3
# Si number density = 23.051872 Si / 1000 Ang^3
#
#
#
# Elastic Constant Matrix: (Units=GPa)
#
#
# Indices 1 2 3 4 5 6 
#
# 1 112.6560 32.5136 32.5104 0.0000 22.1298 0.0000
# 2 32.5136 123.6023 13.5950 0.0000 10.0228 0.0000
# 3 32.5104 13.5950 129.1561 0.0000 17.2464 0.0000
# 4 0.0000 0.0000 0.0000 29.8698 0.0000 5.1845
# 5 22.1298 10.0228 17.2464 0.0000 33.5784 0.0000
# 6 0.0000 0.0000 0.0000 5.1845 0.0000 49.8317
#
#
#
# Elastic Compliance Matrix: (Units=1/GPa)
#
#
# Indices 1 2 3 4 5 6 
#
# 1 0.011188 -0.002277 -0.001807 0.000000 -0.005766 0.000000
# 2 -0.002277 0.008795 -0.000217 0.000000 -0.001013 0.000000
# 3 -0.001807 -0.000217 0.008645 0.000000 -0.003185 0.000000
# 4 0.000000 0.000000 0.000000 0.034094 0.000000 -0.003547
# 5 -0.005766 -0.001013 -0.003185 0.000000 0.035519 0.000000
# 6 0.000000 0.000000 0.000000 -0.003547 0.000000 0.020437
#
#
# Mechanical properties :
#
#
# Convention : Reuss Voigt Hill
#
# Bulk Modulus (GPa) = 49.93198 58.07247 54.00223
# Shear Modulus (GPa) = 37.32581 41.77569 39.55075
#
# Velocity S-wave (km/s) = 4.02831 4.26167 4.14663
# Velocity P-wave (km/s) = 6.58362 7.03296 6.81200
#
# Compressibility (1/GPa) = 0.02002725
#
# Stress axis : x y z
#
# Youngs Moduli (GPa) = 89.38489 113.69556 115.66743
#
# Poissons Ratio (x) = 0.25885 0.20896
# Poissons Ratio (y) = 0.20350 0.02515
# Poissons Ratio (z) = 0.16148 0.02472
#
# Static dielectric constant tensor:
#      x y z
#    x 4.168120 0.000000 0.313870 
#    y 0.000000 4.444690 0.000000 
#    z 0.313870 0.000000 4.604960 
# 
# 
# High freq. dielectric constant tensor:
#      x y z
#    x 1.908640 0.000000 0.007270 
#    y 0.000000 1.926940 0.000000 
#    z 0.007270 0.000000 1.923560 
# 
# From -- ./inp_files/12089.got.cif
#   From: 2010.06.25/outbox.cif.g09.slc.cpg/sg12_7_cif.got.tgz:12089.got - 2010.06.28 00:19:55.
