data_PCOD8115596
_publ_section_title
;
Structure prediction by ZEFSAII (Michael W. Deem and Ramdas Pophale) SiO2 
 PCOD8115596
Probable space group: C 2/M
;
_chemical_formula_sum "Si O2"
_cell_formula_units_Z 40
_cell_length_a 14.468507
_cell_length_b 25.661817
_cell_length_c 14.184504
_cell_angle_alpha 90.000000
_cell_angle_beta 159.465299
_cell_angle_gamma 90.000000
_cell_volume 1847.368041
_symmetry_space_group_name_H-M "C 2/M"
_symmetry_group_IT_number 12
_symmetry_cell_setting 'monoclinic'
loop_
_space_group_symop_operation_xyz
x,y,z
-x,y,-z
-x,-y,-z
x,-y,z
1/2+x,1/2+y,z
1/2-x,1/2+y,-z
1/2-x,1/2-y,-z
1/2+x,1/2-y,z
loop_
_atom_site_type_symbol
_atom_site_label
_atom_site_fract_x
_atom_site_fract_y
_atom_site_fract_z
Si Si1 0.600523 0.207114 0.418278
Si Si2 0.500000 0.166489 0.000000
Si Si3 0.000000 0.767574 0.500000
Si Si4 0.396482 0.560199 0.655251
Si Si5 0.774981 0.119803 0.709798
Si Si6 0.423264 0.880547 0.120080
O O1 0.750000 0.250000 0.500000
O O2 0.433520 0.234019 0.342854
O O3 0.804622 0.168070 0.665061
O O4 0.410224 0.172934 0.169020
O O5 0.383431 0.131436 0.972127
O O6 0.738478 0.199631 0.272014
O O7 0.393317 0.500000 0.624815
O O8 0.301797 0.567374 0.673260
O O9 0.203189 0.590914 0.400244
O O10 0.692305 0.581365 0.930984
O O11 0.500000 0.119513 0.500000
O O12 0.000000 0.124926 0.000000
#
# Coordination Sequence:
#
# PCOD8115596 Si02
#       6
#     8   4   4   8   8   8
#     4  11  24  43  65 101 140 183 219 269 326 398
#     4  12  26  44  65 100 134 180 229 276 330 390
#     4  12  26  40  68  98 138 188 224 264 328 406
#     4  11  25  46  71  97 130 174 222 284 349 399
#     4  11  24  42  65  97 134 173 220 277 329 398
#     4  11  25  45  68  98 139 173 225 282 332 395
#
# _framework density 21.652425000000001
#
# number of rings (size 3 to 8) (size 9 to 14) (size 15 to 20)
#    0.000    0.800    3.000    4.200    4.200    3.200 
#    0.000    3.000    0.000    0.000    0.000    0.000 
#    0.000    0.000    0.000    0.000    0.000    0.000 
#
# Total GULP energy -248050.667137 kJ/mol
# GULP energy per Si atom -12402.533357 kJ/mol
# Density = 2.160314 g / cm^3
# Si number density = 21.652425 Si / 1000 Ang^3
#
#
#
# Elastic Constant Matrix: (Units=GPa)
#
#
# Indices 1 2 3 4 5 6 
#
# 1 139.9596 50.4145 28.6738 -0.0012 -12.8802 -0.0004
# 2 50.4145 112.6144 27.0700 -0.0015 2.3417 -0.0005
# 3 28.6738 27.0700 111.3175 -0.0207 -0.0412 -0.0038
# 4 -0.0012 -0.0015 -0.0207 20.9127 -0.0059 8.9918
# 5 -12.8802 2.3417 -0.0412 -0.0059 37.1456 -0.0013
# 6 -0.0004 -0.0005 -0.0038 8.9918 -0.0013 27.9664
#
#
#
# Elastic Compliance Matrix: (Units=1/GPa)
#
#
# Indices 1 2 3 4 5 6 
#
# 1 0.009123 -0.003813 -0.001421 0.000000 0.003402 0.000000
# 2 -0.003813 0.011038 -0.001703 -0.000002 -0.002020 0.000000
# 3 -0.001421 -0.001703 0.009763 0.000010 -0.000375 -0.000002
# 4 0.000000 -0.000002 0.000010 0.055489 0.000008 -0.017841
# 5 0.003402 -0.002020 -0.000375 0.000008 0.028228 -0.000001
# 6 0.000000 0.000000 -0.000002 -0.017841 -0.000001 0.041493
#
#
# Mechanical properties :
#
#
# Convention : Reuss Voigt Hill
#
# Bulk Modulus (GPa) = 62.30606 64.02311 63.16458
# Shear Modulus (GPa) = 28.67654 34.38716 31.53185
#
# Velocity S-wave (km/s) = 3.64318 3.98947 3.82025
# Velocity P-wave (km/s) = 6.82166 7.13120 6.97815
#
# Compressibility (1/GPa) = 0.01604980
#
# Stress axis : x y z
#
# Youngs Moduli (GPa) = 109.61669 90.59460 102.42351
#
# Poissons Ratio (x) = 0.34544 0.14558
# Poissons Ratio (y) = 0.41798 0.17441
# Poissons Ratio (z) = 0.15580 0.15426
#
# Static dielectric constant tensor:
#      x y z
#    x 4.113870 0.000010 -0.090750 
#    y 0.000010 3.944970 0.000010 
#    z -0.090750 0.000010 3.731750 
# 
# 
# High freq. dielectric constant tensor:
#      x y z
#    x 1.863600 0.000000 -0.004780 
#    y 0.000000 1.841380 0.000000 
#    z -0.004780 0.000000 1.851490 
# 
# From -- ./inp_files/219208.got.cif
#   From: 2010.06.25/outbox.cif.g09.slc.cpg/sg12_110_cif.got.tgz:219208.got - 2010.06.28 00:19:55.
