data_PCOD8115953
_publ_section_title
;
Structure prediction by ZEFSAII (Michael W. Deem and Ramdas Pophale) SiO2 
 PCOD8115953
Probable space group: C 2/M
;
_chemical_formula_sum "Si O2"
_cell_formula_units_Z 64
_cell_length_a 9.324332
_cell_length_b 19.641615
_cell_length_c 20.563095
_cell_angle_alpha 90.000000
_cell_angle_beta 90.000018
_cell_angle_gamma 90.000000
_cell_volume 3766.026785
_symmetry_space_group_name_H-M "C 2/M"
_symmetry_group_IT_number 12
_symmetry_cell_setting 'monoclinic'
loop_
_space_group_symop_operation_xyz
x,y,z
-x,y,-z
-x,-y,-z
x,-y,z
1/2+x,1/2+y,z
1/2-x,1/2+y,-z
1/2-x,1/2-y,-z
1/2+x,1/2-y,z
loop_
_atom_site_type_symbol
_atom_site_label
_atom_site_fract_x
_atom_site_fract_y
_atom_site_fract_z
Si Si1 0.832327 0.682506 0.244170
Si Si2 0.667607 0.181607 0.392540
Si Si3 0.828350 0.575882 0.860669
Si Si4 0.167672 0.317494 0.244170
Si Si5 0.157023 0.419098 1.000000
Si Si6 0.669767 0.076543 0.500000
Si Si7 0.832392 0.318393 0.392540
Si Si8 0.328349 0.924118 0.139331
O O1 0.749999 0.750000 0.223933
O O2 0.798036 0.661537 0.318255
O O3 0.772916 0.623610 0.197167
O O4 0.999999 0.695408 0.234082
O O5 0.701963 0.161537 0.318255
O O6 0.720636 0.118283 0.436312
O O7 0.750000 0.250000 0.413372
O O8 0.500000 0.196043 0.403475
O O9 0.771994 0.500000 0.845288
O O10 0.772917 0.623611 0.802833
O O11 0.766370 0.601587 0.931478
O O12 0.000001 0.575720 0.864353
O O13 0.140862 0.500000 0.999999
O O14 0.233631 0.398412 0.931478
O O15 0.000000 0.384944 0.000000
O O16 0.500000 0.069856 0.500000
O O17 0.720636 0.118283 0.563688
O O18 0.736915 0.000000 0.500000
O O19 0.271992 0.000000 0.154711
#
# Coordination Sequence:
#
# PCOD8115953 Si02
#       8
#     8   8   8   8   8   8   8   8
#     4   9  17  28  42  61  84 108 134 165 200 238
#     4   9  17  29  45  62  81 109 139 164 195 238
#     4   8  13  22  38  59  80 103 134 170 203 235
#     4   9  17  28  42  61  84 108 134 165 200 238
#     4   7  10  18  33  54  79 103 128 163 204 238
#     4   9  17  28  43  65  88 105 128 168 210 239
#     4   9  17  29  45  62  81 109 139 164 195 238
#     4   8  13  22  38  59  80 103 134 170 203 235
#
# _framework density 16.994038
#
# number of rings (size 3 to 8) (size 9 to 14) (size 15 to 20)
#    0.000    3.500    0.000    1.875    0.000    1.000 
#    0.000    5.625    0.000    2.250    0.000    7.000 
#    0.000    3.000    0.000    0.000    0.000    0.000 
#
# Total GULP energy -396454.820671 kJ/mol
# GULP energy per Si atom -12389.213146 kJ/mol
# Density = 1.695536 g / cm^3
# Si number density = 16.994038 Si / 1000 Ang^3
#
#
#
# Elastic Constant Matrix: (Units=GPa)
#
#
# Indices 1 2 3 4 5 6 
#
# 1 15.1777 24.0025 20.7749 0.0000 0.0000 0.0000
# 2 24.0025 137.9337 101.3109 0.0000 -0.0001 0.0000
# 3 20.7749 101.3109 148.6387 0.0000 -0.0002 0.0000
# 4 0.0000 0.0000 0.0000 29.6677 0.0000 0.0000
# 5 0.0000 -0.0001 -0.0002 0.0000 9.8957 0.0000
# 6 0.0000 0.0000 0.0000 0.0000 0.0000 19.4353
#
#
#
# Elastic Compliance Matrix: (Units=1/GPa)
#
#
# Indices 1 2 3 4 5 6 
#
# 1 0.092016 -0.013148 -0.003899 0.000000 0.000000 0.000000
# 2 -0.013148 0.016397 -0.009338 0.000000 0.000000 0.000000
# 3 -0.003899 -0.009338 0.013637 0.000000 0.000000 0.000000
# 4 0.000000 0.000000 0.000000 0.033707 0.000000 0.000000
# 5 0.000000 0.000000 0.000000 0.000000 0.101054 0.000000
# 6 0.000000 0.000000 0.000000 0.000000 0.000000 0.051453
#
#
# Mechanical properties :
#
#
# Convention : Reuss Voigt Hill
#
# Bulk Modulus (GPa) = 14.43435 65.99186 40.21310
# Shear Modulus (GPa) = 13.01652 22.17720 17.59686
#
# Velocity S-wave (km/s) = 2.77058 3.61640 3.22137
# Velocity P-wave (km/s) = 4.32978 7.50696 6.12786
#
# Compressibility (1/GPa) = 0.06927918
#
# Stress axis : x y z
#
# Youngs Moduli (GPa) = 10.86766 60.98844 73.32747
#
# Poissons Ratio (x) = 0.80189 0.28592
# Poissons Ratio (y) = 0.14289 0.68474
# Poissons Ratio (z) = 0.04238 0.56951
#
# Static dielectric constant tensor:
#      x y z
#    x 2.669210 0.000000 0.000000 
#    y 0.000000 3.218350 0.000000 
#    z 0.000000 0.000000 3.623600 
# 
# 
# High freq. dielectric constant tensor:
#      x y z
#    x 1.594430 0.000000 0.000000 
#    y 0.000000 1.639390 0.000000 
#    z 0.000000 0.000000 1.677720 
# 
# From -- ./inp_files/305825.got.cif
#   From: 2010.06.25/outbox.cif.g09.slc.cpg/sg12_153_cif.got.tgz:305825.got - 2010.06.28 00:19:55.
