data_PCOD8115928
_publ_section_title
;
Structure prediction by ZEFSAII (Michael W. Deem and Ramdas Pophale) SiO2 
 PCOD8115928
Probable space group: C 2/M
;
_chemical_formula_sum "Si O2"
_cell_formula_units_Z 56
_cell_length_a 9.211564
_cell_length_b 18.142050
_cell_length_c 22.753121
_cell_angle_alpha 90.000000
_cell_angle_beta 127.392546
_cell_angle_gamma 90.000000
_cell_volume 3021.002816
_symmetry_space_group_name_H-M "C 2/M"
_symmetry_group_IT_number 12
_symmetry_cell_setting 'monoclinic'
loop_
_space_group_symop_operation_xyz
x,y,z
-x,y,-z
-x,-y,-z
x,-y,z
1/2+x,1/2+y,z
1/2-x,1/2+y,-z
1/2-x,1/2-y,-z
1/2+x,1/2-y,z
loop_
_atom_site_type_symbol
_atom_site_label
_atom_site_fract_x
_atom_site_fract_y
_atom_site_fract_z
Si Si1 0.856233 0.086532 0.625580
Si Si2 0.902292 0.912425 0.208716
Si Si3 0.223855 0.912425 0.208716
Si Si4 0.826956 0.171974 0.500000
Si Si5 0.479493 0.086532 0.374420
Si Si6 0.518515 0.087992 0.070607
Si Si7 0.693307 0.412007 0.070607
O O1 0.886436 0.128509 0.572598
O O2 0.662138 0.106623 0.608092
O O3 0.022784 0.111388 0.708984
O O4 0.863601 0.000000 0.614451
O O5 0.701271 0.880503 0.146501
O O6 0.037666 0.881766 0.191777
O O7 0.900338 0.000000 0.205026
O O8 0.395832 0.888612 0.291016
O O9 0.238233 0.880503 0.146501
O O10 0.214740 0.000000 0.205026
O O11 0.750000 0.250000 0.500000
O O12 0.668643 0.128509 0.427402
O O13 0.000000 0.180800 0.500000
O O14 0.520247 0.000000 0.385549
O O15 0.347777 0.118457 0.065185
O O16 0.521841 0.000000 0.071120
O O17 0.500000 0.118372 0.000000
O O18 0.691517 0.500000 0.071119
O O19 0.500000 0.381628 0.000000
#
# Coordination Sequence:
#
# PCOD8115928 Si02
#       7
#     8   8   8   8   8   8   8
#     4   9  18  34  55  76 100 130 162 199 246 298
#     4   8  14  25  41  61  86 118 154 190 231 281
#     4   8  14  25  41  61  86 118 154 190 231 281
#     4  12  25  38  53  73  99 129 163 204 247 294
#     4   9  18  34  55  76 100 130 162 199 246 298
#     4   9  15  21  31  50  80 118 156 193 232 275
#     4   9  15  21  31  50  80 118 156 193 232 275
#
# _framework density 18.536891000000001
#
# number of rings (size 3 to 8) (size 9 to 14) (size 15 to 20)
#    0.000    2.857    0.000    4.286    0.000    6.857 
#    0.000    2.857    0.000    0.000    0.000    0.000 
#    0.000    1.143    0.000   12.000    0.000   16.571 
#
# Total GULP energy -347077.311448 kJ/mol
# GULP energy per Si atom -12395.618266 kJ/mol
# Density = 1.849470 g / cm^3
# Si number density = 18.536891 Si / 1000 Ang^3
#
#
#
# Elastic Constant Matrix: (Units=GPa)
#
#
# Indices 1 2 3 4 5 6 
#
# 1 167.0274 34.3510 107.2965 0.0000 -1.3087 0.0000
# 2 34.3510 30.3454 30.6387 0.0000 0.1990 0.0000
# 3 107.2965 30.6387 177.8163 0.0000 0.7304 0.0000
# 4 0.0000 0.0000 0.0000 -2.6675 0.0000 1.0524
# 5 -1.3087 0.1990 0.7304 0.0000 41.9620 0.0000
# 6 0.0000 0.0000 0.0000 1.0524 0.0000 16.9634
#
#
#
# Elastic Compliance Matrix: (Units=1/GPa)
#
#
# Indices 1 2 3 4 5 6 
#
# 1 0.010850 -0.006868 -0.005365 0.000000 0.000464 0.000000
# 2 -0.006868 0.044242 -0.003478 0.000000 -0.000363 0.000000
# 3 -0.005365 -0.003478 0.009462 0.000000 -0.000316 0.000000
# 4 0.000000 0.000000 0.000000 -0.365926 0.000000 0.022701
# 5 0.000464 -0.000363 -0.000316 0.000000 0.023853 0.000000
# 6 0.000000 0.000000 0.000000 0.022701 0.000000 0.057542
#
#
# Mechanical properties :
#
#
# Convention : Reuss Voigt Hill
#
# Bulk Modulus (GPa) = 30.18237 79.97349 55.07793
# Shear Modulus (GPa) = -28.16697 24.77844 -1.69426
#
# Velocity S-wave (km/s) = -3.90232 3.66007 -0.95707
# Velocity P-wave (km/s) = 1.99660 7.81652 5.34376
#
# Compressibility (1/GPa) = 0.03313193
#
# Stress axis : x y z
#
# Youngs Moduli (GPa) = 92.16752 22.60315 105.68735
#
# Poissons Ratio (x) = 0.15523 0.56706
# Poissons Ratio (y) = 0.63298 0.36753
# Poissons Ratio (z) = 0.49452 0.07860
#
# Static dielectric constant tensor:
#      x y z
#    x 3.554940 0.000000 -0.011180 
#    y 0.000000 2.761590 0.000000 
#    z -0.011180 0.000000 3.763440 
# 
# 
# High freq. dielectric constant tensor:
#      x y z
#    x 1.720880 0.000000 -0.001090 
#    y 0.000000 1.645590 0.000000 
#    z -0.001090 0.000000 1.741240 
# 
# From -- ./inp_files/333387.got.cif
#   From: 2010.06.25/outbox.cif.g09.slc.cpg/sg12_167_cif.got.tgz:333387.got - 2010.06.28 00:19:55.
