data_PCOD8115315
_publ_section_title
;
Structure prediction by ZEFSAII (Michael W. Deem and Ramdas Pophale) SiO2 
 PCOD8115315
Probable space group: C 2/M
;
_chemical_formula_sum "Si O2"
_cell_formula_units_Z 64
_cell_length_a 22.154215
_cell_length_b 23.476309
_cell_length_c 19.097337
_cell_angle_alpha 90.000000
_cell_angle_beta 162.612550
_cell_angle_gamma 90.000000
_cell_volume 2968.149430
_symmetry_space_group_name_H-M "C 2/M"
_symmetry_group_IT_number 12
_symmetry_cell_setting 'monoclinic'
loop_
_space_group_symop_operation_xyz
x,y,z
-x,y,-z
-x,-y,-z
x,-y,z
1/2+x,1/2+y,z
1/2-x,1/2+y,-z
1/2-x,1/2-y,-z
1/2+x,1/2-y,z
loop_
_atom_site_type_symbol
_atom_site_label
_atom_site_fract_x
_atom_site_fract_y
_atom_site_fract_z
Si Si1 0.235372 0.936039 0.250885
Si Si2 0.231171 0.835837 0.135579
Si Si3 0.335275 0.310171 0.623218
Si Si4 0.826708 0.786258 0.260546
Si Si5 0.474556 0.869666 0.895426
Si Si6 0.319318 0.064163 0.997986
Si Si7 0.520631 0.113033 0.349702
Si Si8 0.978731 0.151120 0.639264
O O1 0.274726 0.890336 0.233399
O O2 0.339985 0.918091 0.439084
O O3 0.310341 0.000000 0.312293
O O4 0.000000 0.937967 0.000000
O O5 0.331227 0.780886 0.281705
O O6 0.339698 0.851015 0.183240
O O7 0.999818 0.813715 0.868173
O O8 0.250000 0.250000 0.500000
O O9 0.141411 0.343761 0.434221
O O10 0.459985 0.341530 0.700968
O O11 0.000000 0.815546 0.500000
O O12 0.892166 0.797272 0.252265
O O13 0.609786 0.812856 0.037769
O O14 0.530997 0.912932 0.896429
O O15 0.244719 0.850123 0.638678
O O16 0.500000 0.898339 0.000000
O O17 0.425720 0.067205 0.191671
O O18 0.271308 0.000000 0.926040
O O19 0.101647 0.094115 0.757288
#
# Coordination Sequence:
#
# PCOD8115315 Si02
#       8
#     8   8   8   8   8   8   8   8
#     4  11  25  47  72  99 140 191 244 296 346 411
#     4  12  26  43  67 106 140 182 234 283 350 411
#     4  12  25  42  68 101 138 183 226 288 350 419
#     4  11  23  40  68 101 137 178 223 277 340 422
#     4  11  23  44  71 100 136 179 222 283 355 415
#     4  11  26  44  70 101 134 180 234 284 343 416
#     4  12  24  46  69 102 137 181 241 284 347 416
#     4  11  23  45  65 100 136 175 225 280 350 409
#
# _framework density 21.562256999999999
#
# number of rings (size 3 to 8) (size 9 to 14) (size 15 to 20)
#    0.000    0.625    5.000    3.000    1.750    3.750 
#    0.000    0.625    0.000    0.000    0.000    0.000 
#    0.000    0.000    0.000    0.000    0.000    0.000 
#
# Total GULP energy -396634.539782 kJ/mol
# GULP energy per Si atom -12394.829368 kJ/mol
# Density = 2.151318 g / cm^3
# Si number density = 21.562257 Si / 1000 Ang^3
#
#
#
# Elastic Constant Matrix: (Units=GPa)
#
#
# Indices 1 2 3 4 5 6 
#
# 1 119.7666 45.3188 36.1723 0.0057 5.2293 -0.0031
# 2 45.3188 156.8719 42.2270 0.0025 1.5776 -0.0007
# 3 36.1723 42.2270 129.5291 -0.0033 -0.8385 -0.0121
# 4 0.0057 0.0025 -0.0033 9.7780 -0.0010 -4.1591
# 5 5.2293 1.5776 -0.8385 -0.0010 40.7610 -0.0048
# 6 -0.0031 -0.0007 -0.0121 -4.1591 -0.0048 23.2959
#
#
#
# Elastic Compliance Matrix: (Units=1/GPa)
#
#
# Indices 1 2 3 4 5 6 
#
# 1 0.009882 -0.002299 -0.002018 -0.000006 -0.001220 -0.000001
# 2 -0.002299 0.007527 -0.001812 -0.000002 -0.000034 -0.000001
# 3 -0.002018 -0.001812 0.008878 0.000007 0.000512 0.000006
# 4 -0.000006 -0.000002 0.000007 0.110675 0.000006 0.019759
# 5 -0.001220 -0.000034 0.000512 0.000006 0.024702 0.000006
# 6 -0.000001 -0.000001 0.000006 0.019759 0.000006 0.046454
#
#
# Mechanical properties :
#
#
# Convention : Reuss Voigt Hill
#
# Bulk Modulus (GPa) = 71.28358 72.62265 71.95311
# Shear Modulus (GPa) = 22.21703 33.59695 27.90699
#
# Velocity S-wave (km/s) = 3.21341 3.95161 3.60147
# Velocity P-wave (km/s) = 6.84830 7.38741 7.12296
#
# Compressibility (1/GPa) = 0.01402848
#
# Stress axis : x y z
#
# Youngs Moduli (GPa) = 101.18951 132.85533 112.64020
#
# Poissons Ratio (x) = 0.30549 0.22731
# Poissons Ratio (y) = 0.23268 0.20409
# Poissons Ratio (z) = 0.20420 0.24072
#
# Static dielectric constant tensor:
#      x y z
#    x 4.077700 -0.000010 0.003480 
#    y -0.000010 3.781340 0.000000 
#    z 0.003480 0.000000 4.096030 
# 
# 
# High freq. dielectric constant tensor:
#      x y z
#    x 1.858520 0.000000 0.004090 
#    y 0.000000 1.830390 0.000000 
#    z 0.004090 0.000000 1.870330 
# 
# From -- ./inp_files/286460.got.cif
#   From: 2010.06.25/outbox.cif.g09.slc.cpg/sg12_144_cif.got.tgz:286460.got - 2010.06.28 00:19:55.
