data_PCOD8115969
_publ_section_title
;
Structure prediction by ZEFSAII (Michael W. Deem and Ramdas Pophale) SiO2 
 PCOD8115969
Probable space group: C 2/M
;
_chemical_formula_sum "Si O2"
_cell_formula_units_Z 64
_cell_length_a 19.696422
_cell_length_b 9.478563
_cell_length_c 20.349133
_cell_angle_alpha 90.000000
_cell_angle_beta 89.999966
_cell_angle_gamma 90.000000
_cell_volume 3799.056494
_symmetry_space_group_name_H-M "C 2/M"
_symmetry_group_IT_number 12
_symmetry_cell_setting 'monoclinic'
loop_
_space_group_symop_operation_xyz
x,y,z
-x,y,-z
-x,-y,-z
x,-y,z
1/2+x,1/2+y,z
1/2-x,1/2+y,-z
1/2-x,1/2-y,-z
1/2+x,1/2-y,z
loop_
_atom_site_type_symbol
_atom_site_label
_atom_site_fract_x
_atom_site_fract_y
_atom_site_fract_z
Si Si1 0.080757 0.158317 0.072897
Si Si2 0.814971 0.163483 0.425219
Si Si3 0.080758 0.841683 0.927103
Si Si4 0.419131 0.158958 0.192258
Si Si5 0.421985 0.336680 0.683473
Si Si6 0.419131 0.158958 0.807742
Si Si7 0.421985 0.336680 0.316526
Si Si8 0.185029 0.163483 0.425219
O O1 0.110763 0.265245 0.127141
O O2 1.000000 0.158883 0.076303
O O3 0.107106 0.000000 0.087680
O O4 0.104585 0.206527 0.000000
O O5 0.879428 0.203479 0.380952
O O6 0.833826 0.203891 0.500000
O O7 0.750000 0.250000 0.400435
O O8 0.796295 0.000000 0.418756
O O9 0.110763 0.734755 0.872859
O O10 0.107106 0.000000 0.912320
O O11 0.500000 0.158950 0.189679
O O12 0.394292 0.243847 0.256166
O O13 0.390462 0.000000 0.195095
O O14 0.413302 0.500000 0.703123
O O15 0.394292 0.243847 0.743834
O O16 0.500000 0.301289 0.667223
O O17 0.379428 0.296521 0.619048
O O18 0.390462 0.000000 0.804905
O O19 0.413302 0.500000 0.296877
O O20 0.203705 0.000000 0.418756
#
# Coordination Sequence:
#
# PCOD8115969 Si02
#       8
#     8   8   8   8   8   8   8   8
#     4   8  13  21  33  49  72 106 145 179 212 254
#     4   9  18  32  49  68  89 114 144 179 220 263
#     4   8  13  21  33  49  72 106 145 179 212 254
#     4   9  16  24  35  54  81 111 142 178 219 259
#     4   9  17  29  45  64  87 116 148 181 217 259
#     4   9  16  24  35  54  81 111 142 178 219 259
#     4   9  17  29  45  64  87 116 148 181 217 259
#     4   9  18  32  49  68  89 114 144 179 220 263
#
# _framework density 16.846288000000001
#
# number of rings (size 3 to 8) (size 9 to 14) (size 15 to 20)
#    0.000    3.250    0.000    1.500    0.000    5.000 
#    0.000    5.000    0.000    0.000    0.000    7.000 
#    0.000    1.000    0.000    3.250    0.000    6.500 
#
# Total GULP energy -396691.568822 kJ/mol
# GULP energy per Si atom -12396.611526 kJ/mol
# Density = 1.680795 g / cm^3
# Si number density = 16.846288 Si / 1000 Ang^3
#
#
#
# Elastic Constant Matrix: (Units=GPa)
#
#
# Indices 1 2 3 4 5 6 
#
# 1 43.3820 34.2873 48.5313 0.0000 0.0000 0.0000
# 2 34.2873 99.3563 77.9788 0.0000 0.0000 0.0000
# 3 48.5313 77.9788 139.4071 0.0000 0.0001 0.0000
# 4 0.0000 0.0000 0.0000 24.5733 0.0000 0.0000
# 5 0.0000 0.0000 0.0001 0.0000 2.7138 0.0000
# 6 0.0000 0.0000 0.0000 0.0000 0.0000 15.8493
#
#
#
# Elastic Compliance Matrix: (Units=1/GPa)
#
#
# Indices 1 2 3 4 5 6 
#
# 1 0.039105 -0.005010 -0.010811 0.000000 0.000001 0.000000
# 2 -0.005010 0.018583 -0.008650 0.000000 0.000000 0.000000
# 3 -0.010811 -0.008650 0.015776 0.000000 -0.000001 0.000000
# 4 0.000000 0.000000 0.000000 0.040695 0.000000 0.000000
# 5 0.000001 0.000000 -0.000001 0.000000 0.368492 0.000000
# 6 0.000000 0.000000 0.000000 0.000000 0.000000 0.063094
#
#
# Mechanical properties :
#
#
# Convention : Reuss Voigt Hill
#
# Bulk Modulus (GPa) = 40.78213 67.08224 53.93218
# Shear Modulus (GPa) = 8.29378 16.71714 12.50546
#
# Velocity S-wave (km/s) = 2.22124 3.15355 2.72752
# Velocity P-wave (km/s) = 5.55333 7.29153 6.48097
#
# Compressibility (1/GPa) = 0.02452055
#
# Stress axis : x y z
#
# Youngs Moduli (GPa) = 25.57208 53.81294 63.38895
#
# Poissons Ratio (x) = 0.26960 0.68531
# Poissons Ratio (y) = 0.12811 0.54834
# Poissons Ratio (z) = 0.27647 0.46551
#
# Static dielectric constant tensor:
#      x y z
#    x 2.624350 0.000000 0.000000 
#    y 0.000000 3.313780 0.000000 
#    z 0.000000 0.000000 3.385970 
# 
# 
# High freq. dielectric constant tensor:
#      x y z
#    x 1.582990 0.000000 0.000000 
#    y 0.000000 1.652270 0.000000 
#    z 0.000000 0.000000 1.661410 
# 
# From -- ./inp_files/287700.got.cif
#   From: 2010.06.25/outbox.cif.g09.slc.cpg/sg12_144_cif.got.tgz:287700.got - 2010.06.28 00:19:55.
