data_PCOD8115894
_publ_section_title
;
Structure prediction by ZEFSAII (Michael W. Deem and Ramdas Pophale) SiO2 
 PCOD8115894
Probable space group: C 2/M
;
_chemical_formula_sum "Si O2"
_cell_formula_units_Z 48
_cell_length_a 16.035973
_cell_length_b 17.179882
_cell_length_c 7.418241
_cell_angle_alpha 90.000000
_cell_angle_beta 81.189981
_cell_angle_gamma 90.000000
_cell_volume 2019.584321
_symmetry_space_group_name_H-M "C 2/M"
_symmetry_group_IT_number 12
_symmetry_cell_setting 'monoclinic'
loop_
_space_group_symop_operation_xyz
x,y,z
-x,y,-z
-x,-y,-z
x,-y,z
1/2+x,1/2+y,z
1/2-x,1/2+y,-z
1/2-x,1/2-y,-z
1/2+x,1/2-y,z
loop_
_atom_site_type_symbol
_atom_site_label
_atom_site_fract_x
_atom_site_fract_y
_atom_site_fract_z
Si Si1 0.997587 0.186870 0.800265
Si Si2 0.305410 0.833031 0.740069
Si Si3 0.351013 0.089491 0.070343
Si Si4 0.313826 0.658753 0.733726
Si Si5 0.565991 0.158886 0.611607
Si Si6 0.848602 0.909655 0.343290
O O1 0.024970 0.256258 0.658863
O O2 0.060159 0.113629 0.760875
O O3 0.905640 0.152351 0.791843
O O4 0.000000 0.220459 0.000000
O O5 0.275941 0.744646 0.781931
O O6 0.347604 0.835822 0.528999
O O7 0.223688 0.888974 0.778741
O O8 0.368298 0.860873 0.880955
O O9 0.253183 0.099425 0.158757
O O10 0.415058 0.115517 0.207501
O O11 0.369528 0.000000 0.022405
O O12 0.324607 0.642108 0.521262
O O13 0.500000 0.114044 0.500000
O O14 0.848047 0.000000 0.391982
#
# Coordination Sequence:
#
# PCOD8115894 Si02
#       6
#     8   8   8   8   8   8
#     4  12  25  44  72 107 143 186 241 292 346 422
#     4  12  24  47  74 102 142 188 243 288 348 422
#     4  12  28  46  73 110 144 185 235 293 360 424
#     4  12  23  45  73 104 142 187 236 291 344 422
#     4  12  25  48  74 104 140 186 242 298 349 417
#     4  12  25  43  71 107 147 188 231 290 360 423
#
# _framework density 23.767268000000001
#
# number of rings (size 3 to 8) (size 9 to 14) (size 15 to 20)
#    0.000    0.000    5.000    5.500    0.000    3.333 
#    0.000    0.833    0.000    0.000    0.000    0.000 
#    0.000    0.000    0.000    0.000    0.000    0.000 
#
# Total GULP energy -297658.200116 kJ/mol
# GULP energy per Si atom -12402.425005 kJ/mol
# Density = 2.371317 g / cm^3
# Si number density = 23.767268 Si / 1000 Ang^3
#
#
#
# Elastic Constant Matrix: (Units=GPa)
#
#
# Indices 1 2 3 4 5 6 
#
# 1 99.0181 28.9273 10.5408 0.0000 23.2303 0.0000
# 2 28.9273 126.8266 34.9962 0.0000 16.4005 0.0000
# 3 10.5408 34.9962 122.9331 0.0000 23.8327 0.0000
# 4 0.0000 0.0000 0.0000 24.4502 0.0000 -2.1943
# 5 23.2303 16.4005 23.8327 0.0000 41.0765 0.0000
# 6 0.0000 0.0000 0.0000 -2.1943 0.0000 14.9402
#
#
#
# Elastic Compliance Matrix: (Units=1/GPa)
#
#
# Indices 1 2 3 4 5 6 
#
# 1 0.012168 -0.002165 0.000833 0.000000 -0.006501 0.000000
# 2 -0.002165 0.009132 -0.002191 0.000000 -0.001151 0.000000
# 3 0.000833 -0.002191 0.009700 0.000000 -0.005224 0.000000
# 4 0.000000 0.000000 0.000000 0.041446 0.000000 0.006087
# 5 -0.006501 -0.001151 -0.005224 0.000000 0.031512 0.000000
# 6 0.000000 0.000000 0.000000 0.006087 0.000000 0.067827
#
#
# Mechanical properties :
#
#
# Convention : Reuss Voigt Hill
#
# Bulk Modulus (GPa) = 41.74582 55.30072 48.52327
# Shear Modulus (GPa) = 26.76460 34.38093 30.57277
#
# Velocity S-wave (km/s) = 3.35940 3.80750 3.59045
# Velocity P-wave (km/s) = 5.71402 6.53051 6.13586
#
# Compressibility (1/GPa) = 0.02395449
#
# Stress axis : x y z
#
# Youngs Moduli (GPa) = 82.18333 109.50671 103.09748
#
# Poissons Ratio (x) = 0.23704 -0.08589
# Poissons Ratio (y) = 0.17789 0.22588
# Poissons Ratio (z) = -0.06847 0.23992
#
# Static dielectric constant tensor:
#      x y z
#    x 4.616340 0.000000 0.146360 
#    y 0.000000 3.877290 0.000000 
#    z 0.146360 0.000000 4.421670 
# 
# 
# High freq. dielectric constant tensor:
#      x y z
#    x 1.955010 0.000000 0.009740 
#    y 0.000000 1.916080 0.000000 
#    z 0.009740 0.000000 1.961770 
# 
# From -- ./inp_files/61739.got.cif
#   From: 2010.06.25/outbox.cif.g09.slc.cpg/sg12_31_cif.got.tgz:61739.got - 2010.06.28 00:19:55.
