data_PCOD8115923
_publ_section_title
;
Structure prediction by ZEFSAII (Michael W. Deem and Ramdas Pophale) SiO2 
 PCOD8115923
Probable space group: C 2/M
;
_chemical_formula_sum "Si O2"
_cell_formula_units_Z 52
_cell_length_a 18.015005
_cell_length_b 19.237805
_cell_length_c 9.092581
_cell_angle_alpha 90.000000
_cell_angle_beta 51.004759
_cell_angle_gamma 90.000000
_cell_volume 2449.113357
_symmetry_space_group_name_H-M "C 2/M"
_symmetry_group_IT_number 12
_symmetry_cell_setting 'monoclinic'
loop_
_space_group_symop_operation_xyz
x,y,z
-x,y,-z
-x,-y,-z
x,-y,z
1/2+x,1/2+y,z
1/2-x,1/2+y,-z
1/2-x,1/2-y,-z
1/2+x,1/2-y,z
loop_
_atom_site_type_symbol
_atom_site_label
_atom_site_fract_x
_atom_site_fract_y
_atom_site_fract_z
Si Si1 0.390014 0.000000 0.618639
Si Si2 0.848895 0.853391 0.042791
Si Si3 0.518673 0.264681 0.314826
Si Si4 0.789184 0.500000 0.445822
Si Si5 0.114286 0.000000 0.879235
Si Si6 0.844920 0.366557 0.853303
Si Si7 0.147874 0.753507 0.696643
Si Si8 0.388701 0.891040 0.122268
O O1 0.500000 0.000000 0.500000
O O2 0.351589 0.928589 0.730239
O O3 0.364978 0.000000 0.480387
O O4 0.755283 0.831240 0.066559
O O5 0.857084 0.821486 0.195812
O O6 0.857119 0.935486 0.054638
O O7 0.933713 0.825496 0.837362
O O8 0.500000 0.294478 0.500000
O O9 0.574284 0.191896 0.258750
O O10 0.419392 0.250789 0.359873
O O11 0.679360 0.500000 0.646589
O O12 0.814405 0.432074 0.318301
O O13 0.000000 0.000000 0.000000
O O14 0.850354 0.402491 0.005646
O O15 0.250000 0.750000 0.500000
O O16 0.120375 0.690335 0.836710
O O17 0.500000 0.915363 0.000000
#
# Coordination Sequence:
#
# PCOD8115923 Si02
#       8
#     4   8   8   4   4   8   8   8
#     4  12  25  42  70 105 144 186 233 291 357 439
#     4  12  25  49  72 102 139 188 240 302 369 426
#     4  12  26  43  69 106 141 184 242 298 365 428
#     4  12  26  45  70 108 143 191 248 290 368 445
#     4  12  26  51  78  99 139 194 246 305 365 439
#     4  12  24  45  71 103 146 188 229 299 367 427
#     4  12  25  43  70 102 143 191 243 294 356 440
#     4  12  24  44  68 105 149 193 237 300 368 434
#
# _framework density 21.232173
#
# number of rings (size 3 to 8) (size 9 to 14) (size 15 to 20)
#    0.000    0.000    4.615    5.769    4.308    0.000 
#    0.000    0.385    0.000    0.000    0.000    0.000 
#    0.000    0.000    0.000    0.000    0.000    0.000 
#
# Total GULP energy -322397.287244 kJ/mol
# GULP energy per Si atom -12399.895663 kJ/mol
# Density = 2.118385 g / cm^3
# Si number density = 21.232173 Si / 1000 Ang^3
#
#
#
# Elastic Constant Matrix: (Units=GPa)
#
#
# Indices 1 2 3 4 5 6 
#
# 1 150.1467 18.9232 35.9209 0.0000 -6.4230 0.0000
# 2 18.9232 118.7496 36.5969 0.0000 4.2304 0.0000
# 3 35.9209 36.5969 130.0791 0.0000 -4.1119 0.0000
# 4 0.0000 0.0000 0.0000 58.1246 0.0000 12.2311
# 5 -6.4230 4.2304 -4.1119 0.0000 50.5427 0.0000
# 6 0.0000 0.0000 0.0000 12.2311 0.0000 26.8333
#
#
#
# Elastic Compliance Matrix: (Units=1/GPa)
#
#
# Indices 1 2 3 4 5 6 
#
# 1 0.007202 -0.000626 -0.001787 0.000000 0.000822 0.000000
# 2 -0.000626 0.009324 -0.002484 0.000000 -0.001062 0.000000
# 3 -0.001787 -0.002484 0.008902 0.000000 0.000705 0.000000
# 4 0.000000 0.000000 0.000000 0.019030 0.000000 -0.008674
# 5 0.000822 -0.001062 0.000705 0.000000 0.020036 0.000000
# 6 0.000000 0.000000 0.000000 -0.008674 0.000000 0.041221
#
#
# Mechanical properties :
#
#
# Convention : Reuss Voigt Hill
#
# Bulk Modulus (GPa) = 63.96124 64.65081 64.30603
# Shear Modulus (GPa) = 41.41829 47.60241 44.51035
#
# Velocity S-wave (km/s) = 4.42150 4.74011 4.58357
# Velocity P-wave (km/s) = 7.50042 7.77648 7.63970
#
# Compressibility (1/GPa) = 0.01563447
#
# Stress axis : x y z
#
# Youngs Moduli (GPa) = 138.85676 107.24738 112.33317
#
# Poissons Ratio (x) = 0.06717 0.20068
# Poissons Ratio (y) = 0.08697 0.27903
# Poissons Ratio (z) = 0.24807 0.26639
#
# Static dielectric constant tensor:
#      x y z
#    x 3.561240 0.000000 -0.261560 
#    y 0.000000 3.895470 0.000000 
#    z -0.261560 0.000000 3.492540 
# 
# 
# High freq. dielectric constant tensor:
#      x y z
#    x 1.848890 0.000000 0.001170 
#    y 0.000000 1.839400 0.000000 
#    z 0.001170 0.000000 1.841460 
# 
# From -- ./inp_files/77997.got.cif
#   From: 2010.06.25/outbox.cif.g09.slc.cpg/sg12_39_cif.got.tgz:77997.got - 2010.06.28 00:19:55.
