data_PCOD8115261
_publ_section_title
;
Structure prediction by ZEFSAII (Michael W. Deem and Ramdas Pophale) SiO2 
 PCOD8115261
Probable space group: C 2/M
;
_chemical_formula_sum "Si O2"
_cell_formula_units_Z 48
_cell_length_a 13.958144
_cell_length_b 19.860090
_cell_length_c 17.430062
_cell_angle_alpha 90.000000
_cell_angle_beta 151.909314
_cell_angle_gamma 90.000000
_cell_volume 2275.136380
_symmetry_space_group_name_H-M "C 2/M"
_symmetry_group_IT_number 12
_symmetry_cell_setting 'monoclinic'
loop_
_space_group_symop_operation_xyz
x,y,z
-x,y,-z
-x,-y,-z
x,-y,z
1/2+x,1/2+y,z
1/2-x,1/2+y,-z
1/2-x,1/2-y,-z
1/2+x,1/2-y,z
loop_
_atom_site_type_symbol
_atom_site_label
_atom_site_fract_x
_atom_site_fract_y
_atom_site_fract_z
Si Si1 0.582948 0.575687 0.262291
Si Si2 0.406950 0.924598 0.621690
Si Si3 0.288944 0.621110 0.808133
Si Si4 0.324411 0.271273 0.281137
Si Si5 0.713686 0.804705 0.362636
Si Si6 0.629966 0.293044 0.853015
O O1 0.497379 0.500000 0.215130
O O2 0.756396 0.593808 0.445990
O O3 0.680602 0.578494 0.247231
O O4 0.400284 0.629938 0.141011
O O5 0.639340 0.919599 0.757976
O O6 0.370309 0.875627 0.667172
O O7 0.367719 0.000000 0.623752
O O8 0.186582 0.691651 0.713956
O O9 0.500000 0.633874 0.000000
O O10 0.188624 0.305564 0.251942
O O11 0.554434 0.295647 0.450955
O O12 0.248898 0.291851 0.142500
O O13 0.587929 0.743372 0.311529
O O14 0.750000 0.250000 0.000000
#
# Coordination Sequence:
#
# PCOD8115261 Si02
#       6
#     8   8   8   8   8   8
#     4  11  24  42  63  94 132 169 213 266 330 397
#     4  11  24  43  64  92 131 177 219 265 330 391
#     4  12  24  39  63 100 132 168 212 273 333 394
#     4  11  23  39  65  94 128 164 222 271 319 376
#     4  11  23  40  65  93 125 171 217 275 309 385
#     4  12  23  40  65  96 128 172 217 265 325 386
#
# _framework density 21.097636000000001
#
# number of rings (size 3 to 8) (size 9 to 14) (size 15 to 20)
#    0.000    0.667    5.000    3.500    2.333    2.667 
#    0.000    2.500    0.000    0.000    0.000    2.333 
#    0.000    0.000    0.000    0.000    0.000    0.000 
#
# Total GULP energy -297680.457903 kJ/mol
# GULP energy per Si atom -12403.352413 kJ/mol
# Density = 2.104962 g / cm^3
# Si number density = 21.097636 Si / 1000 Ang^3
#
#
#
# Elastic Constant Matrix: (Units=GPa)
#
#
# Indices 1 2 3 4 5 6 
#
# 1 136.1965 59.4881 26.1067 -0.0004 -32.2437 0.0031
# 2 59.4881 156.1573 29.5739 -0.0188 -4.4752 -0.0100
# 3 26.1067 29.5739 47.2222 -0.1125 -10.6522 -0.0450
# 4 -0.0004 -0.0188 -0.1125 20.7027 -0.0371 -2.8563
# 5 -32.2437 -4.4752 -10.6522 -0.0371 28.1047 -0.0172
# 6 0.0031 -0.0100 -0.0450 -2.8563 -0.0172 36.7824
#
#
#
# Elastic Compliance Matrix: (Units=1/GPa)
#
#
# Indices 1 2 3 4 5 6 
#
# 1 0.012539 -0.004141 -0.001359 0.000013 0.013211 0.000003
# 2 -0.004141 0.008643 -0.004248 -0.000025 -0.004985 -0.000007
# 3 -0.001359 -0.004248 0.026336 0.000160 0.007747 0.000047
# 4 0.000013 -0.000025 0.000160 0.048827 0.000139 0.003792
# 5 0.013211 -0.004985 0.007747 0.000139 0.052881 0.000042
# 6 0.000003 -0.000007 0.000047 0.003792 0.000042 0.027481
#
#
# Mechanical properties :
#
#
# Convention : Reuss Voigt Hill
#
# Bulk Modulus (GPa) = 35.68514 63.32371 49.50442
# Shear Modulus (GPa) = 24.32574 32.07846 28.20210
#
# Velocity S-wave (km/s) = 3.39928 3.90356 3.66011
# Velocity P-wave (km/s) = 5.68839 7.09907 6.43252
#
# Compressibility (1/GPa) = 0.02802287
#
# Stress axis : x y z
#
# Youngs Moduli (GPa) = 79.75015 115.70171 37.97093
#
# Poissons Ratio (x) = 0.47910 0.05159
# Poissons Ratio (y) = 0.33023 0.16130
# Poissons Ratio (z) = 0.10836 0.49150
#
# Static dielectric constant tensor:
#      x y z
#    x 4.225840 0.000020 -0.118450 
#    y 0.000020 3.751800 -0.000040 
#    z -0.118450 -0.000040 3.746010 
# 
# 
# High freq. dielectric constant tensor:
#      x y z
#    x 1.832330 0.000000 -0.009470 
#    y 0.000000 1.818950 -0.000010 
#    z -0.009470 -0.000010 1.823880 
# 
# From -- ./inp_files/271782.got.cif
#   From: 2010.06.25/outbox.cif.g09.slc.cpg/sg12_136_cif.got.tgz:271782.got - 2010.06.28 00:19:55.
