data_PCOD8115313
_publ_section_title
;
Structure prediction by ZEFSAII (Michael W. Deem and Ramdas Pophale) SiO2 
 PCOD8115313
Probable space group: C 2/M
;
_chemical_formula_sum "Si O2"
_cell_formula_units_Z 40
_cell_length_a 8.696536
_cell_length_b 27.780929
_cell_length_c 15.319894
_cell_angle_alpha 90.000000
_cell_angle_beta 150.196574
_cell_angle_gamma 90.000000
_cell_volume 1839.618630
_symmetry_space_group_name_H-M "C 2/M"
_symmetry_group_IT_number 12
_symmetry_cell_setting 'monoclinic'
loop_
_space_group_symop_operation_xyz
x,y,z
-x,y,-z
-x,-y,-z
x,-y,z
1/2+x,1/2+y,z
1/2-x,1/2+y,-z
1/2-x,1/2-y,-z
1/2+x,1/2-y,z
loop_
_atom_site_type_symbol
_atom_site_label
_atom_site_fract_x
_atom_site_fract_y
_atom_site_fract_z
Si Si1 0.116723 0.903322 0.961092
Si Si2 0.664176 0.388717 0.666590
Si Si3 0.968586 0.802393 0.158112
Si Si4 0.236846 0.711767 0.232478
Si Si5 0.142509 0.054118 0.331519
O O1 0.955972 0.854761 0.843876
O O2 0.016589 0.943672 0.842310
O O3 0.483879 0.904041 0.148442
O O4 0.000000 0.915343 0.000000
O O5 0.500000 0.411220 0.500000
O O6 0.649980 0.330549 0.647809
O O7 0.497706 0.407112 0.671395
O O8 0.938414 0.798757 0.246735
O O9 0.260725 0.767356 0.276200
O O10 0.632424 0.790352 0.955769
O O11 0.500000 0.066845 0.500000
O O12 0.092849 0.000000 0.343102
#
# Coordination Sequence:
#
# PCOD8115313 Si02
#       5
#     8   8   8   8   8
#     4  11  23  40  67  99 132 173 216 266 323 387
#     4  11  23  42  65  97 136 171 218 269 321 385
#     4   9  18  32  57  88 127 169 215 258 310 371
#     4   9  18  33  55  88 127 170 213 259 311 373
#     4  11  25  47  71  96 127 165 213 274 336 393
#
# _framework density 21.743635999999999
#
# number of rings (size 3 to 8) (size 9 to 14) (size 15 to 20)
#    0.000    1.800    2.000    1.800    8.400    2.400 
#    0.000    2.000    0.000    0.000    0.000    0.000 
#    0.000    0.000    0.000    0.000    0.000    0.000 
#
# Total GULP energy -247765.863174 kJ/mol
# GULP energy per Si atom -12388.293159 kJ/mol
# Density = 2.169415 g / cm^3
# Si number density = 21.743636 Si / 1000 Ang^3
#
#
#
# Elastic Constant Matrix: (Units=GPa)
#
#
# Indices 1 2 3 4 5 6 
#
# 1 119.7291 27.9523 52.5127 0.0000 -14.3947 0.0000
# 2 27.9523 107.7560 28.0803 0.0000 14.6069 0.0000
# 3 52.5127 28.0803 117.4572 0.0000 -7.6726 0.0000
# 4 0.0000 0.0000 0.0000 49.0370 0.0000 27.5097
# 5 -14.3947 14.6069 -7.6726 0.0000 28.4459 0.0000
# 6 0.0000 0.0000 0.0000 27.5097 0.0000 42.8675
#
#
#
# Elastic Compliance Matrix: (Units=1/GPa)
#
#
# Indices 1 2 3 4 5 6 
#
# 1 0.011531 -0.002757 -0.004094 0.000000 0.006146 0.000000
# 2 -0.002757 0.011604 -0.002058 0.000000 -0.007909 0.000000
# 3 -0.004094 -0.002058 0.010963 0.000000 0.001942 0.000000
# 4 0.000000 0.000000 0.000000 0.031864 0.000000 -0.020449
# 5 0.006146 -0.007909 0.001942 0.000000 0.042850 0.000000
# 6 0.000000 0.000000 0.000000 -0.020449 0.000000 0.036450
#
#
# Mechanical properties :
#
#
# Convention : Reuss Voigt Hill
#
# Bulk Modulus (GPa) = 61.43196 62.44808 61.94002
# Shear Modulus (GPa) = 29.67219 39.82988 34.75104
#
# Velocity S-wave (km/s) = 3.69811 4.28459 4.00211
# Velocity P-wave (km/s) = 6.82267 7.29791 7.06429
#
# Compressibility (1/GPa) = 0.01627817
#
# Stress axis : x y z
#
# Youngs Moduli (GPa) = 86.72499 86.17808 91.21472
#
# Poissons Ratio (x) = 0.23762 0.37347
# Poissons Ratio (y) = 0.23913 0.18772
# Poissons Ratio (z) = 0.35509 0.17736
#
# Static dielectric constant tensor:
#      x y z
#    x 3.489320 0.000000 -0.283980 
#    y 0.000000 4.143510 0.000000 
#    z -0.283980 0.000000 3.503050 
# 
# 
# High freq. dielectric constant tensor:
#      x y z
#    x 1.854920 0.000000 -0.003710 
#    y 0.000000 1.852240 0.000000 
#    z -0.003710 0.000000 1.839550 
# 
# From -- ./inp_files/41477.got.cif
#   From: 2010.06.25/outbox.cif.g09.slc.cpg/sg12_21_cif.got.tgz:41477.got - 2010.06.28 00:19:55.
