data_PCOD8115204
_publ_section_title
;
Structure prediction by ZEFSAII (Michael W. Deem and Ramdas Pophale) SiO2 
 PCOD8115204
Probable space group: C 2/M
;
_chemical_formula_sum "Si O2"
_cell_formula_units_Z 36
_cell_length_a 14.722741
_cell_length_b 10.442834
_cell_length_c 11.197160
_cell_angle_alpha 90.000000
_cell_angle_beta 68.994563
_cell_angle_gamma 90.000000
_cell_volume 1607.129402
_symmetry_space_group_name_H-M "C 2/M"
_symmetry_group_IT_number 12
_symmetry_cell_setting 'monoclinic'
loop_
_space_group_symop_operation_xyz
x,y,z
-x,y,-z
-x,-y,-z
x,-y,z
1/2+x,1/2+y,z
1/2-x,1/2+y,-z
1/2-x,1/2-y,-z
1/2+x,1/2-y,z
loop_
_atom_site_type_symbol
_atom_site_label
_atom_site_fract_x
_atom_site_fract_y
_atom_site_fract_z
Si Si1 0.083682 0.744361 0.698084
Si Si2 0.886922 0.000000 0.029162
Si Si3 0.128550 0.236552 0.131268
Si Si4 0.820704 0.644557 0.118890
Si Si5 0.399117 0.000000 0.474347
Si Si6 0.310354 0.500000 0.327468
O O1 0.104456 0.711366 0.826110
O O2 0.110775 0.627577 0.599832
O O3 0.967945 0.767624 0.743894
O O4 0.140835 0.873947 0.634048
O O5 0.828019 0.000000 0.178927
O O6 0.857187 0.120837 0.966964
O O7 0.000000 0.000000 0.000000
O O8 0.219805 0.225057 0.177926
O O9 0.135564 0.357442 0.037342
O O10 0.802453 0.500000 0.169181
O O11 0.500000 0.000000 0.500000
O O12 0.306167 0.000000 0.604495
#
# Coordination Sequence:
#
# PCOD8115204 Si02
#       6
#     8   4   8   8   4   4
#     4  12  25  48  74  99 142 188 239 294 351 425
#     4  12  18  39  69 105 140 175 225 287 355 421
#     4  11  23  38  68 109 143 182 229 285 361 434
#     4  11  23  38  66 107 148 182 227 289 362 429
#     4  12  32  51  71 101 141 194 248 302 355 404
#     4  12  26  48  74 101 141 192 237 289 351 426
#
# _framework density 22.400189000000001
#
# number of rings (size 3 to 8) (size 9 to 14) (size 15 to 20)
#    0.000    0.444    6.667    1.333    4.667    0.889 
#    0.000    0.556    0.000    0.000    0.000    0.000 
#    0.000    0.000    0.000    0.000    0.000    0.000 
#
# Total GULP energy -223197.376640 kJ/mol
# GULP energy per Si atom -12399.854258 kJ/mol
# Density = 2.234920 g / cm^3
# Si number density = 22.400189 Si / 1000 Ang^3
#
#
#
# Elastic Constant Matrix: (Units=GPa)
#
#
# Indices 1 2 3 4 5 6 
#
# 1 109.1046 18.4653 27.9992 0.0000 -32.9762 0.0000
# 2 18.4653 134.1279 31.3019 0.0000 -4.8222 0.0000
# 3 27.9992 31.3019 83.1260 0.0000 -30.6488 0.0000
# 4 0.0000 0.0000 0.0000 38.3781 0.0000 0.0279
# 5 -32.9762 -4.8222 -30.6488 0.0000 46.8852 0.0000
# 6 0.0000 0.0000 0.0000 0.0279 0.0000 28.1057
#
#
#
# Elastic Compliance Matrix: (Units=1/GPa)
#
#
# Indices 1 2 3 4 5 6 
#
# 1 0.011901 -0.001199 -0.000680 0.000000 0.007803 0.000000
# 2 -0.001199 0.008380 -0.003617 0.000000 -0.002346 0.000000
# 3 -0.000680 -0.003617 0.017533 0.000000 0.010611 0.000000
# 4 0.000000 0.000000 0.000000 0.026057 0.000000 -0.000026
# 5 0.007803 -0.002346 0.010611 0.000000 0.033512 0.000000
# 6 0.000000 0.000000 0.000000 -0.000026 0.000000 0.035580
#
#
# Mechanical properties :
#
#
# Convention : Reuss Voigt Hill
#
# Bulk Modulus (GPa) = 37.28177 53.54348 45.41262
# Shear Modulus (GPa) = 32.70186 39.24661 35.97424
#
# Velocity S-wave (km/s) = 3.82500 4.19031 4.01181
# Velocity P-wave (km/s) = 6.01557 6.88234 6.46350
#
# Compressibility (1/GPa) = 0.02682276
#
# Stress axis : x y z
#
# Youngs Moduli (GPa) = 84.02405 119.32663 57.03436
#
# Poissons Ratio (x) = 0.14309 0.03880
# Poissons Ratio (y) = 0.10076 0.20627
# Poissons Ratio (z) = 0.05716 0.43156
#
# Static dielectric constant tensor:
#      x y z
#    x 4.960370 0.000000 0.286560 
#    y 0.000000 4.530070 0.000000 
#    z 0.286560 0.000000 3.743110 
# 
# 
# High freq. dielectric constant tensor:
#      x y z
#    x 1.899580 0.000000 -0.007820 
#    y 0.000000 1.901570 0.000000 
#    z -0.007820 0.000000 1.846640 
# 
# From -- ./inp_files/140200.got.cif
#   From: 2010.06.25/outbox.cif.g09.slc.cpg/sg12_71_cif.got.tgz:140200.got - 2010.06.28 00:19:55.
