data_PCOD8115070
_publ_section_title
;
Structure prediction by ZEFSAII (Michael W. Deem and Ramdas Pophale) SiO2 
 PCOD8115070
Probable space group: C 2/M
;
_chemical_formula_sum "Si O2"
_cell_formula_units_Z 48
_cell_length_a 12.783778
_cell_length_b 18.318950
_cell_length_c 13.324601
_cell_angle_alpha 90.000000
_cell_angle_beta 133.730387
_cell_angle_gamma 90.000000
_cell_volume 2254.822439
_symmetry_space_group_name_H-M "C 2/M"
_symmetry_group_IT_number 12
_symmetry_cell_setting 'monoclinic'
loop_
_space_group_symop_operation_xyz
x,y,z
-x,y,-z
-x,-y,-z
x,-y,z
1/2+x,1/2+y,z
1/2-x,1/2+y,-z
1/2-x,1/2-y,-z
1/2+x,1/2-y,z
loop_
_atom_site_type_symbol
_atom_site_label
_atom_site_fract_x
_atom_site_fract_y
_atom_site_fract_z
Si Si1 0.049288 0.584667 0.642009
Si Si2 0.335591 0.080993 0.859582
Si Si3 0.725139 0.721602 0.871924
Si Si4 0.860070 0.147435 0.850092
Si Si5 0.184116 0.651354 0.370731
Si Si6 0.095298 0.808630 0.333903
O O1 0.012686 0.500000 0.627973
O O2 0.219525 0.597262 0.773359
O O3 0.000000 0.614080 0.500000
O O4 0.960296 0.626413 0.667939
O O5 0.268175 0.136634 0.894790
O O6 0.307856 0.110227 0.729065
O O7 0.265125 0.000000 0.821113
O O8 0.500000 0.075055 0.000000
O O9 0.821627 0.770148 0.860848
O O10 0.557595 0.722719 0.728866
O O11 0.750000 0.750000 0.000000
O O12 0.914548 0.143315 0.772307
O O13 0.000000 0.115995 0.000000
O O14 0.188823 0.738653 0.361783
O O15 0.329200 0.638526 0.533373
#
# Coordination Sequence:
#
# PCOD8115070 Si02
#       6
#     8   8   8   8   8   8
#     4  11  24  42  65  94 133 179 222 268 334 407
#     4  11  25  44  67  97 133 177 226 280 347 412
#     4  12  23  41  68  97 132 176 222 281 339 403
#     4  12  23  40  67  98 134 169 225 286 335 396
#     4  11  22  42  66  96 133 172 224 283 326 401
#     4  11  23  38  66 101 127 171 226 277 336 393
#
# _framework density 21.287707000000001
#
# number of rings (size 3 to 8) (size 9 to 14) (size 15 to 20)
#    0.000    0.667    6.667    2.000    0.000    1.000 
#    0.000    3.333    0.000    0.000    0.000    0.000 
#    0.000    0.000    0.000    0.000    0.000    0.000 
#
# Total GULP energy -297541.038236 kJ/mol
# GULP energy per Si atom -12397.543260 kJ/mol
# Density = 2.123926 g / cm^3
# Si number density = 21.287707 Si / 1000 Ang^3
#
#
#
# Elastic Constant Matrix: (Units=GPa)
#
#
# Indices 1 2 3 4 5 6 
#
# 1 78.4209 21.5816 48.3233 0.0000 -0.2764 0.0000
# 2 21.5816 100.7806 37.4208 0.0000 -17.1184 0.0000
# 3 48.3233 37.4208 164.2319 0.0000 2.2973 0.0000
# 4 0.0000 0.0000 0.0000 60.3476 0.0000 -7.7190
# 5 -0.2764 -17.1184 2.2973 0.0000 44.2011 0.0000
# 6 0.0000 0.0000 0.0000 -7.7190 0.0000 28.5988
#
#
#
# Elastic Compliance Matrix: (Units=1/GPa)
#
#
# Indices 1 2 3 4 5 6 
#
# 1 0.015882 -0.001899 -0.004235 0.000000 -0.000416 0.000000
# 2 -0.001899 0.011963 -0.002233 0.000000 0.004737 0.000000
# 3 -0.004235 -0.002233 0.007862 0.000000 -0.001300 0.000000
# 4 0.000000 0.000000 0.000000 0.017163 0.000000 0.004632
# 5 -0.000416 0.004737 -0.001300 0.000000 0.024524 0.000000
# 6 0.000000 0.000000 0.000000 0.004632 0.000000 0.036217
#
#
# Mechanical properties :
#
#
# Convention : Reuss Voigt Hill
#
# Bulk Modulus (GPa) = 52.70659 62.00942 57.35801
# Shear Modulus (GPa) = 36.58450 42.37001 39.47725
#
# Velocity S-wave (km/s) = 4.15007 4.46617 4.31102
# Velocity P-wave (km/s) = 6.91209 7.46914 7.19601
#
# Compressibility (1/GPa) = 0.01897296
#
# Stress axis : x y z
#
# Youngs Moduli (GPa) = 62.96304 83.58962 127.19483
#
# Poissons Ratio (x) = 0.15878 0.53861
# Poissons Ratio (y) = 0.11960 0.28405
# Poissons Ratio (z) = 0.26662 0.18667
#
# Static dielectric constant tensor:
#      x y z
#    x 3.714490 0.000000 -0.007550 
#    y 0.000000 3.994680 0.000000 
#    z -0.007550 0.000000 4.098530 
# 
# 
# High freq. dielectric constant tensor:
#      x y z
#    x 1.826230 0.000000 -0.002130 
#    y 0.000000 1.819210 0.000000 
#    z -0.002130 0.000000 1.852930 
# 
# From -- ./inp_files/134082.got.cif
#   From: 2010.06.25/outbox.cif.g09.slc.cpg/sg12_68_cif.got.tgz:134082.got - 2010.06.28 00:19:55.
