data_PCOD8115154
_publ_section_title
;
Structure prediction by ZEFSAII (Michael W. Deem and Ramdas Pophale) SiO2 
 PCOD8115154
Probable space group: C 2/M
;
_chemical_formula_sum "Si O2"
_cell_formula_units_Z 36
_cell_length_a 14.221518
_cell_length_b 24.097827
_cell_length_c 5.401263
_cell_angle_alpha 90.000000
_cell_angle_beta 112.982533
_cell_angle_gamma 90.000000
_cell_volume 1704.124893
_symmetry_space_group_name_H-M "C 2/M"
_symmetry_group_IT_number 12
_symmetry_cell_setting 'monoclinic'
loop_
_space_group_symop_operation_xyz
x,y,z
-x,y,-z
-x,-y,-z
x,-y,z
1/2+x,1/2+y,z
1/2-x,1/2+y,-z
1/2-x,1/2-y,-z
1/2+x,1/2-y,z
loop_
_atom_site_type_symbol
_atom_site_label
_atom_site_fract_x
_atom_site_fract_y
_atom_site_fract_z
Si Si1 0.730535 0.131718 0.200568
Si Si2 0.107179 0.217135 0.490654
Si Si3 0.904051 0.939537 0.228619
Si Si4 0.616182 0.846862 0.571811
Si Si5 0.000000 0.848381 0.000000
O O1 0.795858 0.188196 0.286676
O O2 0.803537 0.077766 0.280188
O O3 0.657229 0.123505 0.364603
O O4 0.672436 0.135027 0.879748
O O5 0.127117 0.281908 0.522698
O O6 0.088017 0.192134 0.199059
O O7 0.000000 0.198773 0.500000
O O8 0.000000 0.946462 0.500000
O O9 0.884651 0.000000 0.079837
O O10 0.925577 0.888950 0.070843
O O11 0.500000 0.863835 0.500000
#
# Coordination Sequence:
#
# PCOD8115154 Si02
#       5
#     8   8   8   8   4
#     4  12  22  44  64  95 129 174 228 267 326 385
#     4  11  23  36  62  97 138 174 209 259 331 410
#     4  11  24  41  66  99 133 170 212 273 341 402
#     4  11  27  41  64  91 133 180 226 272 314 380
#     4  12  19  40  62  96 146 170 203 254 332 412
#
# _framework density 21.125214
#
# number of rings (size 3 to 8) (size 9 to 14) (size 15 to 20)
#    0.000    0.667    4.444    3.667    6.222    0.000 
#    0.000    0.000    0.000    4.000    0.000    0.000 
#    0.000    0.000    0.000    0.000    0.000    0.000 
#
# Total GULP energy -223017.954433 kJ/mol
# GULP energy per Si atom -12389.886357 kJ/mol
# Density = 2.107713 g / cm^3
# Si number density = 21.125214 Si / 1000 Ang^3
#
#
#
# Elastic Constant Matrix: (Units=GPa)
#
#
# Indices 1 2 3 4 5 6 
#
# 1 131.0560 46.3620 52.7009 0.0000 -5.3159 0.0000
# 2 46.3620 83.3504 45.6665 0.0000 4.2486 0.0000
# 3 52.7009 45.6665 137.8833 0.0000 -1.8522 0.0000
# 4 0.0000 0.0000 0.0000 2.8509 0.0000 14.0092
# 5 -5.3159 4.2486 -1.8522 0.0000 37.4390 0.0000
# 6 0.0000 0.0000 0.0000 14.0092 0.0000 57.7123
#
#
#
# Elastic Compliance Matrix: (Units=1/GPa)
#
#
# Indices 1 2 3 4 5 6 
#
# 1 0.010260 -0.004479 -0.002413 0.000000 0.001846 0.000000
# 2 -0.004479 0.016749 -0.003872 0.000000 -0.002728 0.000000
# 3 -0.002413 -0.003872 0.009465 0.000000 0.000565 0.000000
# 4 0.000000 0.000000 0.000000 -1.819220 0.000000 0.441601
# 5 0.001846 -0.002728 0.000565 0.000000 0.027310 0.000000
# 6 0.000000 0.000000 0.000000 0.441601 0.000000 -0.089868
#
#
# Mechanical properties :
#
#
# Convention : Reuss Voigt Hill
#
# Bulk Modulus (GPa) = 66.90854 71.30541 69.10697
# Shear Modulus (GPa) = -2.74908 33.43779 15.34436
#
# Velocity S-wave (km/s) = -1.14199 3.98281 2.69802
# Velocity P-wave (km/s) = 5.47743 7.41467 6.51842
#
# Compressibility (1/GPa) = 0.01494578
#
# Stress axis : x y z
#
# Youngs Moduli (GPa) = 97.46515 59.70392 105.65281
#
# Poissons Ratio (x) = 0.26740 0.25498
# Poissons Ratio (y) = 0.43652 0.40910
# Poissons Ratio (z) = 0.23522 0.23118
#
# Static dielectric constant tensor:
#      x y z
#    x 4.320980 0.000000 -0.142650 
#    y 0.000000 3.877820 0.000000 
#    z -0.142650 0.000000 4.055770 
# 
# 
# High freq. dielectric constant tensor:
#      x y z
#    x 1.842630 0.000000 -0.001130 
#    y 0.000000 1.808500 0.000000 
#    z -0.001130 0.000000 1.829480 
# 
# From -- ./inp_files/11442.got.cif
#   From: 2010.06.25/outbox.cif.g09.slc.cpg/sg12_6_cif.got.tgz:11442.got - 2010.06.28 00:19:55.
