data_PCOD8115379
_publ_section_title
;
Structure prediction by ZEFSAII (Michael W. Deem and Ramdas Pophale) SiO2 
 PCOD8115379
Probable space group: C 2/M
;
_chemical_formula_sum "Si O2"
_cell_formula_units_Z 48
_cell_length_a 21.433953
_cell_length_b 16.342198
_cell_length_c 18.126598
_cell_angle_alpha 90.000000
_cell_angle_beta 159.754009
_cell_angle_gamma 90.000000
_cell_volume 2197.200401
_symmetry_space_group_name_H-M "C 2/M"
_symmetry_group_IT_number 12
_symmetry_cell_setting 'monoclinic'
loop_
_space_group_symop_operation_xyz
x,y,z
-x,y,-z
-x,-y,-z
x,-y,z
1/2+x,1/2+y,z
1/2-x,1/2+y,-z
1/2-x,1/2-y,-z
1/2+x,1/2-y,z
loop_
_atom_site_type_symbol
_atom_site_label
_atom_site_fract_x
_atom_site_fract_y
_atom_site_fract_z
Si Si1 0.834404 0.842884 0.156201
Si Si2 0.104593 0.500000 0.193357
Si Si3 0.429849 0.842834 0.745731
Si Si4 0.492701 0.188583 0.407898
Si Si5 0.650628 0.404943 0.987528
Si Si6 0.306528 0.670153 0.656081
Si Si7 0.013039 0.000000 0.601140
O O1 0.951700 0.766524 0.312004
O O2 0.887207 0.857123 0.130222
O O3 0.875682 0.921033 0.251552
O O4 0.624904 0.820088 0.929785
O O5 0.050552 0.419664 0.178556
O O6 0.317737 0.500000 0.420448
O O7 0.000000 0.500000 0.000000
O O8 0.352122 0.766342 0.704525
O O9 0.299445 0.863116 0.533063
O O10 0.500000 0.217898 0.500000
O O11 0.685111 0.153365 0.593851
O O12 0.342613 0.118438 0.234806
O O13 0.651215 0.500000 0.970503
O O14 0.491319 0.381323 0.867606
O O15 0.000000 0.000000 0.500000
#
# Coordination Sequence:
#
# PCOD8115379 Si02
#       7
#     8   4   8   8   8   8   4
#     4  12  22  45  71 105 141 183 234 284 355 432
#     4  12  26  42  64 110 152 185 230 286 361 440
#     4  11  23  41  71 102 142 190 232 286 347 425
#     4  12  27  47  73 105 143 186 235 299 360 420
#     4  12  26  47  75 105 138 184 242 298 350 423
#     4  11  24  45  71 102 139 188 243 291 345 418
#     4  12  24  40  62 104 152 189 222 280 353 426
#
# _framework density 21.845981999999999
#
# number of rings (size 3 to 8) (size 9 to 14) (size 15 to 20)
#    0.000    0.333    4.167    6.500    1.167    3.000 
#    0.000    0.833    0.000    0.000    0.000    0.000 
#    0.000    0.000    0.000    0.000    0.000    0.000 
#
# Total GULP energy -297792.259141 kJ/mol
# GULP energy per Si atom -12408.010798 kJ/mol
# Density = 2.179626 g / cm^3
# Si number density = 21.845982 Si / 1000 Ang^3
#
#
#
# Elastic Constant Matrix: (Units=GPa)
#
#
# Indices 1 2 3 4 5 6 
#
# 1 102.0790 52.7885 49.8721 -0.0196 25.3235 0.0230
# 2 52.7885 92.2564 38.7452 -0.0491 -8.0589 0.0672
# 3 49.8721 38.7452 103.9006 -0.1240 31.7581 0.0702
# 4 -0.0196 -0.0491 -0.1240 247.0019 0.0355 -134.7311
# 5 25.3235 -8.0589 31.7581 0.0355 46.0263 0.0026
# 6 0.0230 0.0672 0.0702 -134.7311 0.0026 106.1593
#
#
#
# Elastic Compliance Matrix: (Units=1/GPa)
#
#
# Indices 1 2 3 4 5 6 
#
# 1 0.019317 -0.011467 -0.001437 0.000008 -0.011644 0.000015
# 2 -0.011467 0.021754 -0.007224 -0.000020 0.015103 -0.000032
# 3 -0.001437 -0.007224 0.016669 0.000017 -0.011976 0.000016
# 4 0.000008 -0.000020 0.000017 0.013156 -0.000031 0.016697
# 5 -0.011644 0.015103 -0.011976 -0.000031 0.039041 -0.000040
# 6 0.000015 -0.000032 0.000016 0.016697 -0.000040 0.030611
#
#
# Mechanical properties :
#
#
# Convention : Reuss Voigt Hill
#
# Bulk Modulus (GPa) = 57.19651 64.56085 60.87868
# Shear Modulus (GPa) = 26.79061 90.29283 58.54172
#
# Velocity S-wave (km/s) = 3.50571 6.43594 5.18224
# Velocity P-wave (km/s) = 6.52880 9.21115 7.98344
#
# Compressibility (1/GPa) = 0.01748359
#
# Stress axis : x y z
#
# Youngs Moduli (GPa) = 51.76811 45.96859 59.99203
#
# Poissons Ratio (x) = 0.52711 0.08620
# Poissons Ratio (y) = 0.59361 0.43341
# Poissons Ratio (z) = 0.07438 0.33210
#
# Static dielectric constant tensor:
#      x y z
#    x 3.886450 -0.000100 0.129370 
#    y -0.000100 3.864150 -0.000120 
#    z 0.129370 -0.000120 4.036110 
# 
# 
# High freq. dielectric constant tensor:
#      x y z
#    x 1.857850 0.000000 0.019580 
#    y 0.000000 1.859280 0.000000 
#    z 0.019580 0.000000 1.871710 
# 
# From -- ./inp_files/285475.got.cif
#   From: 2010.06.25/outbox.cif.g09.slc.cpg/sg12_143_cif.got.tgz:285475.got - 2010.06.28 00:19:55.
