data_PCOD8115948
_publ_section_title
;
Structure prediction by ZEFSAII (Michael W. Deem and Ramdas Pophale) SiO2 
 PCOD8115948
Probable space group: C 2/M
;
_chemical_formula_sum "Si O2"
_cell_formula_units_Z 28
_cell_length_a 5.351703
_cell_length_b 28.737656
_cell_length_c 8.909081
_cell_angle_alpha 90.000000
_cell_angle_beta 121.989095
_cell_angle_gamma 90.000000
_cell_volume 1162.113045
_symmetry_space_group_name_H-M "C 2/M"
_symmetry_group_IT_number 12
_symmetry_cell_setting 'monoclinic'
loop_
_space_group_symop_operation_xyz
x,y,z
-x,y,-z
-x,-y,-z
x,-y,z
1/2+x,1/2+y,z
1/2-x,1/2+y,-z
1/2-x,1/2-y,-z
1/2+x,1/2-y,z
loop_
_atom_site_type_symbol
_atom_site_label
_atom_site_fract_x
_atom_site_fract_y
_atom_site_fract_z
Si Si1 0.144470 0.500000 0.383435
Si Si2 0.430998 0.720585 0.721678
Si Si3 0.500000 0.342413 0.000000
Si Si4 0.500000 0.653343 0.500000
Si Si5 0.523851 0.905586 0.184998
O O1 0.500000 0.500000 0.500000
O O2 0.014338 0.455819 0.256574
O O3 0.000000 0.500000 0.500000
O O4 0.154638 0.742649 0.719668
O O5 0.616627 0.690111 0.901297
O O6 0.310718 0.687428 0.548766
O O7 0.750892 0.374670 0.152227
O O8 0.686885 0.620890 0.668833
O O9 0.500000 0.911751 0.000000
#
# Coordination Sequence:
#
# PCOD8115948 Si02
#       5
#     4   8   4   4   8
#     4  12  31  55  90 125 162 208 266 330 409 496
#     4  12  27  49  76 115 165 218 276 340 397 467
#     4  12  28  47  82 120 162 218 274 333 404 484
#     4  12  26  51  82 116 162 214 280 329 404 476
#     4  12  28  54  82 120 166 209 268 333 408 488
#
# _framework density 24.094041000000001
#
# number of rings (size 3 to 8) (size 9 to 14) (size 15 to 20)
#    0.000    0.000    4.286    3.857    8.000    2.857 
#    0.000    0.000    0.000    0.000    0.000    0.000 
#    0.000    0.000    0.000    0.000    0.000    0.000 
#
# Total GULP energy -173568.399983 kJ/mol
# GULP energy per Si atom -12397.742856 kJ/mol
# Density = 2.403920 g / cm^3
# Si number density = 24.094041 Si / 1000 Ang^3
#
#
#
# Elastic Constant Matrix: (Units=GPa)
#
#
# Indices 1 2 3 4 5 6 
#
# 1 109.8722 56.1798 58.7314 0.0000 -22.0418 0.0000
# 2 56.1798 180.6778 93.0712 0.0000 -20.7666 0.0000
# 3 58.7314 93.0712 183.3952 0.0000 -21.3979 0.0000
# 4 0.0000 0.0000 0.0000 42.4283 0.0000 -4.3829
# 5 -22.0418 -20.7666 -21.3979 0.0000 40.6599 0.0000
# 6 0.0000 0.0000 0.0000 -4.3829 0.0000 22.3052
#
#
#
# Elastic Compliance Matrix: (Units=1/GPa)
#
#
# Indices 1 2 3 4 5 6 
#
# 1 0.012319 -0.002111 -0.002366 0.000000 0.004355 0.000000
# 2 -0.002111 0.008003 -0.003241 0.000000 0.001237 0.000000
# 3 -0.002366 -0.003241 0.008004 0.000000 0.001274 0.000000
# 4 0.000000 0.000000 0.000000 0.024058 0.000000 0.004727
# 5 0.004355 0.001237 0.001274 0.000000 0.028258 0.000000
# 6 0.000000 0.000000 0.000000 0.004727 0.000000 0.045761
#
#
# Mechanical properties :
#
#
# Convention : Reuss Voigt Hill
#
# Bulk Modulus (GPa) = 77.57862 98.87886 88.22874
# Shear Modulus (GPa) = 34.21499 38.80954 36.51227
#
# Velocity S-wave (km/s) = 3.77246 4.01777 3.89705
# Velocity P-wave (km/s) = 7.15845 7.91525 7.54634
#
# Compressibility (1/GPa) = 0.01289015
#
# Stress axis : x y z
#
# Youngs Moduli (GPa) = 81.17376 124.95497 124.94309
#
# Poissons Ratio (x) = 0.26384 0.29555
# Poissons Ratio (y) = 0.17140 0.40492
# Poissons Ratio (z) = 0.19202 0.40496
#
# Static dielectric constant tensor:
#      x y z
#    x 4.071660 0.000000 -0.321670 
#    y 0.000000 4.786060 0.000000 
#    z -0.321670 0.000000 4.363820 
# 
# 
# High freq. dielectric constant tensor:
#      x y z
#    x 1.945870 0.000000 -0.016690 
#    y 0.000000 1.977930 0.000000 
#    z -0.016690 0.000000 1.983300 
# 
# From -- ./inp_files/34704.got.cif
#   From: 2010.06.25/outbox.cif.g09.slc.cpg/sg12_18_cif.got.tgz:34704.got - 2010.06.28 00:19:55.
