data_PCOD8115119
_publ_section_title
;
Structure prediction by ZEFSAII (Michael W. Deem and Ramdas Pophale) SiO2 
 PCOD8115119
Probable space group: C 2/M
;
_chemical_formula_sum "Si O2"
_cell_formula_units_Z 32
_cell_length_a 14.858803
_cell_length_b 11.245245
_cell_length_c 17.355660
_cell_angle_alpha 90.000000
_cell_angle_beta 31.718383
_cell_angle_gamma 90.000000
_cell_volume 1524.644889
_symmetry_space_group_name_H-M "C 2/M"
_symmetry_group_IT_number 12
_symmetry_cell_setting 'monoclinic'
loop_
_space_group_symop_operation_xyz
x,y,z
-x,y,-z
-x,-y,-z
x,-y,z
1/2+x,1/2+y,z
1/2-x,1/2+y,-z
1/2-x,1/2-y,-z
1/2+x,1/2-y,z
loop_
_atom_site_type_symbol
_atom_site_label
_atom_site_fract_x
_atom_site_fract_y
_atom_site_fract_z
Si Si1 0.229573 0.000000 0.895465
Si Si2 0.558418 0.360377 0.347289
Si Si3 0.398893 0.775511 0.832815
Si Si4 0.742565 0.756389 0.665080
Si Si5 0.861477 0.000000 0.214132
O O1 0.350385 0.887422 0.816967
O O2 0.164797 0.000000 0.856797
O O3 0.069174 0.000000 0.072733
O O4 0.529490 0.500000 0.381449
O O5 0.579621 0.335576 0.241132
O O6 0.395844 0.286592 0.495684
O O7 0.723950 0.316832 0.275800
O O8 0.568324 0.807823 0.757061
O O9 0.250000 0.750000 0.000000
O O10 0.724755 0.614134 0.683968
#
# Coordination Sequence:
#
# PCOD8115119 Si02
#       5
#     4   8   8   8   4
#     4  11  24  43  68 104 139 171 227 277 335 399
#     4  11  27  48  66  98 139 179 223 279 336 401
#     4  12  26  44  70 102 134 179 225 274 338 401
#     4  11  24  46  70  99 135 178 224 276 340 394
#     4  11  22  44  73  97 139 173 223 287 326 403
#
# _framework density 20.988493999999999
#
# number of rings (size 3 to 8) (size 9 to 14) (size 15 to 20)
#    0.000    0.750    5.000    2.250    7.000    4.000 
#    0.000    1.250    0.000    0.000    0.000    0.000 
#    0.000    0.000    0.000    0.000    0.000    0.000 
#
# Total GULP energy -198452.302845 kJ/mol
# GULP energy per Si atom -12403.268928 kJ/mol
# Density = 2.094072 g / cm^3
# Si number density = 20.988494 Si / 1000 Ang^3
#
#
#
# Elastic Constant Matrix: (Units=GPa)
#
#
# Indices 1 2 3 4 5 6 
#
# 1 129.4393 25.8113 68.6682 -0.0003 -20.8380 0.0002
# 2 25.8113 149.8950 51.6229 0.0009 -7.9158 -0.0006
# 3 68.6682 51.6229 113.0456 0.0028 -2.1376 -0.0015
# 4 -0.0003 0.0009 0.0028 38.3872 -0.0011 -5.4852
# 5 -20.8380 -7.9158 -2.1376 -0.0011 42.7606 0.0004
# 6 0.0002 -0.0006 -0.0015 -5.4852 0.0004 32.3756
#
#
#
# Elastic Compliance Matrix: (Units=1/GPa)
#
#
# Indices 1 2 3 4 5 6 
#
# 1 0.012790 0.000891 -0.008063 0.000001 0.005995 0.000000
# 2 0.000891 0.008050 -0.004185 0.000000 0.001715 0.000000
# 3 -0.008063 -0.004185 0.015580 -0.000001 -0.003925 0.000001
# 4 0.000001 0.000000 -0.000001 0.026697 0.000001 0.004523
# 5 0.005995 0.001715 -0.003925 0.000001 0.026429 0.000000
# 6 0.000000 0.000000 0.000001 0.004523 0.000000 0.031654
#
#
# Mechanical properties :
#
#
# Convention : Reuss Voigt Hill
#
# Bulk Modulus (GPa) = 72.95396 76.06496 74.50946
# Shear Modulus (GPa) = 33.67408 39.12319 36.39863
#
# Velocity S-wave (km/s) = 4.00985 4.32213 4.16891
# Velocity P-wave (km/s) = 7.50153 7.82481 7.66488
#
# Compressibility (1/GPa) = 0.01370728
#
# Stress axis : x y z
#
# Youngs Moduli (GPa) = 78.18309 124.22860 64.18297
#
# Poissons Ratio (x) = -0.11068 0.51750
# Poissons Ratio (y) = -0.06966 0.26859
# Poissons Ratio (z) = 0.63038 0.51986
#
# Static dielectric constant tensor:
#      x y z
#    x 4.427680 0.000000 -0.531630 
#    y 0.000000 3.884230 0.000000 
#    z -0.531630 0.000000 4.109520 
# 
# 
# High freq. dielectric constant tensor:
#      x y z
#    x 1.841360 0.000000 -0.004050 
#    y 0.000000 1.827060 0.000000 
#    z -0.004050 0.000000 1.817590 
# 
# From -- ./inp_files/56919.got.cif
#   From: 2010.06.25/outbox.cif.g09.slc.cpg/sg12_29_cif.got.tgz:56919.got - 2010.06.28 00:19:55.
