data_PCOD8115578
_publ_section_title
;
Structure prediction by ZEFSAII (Michael W. Deem and Ramdas Pophale) SiO2 
 PCOD8115578
Probable space group: C 2/M
;
_chemical_formula_sum "Si O2"
_cell_formula_units_Z 40
_cell_length_a 26.958867
_cell_length_b 7.673071
_cell_length_c 18.571616
_cell_angle_alpha 90.000000
_cell_angle_beta 150.579318
_cell_angle_gamma 90.000000
_cell_volume 1887.100371
_symmetry_space_group_name_H-M "C 2/M"
_symmetry_group_IT_number 12
_symmetry_cell_setting 'monoclinic'
loop_
_space_group_symop_operation_xyz
x,y,z
-x,y,-z
-x,-y,-z
x,-y,z
1/2+x,1/2+y,z
1/2-x,1/2+y,-z
1/2-x,1/2-y,-z
1/2+x,1/2-y,z
loop_
_atom_site_type_symbol
_atom_site_label
_atom_site_fract_x
_atom_site_fract_y
_atom_site_fract_z
Si Si1 0.439878 0.303372 0.066870
Si Si2 0.208846 0.696424 0.231475
Si Si3 0.840763 0.500000 0.335973
Si Si4 0.136115 0.204087 0.874439
Si Si5 0.336613 0.203142 0.665651
Si Si6 0.057157 0.500000 0.680050
O O1 0.406460 0.500000 0.008880
O O2 0.386810 0.240185 0.072836
O O3 0.560252 0.294777 0.227552
O O4 0.398124 0.192371 0.946559
O O5 0.253091 0.500000 0.288974
O O6 0.284739 0.822994 0.286395
O O7 0.194199 0.767913 0.293877
O O8 0.853044 0.500000 0.265296
O O9 0.948509 0.500000 0.508392
O O10 0.064125 0.322931 0.734660
O O11 0.112364 0.000000 0.830565
O O12 0.250000 0.250000 0.000000
O O13 0.250000 0.250000 0.500000
O O14 0.357719 0.000000 0.693100
#
# Coordination Sequence:
#
# PCOD8115578 Si02
#       6
#     8   8   4   8   8   4
#     4  11  24  41  67 100 132 176 225 273 333 396
#     4  11  25  44  69  97 135 175 223 275 333 401
#     4  11  26  46  69  96 137 177 226 275 335 402
#     4  11  24  41  67 101 136 171 225 279 328 394
#     4  11  26  42  65  99 134 176 223 272 336 400
#     4  11  26  44  68 100 132 181 225 275 341 390
#
# _framework density 21.196542000000001
#
# number of rings (size 3 to 8) (size 9 to 14) (size 15 to 20)
#    0.000    1.000    2.000    3.000    8.400    5.600 
#    0.000    2.000    0.000    0.000    0.000    0.000 
#    0.000    0.000    0.000    0.000    0.000    0.000 
#
# Total GULP energy -248085.100521 kJ/mol
# GULP energy per Si atom -12404.255026 kJ/mol
# Density = 2.114830 g / cm^3
# Si number density = 21.196542 Si / 1000 Ang^3
#
#
#
# Elastic Constant Matrix: (Units=GPa)
#
#
# Indices 1 2 3 4 5 6 
#
# 1 147.3344 48.2971 70.1123 0.0000 -16.2450 0.0000
# 2 48.2971 103.3041 24.2317 0.0000 -10.2499 0.0000
# 3 70.1123 24.2317 116.4365 0.0000 -14.3736 0.0000
# 4 0.0000 0.0000 0.0000 29.5243 0.0000 -3.0017
# 5 -16.2450 -10.2499 -14.3736 0.0000 38.8719 0.0000
# 6 0.0000 0.0000 0.0000 -3.0017 0.0000 34.7384
#
#
#
# Elastic Compliance Matrix: (Units=1/GPa)
#
#
# Indices 1 2 3 4 5 6 
#
# 1 0.010771 -0.003584 -0.005554 0.000000 0.001502 0.000000
# 2 -0.003584 0.011519 -0.000052 0.000000 0.001521 0.000000
# 3 -0.005554 -0.000052 0.012213 0.000000 0.002181 0.000000
# 4 0.000000 0.000000 0.000000 0.034171 0.000000 0.002953
# 5 0.001502 0.001521 0.002181 0.000000 0.027561 0.000000
# 6 0.000000 0.000000 0.000000 0.002953 0.000000 0.029042
#
#
# Mechanical properties :
#
#
# Convention : Reuss Voigt Hill
#
# Bulk Modulus (GPa) = 62.02258 72.48412 67.25335
# Shear Modulus (GPa) = 33.55046 35.58918 34.56982
#
# Velocity S-wave (km/s) = 3.98279 4.10202 4.04284
# Velocity P-wave (km/s) = 7.10453 7.53033 7.32053
#
# Compressibility (1/GPa) = 0.01612316
#
# Stress axis : x y z
#
# Youngs Moduli (GPa) = 92.84292 86.81634 81.88040
#
# Poissons Ratio (x) = 0.31112 0.45480
# Poissons Ratio (y) = 0.33272 0.00422
# Poissons Ratio (z) = 0.51569 0.00447
#
# Static dielectric constant tensor:
#      x y z
#    x 3.849810 0.000000 0.158800 
#    y 0.000000 4.058310 0.000000 
#    z 0.158800 0.000000 3.359330 
# 
# 
# High freq. dielectric constant tensor:
#      x y z
#    x 1.842330 0.000000 -0.006880 
#    y 0.000000 1.842890 0.000000 
#    z -0.006880 0.000000 1.835710 
# 
# From -- ./inp_files/292329.got.cif
#   From: 2010.06.25/outbox.cif.g09.slc.cpg/sg12_147_cif.got.tgz:292329.got - 2010.06.28 00:19:55.
