data_PCOD8115773
_publ_section_title
;
Structure prediction by ZEFSAII (Michael W. Deem and Ramdas Pophale) SiO2 
 PCOD8115773
Probable space group: C 2/M
;
_chemical_formula_sum "Si O2"
_cell_formula_units_Z 40
_cell_length_a 21.293745
_cell_length_b 8.715062
_cell_length_c 18.590691
_cell_angle_alpha 90.000000
_cell_angle_beta 149.086225
_cell_angle_gamma 90.000000
_cell_volume 1772.424772
_symmetry_space_group_name_H-M "C 2/M"
_symmetry_group_IT_number 12
_symmetry_cell_setting 'monoclinic'
loop_
_space_group_symop_operation_xyz
x,y,z
-x,y,-z
-x,-y,-z
x,-y,z
1/2+x,1/2+y,z
1/2-x,1/2+y,-z
1/2-x,1/2-y,-z
1/2+x,1/2-y,z
loop_
_atom_site_type_symbol
_atom_site_label
_atom_site_fract_x
_atom_site_fract_y
_atom_site_fract_z
Si Si1 0.133168 0.180422 0.923902
Si Si2 0.504828 0.180813 0.922589
Si Si3 0.982887 0.683320 0.658685
Si Si4 0.744858 0.683481 0.340494
Si Si5 0.876336 0.666397 0.334931
O O1 0.011274 0.234249 0.761628
O O2 0.118676 0.242071 0.991775
O O3 0.145016 0.000000 0.936782
O O4 0.250000 0.250000 0.000000
O O5 0.380592 0.235155 0.761024
O O6 0.519483 0.000000 0.932069
O O7 0.500000 0.239392 0.000000
O O8 0.994414 0.500000 0.677044
O O9 0.086224 0.747990 0.703332
O O10 0.847101 0.729938 0.499651
O O11 0.730618 0.500000 0.323403
O O12 0.782625 0.750347 0.297722
O O13 0.820682 0.500000 0.260577
O O14 0.000000 0.639640 0.500000
#
# Coordination Sequence:
#
# PCOD8115773 Si02
#       5
#     8   8   8   8   8
#     4  12  27  46  68  94 128 171 218 265 323 389
#     4  11  26  46  66  93 131 171 216 270 326 382
#     4   9  18  36  63  96 132 168 211 265 318 376
#     4   9  18  35  63  97 130 168 215 262 317 381
#     4   7  12  26  52  88 125 160 199 244 300 366
#
# _framework density 22.567952999999999
#
# number of rings (size 3 to 8) (size 9 to 14) (size 15 to 20)
#    0.000    2.400    0.000    4.800    2.800    3.200 
#    0.000    0.000    0.000    3.600    0.000    0.000 
#    0.000    0.000    0.000    0.000    0.000    0.000 
#
# Total GULP energy -247828.108257 kJ/mol
# GULP energy per Si atom -12391.405413 kJ/mol
# Density = 2.251659 g / cm^3
# Si number density = 22.567953 Si / 1000 Ang^3
#
#
#
# Elastic Constant Matrix: (Units=GPa)
#
#
# Indices 1 2 3 4 5 6 
#
# 1 151.0615 54.3848 44.5432 0.0000 2.2592 0.0000
# 2 54.3848 93.1021 35.1832 0.0000 -1.9394 0.0000
# 3 44.5432 35.1832 70.4802 0.0000 -0.6136 0.0000
# 4 0.0000 0.0000 0.0000 30.5392 0.0000 4.1586
# 5 2.2592 -1.9394 -0.6136 0.0000 38.6933 0.0000
# 6 0.0000 0.0000 0.0000 4.1586 0.0000 24.8955
#
#
#
# Elastic Compliance Matrix: (Units=1/GPa)
#
#
# Indices 1 2 3 4 5 6 
#
# 1 0.009179 -0.003924 -0.003850 0.000000 -0.000794 0.000000
# 2 -0.003924 0.014928 -0.004964 0.000000 0.000899 0.000000
# 3 -0.003850 -0.004964 0.019102 0.000000 0.000279 0.000000
# 4 0.000000 0.000000 0.000000 0.033507 0.000000 -0.005597
# 5 -0.000794 0.000899 0.000279 0.000000 0.025940 0.000000
# 6 0.000000 0.000000 0.000000 -0.005597 0.000000 0.041103
#
#
# Mechanical properties :
#
#
# Convention : Reuss Voigt Hill
#
# Bulk Modulus (GPa) = 56.38924 64.76290 60.57607
# Shear Modulus (GPa) = 28.54779 30.86110 29.70445
#
# Velocity S-wave (km/s) = 3.56050 3.70195 3.63191
# Velocity P-wave (km/s) = 6.47638 6.85797 6.66991
#
# Compressibility (1/GPa) = 0.01773388
#
# Stress axis : x y z
#
# Youngs Moduli (GPa) = 108.93872 66.98984 52.35133
#
# Poissons Ratio (x) = 0.26286 0.20153
# Poissons Ratio (y) = 0.42747 0.25987
# Poissons Ratio (z) = 0.41936 0.33254
#
# Static dielectric constant tensor:
#      x y z
#    x 4.600540 0.000000 -0.133480 
#    y 0.000000 3.519120 0.000000 
#    z -0.133480 0.000000 4.110310 
# 
# 
# High freq. dielectric constant tensor:
#      x y z
#    x 1.905300 0.000000 -0.001570 
#    y 0.000000 1.843960 0.000000 
#    z -0.001570 0.000000 1.891910 
# 
# From -- ./inp_files/324431.got.cif
#   From: 2010.06.25/outbox.cif.g09.slc.cpg/sg12_163_cif.got.tgz:324431.got - 2010.06.28 00:19:55.
