data_PCOD8115178
_publ_section_title
;
Structure prediction by ZEFSAII (Michael W. Deem and Ramdas Pophale) SiO2 
 PCOD8115178
Probable space group: C 2/M
;
_chemical_formula_sum "Si O2"
_cell_formula_units_Z 56
_cell_length_a 28.526939
_cell_length_b 8.504419
_cell_length_c 14.305331
_cell_angle_alpha 90.000000
_cell_angle_beta 120.424426
_cell_angle_gamma 90.000000
_cell_volume 2992.643901
_symmetry_space_group_name_H-M "C 2/M"
_symmetry_group_IT_number 12
_symmetry_cell_setting 'monoclinic'
loop_
_space_group_symop_operation_xyz
x,y,z
-x,y,-z
-x,-y,-z
x,-y,z
1/2+x,1/2+y,z
1/2-x,1/2+y,-z
1/2-x,1/2-y,-z
1/2+x,1/2-y,z
loop_
_atom_site_type_symbol
_atom_site_label
_atom_site_fract_x
_atom_site_fract_y
_atom_site_fract_z
Si Si1 0.049831 0.683318 0.116994
Si Si2 0.025787 0.183281 0.290858
Si Si3 0.240066 0.679792 0.092401
Si Si4 0.367143 0.318857 0.930916
Si Si5 0.943513 0.686127 0.491712
Si Si6 0.085932 0.680502 0.846193
Si Si7 0.358024 0.319530 0.264957
O O1 0.043638 0.500000 0.132272
O O2 0.050028 0.775378 0.214718
O O3 0.108381 0.719693 0.130403
O O4 0.000000 0.739752 0.000000
O O5 0.064870 0.234222 0.415250
O O6 0.971855 0.283969 0.258015
O O7 0.013055 0.000000 0.283173
O O8 0.222299 0.500000 0.060096
O O9 0.193162 0.767489 0.101992
O O10 0.293108 0.691937 0.212531
O O11 0.250000 0.750000 0.000000
O O12 0.366957 0.500000 0.902276
O O13 0.407934 0.290969 0.058014
O O14 0.942332 0.500000 0.499896
O O15 0.890637 0.741560 0.381970
O O16 0.000000 0.741932 0.500000
O O17 0.090337 0.500000 0.882058
O O18 0.132216 0.721012 0.819235
O O19 0.376728 0.500000 0.271073
#
# Coordination Sequence:
#
# PCOD8115178 Si02
#       7
#     8   8   8   8   8   8   8
#     4  11  23  39  61  86 118 157 196 240 294 350
#     4  12  24  38  59  86 120 156 197 243 291 350
#     4  11  23  38  59  86 120 157 198 243 295 350
#     4  12  24  38  58  86 120 157 199 242 292 350
#     4  11  23  38  59  86 119 158 197 239 293 352
#     4  12  22  34  55  84 120 158 196 238 290 349
#     4  11  23  38  58  86 118 156 199 244 292 346
#
# _framework density 18.712551000000001
#
# number of rings (size 3 to 8) (size 9 to 14) (size 15 to 20)
#    0.000    0.571    4.286    5.571    0.000    2.857 
#    0.000    0.000    0.000    0.857    0.000    0.000 
#    0.000    0.000    0.000    0.000    0.000    0.000 
#
# Total GULP energy -347268.564121 kJ/mol
# GULP energy per Si atom -12402.448719 kJ/mol
# Density = 1.866996 g / cm^3
# Si number density = 18.712551 Si / 1000 Ang^3
#
#
#
# Elastic Constant Matrix: (Units=GPa)
#
#
# Indices 1 2 3 4 5 6 
#
# 1 92.7853 31.2724 32.0506 0.0000 -7.7905 0.0000
# 2 31.2724 88.7403 32.1201 0.0000 3.2532 0.0000
# 3 32.0506 32.1201 97.7959 0.0000 -11.0360 0.0000
# 4 0.0000 0.0000 0.0000 31.4499 0.0000 -1.1108
# 5 -7.7905 3.2532 -11.0360 0.0000 18.6483 0.0000
# 6 0.0000 0.0000 0.0000 -1.1108 0.0000 30.3928
#
#
#
# Elastic Compliance Matrix: (Units=1/GPa)
#
#
# Indices 1 2 3 4 5 6 
#
# 1 0.013399 -0.003976 -0.002545 0.000000 0.004785 0.000000
# 2 -0.003976 0.014430 -0.004187 0.000000 -0.006656 0.000000
# 3 -0.002545 -0.004187 0.013284 0.000000 0.007529 0.000000
# 4 0.000000 0.000000 0.000000 0.031838 0.000000 0.001164
# 5 0.004785 -0.006656 0.007529 0.000000 0.061240 0.000000
# 6 0.000000 0.000000 0.000000 0.001164 0.000000 0.032945
#
#
# Mechanical properties :
#
#
# Convention : Reuss Voigt Hill
#
# Bulk Modulus (GPa) = 50.77302 52.24530 51.50916
# Shear Modulus (GPa) = 25.62562 28.35678 26.99120
#
# Velocity S-wave (km/s) = 3.70460 3.89702 3.80203
# Velocity P-wave (km/s) = 6.74469 6.94475 6.84545
#
# Compressibility (1/GPa) = 0.01969550
#
# Stress axis : x y z
#
# Youngs Moduli (GPa) = 74.63504 69.30203 75.27574
#
# Poissons Ratio (x) = 0.27553 0.19160
# Poissons Ratio (y) = 0.29673 0.31521
# Poissons Ratio (z) = 0.18997 0.29020
#
# Static dielectric constant tensor:
#      x y z
#    x 3.370490 0.000000 0.107300 
#    y 0.000000 3.531290 0.000000 
#    z 0.107300 0.000000 3.084090 
# 
# 
# High freq. dielectric constant tensor:
#      x y z
#    x 1.715070 0.000000 0.000280 
#    y 0.000000 1.744390 0.000000 
#    z 0.000280 0.000000 1.715240 
# 
# From -- ./inp_files/181137.got.cif
#   From: 2010.06.25/outbox.cif.g09.slc.cpg/sg12_91_cif.got.tgz:181137.got - 2010.06.28 00:19:55.
