data_PCOD8115909
_publ_section_title
;
Structure prediction by ZEFSAII (Michael W. Deem and Ramdas Pophale) SiO2 
 PCOD8115909
Probable space group: C 2/M
;
_chemical_formula_sum "Si O2"
_cell_formula_units_Z 40
_cell_length_a 8.829710
_cell_length_b 25.737502
_cell_length_c 9.849509
_cell_angle_alpha 90.000000
_cell_angle_beta 116.637636
_cell_angle_gamma 90.000000
_cell_volume 2000.768682
_symmetry_space_group_name_H-M "C 2/M"
_symmetry_group_IT_number 12
_symmetry_cell_setting 'monoclinic'
loop_
_space_group_symop_operation_xyz
x,y,z
-x,y,-z
-x,-y,-z
x,-y,z
1/2+x,1/2+y,z
1/2-x,1/2+y,-z
1/2-x,1/2-y,-z
1/2+x,1/2-y,z
loop_
_atom_site_type_symbol
_atom_site_label
_atom_site_fract_x
_atom_site_fract_y
_atom_site_fract_z
Si Si1 0.013942 0.791826 0.162069
Si Si2 0.008540 0.500000 0.784930
Si Si3 0.402383 0.210539 0.331040
Si Si4 0.718804 0.387917 0.884213
Si Si5 0.008947 0.612179 0.226861
Si Si6 0.228082 0.000000 0.901355
O O1 0.206322 0.795942 0.288678
O O2 0.917155 0.748079 0.208041
O O3 0.930066 0.847447 0.153219
O O4 0.000000 0.775164 0.000000
O O5 0.978247 0.554920 0.694848
O O6 0.886320 0.500000 0.864571
O O7 0.201070 0.500000 0.916667
O O8 0.500000 0.234244 0.500000
O O9 0.486775 0.154956 0.333464
O O10 0.818545 0.375259 0.785470
O O11 0.628951 0.445406 0.839111
O O12 0.849371 0.386294 0.061407
#
# Coordination Sequence:
#
# PCOD8115909 Si02
#       6
#     8   4   8   8   8   4
#     4  12  24  40  60  85 110 149 196 238 281 332
#     4   7  12  26  52  83 112 147 181 221 268 341
#     4  12  26  41  57  82 117 152 187 235 292 340
#     4   9  17  32  59  88 113 145 186 236 272 331
#     4   9  17  33  58  85 115 148 188 225 279 331
#     4   7  12  26  50  86 118 138 175 228 286 318
#
# _framework density 19.992315000000001
#
# number of rings (size 3 to 8) (size 9 to 14) (size 15 to 20)
#    0.000    2.200    2.000    4.800    2.800    0.000 
#    0.000    2.000    0.000    0.000    0.000    4.900 
#    0.000    0.000    0.000    0.000    0.000    0.000 
#
# Total GULP energy -247847.670687 kJ/mol
# GULP energy per Si atom -12392.383534 kJ/mol
# Density = 1.994681 g / cm^3
# Si number density = 19.992315 Si / 1000 Ang^3
#
#
#
# Elastic Constant Matrix: (Units=GPa)
#
#
# Indices 1 2 3 4 5 6 
#
# 1 88.1776 49.8872 28.7907 0.0000 10.5385 0.0000
# 2 49.8872 150.8599 24.0451 0.0000 -5.3068 0.0000
# 3 28.7907 24.0451 54.3893 0.0000 10.5452 0.0000
# 4 0.0000 0.0000 0.0000 5.1114 0.0000 -2.3369
# 5 10.5385 -5.3068 10.5452 0.0000 18.9526 0.0000
# 6 0.0000 0.0000 0.0000 -2.3369 0.0000 33.0082
#
#
#
# Elastic Compliance Matrix: (Units=1/GPa)
#
#
# Indices 1 2 3 4 5 6 
#
# 1 0.016799 -0.005012 -0.005149 0.000000 -0.007879 0.000000
# 2 -0.005012 0.008938 -0.002605 0.000000 0.006739 0.000000
# 3 -0.005149 -0.002605 0.024492 0.000000 -0.011493 0.000000
# 4 0.000000 0.000000 0.000000 0.202186 0.000000 0.014314
# 5 -0.007879 0.006739 -0.011493 0.000000 0.065426 0.000000
# 6 0.000000 0.000000 0.000000 0.014314 0.000000 0.031309
#
#
# Mechanical properties :
#
#
# Convention : Reuss Voigt Hill
#
# Bulk Modulus (GPa) = 40.49085 55.43033 47.96059
# Shear Modulus (GPa) = 13.05774 24.12803 18.59288
#
# Velocity S-wave (km/s) = 2.55843 3.47777 3.05290
# Velocity P-wave (km/s) = 5.38745 6.62665 6.03892
#
# Compressibility (1/GPa) = 0.02469694
#
# Stress axis : x y z
#
# Youngs Moduli (GPa) = 59.52696 111.87871 40.82999
#
# Poissons Ratio (x) = 0.56070 0.21024
# Poissons Ratio (y) = 0.29833 0.10637
# Poissons Ratio (z) = 0.30652 0.29147
#
# Static dielectric constant tensor:
#      x y z
#    x 3.516900 0.000000 -0.064260 
#    y 0.000000 4.245530 0.000000 
#    z -0.064260 0.000000 3.093940 
# 
# 
# High freq. dielectric constant tensor:
#      x y z
#    x 1.767020 0.000000 -0.003520 
#    y 0.000000 1.805720 0.000000 
#    z -0.003520 0.000000 1.725690 
# 
# From -- ./inp_files/122203.got.cif
#   From: 2010.06.25/outbox.cif.g09.slc.cpg/sg12_62_cif.got.tgz:122203.got - 2010.06.28 00:19:55.
