data_PCOD8115628
_publ_section_title
;
Structure prediction by ZEFSAII (Michael W. Deem and Ramdas Pophale) SiO2 
 PCOD8115628
Probable space group: C 2/M
;
_chemical_formula_sum "Si O2"
_cell_formula_units_Z 40
_cell_length_a 9.735103
_cell_length_b 9.341419
_cell_length_c 20.910046
_cell_angle_alpha 90.000000
_cell_angle_beta 90.466759
_cell_angle_gamma 90.000000
_cell_volume 1901.489713
_symmetry_space_group_name_H-M "C 2/M"
_symmetry_group_IT_number 12
_symmetry_cell_setting 'monoclinic'
loop_
_space_group_symop_operation_xyz
x,y,z
-x,y,-z
-x,-y,-z
x,-y,z
1/2+x,1/2+y,z
1/2-x,1/2+y,-z
1/2-x,1/2-y,-z
1/2+x,1/2-y,z
loop_
_atom_site_type_symbol
_atom_site_label
_atom_site_fract_x
_atom_site_fract_y
_atom_site_fract_z
Si Si1 0.257791 0.263373 0.346743
Si Si2 0.366619 0.000000 0.418271
Si Si3 0.536479 0.834592 0.859779
Si Si4 0.316478 0.000000 0.557441
Si Si5 0.995191 0.837078 0.734448
Si Si6 0.237898 0.665874 0.065653
O O1 0.243748 0.362463 0.408225
O O2 0.349667 0.335934 0.291911
O O3 0.109928 0.219191 0.319269
O O4 0.340726 0.130437 0.372103
O O5 0.272076 0.000000 0.482256
O O6 0.521789 0.000000 0.439635
O O7 0.480016 0.768189 0.794267
O O8 0.666797 0.741996 0.881770
O O9 0.419239 0.825398 0.912858
O O10 0.579913 0.000000 0.848814
O O11 0.958753 0.000000 0.754337
O O12 0.282712 0.500000 0.057216
O O13 0.250000 0.750000 0.000000
#
# Coordination Sequence:
#
# PCOD8115628 Si02
#       6
#     8   4   8   4   8   8
#     4  12  24  43  65  96 126 171 216 269 327 392
#     4  11  24  43  67  97 127 171 214 266 335 394
#     4  11  26  43  66  99 130 175 222 269 320 385
#     4  11  24  43  67  95 133 165 214 274 327 392
#     4  12  26  42  65  93 133 168 217 269 324 387
#     4  11  24  44  69 100 137 173 218 269 324 382
#
# _framework density 21.036137
#
# number of rings (size 3 to 8) (size 9 to 14) (size 15 to 20)
#    0.000    0.600    4.000    3.600    2.800    8.800 
#    0.000    1.000    0.000    0.000    0.000    0.000 
#    0.000    0.000    0.000    0.000    0.000    0.000 
#
# Total GULP energy -248085.093359 kJ/mol
# GULP energy per Si atom -12404.254668 kJ/mol
# Density = 2.098826 g / cm^3
# Si number density = 21.036137 Si / 1000 Ang^3
#
#
#
# Elastic Constant Matrix: (Units=GPa)
#
#
# Indices 1 2 3 4 5 6 
#
# 1 70.6941 19.5387 3.9938 0.0000 -2.5623 0.0000
# 2 19.5387 146.1871 31.7177 0.0000 0.3930 0.0000
# 3 3.9938 31.7177 86.6126 0.0000 -6.5785 0.0000
# 4 0.0000 0.0000 0.0000 -21.9607 0.0000 -47.1946
# 5 -2.5623 0.3930 -6.5785 0.0000 38.0492 0.0000
# 6 0.0000 0.0000 0.0000 -47.1946 0.0000 -2.3625
#
#
#
# Elastic Compliance Matrix: (Units=1/GPa)
#
#
# Indices 1 2 3 4 5 6 
#
# 1 0.014728 -0.002000 0.000132 0.000000 0.001035 0.000000
# 2 -0.002000 0.007714 -0.002786 0.000000 -0.000696 0.000000
# 3 0.000132 -0.002786 0.012730 0.000000 0.002239 0.000000
# 4 0.000000 0.000000 0.000000 0.001086 0.000000 -0.021694
# 5 0.001035 -0.000696 0.002239 0.000000 0.026746 0.000000
# 6 0.000000 0.000000 0.000000 -0.021694 0.000000 0.010095
#
#
# Mechanical properties :
#
#
# Convention : Reuss Voigt Hill
#
# Bulk Modulus (GPa) = 38.66251 45.99935 42.33093
# Shear Modulus (GPa) = 54.92855 19.29477 37.11166
#
# Velocity S-wave (km/s) = 5.11549 3.03185 4.20478
# Velocity P-wave (km/s) = 7.30137 5.84555 6.61364
#
# Compressibility (1/GPa) = 0.02586485
#
# Stress axis : x y z
#
# Youngs Moduli (GPa) = 67.89662 129.63298 78.55657
#
# Poissons Ratio (x) = 0.25925 -0.01036
# Poissons Ratio (y) = 0.13579 0.21882
# Poissons Ratio (z) = -0.00895 0.36110
#
# Static dielectric constant tensor:
#      x y z
#    x 3.797660 0.000000 -0.030740 
#    y 0.000000 3.988880 0.000000 
#    z -0.030740 0.000000 3.975830 
# 
# 
# High freq. dielectric constant tensor:
#      x y z
#    x 1.826170 0.000000 -0.003240 
#    y 0.000000 1.842450 0.000000 
#    z -0.003240 0.000000 1.834080 
# 
# From -- ./inp_files/331768.got.cif
#   From: 2010.06.25/outbox.cif.g09.slc.cpg/sg12_166_cif.got.tgz:331768.got - 2010.06.28 00:19:55.
