data_PCOD8115392
_publ_section_title
;
Structure prediction by ZEFSAII (Michael W. Deem and Ramdas Pophale) SiO2 
 PCOD8115392
Probable space group: C 2/M
;
_chemical_formula_sum "Si O2"
_cell_formula_units_Z 56
_cell_length_a 9.135633
_cell_length_b 17.200687
_cell_length_c 24.532697
_cell_angle_alpha 90.000000
_cell_angle_beta 40.769233
_cell_angle_gamma 90.000000
_cell_volume 2517.400039
_symmetry_space_group_name_H-M "C 2/M"
_symmetry_group_IT_number 12
_symmetry_cell_setting 'monoclinic'
loop_
_space_group_symop_operation_xyz
x,y,z
-x,y,-z
-x,-y,-z
x,-y,z
1/2+x,1/2+y,z
1/2-x,1/2+y,-z
1/2-x,1/2-y,-z
1/2+x,1/2-y,z
loop_
_atom_site_type_symbol
_atom_site_label
_atom_site_fract_x
_atom_site_fract_y
_atom_site_fract_z
Si Si1 0.305622 0.666579 0.664437
Si Si2 0.669634 0.910503 0.803979
Si Si3 0.137457 0.588084 0.612897
Si Si4 0.296961 0.170005 0.515404
Si Si5 0.460483 0.294312 0.791240
Si Si6 0.224070 0.147862 0.903030
Si Si7 0.830107 0.914489 0.196223
O O1 0.172476 0.602332 0.737538
O O2 0.301766 0.643968 0.601465
O O3 0.561912 0.656787 0.612806
O O4 0.190279 0.752033 0.705080
O O5 0.851500 0.850222 0.776434
O O6 0.415303 0.885043 0.890821
O O7 0.720064 0.000000 0.805893
O O8 0.218312 0.500000 0.597456
O O9 0.142436 0.606513 0.547429
O O10 0.894159 0.602059 0.706722
O O11 0.500000 0.172684 0.500000
O O12 0.250000 0.250000 0.500000
O O13 0.281763 0.230838 0.860264
O O14 0.500387 0.347832 0.832586
O O15 0.195887 0.087776 0.861381
O O16 0.000000 0.156749 0.000000
O O17 0.922496 0.000000 0.185383
#
# Coordination Sequence:
#
# PCOD8115392 Si02
#       7
#     8   8   8   8   8   8   8
#     4  11  24  42  70  97 137 180 232 285 341 408
#     4  11  24  42  69 102 136 178 225 278 339 405
#     4  11  24  45  70  98 137 182 230 285 351 414
#     4  12  28  44  66  99 136 181 235 287 346 407
#     4  11  24  41  68 102 136 178 225 282 342 405
#     4  11  24  44  71 100 134 177 225 276 337 413
#     4  11  23  42  66  98 136 178 223 276 344 410
#
# _framework density 22.245173000000001
#
# number of rings (size 3 to 8) (size 9 to 14) (size 15 to 20)
#    0.000    0.857    2.857    5.143    6.000    5.429 
#    0.000    0.000    0.000    2.571    0.000    0.000 
#    0.000    0.000    0.000    0.000    0.000    0.000 
#
# Total GULP energy -347074.867677 kJ/mol
# GULP energy per Si atom -12395.530988 kJ/mol
# Density = 2.219454 g / cm^3
# Si number density = 22.245173 Si / 1000 Ang^3
#
#
#
# Elastic Constant Matrix: (Units=GPa)
#
#
# Indices 1 2 3 4 5 6 
#
# 1 127.2484 53.0791 49.1941 -0.0001 -12.5236 -0.0037
# 2 53.0791 143.9172 38.8658 -0.0068 -0.8003 0.0023
# 3 49.1941 38.8658 123.3773 0.0035 -6.1665 -0.0085
# 4 -0.0001 -0.0068 0.0035 10.3007 -0.0012 1.6325
# 5 -12.5236 -0.8003 -6.1665 -0.0012 22.1603 0.0054
# 6 -0.0037 0.0023 -0.0085 1.6325 0.0054 37.7629
#
#
#
# Elastic Compliance Matrix: (Units=1/GPa)
#
#
# Indices 1 2 3 4 5 6 
#
# 1 0.010874 -0.003148 -0.003085 0.000000 0.005173 0.000000
# 2 -0.003148 0.008510 -0.001520 0.000006 -0.001895 -0.000001
# 3 -0.003085 -0.001520 0.009862 -0.000005 0.000946 0.000002
# 4 0.000000 0.000006 -0.000005 0.097750 0.000005 -0.004226
# 5 0.005173 -0.001895 0.000946 0.000005 0.048244 -0.000006
# 6 0.000000 -0.000001 0.000002 -0.004226 -0.000006 0.026664
#
#
# Mechanical properties :
#
#
# Convention : Reuss Voigt Hill
#
# Bulk Modulus (GPa) = 72.79419 75.20231 73.99825
# Shear Modulus (GPa) = 22.52360 30.93839 26.73099
#
# Velocity S-wave (km/s) = 3.18546 3.73338 3.47025
# Velocity P-wave (km/s) = 6.80618 7.24318 7.02808
#
# Compressibility (1/GPa) = 0.01373736
#
# Stress axis : x y z
#
# Youngs Moduli (GPa) = 91.96349 117.51440 101.40424
#
# Poissons Ratio (x) = 0.36999 0.31287
# Poissons Ratio (y) = 0.28955 0.15413
# Poissons Ratio (z) = 0.28374 0.17862
#
# Static dielectric constant tensor:
#      x y z
#    x 3.867540 0.000000 0.276060 
#    y 0.000000 4.005480 0.000030 
#    z 0.276060 0.000030 3.334240 
# 
# 
# High freq. dielectric constant tensor:
#      x y z
#    x 1.876240 0.000000 -0.006740 
#    y 0.000000 1.882200 0.000000 
#    z -0.006740 0.000000 1.865720 
# 
# From -- ./inp_files/356645.got.cif
#   From: 2010.06.25/outbox.cif.g09.slc.cpg/sg12_179_cif.got.tgz:356645.got - 2010.06.28 00:19:55.
