data_PCOD8115508
_publ_section_title
;
Structure prediction by ZEFSAII (Michael W. Deem and Ramdas Pophale) SiO2 
 PCOD8115508
Probable space group: C 2/M
;
_chemical_formula_sum "Si O2"
_cell_formula_units_Z 28
_cell_length_a 22.511610
_cell_length_b 13.835228
_cell_length_c 9.091698
_cell_angle_alpha 90.000000
_cell_angle_beta 153.731230
_cell_angle_gamma 90.000000
_cell_volume 1253.233792
_symmetry_space_group_name_H-M "C 2/M"
_symmetry_group_IT_number 12
_symmetry_cell_setting 'monoclinic'
loop_
_space_group_symop_operation_xyz
x,y,z
-x,y,-z
-x,-y,-z
x,-y,z
1/2+x,1/2+y,z
1/2-x,1/2+y,-z
1/2-x,1/2-y,-z
1/2+x,1/2-y,z
loop_
_atom_site_type_symbol
_atom_site_label
_atom_site_fract_x
_atom_site_fract_y
_atom_site_fract_z
Si Si1 0.192399 0.000000 0.513502
Si Si2 0.350542 0.339940 0.825773
Si Si3 0.490574 0.000000 0.305201
Si Si4 0.937930 0.669650 0.724807
Si Si5 0.531428 0.500000 0.739177
O O1 0.158854 0.095265 0.343106
O O2 0.100497 0.000000 0.452835
O O3 0.342368 0.000000 0.908862
O O4 0.207750 0.289606 0.547124
O O5 0.468109 0.262059 0.086582
O O6 0.379166 0.406735 0.029335
O O7 0.500000 0.000000 0.500000
O O8 0.568090 0.097339 0.426241
O O9 0.000000 0.608803 0.000000
O O10 0.500000 0.500000 0.500000
#
# Coordination Sequence:
#
# PCOD8115508 Si02
#       5
#     4   8   4   8   4
#     4  11  23  47  72 100 137 182 233 281 340 406
#     4  11  25  45  75 103 136 178 236 289 336 404
#     4  12  28  43  68 102 146 182 225 282 348 411
#     4  12  24  45  72 104 134 178 234 286 339 401
#     4  11  26  45  69 101 144 185 223 279 352 414
#
# _framework density 22.342199999999998
#
# number of rings (size 3 to 8) (size 9 to 14) (size 15 to 20)
#    0.000    0.571    2.857    6.429    8.000    1.143 
#    0.000    2.857    0.000    0.000    0.000    0.000 
#    0.000    0.000    0.000    0.000    0.000    0.000 
#
# Total GULP energy -173535.089613 kJ/mol
# GULP energy per Si atom -12395.363544 kJ/mol
# Density = 2.229135 g / cm^3
# Si number density = 22.342200 Si / 1000 Ang^3
#
#
#
# Elastic Constant Matrix: (Units=GPa)
#
#
# Indices 1 2 3 4 5 6 
#
# 1 171.5134 73.3225 77.6745 0.0000 -1.7616 0.0000
# 2 73.3225 145.0740 50.1407 0.0000 11.2503 0.0000
# 3 77.6745 50.1407 106.5943 0.0000 18.8507 0.0000
# 4 0.0000 0.0000 0.0000 28.2520 0.0000 23.2484
# 5 -1.7616 11.2503 18.8507 0.0000 63.7375 0.0000
# 6 0.0000 0.0000 0.0000 23.2484 0.0000 10.6664
#
#
#
# Elastic Compliance Matrix: (Units=1/GPa)
#
#
# Indices 1 2 3 4 5 6 
#
# 1 0.010059 -0.003099 -0.006350 0.000000 0.002703 0.000000
# 2 -0.003099 0.009192 -0.001861 0.000000 -0.001158 0.000000
# 3 -0.006350 -0.001861 0.015677 0.000000 -0.004484 0.000000
# 4 0.000000 0.000000 0.000000 -0.044603 0.000000 0.097216
# 5 0.002703 -0.001158 -0.004484 0.000000 0.017294 0.000000
# 6 0.000000 0.000000 0.000000 0.097216 0.000000 -0.118140
#
#
# Mechanical properties :
#
#
# Convention : Reuss Voigt Hill
#
# Bulk Modulus (GPa) = 81.24841 91.71746 86.48293
# Shear Modulus (GPa) = -59.66779 35.33410 -12.16684
#
# Velocity S-wave (km/s) = -5.17342 3.98112 -2.33613
# Velocity P-wave (km/s) = 0.87101 7.89131 5.61388
#
# Compressibility (1/GPa) = 0.01230793
#
# Stress axis : x y z
#
# Youngs Moduli (GPa) = 99.41569 108.78791 63.78738
#
# Poissons Ratio (x) = 0.33710 0.40506
# Poissons Ratio (y) = 0.30806 0.11872
# Poissons Ratio (z) = 0.63131 0.20247
#
# Static dielectric constant tensor:
#      x y z
#    x 4.087390 0.000000 0.180240 
#    y 0.000000 4.082980 0.000000 
#    z 0.180240 0.000000 4.310500 
# 
# 
# High freq. dielectric constant tensor:
#      x y z
#    x 1.877530 0.000000 0.024310 
#    y 0.000000 1.890630 0.000000 
#    z 0.024310 0.000000 1.889810 
# 
# From -- ./inp_files/86220.got.cif
#   From: 2010.06.25/outbox.cif.g09.slc.cpg/sg12_44_cif.got.tgz:86220.got - 2010.06.28 00:19:55.
