data_PCOD8115914
_publ_section_title
;
Structure prediction by ZEFSAII (Michael W. Deem and Ramdas Pophale) SiO2 
 PCOD8115914
Probable space group: C 2/M
;
_chemical_formula_sum "Si O2"
_cell_formula_units_Z 52
_cell_length_a 16.244525
_cell_length_b 32.167320
_cell_length_c 9.438618
_cell_angle_alpha 90.000000
_cell_angle_beta 147.802812
_cell_angle_gamma 90.000000
_cell_volume 2627.984762
_symmetry_space_group_name_H-M "C 2/M"
_symmetry_group_IT_number 12
_symmetry_cell_setting 'monoclinic'
loop_
_space_group_symop_operation_xyz
x,y,z
-x,y,-z
-x,-y,-z
x,-y,z
1/2+x,1/2+y,z
1/2-x,1/2+y,-z
1/2-x,1/2-y,-z
1/2+x,1/2-y,z
loop_
_atom_site_type_symbol
_atom_site_label
_atom_site_fract_x
_atom_site_fract_y
_atom_site_fract_z
Si Si1 0.152015 0.712149 0.922334
Si Si2 0.747079 0.409534 0.274979
Si Si3 0.229320 0.000000 0.242646
Si Si4 0.078971 0.000000 0.327433
Si Si5 0.592909 0.590106 0.348940
Si Si6 0.500000 0.147931 0.500000
Si Si7 0.420178 0.265878 0.733966
Si Si8 0.620892 0.330761 0.552320
O O1 0.117789 0.676482 0.759269
O O2 0.992217 0.730288 0.742431
O O3 0.250000 0.750000 0.000000
O O4 0.224846 0.691066 0.167614
O O5 0.821792 0.456300 0.369698
O O6 0.698563 0.400127 0.365966
O O7 0.885438 0.379156 0.430758
O O8 0.590561 0.405758 0.952957
O O9 0.131284 0.000000 0.242303
O O10 0.106762 0.000000 0.935913
O O11 0.134380 0.044072 0.473905
O O12 0.642259 0.620864 0.547049
O O13 0.250000 0.250000 0.500000
O O14 0.434942 0.309596 0.674505
O O15 0.500000 0.272823 0.000000
O O16 0.500000 0.323969 0.500000
#
# Coordination Sequence:
#
# PCOD8115914 Si02
#       8
#     8   8   4   4   8   4   8   8
#     4  12  26  45  61  83 124 166 204 258 324 380
#     4   9  19  35  58  95 121 165 202 255 299 377
#     4   7  12  29  56  83 127 156 203 243 302 355
#     4   7  12  30  55  91 115 161 200 251 297 364
#     4   9  19  35  64  87 126 159 209 250 308 368
#     4  12  26  37  62  90 126 156 210 261 322 368
#     4  12  27  43  67  93 120 161 214 262 317 381
#     4  12  24  40  64  93 124 162 209 265 318 373
#
# _framework density 19.787023999999999
#
# number of rings (size 3 to 8) (size 9 to 14) (size 15 to 20)
#    0.000    1.692    3.077    3.692    4.308    0.308 
#    0.000    0.385    0.000    1.846    0.000    3.231 
#    0.000    0.000    0.000    0.000    0.000    0.000 
#
# Total GULP energy -322146.610371 kJ/mol
# GULP energy per Si atom -12390.254245 kJ/mol
# Density = 1.974199 g / cm^3
# Si number density = 19.787024 Si / 1000 Ang^3
#
#
#
# Elastic Constant Matrix: (Units=GPa)
#
#
# Indices 1 2 3 4 5 6 
#
# 1 95.5975 54.8185 38.2927 0.0000 13.9352 0.0000
# 2 54.8185 163.6379 54.9360 0.0000 2.0771 0.0000
# 3 38.2927 54.9360 78.3623 0.0000 -2.8245 0.0000
# 4 0.0000 0.0000 0.0000 -14.3515 0.0000 -10.4727
# 5 13.9352 2.0771 -2.8245 0.0000 32.5268 0.0000
# 6 0.0000 0.0000 0.0000 -10.4727 0.0000 37.8064
#
#
#
# Elastic Compliance Matrix: (Units=1/GPa)
#
#
# Indices 1 2 3 4 5 6 
#
# 1 0.015576 -0.003257 -0.005579 0.000000 -0.006949 0.000000
# 2 -0.003257 0.008706 -0.004495 0.000000 0.000449 0.000000
# 3 -0.005579 -0.004495 0.018794 0.000000 0.004309 0.000000
# 4 0.000000 0.000000 0.000000 -0.057963 0.000000 -0.016056
# 5 -0.006949 0.000449 0.004309 0.000000 0.034067 0.000000
# 6 0.000000 0.000000 0.000000 -0.016056 0.000000 0.022003
#
#
# Mechanical properties :
#
#
# Convention : Reuss Voigt Hill
#
# Bulk Modulus (GPa) = 60.92420 70.41023 65.66721
# Shear Modulus (GPa) = 68.19910 23.83305 46.01607
#
# Velocity S-wave (km/s) = 5.87719 3.47433 4.82765
# Velocity P-wave (km/s) = 8.76995 7.19416 8.02084
#
# Compressibility (1/GPa) = 0.01641384
#
# Stress axis : x y z
#
# Youngs Moduli (GPa) = 64.20286 114.86912 53.20829
#
# Poissons Ratio (x) = 0.37411 0.29682
# Poissons Ratio (y) = 0.20910 0.23919
# Poissons Ratio (z) = 0.35816 0.51638
#
# Static dielectric constant tensor:
#      x y z
#    x 3.622440 0.000000 -0.148000 
#    y 0.000000 3.929190 0.000000 
#    z -0.148000 0.000000 3.515890 
# 
# 
# High freq. dielectric constant tensor:
#      x y z
#    x 1.764740 0.000000 0.002370 
#    y 0.000000 1.795810 0.000000 
#    z 0.002370 0.000000 1.737430 
# 
# From -- ./inp_files/68710.got.cif
#   From: 2010.06.25/outbox.cif.g09.slc.cpg/sg12_35_cif.got.tgz:68710.got - 2010.06.28 00:19:55.
