data_PCOD8115553
_publ_section_title
;
Structure prediction by ZEFSAII (Michael W. Deem and Ramdas Pophale) SiO2 
 PCOD8115553
Probable space group: C 2/M
;
_chemical_formula_sum "Si O2"
_cell_formula_units_Z 28
_cell_length_a 11.923621
_cell_length_b 20.263811
_cell_length_c 4.741638
_cell_angle_alpha 90.000000
_cell_angle_beta 69.731327
_cell_angle_gamma 90.000000
_cell_volume 1074.723782
_symmetry_space_group_name_H-M "C 2/M"
_symmetry_group_IT_number 12
_symmetry_cell_setting 'monoclinic'
loop_
_space_group_symop_operation_xyz
x,y,z
-x,y,-z
-x,-y,-z
x,-y,z
1/2+x,1/2+y,z
1/2-x,1/2+y,-z
1/2-x,1/2-y,-z
1/2+x,1/2-y,z
loop_
_atom_site_type_symbol
_atom_site_label
_atom_site_fract_x
_atom_site_fract_y
_atom_site_fract_z
Si Si1 0.240471 0.317112 0.334278
Si Si2 0.373746 0.000000 0.324324
Si Si3 0.793878 0.000000 0.020282
Si Si4 0.500000 0.113195 0.500000
Si Si5 0.629355 0.632820 0.281330
O O1 0.250000 0.250000 0.500000
O O2 0.284987 0.372584 0.519554
O O3 0.110530 0.338160 0.328620
O O4 0.325460 0.312481 0.984355
O O5 0.456580 0.934986 0.287392
O O6 0.330389 0.000000 0.041278
O O7 0.253260 0.000000 0.620197
O O8 0.874646 0.063321 0.878915
O O9 0.500000 0.655040 0.500000
#
# Coordination Sequence:
#
# PCOD8115553 Si02
#       5
#     8   4   4   4   8
#     4  12  28  49  74 107 149 202 258 308 371 450
#     4  11  24  40  75 112 153 184 250 317 382 450
#     4  12  21  47  70 116 148 191 245 310 383 454
#     4  11  24  48  76 110 148 197 250 320 380 441
#     4  12  26  49  73 110 151 200 248 306 378 454
#
# _framework density 26.053204999999998
#
# number of rings (size 3 to 8) (size 9 to 14) (size 15 to 20)
#    0.000    0.286    5.714    2.143    2.000    5.714 
#    5.143    4.286    0.000    0.000    0.000    0.000 
#    0.000    0.000    0.000    0.000    0.000    0.000 
#
# Total GULP energy -173564.229659 kJ/mol
# GULP energy per Si atom -12397.444976 kJ/mol
# Density = 2.599391 g / cm^3
# Si number density = 26.053205 Si / 1000 Ang^3
#
#
#
# Elastic Constant Matrix: (Units=GPa)
#
#
# Indices 1 2 3 4 5 6 
#
# 1 113.8669 49.0771 57.1835 0.0000 -30.1121 0.0000
# 2 49.0771 106.3196 27.5416 0.0000 -35.0333 0.0000
# 3 57.1835 27.5416 170.0458 0.0000 -43.1830 0.0000
# 4 0.0000 0.0000 0.0000 32.6307 0.0000 -7.2255
# 5 -30.1121 -35.0333 -43.1830 0.0000 47.5339 0.0000
# 6 0.0000 0.0000 0.0000 -7.2255 0.0000 33.5494
#
#
#
# Elastic Compliance Matrix: (Units=1/GPa)
#
#
# Indices 1 2 3 4 5 6 
#
# 1 0.012766 -0.004426 -0.003056 0.000000 0.002049 0.000000
# 2 -0.004426 0.013979 0.001467 0.000000 0.008831 0.000000
# 3 -0.003056 0.001467 0.008389 0.000000 0.006767 0.000000
# 4 0.000000 0.000000 0.000000 0.032181 0.000000 0.006931
# 5 0.002049 0.008831 0.006767 0.000000 0.034992 0.000000
# 6 0.000000 0.000000 0.000000 0.006931 0.000000 0.031299
#
#
# Mechanical properties :
#
#
# Convention : Reuss Voigt Hill
#
# Bulk Modulus (GPa) = 43.28181 73.09298 58.18739
# Shear Modulus (GPa) = 32.60775 39.83814 36.22294
#
# Velocity S-wave (km/s) = 3.54161 3.91462 3.73278
# Velocity P-wave (km/s) = 5.77693 6.96768 6.40006
#
# Compressibility (1/GPa) = 0.02310440
#
# Stress axis : x y z
#
# Youngs Moduli (GPa) = 78.33060 71.53724 119.20083
#
# Poissons Ratio (x) = 0.31664 0.36427
# Poissons Ratio (y) = 0.34671 -0.17488
# Poissons Ratio (z) = 0.23937 -0.10495
#
# Static dielectric constant tensor:
#      x y z
#    x 4.591420 0.000000 0.161580 
#    y 0.000000 4.635500 0.000000 
#    z 0.161580 0.000000 4.780010 
# 
# 
# High freq. dielectric constant tensor:
#      x y z
#    x 2.037690 0.000000 0.002310 
#    y 0.000000 2.043570 0.000000 
#    z 0.002310 0.000000 2.054770 
# 
# From -- ./inp_files/5980.got.cif
#   From: 2010.06.25/outbox.cif.g09.slc.cpg/sg12_3_cif.got.tgz:5980.got - 2010.06.28 00:19:55.
