data_PCOD8115073
_publ_section_title
;
Structure prediction by ZEFSAII (Michael W. Deem and Ramdas Pophale) SiO2 
 PCOD8115073
Probable space group: C 2/M
;
_chemical_formula_sum "Si O2"
_cell_formula_units_Z 40
_cell_length_a 21.992337
_cell_length_b 11.783812
_cell_length_c 13.159284
_cell_angle_alpha 90.000000
_cell_angle_beta 146.214791
_cell_angle_gamma 90.000000
_cell_volume 1896.389593
_symmetry_space_group_name_H-M "C 2/M"
_symmetry_group_IT_number 12
_symmetry_cell_setting 'monoclinic'
loop_
_space_group_symop_operation_xyz
x,y,z
-x,y,-z
-x,-y,-z
x,-y,z
1/2+x,1/2+y,z
1/2-x,1/2+y,-z
1/2-x,1/2-y,-z
1/2+x,1/2-y,z
loop_
_atom_site_type_symbol
_atom_site_label
_atom_site_fract_x
_atom_site_fract_y
_atom_site_fract_z
Si Si1 0.268521 0.734300 0.250942
Si Si2 0.590590 0.000000 0.263705
Si Si3 0.942989 0.126012 0.027878
Si Si4 0.899990 0.373431 0.284250
Si Si5 0.555420 0.787329 0.339082
Si Si6 0.663725 0.000000 0.142710
O O1 0.171389 0.814120 0.152027
O O2 0.312269 0.782000 0.203633
O O3 0.363785 0.734312 0.466443
O O4 0.224690 0.607027 0.178124
O O5 0.617972 0.111400 0.367490
O O6 0.668046 0.000000 0.271901
O O7 0.462881 0.000000 0.060791
O O8 0.922817 0.000000 0.042979
O O9 0.000000 0.121919 0.000000
O O10 0.021491 0.190307 0.214487
O O11 0.847849 0.500000 0.201813
O O12 0.000000 0.380636 0.500000
O O13 0.944077 0.333677 0.236120
#
# Coordination Sequence:
#
# PCOD8115073 Si02
#       6
#     8   4   8   8   8   4
#     4  11  24  42  65  94 127 168 214 261 317 380
#     4  11  22  42  67  87 127 171 218 262 308 377
#     4  11  25  43  61  91 133 168 207 263 321 379
#     4   9  19  39  66  94 125 163 215 263 314 380
#     4  11  23  42  67  96 122 169 215 263 315 379
#     4  11  24  42  61  93 131 167 210 272 316 363
#
# _framework density 21.092711000000001
#
# number of rings (size 3 to 8) (size 9 to 14) (size 15 to 20)
#    0.000    1.400    3.000    1.800    4.200    4.000 
#    1.800    1.500    0.000    0.000    0.000    0.000 
#    0.000    0.000    0.000    0.000    0.000    0.000 
#
# Total GULP energy -248054.366095 kJ/mol
# GULP energy per Si atom -12402.718305 kJ/mol
# Density = 2.104470 g / cm^3
# Si number density = 21.092711 Si / 1000 Ang^3
#
#
#
# Elastic Constant Matrix: (Units=GPa)
#
#
# Indices 1 2 3 4 5 6 
#
# 1 67.5725 45.7259 -2.4859 0.0000 6.9414 0.0000
# 2 45.7259 179.9849 23.5982 0.0000 4.0537 0.0000
# 3 -2.4859 23.5982 55.9408 0.0000 1.1860 0.0000
# 4 0.0000 0.0000 0.0000 320.5752 0.0000 -52.9500
# 5 6.9414 4.0537 1.1860 0.0000 30.5303 0.0000
# 6 0.0000 0.0000 0.0000 -52.9500 0.0000 57.7118
#
#
#
# Elastic Compliance Matrix: (Units=1/GPa)
#
#
# Indices 1 2 3 4 5 6 
#
# 1 0.018725 -0.005074 0.003051 0.000000 -0.003702 0.000000
# 2 -0.005074 0.007270 -0.003299 0.000000 0.000316 0.000000
# 3 0.003051 -0.003299 0.019425 0.000000 -0.001010 0.000000
# 4 0.000000 0.000000 0.000000 0.003677 0.000000 0.003373
# 5 -0.003702 0.000316 -0.001010 0.000000 0.033593 0.000000
# 6 0.000000 0.000000 0.000000 0.003373 0.000000 0.020422
#
#
# Mechanical properties :
#
#
# Convention : Reuss Voigt Hill
#
# Bulk Modulus (GPa) = 28.75544 48.57495 38.66519
# Shear Modulus (GPa) = 39.88885 97.54078 68.71481
#
# Velocity S-wave (km/s) = 4.35342 6.80766 5.71386
# Velocity P-wave (km/s) = 6.23956 9.21258 7.86777
#
# Compressibility (1/GPa) = 0.03477603
#
# Stress axis : x y z
#
# Youngs Moduli (GPa) = 53.40499 137.54278 51.48070
#
# Poissons Ratio (x) = 0.69786 -0.15706
# Poissons Ratio (y) = 0.27096 0.16984
# Poissons Ratio (z) = -0.16293 0.45378
#
# Static dielectric constant tensor:
#      x y z
#    x 4.036650 0.000000 -0.053970 
#    y 0.000000 4.050890 0.000000 
#    z -0.053970 0.000000 3.619450 
# 
# 
# High freq. dielectric constant tensor:
#      x y z
#    x 1.831520 0.000000 -0.007820 
#    y 0.000000 1.836200 0.000000 
#    z -0.007820 0.000000 1.817290 
# 
# From -- ./inp_files/165896.got.cif
#   From: 2010.06.25/outbox.cif.g09.slc.cpg/sg12_83_cif.got.tgz:165896.got - 2010.06.28 00:19:55.
