data_PCOD8115358
_publ_section_title
;
Structure prediction by ZEFSAII (Michael W. Deem and Ramdas Pophale) SiO2 
 PCOD8115358
Probable space group: C 2/M
;
_chemical_formula_sum "Si O2"
_cell_formula_units_Z 40
_cell_length_a 23.773577
_cell_length_b 8.480638
_cell_length_c 9.462140
_cell_angle_alpha 90.000000
_cell_angle_beta 75.596157
_cell_angle_gamma 90.000000
_cell_volume 1847.744254
_symmetry_space_group_name_H-M "C 2/M"
_symmetry_group_IT_number 12
_symmetry_cell_setting 'monoclinic'
loop_
_space_group_symop_operation_xyz
x,y,z
-x,y,-z
-x,-y,-z
x,-y,z
1/2+x,1/2+y,z
1/2-x,1/2+y,-z
1/2-x,1/2-y,-z
1/2+x,1/2-y,z
loop_
_atom_site_type_symbol
_atom_site_label
_atom_site_fract_x
_atom_site_fract_y
_atom_site_fract_z
Si Si1 0.831005 0.682042 0.597151
Si Si2 0.644434 0.683724 0.712838
Si Si3 0.764744 0.316281 0.143787
Si Si4 0.019116 0.320802 0.828129
Si Si5 0.446495 0.320600 0.638127
O O1 0.814481 0.500000 0.628026
O O2 0.825449 0.725695 0.436036
O O3 0.787635 0.786514 0.716097
O O4 0.896036 0.712187 0.608620
O O5 0.652016 0.500000 0.679777
O O6 0.676545 0.734113 0.836563
O O7 0.576621 0.720376 0.765842
O O8 0.777255 0.500000 0.122433
O O9 0.750000 0.250000 0.000000
O O10 0.030776 0.500000 0.771864
O O11 0.965597 0.245713 0.777170
O O12 0.000000 0.312657 0.000000
O O13 0.500000 0.308575 0.500000
O O14 0.424375 0.500000 0.667204
#
# Coordination Sequence:
#
# PCOD8115358 Si02
#       5
#     8   8   8   8   8
#     4  12  25  44  71 100 134 176 223 274 331 394
#     4  12  25  45  70  99 134 175 225 275 331 395
#     4  12  27  48  71  99 134 173 221 275 334 394
#     4  11  25  43  66  98 136 177 223 273 332 396
#     4  11  23  41  67 100 135 173 222 272 328 394
#
# _framework density 21.648016999999999
#
# number of rings (size 3 to 8) (size 9 to 14) (size 15 to 20)
#    0.000    0.400    2.000    7.200    2.800    2.400 
#    0.000    0.000    0.000    0.000    0.000    0.000 
#    0.000    0.000    0.000    0.000    0.000    0.000 
#
# Total GULP energy -248183.982310 kJ/mol
# GULP energy per Si atom -12409.199115 kJ/mol
# Density = 2.159875 g / cm^3
# Si number density = 21.648017 Si / 1000 Ang^3
#
#
#
# Elastic Constant Matrix: (Units=GPa)
#
#
# Indices 1 2 3 4 5 6 
#
# 1 78.0929 20.9109 25.0241 0.0000 19.3931 0.0000
# 2 20.9109 111.8045 20.0309 0.0000 5.8123 0.0000
# 3 25.0241 20.0309 95.3748 0.0000 18.9892 0.0000
# 4 0.0000 0.0000 0.0000 30.5316 0.0000 0.3226
# 5 19.3931 5.8123 18.9892 0.0000 40.9813 0.0000
# 6 0.0000 0.0000 0.0000 0.3226 0.0000 38.8133
#
#
#
# Elastic Compliance Matrix: (Units=1/GPa)
#
#
# Indices 1 2 3 4 5 6 
#
# 1 0.015658 -0.002177 -0.002465 0.000000 -0.005959 0.000000
# 2 -0.002177 0.009604 -0.001520 0.000000 0.000372 0.000000
# 3 -0.002465 -0.001520 0.012312 0.000000 -0.004323 0.000000
# 4 0.000000 0.000000 0.000000 0.032756 0.000000 -0.000272
# 5 -0.005959 0.000372 -0.004323 0.000000 0.029171 0.000000
# 6 0.000000 0.000000 0.000000 -0.000272 0.000000 0.025767
#
#
# Mechanical properties :
#
#
# Convention : Reuss Voigt Hill
#
# Bulk Modulus (GPa) = 39.60387 46.35599 42.97993
# Shear Modulus (GPa) = 34.24477 36.68566 35.46521
#
# Velocity S-wave (km/s) = 3.98161 4.12107 4.05194
# Velocity P-wave (km/s) = 6.28266 6.64111 6.46437
#
# Compressibility (1/GPa) = 0.02525006
#
# Stress axis : x y z
#
# Youngs Moduli (GPa) = 63.86617 104.11952 81.22473
#
# Poissons Ratio (x) = 0.22668 0.20018
# Poissons Ratio (y) = 0.13905 0.12347
# Poissons Ratio (z) = 0.15740 0.15827
#
# Static dielectric constant tensor:
#      x y z
#    x 4.108040 0.000000 0.196520 
#    y 0.000000 4.114790 0.000000 
#    z 0.196520 0.000000 4.017450 
# 
# 
# High freq. dielectric constant tensor:
#      x y z
#    x 1.862750 0.000000 0.011010 
#    y 0.000000 1.866460 0.000000 
#    z 0.011010 0.000000 1.858250 
# 
# From -- ./inp_files/92791.got.cif
#   From: 2010.06.25/outbox.cif.g09.slc.cpg/sg12_47_cif.got.tgz:92791.got - 2010.06.28 00:19:55.
