data_PCOD8115356
_publ_section_title
;
Structure prediction by ZEFSAII (Michael W. Deem and Ramdas Pophale) SiO2 
 PCOD8115356
Probable space group: C 2/M
;
_chemical_formula_sum "Si O2"
_cell_formula_units_Z 40
_cell_length_a 12.926002
_cell_length_b 13.359533
_cell_length_c 11.490390
_cell_angle_alpha 90.000000
_cell_angle_beta 76.402218
_cell_angle_gamma 90.000000
_cell_volume 1928.604482
_symmetry_space_group_name_H-M "C 2/M"
_symmetry_group_IT_number 12
_symmetry_cell_setting 'monoclinic'
loop_
_space_group_symop_operation_xyz
x,y,z
-x,y,-z
-x,-y,-z
x,-y,z
1/2+x,1/2+y,z
1/2-x,1/2+y,-z
1/2-x,1/2-y,-z
1/2+x,1/2-y,z
loop_
_atom_site_type_symbol
_atom_site_label
_atom_site_fract_x
_atom_site_fract_y
_atom_site_fract_z
Si Si1 0.755343 0.500000 0.293304
Si Si2 0.504736 0.000000 0.183439
Si Si3 0.766475 0.200422 0.817917
Si Si4 0.109533 0.000000 0.542597
Si Si5 0.911927 0.301586 0.947808
Si Si6 0.729051 0.328883 0.608020
Si Si7 0.393479 0.000000 0.599981
O O1 0.882751 0.500000 0.258207
O O2 0.702826 0.595710 0.246969
O O3 0.715820 0.500000 0.435563
O O4 0.527694 0.096636 0.100544
O O5 0.584655 0.000000 0.269346
O O6 0.876213 0.245482 0.839852
O O7 0.713085 0.272587 0.735435
O O8 0.689460 0.177120 0.945453
O O9 0.122773 0.897487 0.614499
O O10 0.000000 0.000000 0.500000
O O11 0.000000 0.239271 0.000000
O O12 0.750000 0.250000 0.500000
O O13 0.831318 0.399214 0.586704
O O14 0.500000 0.000000 0.500000
#
# Coordination Sequence:
#
# PCOD8115356 Si02
#       7
#     4   4   8   4   8   8   4
#     4  12  23  44  68  98 134 173 227 277 328 407
#     4  12  21  43  70 101 132 168 232 287 329 387
#     4  11  24  41  66  99 135 170 227 274 335 395
#     4  11  26  44  63  97 138 182 217 262 346 409
#     4  11  23  41  67 100 130 177 221 279 334 392
#     4  11  23  45  66  94 134 174 217 276 329 398
#     4  11  25  40  67 105 128 167 228 280 332 386
#
# _framework density 20.740383999999999
#
# number of rings (size 3 to 8) (size 9 to 14) (size 15 to 20)
#    0.000    0.800    6.000    2.100    0.000    2.400 
#    0.000    0.500    0.000    0.000    0.000    0.000 
#    0.000    0.000    0.000    0.000    0.000    0.000 
#
# Total GULP energy -247971.350321 kJ/mol
# GULP energy per Si atom -12398.567516 kJ/mol
# Density = 2.069318 g / cm^3
# Si number density = 20.740384 Si / 1000 Ang^3
#
#
#
# Elastic Constant Matrix: (Units=GPa)
#
#
# Indices 1 2 3 4 5 6 
#
# 1 129.4030 51.7266 34.2800 0.0000 29.1519 0.0000
# 2 51.7266 133.8305 37.6798 0.0000 21.1621 0.0000
# 3 34.2800 37.6798 92.4586 0.0000 18.3891 0.0000
# 4 0.0000 0.0000 0.0000 12.2304 0.0000 -6.6962
# 5 29.1519 21.1621 18.3891 0.0000 47.5994 0.0000
# 6 0.0000 0.0000 0.0000 -6.6962 0.0000 11.4040
#
#
#
# Elastic Compliance Matrix: (Units=1/GPa)
#
#
# Indices 1 2 3 4 5 6 
#
# 1 0.010306 -0.002780 -0.001818 0.000000 -0.004373 0.000000
# 2 -0.002780 0.009505 -0.002536 0.000000 -0.001543 0.000000
# 3 -0.001818 -0.002536 0.013083 0.000000 -0.002813 0.000000
# 4 0.000000 0.000000 0.000000 0.120504 0.000000 0.070758
# 5 -0.004373 -0.001543 -0.002813 0.000000 0.025460 0.000000
# 6 0.000000 0.000000 0.000000 0.070758 0.000000 0.129236
#
#
# Mechanical properties :
#
#
# Convention : Reuss Voigt Hill
#
# Bulk Modulus (GPa) = 53.69017 67.00721 60.34869
# Shear Modulus (GPa) = 15.21745 29.71379 22.46562
#
# Velocity S-wave (km/s) = 2.71165 3.78915 3.29474
# Velocity P-wave (km/s) = 5.97888 7.17783 6.60561
#
# Compressibility (1/GPa) = 0.01862538
#
# Stress axis : x y z
#
# Youngs Moduli (GPa) = 97.03159 105.21255 76.43650
#
# Poissons Ratio (x) = 0.29247 0.13899
# Poissons Ratio (y) = 0.26973 0.19383
# Poissons Ratio (z) = 0.17644 0.26680
#
# Static dielectric constant tensor:
#      x y z
#    x 3.933300 0.000000 0.456750 
#    y 0.000000 3.992580 0.000000 
#    z 0.456750 0.000000 3.956490 
# 
# 
# High freq. dielectric constant tensor:
#      x y z
#    x 1.813070 0.000000 0.025720 
#    y 0.000000 1.812950 0.000000 
#    z 0.025720 0.000000 1.823430 
# 
# From -- ./inp_files/140883.got.cif
#   From: 2010.06.25/outbox.cif.g09.slc.cpg/sg12_71_cif.got.tgz:140883.got - 2010.06.28 00:19:55.
