data_PCOD8115756
_publ_section_title
;
Structure prediction by ZEFSAII (Michael W. Deem and Ramdas Pophale) SiO2 
 PCOD8115756
Probable space group: C 2/M
;
_chemical_formula_sum "Si O2"
_cell_formula_units_Z 64
_cell_length_a 9.234738
_cell_length_b 25.893863
_cell_length_c 18.441390
_cell_angle_alpha 90.000000
_cell_angle_beta 42.421689
_cell_angle_gamma 90.000000
_cell_volume 2974.745023
_symmetry_space_group_name_H-M "C 2/M"
_symmetry_group_IT_number 12
_symmetry_cell_setting 'monoclinic'
loop_
_space_group_symop_operation_xyz
x,y,z
-x,y,-z
-x,-y,-z
x,-y,z
1/2+x,1/2+y,z
1/2-x,1/2+y,-z
1/2-x,1/2-y,-z
1/2+x,1/2-y,z
loop_
_atom_site_type_symbol
_atom_site_label
_atom_site_fract_x
_atom_site_fract_y
_atom_site_fract_z
Si Si1 0.065205 0.058961 0.895099
Si Si2 0.745590 0.388064 0.082774
Si Si3 0.798629 0.197035 0.020171
Si Si4 0.928743 0.624079 0.683417
Si Si5 0.890354 0.309444 0.266721
Si Si6 0.957949 0.865969 0.687151
Si Si7 0.289206 0.203377 0.621021
Si Si8 0.661999 0.439558 0.505002
O O1 0.254593 0.096398 0.798606
O O2 0.859230 0.061625 0.916867
O O3 0.147148 0.000000 0.867045
O O4 0.000000 0.077717 0.000000
O O5 0.668938 0.342895 0.057051
O O6 0.639601 0.378639 0.199041
O O7 0.000000 0.393837 0.000000
O O8 0.750000 0.250000 0.000000
O O9 0.590834 0.182670 0.141341
O O10 0.000000 0.200574 0.000000
O O11 0.819408 0.650182 0.654475
O O12 0.042012 0.673664 0.678074
O O13 0.101326 0.581384 0.598075
O O14 0.724450 0.352025 0.302072
O O15 0.797934 0.251280 0.299550
O O16 0.107133 0.814735 0.632174
O O17 0.079902 0.915717 0.610916
O O18 0.500000 0.221278 0.500000
O O19 0.500000 0.425567 0.500000
O O20 0.679637 0.500000 0.510771
#
# Coordination Sequence:
#
# PCOD8115756 Si02
#       8
#     8   8   8   8   8   8   8   8
#     4  11  26  47  75 106 139 185 240 301 366 430
#     4  12  24  45  71 102 144 185 233 297 357 431
#     4  12  27  44  69 102 143 195 245 290 350 425
#     4  12  24  48  71 101 140 189 234 287 357 428
#     4  12  27  42  71 102 140 192 232 287 350 426
#     4  12  25  46  68 106 140 182 236 290 358 422
#     4  12  27  43  69 105 142 185 234 292 356 424
#     4  11  25  47  75 104 136 182 241 299 357 426
#
# _framework density 21.51445
#
# number of rings (size 3 to 8) (size 9 to 14) (size 15 to 20)
#    0.000    0.250    5.000    4.125    5.250    1.750 
#    0.000    0.625    0.000    0.000    0.000    0.000 
#    0.000    0.000    0.000    0.000    0.000    0.000 
#
# Total GULP energy -396837.338225 kJ/mol
# GULP energy per Si atom -12401.166820 kJ/mol
# Density = 2.146548 g / cm^3
# Si number density = 21.514450 Si / 1000 Ang^3
#
#
#
# Elastic Constant Matrix: (Units=GPa)
#
#
# Indices 1 2 3 4 5 6 
#
# 1 104.5596 39.6307 44.4244 -0.0001 -10.8007 0.0000
# 2 39.6307 107.6837 57.5734 0.0000 2.5233 0.0000
# 3 44.4244 57.5734 146.8049 -0.0004 -3.1813 -0.0001
# 4 -0.0001 0.0000 -0.0004 31.9852 0.0001 -6.2618
# 5 -10.8007 2.5233 -3.1813 0.0001 34.6011 0.0000
# 6 0.0000 0.0000 -0.0001 -6.2618 0.0000 44.0146
#
#
#
# Elastic Compliance Matrix: (Units=1/GPa)
#
#
# Indices 1 2 3 4 5 6 
#
# 1 0.012208 -0.003356 -0.002295 0.000000 0.003845 0.000000
# 2 -0.003356 0.012730 -0.004028 0.000000 -0.002346 0.000000
# 3 -0.002295 -0.004028 0.009095 0.000000 0.000414 0.000000
# 4 0.000000 0.000000 0.000000 0.032160 0.000000 0.004575
# 5 0.003845 -0.002346 0.000414 0.000000 0.030310 0.000000
# 6 0.000000 0.000000 0.000000 0.004575 0.000000 0.023371
#
#
# Mechanical properties :
#
#
# Convention : Reuss Voigt Hill
#
# Bulk Modulus (GPa) = 68.13989 71.36725 69.75357
# Shear Modulus (GPa) = 34.69268 36.61481 35.65375
#
# Velocity S-wave (km/s) = 4.01999 4.12985 4.07529
# Velocity P-wave (km/s) = 7.29983 7.48229 7.39162
#
# Compressibility (1/GPa) = 0.01467569
#
# Stress axis : x y z
#
# Youngs Moduli (GPa) = 81.91291 78.55471 109.95419
#
# Poissons Ratio (x) = 0.26364 0.25232
# Poissons Ratio (y) = 0.27491 0.44286
# Poissons Ratio (z) = 0.18797 0.31639
#
# Static dielectric constant tensor:
#      x y z
#    x 4.164800 0.000000 -0.096910 
#    y 0.000000 3.555230 0.000000 
#    z -0.096910 0.000000 3.923330 
# 
# 
# High freq. dielectric constant tensor:
#      x y z
#    x 1.861550 0.000000 -0.004730 
#    y 0.000000 1.843590 0.000000 
#    z -0.004730 0.000000 1.860330 
# 
# From -- ./inp_files/260290.got.cif
#   From: 2010.06.25/outbox.cif.g09.slc.cpg/sg12_131_cif.got.tgz:260290.got - 2010.06.28 00:19:55.
