data_PCOD8115391
_publ_section_title
;
Structure prediction by ZEFSAII (Michael W. Deem and Ramdas Pophale) SiO2 
 PCOD8115391
Probable space group: C 2/M
;
_chemical_formula_sum "Si O2"
_cell_formula_units_Z 36
_cell_length_a 18.376367
_cell_length_b 15.105641
_cell_length_c 8.625170
_cell_angle_alpha 90.000000
_cell_angle_beta 137.527670
_cell_angle_gamma 90.000000
_cell_volume 1616.667947
_symmetry_space_group_name_H-M "C 2/M"
_symmetry_group_IT_number 12
_symmetry_cell_setting 'monoclinic'
loop_
_space_group_symop_operation_xyz
x,y,z
-x,y,-z
-x,-y,-z
x,-y,z
1/2+x,1/2+y,z
1/2-x,1/2+y,-z
1/2-x,1/2-y,-z
1/2+x,1/2-y,z
loop_
_atom_site_type_symbol
_atom_site_label
_atom_site_fract_x
_atom_site_fract_y
_atom_site_fract_z
Si Si1 0.000000 0.352346 0.500000
Si Si2 0.792636 0.897393 0.268137
Si Si3 0.269812 0.903586 0.167597
Si Si4 0.666106 0.260733 0.195402
Si Si5 0.549154 0.283715 0.314332
O O1 0.893971 0.411043 0.307258
O O2 0.979085 0.296101 0.619479
O O3 0.695137 0.838030 0.184267
O O4 0.908181 0.868322 0.521181
O O5 0.769369 0.000000 0.270251
O O6 0.800488 0.880274 0.095719
O O7 0.258102 0.828819 0.281176
O O8 0.235403 0.000000 0.179023
O O9 0.649230 0.259425 0.355045
O O10 0.557790 0.302662 0.951098
#
# Coordination Sequence:
#
# PCOD8115391 Si02
#       5
#     4   8   8   8   8
#     4  12  21  42  67  94 132 172 225 264 333 390
#     4  11  23  42  66  98 131 173 220 270 326 390
#     4  11  24  41  68  98 134 174 222 274 328 390
#     4  11  23  45  65  98 134 176 217 272 334 387
#     4  11  24  40  71  95 130 176 218 272 328 392
#
# _framework density 22.268024
#
# number of rings (size 3 to 8) (size 9 to 14) (size 15 to 20)
#    0.000    0.889    4.444    3.000    0.000    1.778 
#    0.000    8.333    0.000    0.000    0.000    0.000 
#    0.000    0.000    0.000    0.000    0.000    0.000 
#
# Total GULP energy -223167.318295 kJ/mol
# GULP energy per Si atom -12398.184350 kJ/mol
# Density = 2.221734 g / cm^3
# Si number density = 22.268024 Si / 1000 Ang^3
#
#
#
# Elastic Constant Matrix: (Units=GPa)
#
#
# Indices 1 2 3 4 5 6 
#
# 1 105.5782 46.8267 19.2760 0.0000 -13.1755 0.0000
# 2 46.8267 143.8828 32.1070 0.0000 -16.8918 0.0000
# 3 19.2760 32.1070 72.3359 0.0000 -7.9681 0.0000
# 4 0.0000 0.0000 0.0000 24.2598 0.0000 2.7070
# 5 -13.1755 -16.8918 -7.9681 0.0000 42.8900 0.0000
# 6 0.0000 0.0000 0.0000 2.7070 0.0000 12.9865
#
#
#
# Elastic Compliance Matrix: (Units=1/GPa)
#
#
# Indices 1 2 3 4 5 6 
#
# 1 0.011377 -0.003154 -0.001413 0.000000 0.001990 0.000000
# 2 -0.003154 0.008850 -0.002869 0.000000 0.001984 0.000000
# 3 -0.001413 -0.002869 0.015622 0.000000 0.001338 0.000000
# 4 0.000000 0.000000 0.000000 0.042202 0.000000 -0.008797
# 5 0.001990 0.001984 0.001338 0.000000 0.024957 0.000000
# 6 0.000000 0.000000 0.000000 -0.008797 0.000000 0.078837
#
#
# Mechanical properties :
#
#
# Convention : Reuss Voigt Hill
#
# Bulk Modulus (GPa) = 47.67072 57.57959 52.62515
# Shear Modulus (GPa) = 24.54510 30.93306 27.73908
#
# Velocity S-wave (km/s) = 3.32363 3.73114 3.53326
# Velocity P-wave (km/s) = 6.01522 6.66900 6.35053
#
# Compressibility (1/GPa) = 0.02097724
#
# Stress axis : x y z
#
# Youngs Moduli (GPa) = 87.89912 113.00005 64.01341
#
# Poissons Ratio (x) = 0.35636 0.09043
# Poissons Ratio (y) = 0.27720 0.18366
# Poissons Ratio (z) = 0.12417 0.32421
#
# Static dielectric constant tensor:
#      x y z
#    x 4.178920 0.000000 0.127940 
#    y 0.000000 3.637770 0.000000 
#    z 0.127940 0.000000 4.491880 
# 
# 
# High freq. dielectric constant tensor:
#      x y z
#    x 1.878330 0.000000 0.004270 
#    y 0.000000 1.856120 0.000000 
#    z 0.004270 0.000000 1.904480 
# 
# From -- ./inp_files/58352.got.cif
#   From: 2010.06.25/outbox.cif.g09.slc.cpg/sg12_30_cif.got.tgz:58352.got - 2010.06.28 00:19:55.
