data_PCOD8115931
_publ_section_title
;
Structure prediction by ZEFSAII (Michael W. Deem and Ramdas Pophale) SiO2 
 PCOD8115931
Probable space group: C 2/M
;
_chemical_formula_sum "Si O2"
_cell_formula_units_Z 56
_cell_length_a 8.904222
_cell_length_b 18.473369
_cell_length_c 25.333664
_cell_angle_alpha 90.000000
_cell_angle_beta 45.333864
_cell_angle_gamma 90.000000
_cell_volume 2963.746465
_symmetry_space_group_name_H-M "C 2/M"
_symmetry_group_IT_number 12
_symmetry_cell_setting 'monoclinic'
loop_
_space_group_symop_operation_xyz
x,y,z
-x,y,-z
-x,-y,-z
x,-y,z
1/2+x,1/2+y,z
1/2-x,1/2+y,-z
1/2-x,1/2-y,-z
1/2+x,1/2-y,z
loop_
_atom_site_type_symbol
_atom_site_label
_atom_site_fract_x
_atom_site_fract_y
_atom_site_fract_z
Si Si1 0.756628 0.172444 0.709871
Si Si2 0.344364 0.417075 0.414221
Si Si3 0.354329 0.085735 0.160321
Si Si4 0.498744 0.082925 0.414225
Si Si5 0.004413 0.085735 0.160335
Si Si6 0.326995 0.084718 0.000008
Si Si7 0.096121 0.672448 0.290137
O O1 0.668488 0.123087 0.778220
O O2 0.814504 0.249998 0.717743
O O3 0.578901 0.182339 0.710543
O O4 0.957397 0.135536 0.632906
O O5 0.421140 0.500000 0.398802
O O6 0.197339 0.397602 0.499997
O O7 0.217436 0.405066 0.391282
O O8 0.158220 0.106280 0.170904
O O9 0.359692 0.000000 0.167766
O O10 0.578883 0.113714 0.079031
O O11 0.488997 0.135545 0.367108
O O12 0.483644 0.000000 0.398805
O O13 0.781386 0.123081 0.221802
O O14 0.104971 0.113713 0.079054
O O15 0.969275 0.000000 0.167782
O O16 0.302705 0.000000 0.000008
O O17 0.500000 0.104461 0.000000
#
# Coordination Sequence:
#
# PCOD8115931 Si02
#       7
#     8   8   8   8   8   8   8
#     4  12  25  38  53  76 109 147 185 223 266 316
#     4   9  19  38  63  87 110 138 173 214 263 319
#     4   9  17  33  58  84 110 140 176 219 267 320
#     4   9  19  38  63  87 110 138 173 214 263 319
#     4   9  17  33  58  84 110 140 176 219 267 320
#     4   7  12  26  52  83 108 135 173 215 262 317
#     4  12  25  38  53  76 109 147 185 223 266 316
#
# _framework density 18.895004
#
# number of rings (size 3 to 8) (size 9 to 14) (size 15 to 20)
#    0.000    2.429    0.000    6.000    0.000    5.714 
#    0.000    2.857    0.000    2.571    0.000    0.000 
#    0.000    0.000    0.000    0.000    0.000    0.000 
#
# Total GULP energy -347009.772985 kJ/mol
# GULP energy per Si atom -12393.206178 kJ/mol
# Density = 1.885200 g / cm^3
# Si number density = 18.895004 Si / 1000 Ang^3
#
#
#
# Elastic Constant Matrix: (Units=GPa)
#
#
# Indices 1 2 3 4 5 6 
#
# 1 107.4307 42.3786 51.0840 -0.0002 -1.1132 -0.0006
# 2 42.3786 64.9949 42.1358 0.0090 -0.0016 -0.0018
# 3 51.0840 42.1358 122.3221 0.0357 2.2997 0.0035
# 4 -0.0002 0.0090 0.0357 -6.1339 -0.0113 -2.7852
# 5 -1.1132 -0.0016 2.2997 -0.0113 20.9624 -0.0024
# 6 -0.0006 -0.0018 0.0035 -2.7852 -0.0024 30.6836
#
#
#
# Elastic Compliance Matrix: (Units=1/GPa)
#
#
# Indices 1 2 3 4 5 6 
#
# 1 0.013551 -0.006635 -0.003394 -0.000031 0.001091 -0.000002
# 2 -0.006635 0.023070 -0.005180 0.000003 0.000218 0.000002
# 3 -0.003394 -0.005180 0.011404 0.000060 -0.001432 0.000004
# 4 -0.000031 0.000003 0.000060 -0.156575 -0.000094 -0.014212
# 5 0.001091 0.000218 -0.001432 -0.000094 0.047919 -0.000005
# 6 -0.000002 0.000002 0.000004 -0.014212 -0.000005 0.031301
#
#
# Mechanical properties :
#
#
# Convention : Reuss Voigt Hill
#
# Bulk Modulus (GPa) = 56.79726 62.88271 59.83999
# Shear Modulus (GPa) = 718.58728 19.71237 369.14983
#
# Velocity S-wave (km/s) = 19.52258 3.23346 13.99261
# Velocity P-wave (km/s) = 23.20128 6.87696 17.11128
#
# Compressibility (1/GPa) = 0.01760648
#
# Stress axis : x y z
#
# Youngs Moduli (GPa) = 73.79554 43.34556 87.69009
#
# Poissons Ratio (x) = 0.28761 0.29762
# Poissons Ratio (y) = 0.48965 0.45424
# Poissons Ratio (z) = 0.25046 0.22453
#
# Static dielectric constant tensor:
#      x y z
#    x 3.260160 0.000000 0.049010 
#    y 0.000000 3.290620 0.000010 
#    z 0.049010 0.000010 3.904950 
# 
# 
# High freq. dielectric constant tensor:
#      x y z
#    x 1.710310 0.000000 0.003900 
#    y 0.000000 1.713990 0.000000 
#    z 0.003900 0.000000 1.761720 
# 
# From -- ./inp_files/356666.got.cif
#   From: 2010.06.25/outbox.cif.g09.slc.cpg/sg12_179_cif.got.tgz:356666.got - 2010.06.28 00:19:55.
