data_PCOD8115986
_publ_section_title
;
Structure prediction by ZEFSAII (Michael W. Deem and Ramdas Pophale) SiO2 
 PCOD8115986
Probable space group: C 2/M
;
_chemical_formula_sum "Si O2"
_cell_formula_units_Z 40
_cell_length_a 19.734296
_cell_length_b 9.537525
_cell_length_c 19.481619
_cell_angle_alpha 90.000000
_cell_angle_beta 138.598857
_cell_angle_gamma 90.000000
_cell_volume 2424.926139
_symmetry_space_group_name_H-M "C 2/M"
_symmetry_group_IT_number 12
_symmetry_cell_setting 'monoclinic'
loop_
_space_group_symop_operation_xyz
x,y,z
-x,y,-z
-x,-y,-z
x,-y,z
1/2+x,1/2+y,z
1/2-x,1/2+y,-z
1/2-x,1/2-y,-z
1/2+x,1/2-y,z
loop_
_atom_site_type_symbol
_atom_site_label
_atom_site_fract_x
_atom_site_fract_y
_atom_site_fract_z
Si Si1 0.385412 0.666921 0.913958
Si Si2 0.720274 0.156575 0.685593
Si Si3 0.420968 0.342207 0.502563
Si Si4 0.238753 0.664937 0.922396
Si Si5 0.938184 0.654989 0.310915
O O1 0.386398 0.500000 0.915691
O O2 0.325815 0.714667 0.799400
O O3 0.326703 0.719695 0.937250
O O4 0.500000 0.730038 0.000000
O O5 0.682986 0.261145 0.597534
O O6 0.636796 0.149281 0.681647
O O7 0.734946 0.000000 0.665832
O O8 0.500000 0.342090 0.500000
O O9 0.391900 0.500000 0.501812
O O10 0.471248 0.266012 0.606728
O O11 0.250826 0.500000 0.945992
O O12 0.126915 0.698301 0.805537
O O13 0.250000 0.750000 0.000000
O O14 0.986513 0.500000 0.337632
#
# Coordination Sequence:
#
# PCOD8115986 Si02
#       5
#     8   8   8   8   8
#     4   8  14  26  44  64  84 109 144 177 201 237
#     4   8  13  22  37  55  76 103 132 164 201 239
#     4   9  15  21  32  53  79 104 129 161 203 245
#     4   9  17  28  43  63  86 112 140 172 208 245
#     4   8  14  24  36  52  76 105 135 163 196 241
#
# _framework density 16.495348
#
# number of rings (size 3 to 8) (size 9 to 14) (size 15 to 20)
#    0.000    3.600    0.000    3.000    0.000    3.200 
#    0.000    3.000    0.000    2.400    0.000    1.400 
#    0.000    0.000    0.000    0.000    0.000    0.000 
#
# Total GULP energy -247841.793953 kJ/mol
# GULP energy per Si atom -12392.089698 kJ/mol
# Density = 1.645780 g / cm^3
# Si number density = 16.495348 Si / 1000 Ang^3
#
#
#
# Elastic Constant Matrix: (Units=GPa)
#
#
# Indices 1 2 3 4 5 6 
#
# 1 30.6552 23.5242 41.0323 0.0000 0.6419 0.0000
# 2 23.5242 96.5995 83.7559 0.0000 -4.6089 0.0000
# 3 41.0323 83.7559 170.2750 0.0000 0.9212 0.0000
# 4 0.0000 0.0000 0.0000 26.1835 0.0000 -7.8025
# 5 0.6419 -4.6089 0.9212 0.0000 20.0514 0.0000
# 6 0.0000 0.0000 0.0000 -7.8025 0.0000 10.7944
#
#
#
# Elastic Compliance Matrix: (Units=1/GPa)
#
#
# Indices 1 2 3 4 5 6 
#
# 1 0.048688 -0.003101 -0.010198 0.000000 -0.001803 0.000000
# 2 -0.003101 0.018674 -0.008464 0.000000 0.004780 0.000000
# 3 -0.010198 -0.008464 0.012505 0.000000 -0.002194 0.000000
# 4 0.000000 0.000000 0.000000 0.048677 0.000000 0.035185
# 5 -0.001803 0.004780 -0.002194 0.000000 0.051129 0.000000
# 6 0.000000 0.000000 0.000000 0.035185 0.000000 0.118074
#
#
# Mechanical properties :
#
#
# Convention : Reuss Voigt Hill
#
# Bulk Modulus (GPa) = 27.51632 66.01719 46.76676
# Shear Modulus (GPa) = 14.14882 21.35367 17.75125
#
# Velocity S-wave (km/s) = 2.93191 3.60186 3.28401
# Velocity P-wave (km/s) = 5.30838 7.57670 6.54161
#
# Compressibility (1/GPa) = 0.03634207
#
# Stress axis : x y z
#
# Youngs Moduli (GPa) = 20.53907 53.55047 79.96503
#
# Poissons Ratio (x) = 0.16605 0.81545
# Poissons Ratio (y) = 0.06369 0.67683
# Poissons Ratio (z) = 0.20945 0.45326
#
# Static dielectric constant tensor:
#      x y z
#    x 2.585150 0.000000 0.158310 
#    y 0.000000 3.096890 0.000000 
#    z 0.158310 0.000000 3.551980 
# 
# 
# High freq. dielectric constant tensor:
#      x y z
#    x 1.560480 0.000000 0.000520 
#    y 0.000000 1.617880 0.000000 
#    z 0.000520 0.000000 1.653640 
# 
# From -- ./inp_files/162591.got.cif
#   From: 2010.06.25/outbox.cif.g09.slc.cpg/sg12_82_cif.got.tgz:162591.got - 2010.06.28 00:19:55.
