data_PCOD8115881
_publ_section_title
;
Structure prediction by ZEFSAII (Michael W. Deem and Ramdas Pophale) SiO2 
 PCOD8115881
Probable space group: C 2/M
;
_chemical_formula_sum "Si O2"
_cell_formula_units_Z 40
_cell_length_a 15.811966
_cell_length_b 24.890558
_cell_length_c 8.832511
_cell_angle_alpha 90.000000
_cell_angle_beta 33.660351
_cell_angle_gamma 90.000000
_cell_volume 1926.748148
_symmetry_space_group_name_H-M "C 2/M"
_symmetry_group_IT_number 12
_symmetry_cell_setting 'monoclinic'
loop_
_space_group_symop_operation_xyz
x,y,z
-x,y,-z
-x,-y,-z
x,-y,z
1/2+x,1/2+y,z
1/2-x,1/2+y,-z
1/2-x,1/2-y,-z
1/2+x,1/2-y,z
loop_
_atom_site_type_symbol
_atom_site_label
_atom_site_fract_x
_atom_site_fract_y
_atom_site_fract_z
Si Si1 0.177043 0.748497 0.270059
Si Si2 0.834151 0.154769 0.210374
Si Si3 0.271448 0.560359 0.759902
Si Si4 0.091378 0.060531 0.125880
Si Si5 0.831024 0.340275 0.232600
O O1 0.229168 0.694040 0.270845
O O2 0.223126 0.798540 0.306132
O O3 0.000000 0.749467 0.500000
O O4 0.250000 0.750000 0.000000
O O5 0.743739 0.143503 0.497950
O O6 0.860885 0.099334 0.081158
O O7 0.000000 0.180759 0.000000
O O8 0.215670 0.500000 0.804670
O O9 0.425131 0.574282 0.438864
O O10 0.291932 0.566275 0.909039
O O11 0.148276 0.604711 0.893959
O O12 0.095772 0.000000 0.054856
O O13 0.000000 0.315124 0.000000
#
# Coordination Sequence:
#
# PCOD8115881 Si02
#       5
#     8   8   8   8   8
#     4  12  26  44  66  88 121 169 215 256 308 379
#     4  12  23  40  64  95 126 160 208 264 317 364
#     4   9  19  38  64  93 127 167 209 251 305 372
#     4   9  19  37  65  96 124 163 214 256 297 371
#     4  12  25  41  62  93 132 163 202 263 321 369
#
# _framework density 20.760368
#
# number of rings (size 3 to 8) (size 9 to 14) (size 15 to 20)
#    0.000    1.200    2.000    6.000    2.800    1.600 
#    0.000    0.000    0.000    3.000    0.000    0.000 
#    0.000    0.000    0.000    0.000    0.000    0.000 
#
# Total GULP energy -247996.196044 kJ/mol
# GULP energy per Si atom -12399.809802 kJ/mol
# Density = 2.071312 g / cm^3
# Si number density = 20.760368 Si / 1000 Ang^3
#
#
#
# Elastic Constant Matrix: (Units=GPa)
#
#
# Indices 1 2 3 4 5 6 
#
# 1 129.1902 70.1149 55.3871 -0.0001 -8.7446 0.0002
# 2 70.1149 134.7610 33.9636 0.0000 4.6360 0.0001
# 3 55.3871 33.9636 110.1060 -0.0002 4.4021 0.0002
# 4 -0.0001 0.0000 -0.0002 23.5249 0.0001 0.5998
# 5 -8.7446 4.6360 4.4021 0.0001 47.3440 0.0000
# 6 0.0002 0.0001 0.0002 0.5998 0.0000 19.2712
#
#
#
# Elastic Compliance Matrix: (Units=1/GPa)
#
#
# Indices 1 2 3 4 5 6 
#
# 1 0.013252 -0.005746 -0.005033 0.000000 0.003478 0.000000
# 2 -0.005746 0.010552 -0.000282 0.000000 -0.002068 0.000000
# 3 -0.005033 -0.000282 0.011781 0.000000 -0.001997 0.000000
# 4 0.000000 0.000000 0.000000 0.042542 0.000000 -0.001324
# 5 0.003478 -0.002068 -0.001997 0.000000 0.022153 0.000000
# 6 0.000000 0.000000 0.000000 -0.001324 0.000000 0.051932
#
#
# Mechanical properties :
#
#
# Convention : Reuss Voigt Hill
#
# Bulk Modulus (GPa) = 74.27493 76.99872 75.63682
# Shear Modulus (GPa) = 27.96076 32.33414 30.14745
#
# Velocity S-wave (km/s) = 3.67390 3.95079 3.81486
# Velocity P-wave (km/s) = 7.33837 7.61456 7.47774
#
# Compressibility (1/GPa) = 0.01346349
#
# Stress axis : x y z
#
# Youngs Moduli (GPa) = 75.45800 94.76463 84.88470
#
# Poissons Ratio (x) = 0.54455 0.42722
# Poissons Ratio (y) = 0.43361 0.02392
# Poissons Ratio (z) = 0.37978 0.02670
#
# Static dielectric constant tensor:
#      x y z
#    x 4.032760 0.000000 0.060350 
#    y 0.000000 3.821000 0.000000 
#    z 0.060350 0.000000 3.553190 
# 
# 
# High freq. dielectric constant tensor:
#      x y z
#    x 1.826240 0.000000 0.013710 
#    y 0.000000 1.822760 0.000000 
#    z 0.013710 0.000000 1.799000 
# 
# From -- ./inp_files/39436.got.cif
#   From: 2010.06.25/outbox.cif.g09.slc.cpg/sg12_20_cif.got.tgz:39436.got - 2010.06.28 00:19:55.
