data_PCOD8115283
_publ_section_title
;
Structure prediction by ZEFSAII (Michael W. Deem and Ramdas Pophale) SiO2 
 PCOD8115283
Probable space group: C 2/M
;
_chemical_formula_sum "Si O2"
_cell_formula_units_Z 40
_cell_length_a 9.211102
_cell_length_b 16.782393
_cell_length_c 24.626108
_cell_angle_alpha 90.000000
_cell_angle_beta 148.443455
_cell_angle_gamma 90.000000
_cell_volume 1992.255359
_symmetry_space_group_name_H-M "C 2/M"
_symmetry_group_IT_number 12
_symmetry_cell_setting 'monoclinic'
loop_
_space_group_symop_operation_xyz
x,y,z
-x,y,-z
-x,-y,-z
x,-y,z
1/2+x,1/2+y,z
1/2-x,1/2+y,-z
1/2-x,1/2-y,-z
1/2+x,1/2-y,z
loop_
_atom_site_type_symbol
_atom_site_label
_atom_site_fract_x
_atom_site_fract_y
_atom_site_fract_z
Si Si1 0.770012 0.908002 0.231006
Si Si2 0.141478 0.657383 0.601703
Si Si3 0.060642 0.310444 0.264726
Si Si4 0.468286 0.210873 0.928758
Si Si5 0.678512 0.091930 0.402279
O O1 0.696437 0.869789 0.265140
O O2 0.597687 0.865530 0.128737
O O3 0.096528 0.899684 0.324436
O O4 0.685181 0.000000 0.204837
O O5 0.226640 0.738370 0.658694
O O6 0.000000 0.679382 0.500000
O O7 0.922556 0.611363 0.569434
O O8 0.006056 0.356810 0.303584
O O9 0.768199 0.278067 0.150429
O O10 0.500000 0.179825 0.000000
O O11 0.750000 0.250000 0.000000
O O12 0.000000 0.114440 0.500000
O O13 0.626453 0.000000 0.372593
#
# Coordination Sequence:
#
# PCOD8115283 Si02
#       5
#     8   8   8   8   8
#     4  11  24  41  64  95 126 159 203 258 312 362
#     4  11  23  40  63  91 125 167 209 249 300 367
#     4  11  23  41  66  89 123 162 209 253 300 373
#     4  11  23  44  68  91 122 162 207 256 307 366
#     4  11  24  40  60  90 128 165 201 251 310 364
#
# _framework density 20.077746999999999
#
# number of rings (size 3 to 8) (size 9 to 14) (size 15 to 20)
#    0.000    1.000    2.000    5.400    2.800    6.000 
#    0.000    3.000    0.000    0.000    0.000    0.000 
#    0.000    0.000    0.000    0.000    0.000    0.000 
#
# Total GULP energy -248147.222149 kJ/mol
# GULP energy per Si atom -12407.361107 kJ/mol
# Density = 2.003205 g / cm^3
# Si number density = 20.077747 Si / 1000 Ang^3
#
#
#
# Elastic Constant Matrix: (Units=GPa)
#
#
# Indices 1 2 3 4 5 6 
#
# 1 136.0074 44.4678 51.7195 -0.0010 -3.3920 -0.0004
# 2 44.4678 122.5658 45.6381 -0.0014 2.4794 -0.0013
# 3 51.7195 45.6381 118.0766 -0.0007 -2.1228 -0.0028
# 4 -0.0010 -0.0014 -0.0007 11.3314 -0.0016 1.8708
# 5 -3.3920 2.4794 -2.1228 -0.0016 39.8944 -0.0007
# 6 -0.0004 -0.0013 -0.0028 1.8708 -0.0007 27.5178
#
#
#
# Elastic Compliance Matrix: (Units=1/GPa)
#
#
# Indices 1 2 3 4 5 6 
#
# 1 0.009313 -0.002196 -0.003217 0.000001 0.000757 0.000000
# 2 -0.002196 0.010073 -0.002949 0.000001 -0.000970 0.000000
# 3 -0.003217 -0.002949 0.011027 0.000000 0.000497 0.000001
# 4 0.000001 0.000001 0.000000 0.089252 0.000003 -0.006068
# 5 0.000757 -0.000970 0.000497 0.000003 0.025217 0.000000
# 6 0.000000 0.000000 0.000001 -0.006068 0.000000 0.036753
#
#
# Mechanical properties :
#
#
# Convention : Reuss Voigt Hill
#
# Bulk Modulus (GPa) = 73.05049 73.36673 73.20861
# Shear Modulus (GPa) = 24.64010 31.40369 28.02190
#
# Velocity S-wave (km/s) = 3.50699 3.95917 3.73992
# Velocity P-wave (km/s) = 7.27059 7.58424 7.42907
#
# Compressibility (1/GPa) = 0.01368916
#
# Stress axis : x y z
#
# Youngs Moduli (GPa) = 107.38043 99.27159 90.68887
#
# Poissons Ratio (x) = 0.21803 0.29171
# Poissons Ratio (y) = 0.23584 0.26743
# Poissons Ratio (z) = 0.34540 0.29274
#
# Static dielectric constant tensor:
#      x y z
#    x 3.815430 0.000010 -0.054420 
#    y 0.000010 3.844170 -0.000020 
#    z -0.054420 -0.000020 3.616150 
# 
# 
# High freq. dielectric constant tensor:
#      x y z
#    x 1.803080 0.000000 -0.005730 
#    y 0.000000 1.784530 0.000000 
#    z -0.005730 0.000000 1.786700 
# 
# From -- ./inp_files/119064.got.cif
#   From: 2010.06.25/outbox.cif.g09.slc.cpg/sg12_60_cif.got.tgz:119064.got - 2010.06.28 00:19:55.
