data_PCOD8115859
_publ_section_title
;
Structure prediction by ZEFSAII (Michael W. Deem and Ramdas Pophale) SiO2 
 PCOD8115859
Probable space group: C 2/M
;
_chemical_formula_sum "Si O2"
_cell_formula_units_Z 48
_cell_length_a 11.901299
_cell_length_b 23.016388
_cell_length_c 9.465276
_cell_angle_alpha 90.000000
_cell_angle_beta 111.766398
_cell_angle_gamma 90.000000
_cell_volume 2407.919051
_symmetry_space_group_name_H-M "C 2/M"
_symmetry_group_IT_number 12
_symmetry_cell_setting 'monoclinic'
loop_
_space_group_symop_operation_xyz
x,y,z
-x,y,-z
-x,-y,-z
x,-y,z
1/2+x,1/2+y,z
1/2-x,1/2+y,-z
1/2-x,1/2-y,-z
1/2+x,1/2-y,z
loop_
_atom_site_type_symbol
_atom_site_label
_atom_site_fract_x
_atom_site_fract_y
_atom_site_fract_z
Si Si1 0.979588 0.500000 0.156701
Si Si2 0.733057 0.696104 0.888193
Si Si3 0.869065 0.500000 0.514528
Si Si4 0.524968 0.319609 0.351282
Si Si5 0.760622 0.621062 0.393390
Si Si6 0.620240 0.124679 0.843881
Si Si7 0.386249 0.803374 0.687726
O O1 0.904010 0.556305 0.166084
O O2 0.105509 0.500000 0.304124
O O3 0.000000 0.500000 0.000000
O O4 0.593581 0.680159 0.800840
O O5 0.793579 0.712436 0.768339
O O6 0.750000 0.750000 0.000000
O O7 0.793838 0.639129 0.984175
O O8 0.787497 0.553827 0.431182
O O9 0.000000 0.500000 0.500000
O O10 0.500000 0.338417 0.500000
O O11 0.617265 0.366512 0.327351
O O12 0.580947 0.255471 0.377069
O O13 0.815816 0.642497 0.271716
O O14 0.823270 0.655783 0.546812
O O15 0.500414 0.163210 0.806145
#
# Coordination Sequence:
#
# PCOD8115859 Si02
#       7
#     4   8   4   8   8   8   8
#     4  12  24  40  67 102 136 167 218 284 339 382
#     4  12  26  43  63  96 140 179 224 274 339 406
#     4  12  22  46  72 102 129 172 232 281 329 394
#     4  12  26  43  66  97 137 182 222 268 340 412
#     4  12  24  43  70  97 134 172 226 281 331 406
#     4  12  24  41  68 100 132 170 225 283 339 387
#     4  12  23  41  68  97 133 176 226 279 329 402
#
# _framework density 19.934225000000001
#
# number of rings (size 3 to 8) (size 9 to 14) (size 15 to 20)
#    0.000    0.000    6.667    4.500    0.000    2.000 
#    0.000    1.250    0.000    2.000    0.000    0.000 
#    0.000    0.000    0.000    0.000    0.000    0.000 
#
# Total GULP energy -297760.906179 kJ/mol
# GULP energy per Si atom -12406.704424 kJ/mol
# Density = 1.988885 g / cm^3
# Si number density = 19.934225 Si / 1000 Ang^3
#
#
#
# Elastic Constant Matrix: (Units=GPa)
#
#
# Indices 1 2 3 4 5 6 
#
# 1 135.2028 54.1284 44.9991 0.0000 8.3307 0.0000
# 2 54.1284 99.9512 14.5918 0.0000 9.1083 0.0000
# 3 44.9991 14.5918 96.6916 0.0000 4.2660 0.0000
# 4 0.0000 0.0000 0.0000 35.0957 0.0000 4.1908
# 5 8.3307 9.1083 4.2660 0.0000 47.8650 0.0000
# 6 0.0000 0.0000 0.0000 4.1908 0.0000 26.2797
#
#
#
# Elastic Compliance Matrix: (Units=1/GPa)
#
#
# Indices 1 2 3 4 5 6 
#
# 1 0.010961 -0.005263 -0.004284 0.000000 -0.000524 0.000000
# 2 -0.005263 0.012917 0.000570 0.000000 -0.001593 0.000000
# 3 -0.004284 0.000570 0.012270 0.000000 -0.000456 0.000000
# 4 0.000000 0.000000 0.000000 0.029047 0.000000 -0.004632
# 5 -0.000524 -0.001593 -0.000456 0.000000 0.021327 0.000000
# 6 0.000000 0.000000 0.000000 -0.004632 0.000000 0.038791
#
#
# Mechanical properties :
#
#
# Convention : Reuss Voigt Hill
#
# Bulk Modulus (GPa) = 54.95990 62.14269 58.55129
# Shear Modulus (GPa) = 33.48260 36.38982 34.93621
#
# Velocity S-wave (km/s) = 4.10280 4.27722 4.19092
# Velocity P-wave (km/s) = 7.07633 7.45884 7.27010
#
# Compressibility (1/GPa) = 0.01819508
#
# Stress axis : x y z
#
# Youngs Moduli (GPa) = 91.22879 77.41779 81.50000
#
# Poissons Ratio (x) = 0.40745 0.34914
# Poissons Ratio (y) = 0.48013 -0.04648
# Poissons Ratio (z) = 0.39082 -0.04415
#
# Static dielectric constant tensor:
#      x y z
#    x 6.359360 0.000000 -0.555290 
#    y 0.000000 3.600290 0.000000 
#    z -0.555290 0.000000 4.056530 
# 
# 
# High freq. dielectric constant tensor:
#      x y z
#    x 1.777830 0.000000 -0.005930 
#    y 0.000000 1.776310 0.000000 
#    z -0.005930 0.000000 1.796140 
# 
# From -- ./inp_files/51395.got.cif
#   From: 2010.06.25/outbox.cif.g09.slc.cpg/sg12_26_cif.got.tgz:51395.got - 2010.06.28 00:19:55.
