data_PCOD8115049
_publ_section_title
;
Structure prediction by ZEFSAII (Michael W. Deem and Ramdas Pophale) SiO2 
 PCOD8115049
Probable space group: C 2/M
;
_chemical_formula_sum "Si O2"
_cell_formula_units_Z 36
_cell_length_a 19.402146
_cell_length_b 17.640094
_cell_length_c 5.073698
_cell_angle_alpha 90.000000
_cell_angle_beta 104.874042
_cell_angle_gamma 90.000000
_cell_volume 1678.316072
_symmetry_space_group_name_H-M "C 2/M"
_symmetry_group_IT_number 12
_symmetry_cell_setting 'monoclinic'
loop_
_space_group_symop_operation_xyz
x,y,z
-x,y,-z
-x,-y,-z
x,-y,z
1/2+x,1/2+y,z
1/2-x,1/2+y,-z
1/2-x,1/2-y,-z
1/2+x,1/2-y,z
loop_
_atom_site_type_symbol
_atom_site_label
_atom_site_fract_x
_atom_site_fract_y
_atom_site_fract_z
Si Si1 0.335379 0.123912 0.031574
Si Si2 0.548943 0.000000 0.797294
Si Si3 0.120424 0.000000 0.308891
Si Si4 0.783177 0.000000 0.097068
Si Si5 0.328642 0.778427 0.527624
Si Si6 0.452492 0.341027 0.706702
O O1 0.403682 0.074574 0.165079
O O2 0.263248 0.075453 0.986022
O O3 0.333249 0.193305 0.232286
O O4 0.345229 0.153473 0.744440
O O5 0.500000 0.000000 0.500000
O O6 0.500000 0.000000 0.000000
O O7 0.069950 0.928114 0.295593
O O8 0.152826 0.000000 0.048093
O O9 0.184903 0.000000 0.579203
O O10 0.250000 0.750000 0.500000
O O11 0.382131 0.709538 0.624366
O O12 0.500000 0.326574 0.500000
O O13 0.500000 0.316065 0.000000
#
# Coordination Sequence:
#
# PCOD8115049 Si02
#       6
#     8   4   4   4   8   8
#     4  11  24  41  64  95 128 162 214 265 314 379
#     4  11  24  41  64  91 126 171 212 256 318 381
#     4  12  24  44  68  92 128 168 212 262 316 383
#     4  11  22  41  68  97 124 167 212 264 318 370
#     4  12  25  43  67  96 130 170 214 264 319 379
#     4  12  26  44  66  96 130 170 214 264 322 380
#
# _framework density 21.450071000000001
#
# number of rings (size 3 to 8) (size 9 to 14) (size 15 to 20)
#    0.000    0.444    0.000    9.333    0.000    8.889 
#    0.000    0.000    0.000    0.000    0.000    0.000 
#    0.000    0.000    0.000    0.000    0.000    0.000 
#
# Total GULP energy -223369.731416 kJ/mol
# GULP energy per Si atom -12409.429523 kJ/mol
# Density = 2.140125 g / cm^3
# Si number density = 21.450071 Si / 1000 Ang^3
#
#
#
# Elastic Constant Matrix: (Units=GPa)
#
#
# Indices 1 2 3 4 5 6 
#
# 1 140.5951 42.9452 35.6088 0.0000 2.8877 0.0000
# 2 42.9452 100.3643 17.0629 0.0000 7.7317 0.0000
# 3 35.6088 17.0629 100.2415 0.0000 -9.2963 0.0000
# 4 0.0000 0.0000 0.0000 39.3954 0.0000 -14.1058
# 5 2.8877 7.7317 -9.2963 0.0000 38.9181 0.0000
# 6 0.0000 0.0000 0.0000 -14.1058 0.0000 6.9703
#
#
#
# Elastic Compliance Matrix: (Units=1/GPa)
#
#
# Indices 1 2 3 4 5 6 
#
# 1 0.008788 -0.003265 -0.002624 0.000000 -0.000630 0.000000
# 2 -0.003265 0.011720 -0.001052 0.000000 -0.002337 0.000000
# 3 -0.002624 -0.001052 0.011377 0.000000 0.003121 0.000000
# 4 0.000000 0.000000 0.000000 0.092173 0.000000 0.186532
# 5 -0.000630 -0.002337 0.003121 0.000000 0.026952 0.000000
# 6 0.000000 0.000000 0.000000 0.186532 0.000000 0.520956
#
#
# Mechanical properties :
#
#
# Convention : Reuss Voigt Hill
#
# Bulk Modulus (GPa) = 55.55165 59.15941 57.35553
# Shear Modulus (GPa) = 7.22702 33.42902 20.32802
#
# Velocity S-wave (km/s) = 1.83754 3.95201 3.08180
# Velocity P-wave (km/s) = 5.51873 6.96164 6.28175
#
# Compressibility (1/GPa) = 0.01800127
#
# Stress axis : x y z
#
# Youngs Moduli (GPa) = 113.79581 85.32543 87.89989
#
# Poissons Ratio (x) = 0.27863 0.23067
# Poissons Ratio (y) = 0.37160 0.09244
# Poissons Ratio (z) = 0.29863 0.08973
#
# Static dielectric constant tensor:
#      x y z
#    x 3.856250 0.000000 0.255780 
#    y 0.000000 4.031980 0.000000 
#    z 0.255780 0.000000 3.808610 
# 
# 
# High freq. dielectric constant tensor:
#      x y z
#    x 1.859750 0.000000 0.002550 
#    y 0.000000 1.852800 0.000000 
#    z 0.002550 0.000000 1.863590 
# 
# From -- ./inp_files/15377.got.cif
#   From: 2010.06.25/outbox.cif.g09.slc.cpg/sg12_8_cif.got.tgz:15377.got - 2010.06.28 00:19:55.
