data_PCOD8115221
_publ_section_title
;
Structure prediction by ZEFSAII (Michael W. Deem and Ramdas Pophale) SiO2 
 PCOD8115221
Probable space group: C 2/M
;
_chemical_formula_sum "Si O2"
_cell_formula_units_Z 48
_cell_length_a 15.250373
_cell_length_b 8.466807
_cell_length_c 26.887838
_cell_angle_alpha 90.000000
_cell_angle_beta 135.184642
_cell_angle_gamma 90.000000
_cell_volume 2447.016676
_symmetry_space_group_name_H-M "C 2/M"
_symmetry_group_IT_number 12
_symmetry_cell_setting 'monoclinic'
loop_
_space_group_symop_operation_xyz
x,y,z
-x,y,-z
-x,-y,-z
x,-y,z
1/2+x,1/2+y,z
1/2-x,1/2+y,-z
1/2-x,1/2-y,-z
1/2+x,1/2-y,z
loop_
_atom_site_type_symbol
_atom_site_label
_atom_site_fract_x
_atom_site_fract_y
_atom_site_fract_z
Si Si1 0.922424 0.814630 0.333017
Si Si2 0.284015 0.187867 0.827214
Si Si3 0.691639 0.185291 0.426210
Si Si4 0.257048 0.687122 0.079373
Si Si5 0.941829 0.312868 0.079641
Si Si6 0.624741 0.184815 0.579362
O O1 0.816363 0.752832 0.252956
O O2 0.875090 0.780241 0.369368
O O3 0.045601 0.719632 0.368010
O O4 0.948720 0.000000 0.337714
O O5 0.250401 0.254862 0.868016
O O6 0.419315 0.256032 0.867659
O O7 0.288248 0.000000 0.829781
O O8 0.750000 0.250000 0.500000
O O9 0.755025 0.268162 0.404385
O O10 0.716246 0.000000 0.432888
O O11 0.258536 0.500000 0.080144
O O12 0.384893 0.750543 0.107995
O O13 0.139435 0.749197 0.999876
O O14 0.943025 0.500000 0.080371
O O15 0.500000 0.231558 0.500000
O O16 0.628459 0.000000 0.592775
#
# Coordination Sequence:
#
# PCOD8115221 Si02
#       6
#     8   8   8   8   8   8
#     4  11  23  39  59  86 119 153 191 237 289 345
#     4   9  19  35  55  80 112 150 189 227 276 336
#     4  12  24  40  63  88 114 146 187 234 286 342
#     4   9  17  32  55  81 110 147 189 232 276 325
#     4   9  17  32  55  81 110 146 190 233 274 325
#     4  11  23  40  63  87 113 146 188 236 284 341
#
# _framework density 19.615722999999999
#
# number of rings (size 3 to 8) (size 9 to 14) (size 15 to 20)
#    0.000    1.833    1.667    3.000    0.000    4.000 
#    0.000    7.500    0.000    4.000    0.000    0.000 
#    0.000    0.000    0.000    0.000    0.000    0.000 
#
# Total GULP energy -297665.967067 kJ/mol
# GULP energy per Si atom -12402.748628 kJ/mol
# Density = 1.957108 g / cm^3
# Si number density = 19.615723 Si / 1000 Ang^3
#
#
#
# Elastic Constant Matrix: (Units=GPa)
#
#
# Indices 1 2 3 4 5 6 
#
# 1 162.8724 5.8023 83.6075 0.0000 3.8835 0.0000
# 2 5.8023 33.0488 17.8940 0.0000 -0.5019 0.0000
# 3 83.6075 17.8940 143.1266 0.0000 1.7975 0.0000
# 4 0.0000 0.0000 0.0000 19.9238 0.0000 1.7081
# 5 3.8835 -0.5019 1.7975 0.0000 20.3451 0.0000
# 6 0.0000 0.0000 0.0000 1.7081 0.0000 34.3827
#
#
#
# Elastic Compliance Matrix: (Units=1/GPa)
#
#
# Indices 1 2 3 4 5 6 
#
# 1 0.008852 0.001308 -0.005320 0.000000 -0.001187 0.000000
# 2 0.001308 0.032676 -0.004862 0.000000 0.000986 0.000000
# 3 -0.005320 -0.004862 0.010703 0.000000 -0.000050 0.000000
# 4 0.000000 0.000000 0.000000 0.050406 0.000000 -0.002504
# 5 -0.001187 0.000986 -0.000050 0.000000 0.049407 0.000000
# 6 0.000000 0.000000 0.000000 -0.002504 0.000000 0.029209
#
#
# Mechanical properties :
#
#
# Convention : Reuss Voigt Hill
#
# Bulk Modulus (GPa) = 28.99866 61.51728 45.25797
# Shear Modulus (GPa) = 23.75359 30.37991 27.06675
#
# Velocity S-wave (km/s) = 3.48364 3.93969 3.71866
# Velocity P-wave (km/s) = 5.56745 7.21971 6.44673
#
# Compressibility (1/GPa) = 0.03448436
#
# Stress axis : x y z
#
# Youngs Moduli (GPa) = 112.96565 30.60352 93.43371
#
# Poissons Ratio (x) = -0.04003 0.49704
# Poissons Ratio (y) = -0.14777 0.45425
# Poissons Ratio (z) = 0.60094 0.14879
#
# Static dielectric constant tensor:
#      x y z
#    x 3.745920 0.000000 0.040350 
#    y 0.000000 3.363950 0.000000 
#    z 0.040350 0.000000 3.788910 
# 
# 
# High freq. dielectric constant tensor:
#      x y z
#    x 1.780290 0.000000 0.001190 
#    y 0.000000 1.748430 0.000000 
#    z 0.001190 0.000000 1.762600 
# 
# From -- ./inp_files/267612.got.cif
#   From: 2010.06.25/outbox.cif.g09.slc.cpg/sg12_134_cif.got.tgz:267612.got - 2010.06.28 00:19:55.
