data_PCOD8115125
_publ_section_title
;
Structure prediction by ZEFSAII (Michael W. Deem and Ramdas Pophale) SiO2 
 PCOD8115125
Probable space group: C 2/M
;
_chemical_formula_sum "Si O2"
_cell_formula_units_Z 40
_cell_length_a 26.452409
_cell_length_b 11.511005
_cell_length_c 8.516965
_cell_angle_alpha 90.000000
_cell_angle_beta 43.761803
_cell_angle_gamma 90.000000
_cell_volume 1793.730346
_symmetry_space_group_name_H-M "C 2/M"
_symmetry_group_IT_number 12
_symmetry_cell_setting 'monoclinic'
loop_
_space_group_symop_operation_xyz
x,y,z
-x,y,-z
-x,-y,-z
x,-y,z
1/2+x,1/2+y,z
1/2-x,1/2+y,-z
1/2-x,1/2-y,-z
1/2+x,1/2-y,z
loop_
_atom_site_type_symbol
_atom_site_label
_atom_site_fract_x
_atom_site_fract_y
_atom_site_fract_z
Si Si1 0.680772 0.706364 0.248153
Si Si2 0.569949 0.371728 0.260090
Si Si3 0.414845 0.188467 0.022392
Si Si4 0.925254 0.630845 0.345810
Si Si5 0.257440 0.870775 0.381334
O O1 0.637314 0.621745 0.229659
O O2 0.626674 0.814193 0.406443
O O3 0.704835 0.638945 0.349867
O O4 0.750000 0.750000 0.000000
O O5 0.500000 0.310572 0.500000
O O6 0.546993 0.500000 0.260710
O O7 0.591299 0.311827 0.049158
O O8 0.416396 0.206037 0.206780
O O9 0.342041 0.118261 0.137721
O O10 0.489236 0.126129 0.796618
O O11 0.898361 0.500000 0.373481
O O12 0.250000 0.750000 0.500000
O O13 0.239262 0.000000 0.500389
#
# Coordination Sequence:
#
# PCOD8115125 Si02
#       5
#     8   8   8   8   8
#     4  12  25  45  65 101 139 184 230 285 347 419
#     4  11  24  45  67  94 140 185 228 281 344 416
#     4  11  22  45  72 101 133 178 233 282 347 410
#     4  11  24  44  71 101 136 177 232 293 343 409
#     4  12  26  45  71 103 142 184 230 287 350 419
#
# _framework density 22.299894999999999
#
# number of rings (size 3 to 8) (size 9 to 14) (size 15 to 20)
#    0.000    0.600    6.000    3.000    0.000    2.400 
#    0.000    3.000    0.000    0.000    0.000    0.000 
#    0.000    0.000    0.000    0.000    0.000    0.000 
#
# Total GULP energy -247793.964672 kJ/mol
# GULP energy per Si atom -12389.698234 kJ/mol
# Density = 2.224914 g / cm^3
# Si number density = 22.299895 Si / 1000 Ang^3
#
#
#
# Elastic Constant Matrix: (Units=GPa)
#
#
# Indices 1 2 3 4 5 6 
#
# 1 114.9148 41.0211 22.9012 0.0000 -12.8183 0.0000
# 2 41.0211 147.7533 51.9660 0.0000 14.6927 0.0000
# 3 22.9012 51.9660 112.0764 0.0000 -16.7238 0.0000
# 4 0.0000 0.0000 0.0000 23.9454 0.0000 7.7586
# 5 -12.8183 14.6927 -16.7238 0.0000 43.0012 0.0000
# 6 0.0000 0.0000 0.0000 7.7586 0.0000 17.3252
#
#
#
# Elastic Compliance Matrix: (Units=1/GPa)
#
#
# Indices 1 2 3 4 5 6 
#
# 1 0.010347 -0.003313 0.000054 0.000000 0.004237 0.000000
# 2 -0.003313 0.010052 -0.004930 0.000000 -0.006339 0.000000
# 3 0.000054 -0.004930 0.012156 0.000000 0.006428 0.000000
# 4 0.000000 0.000000 0.000000 0.048850 0.000000 -0.021876
# 5 0.004237 -0.006339 0.006428 0.000000 0.029184 0.000000
# 6 0.000000 0.000000 0.000000 -0.021876 0.000000 0.067516
#
#
# Mechanical properties :
#
#
# Convention : Reuss Voigt Hill
#
# Bulk Modulus (GPa) = 61.81254 67.39125 64.60190
# Shear Modulus (GPa) = 25.01571 34.11145 29.56358
#
# Velocity S-wave (km/s) = 3.35294 3.91534 3.64500
# Velocity P-wave (km/s) = 6.53977 7.12221 6.83719
#
# Compressibility (1/GPa) = 0.01617795
#
# Stress axis : x y z
#
# Youngs Moduli (GPa) = 96.65031 99.48196 82.26114
#
# Poissons Ratio (x) = 0.32958 -0.00446
# Poissons Ratio (y) = 0.32020 0.40553
# Poissons Ratio (z) = -0.00524 0.49043
#
# Static dielectric constant tensor:
#      x y z
#    x 4.098360 0.000000 -0.364020 
#    y 0.000000 3.891660 0.000000 
#    z -0.364020 0.000000 4.099980 
# 
# 
# High freq. dielectric constant tensor:
#      x y z
#    x 1.890830 0.000000 -0.022470 
#    y 0.000000 1.865880 0.000000 
#    z -0.022470 0.000000 1.873290 
# 
# From -- ./inp_files/109692.got.cif
#   From: 2010.06.25/outbox.cif.g09.slc.cpg/sg12_55_cif.got.tgz:109692.got - 2010.06.28 00:19:55.
