data_PCOD8115120
_publ_section_title
;
Structure prediction by ZEFSAII (Michael W. Deem and Ramdas Pophale) SiO2 
 PCOD8115120
Probable space group: C 2/M
;
_chemical_formula_sum "Si O2"
_cell_formula_units_Z 40
_cell_length_a 9.155207
_cell_length_b 25.699295
_cell_length_c 12.222382
_cell_angle_alpha 90.000000
_cell_angle_beta 38.863233
_cell_angle_gamma 90.000000
_cell_volume 1804.403731
_symmetry_space_group_name_H-M "C 2/M"
_symmetry_group_IT_number 12
_symmetry_cell_setting 'monoclinic'
loop_
_space_group_symop_operation_xyz
x,y,z
-x,y,-z
-x,-y,-z
x,-y,z
1/2+x,1/2+y,z
1/2-x,1/2+y,-z
1/2-x,1/2-y,-z
1/2+x,1/2-y,z
loop_
_atom_site_type_symbol
_atom_site_label
_atom_site_fract_x
_atom_site_fract_y
_atom_site_fract_z
Si Si1 0.390861 0.904705 0.953058
Si Si2 0.555610 0.940420 0.627517
Si Si3 0.809109 0.292956 0.701095
Si Si4 0.050061 0.289952 0.139927
Si Si5 0.640636 0.399813 0.734474
O O1 0.539346 0.925878 0.764395
O O2 0.415175 0.842624 0.946361
O O3 0.500000 0.928605 0.000000
O O4 0.120646 0.921848 0.106319
O O5 0.302203 0.932780 0.721720
O O6 0.750467 0.905178 0.451720
O O7 0.632553 0.000000 0.570327
O O8 0.947624 0.301603 0.732609
O O9 0.687084 0.236823 0.764641
O O10 0.628154 0.340001 0.784285
O O11 0.000000 0.298005 0.500000
O O12 0.250000 0.250000 0.000000
#
# Coordination Sequence:
#
# PCOD8115120 Si02
#       5
#     8   8   8   8   8
#     4  12  26  44  66 102 144 182 223 277 343 411
#     4  11  25  47  75 103 130 172 235 295 343 395
#     4  12  23  41  65  97 134 179 225 275 330 401
#     4  12  24  40  64  97 137 181 220 268 333 400
#     4  11  22  44  73  99 133 176 233 286 334 399
#
# _framework density 22.167987
#
# number of rings (size 3 to 8) (size 9 to 14) (size 15 to 20)
#    0.000    0.400    6.000    4.200    0.000    3.600 
#    0.000    1.000    0.000    0.000    0.000    0.000 
#    0.000    0.000    0.000    0.000    0.000    0.000 
#
# Total GULP energy -248038.809149 kJ/mol
# GULP energy per Si atom -12401.940457 kJ/mol
# Density = 2.211753 g / cm^3
# Si number density = 22.167987 Si / 1000 Ang^3
#
#
#
# Elastic Constant Matrix: (Units=GPa)
#
#
# Indices 1 2 3 4 5 6 
#
# 1 90.2825 3.1848 30.1128 0.0000 16.1909 0.0000
# 2 3.1848 88.5110 3.9366 0.0000 1.5220 0.0000
# 3 30.1128 3.9366 70.8221 0.0000 29.6679 0.0000
# 4 0.0000 0.0000 0.0000 25.6619 0.0000 2.9442
# 5 16.1909 1.5220 29.6679 0.0000 31.7447 0.0000
# 6 0.0000 0.0000 0.0000 2.9442 0.0000 19.7872
#
#
#
# Elastic Compliance Matrix: (Units=1/GPa)
#
#
# Indices 1 2 3 4 5 6 
#
# 1 0.013023 -0.000226 -0.004514 0.000000 -0.002413 0.000000
# 2 -0.000226 0.011330 -0.000582 0.000000 0.000116 0.000000
# 3 -0.004514 -0.000582 0.024808 0.000000 -0.020854 0.000000
# 4 0.000000 0.000000 0.000000 0.039645 0.000000 -0.005899
# 5 -0.002413 0.000116 -0.020854 0.000000 0.052216 0.000000
# 6 0.000000 0.000000 0.000000 -0.005899 0.000000 0.051415
#
#
# Mechanical properties :
#
#
# Convention : Reuss Voigt Hill
#
# Bulk Modulus (GPa) = 25.96375 36.00934 30.98655
# Shear Modulus (GPa) = 23.15669 29.59752 26.37710
#
# Velocity S-wave (km/s) = 3.23553 3.65793 3.45320
# Velocity P-wave (km/s) = 5.06912 5.84121 5.46880
#
# Compressibility (1/GPa) = 0.03851524
#
# Stress axis : x y z
#
# Youngs Moduli (GPa) = 76.78999 88.26072 40.31030
#
# Poissons Ratio (x) = 0.01998 0.18195
# Poissons Ratio (y) = 0.01738 0.02347
# Poissons Ratio (z) = 0.34662 0.05139
#
# Static dielectric constant tensor:
#      x y z
#    x 3.537420 0.000000 0.283200 
#    y 0.000000 3.768530 0.000000 
#    z 0.283200 0.000000 4.062960 
# 
# 
# High freq. dielectric constant tensor:
#      x y z
#    x 1.865190 0.000000 0.017040 
#    y 0.000000 1.868790 0.000000 
#    z 0.017040 0.000000 1.880210 
# 
# From -- ./inp_files/125011.got.cif
#   From: 2010.06.25/outbox.cif.g09.slc.cpg/sg12_63_cif.got.tgz:125011.got - 2010.06.28 00:19:55.
