data_PCOD8115790
_publ_section_title
;
Structure prediction by ZEFSAII (Michael W. Deem and Ramdas Pophale) SiO2 
 PCOD8115790
Probable space group: C 2/M
;
_chemical_formula_sum "Si O2"
_cell_formula_units_Z 40
_cell_length_a 9.421690
_cell_length_b 19.924549
_cell_length_c 10.541955
_cell_angle_alpha 90.000000
_cell_angle_beta 76.664752
_cell_angle_gamma 90.000000
_cell_volume 1925.608065
_symmetry_space_group_name_H-M "C 2/M"
_symmetry_group_IT_number 12
_symmetry_cell_setting 'monoclinic'
loop_
_space_group_symop_operation_xyz
x,y,z
-x,y,-z
-x,-y,-z
x,-y,z
1/2+x,1/2+y,z
1/2-x,1/2+y,-z
1/2-x,1/2-y,-z
1/2+x,1/2-y,z
loop_
_atom_site_type_symbol
_atom_site_label
_atom_site_fract_x
_atom_site_fract_y
_atom_site_fract_z
Si Si1 0.870767 0.500000 0.123469
Si Si2 0.101267 0.367558 0.728097
Si Si3 0.328940 0.500000 0.052855
Si Si4 0.666878 0.422339 0.496474
Si Si5 0.855172 0.757963 0.096867
Si Si6 0.729493 0.116982 0.252520
O O1 0.880493 0.436303 0.206583
O O2 0.717958 0.500000 0.083193
O O3 0.000000 0.500000 0.000000
O O4 0.228500 0.368519 0.595792
O O5 0.120967 0.309332 0.827174
O O6 0.942358 0.367407 0.695318
O O7 0.262530 0.565849 0.132185
O O8 0.500000 0.500000 0.000000
O O9 0.500000 0.403115 0.500000
O O10 0.697438 0.500000 0.450713
O O11 0.698598 0.414712 0.638258
O O12 0.804089 0.812483 0.208107
O O13 0.750000 0.750000 0.000000
O O14 0.000000 0.783460 0.000000
#
# Coordination Sequence:
#
# PCOD8115790 Si02
#       6
#     4   8   4   8   8   8
#     4  12  22  41  70 101 135 174 235 288 340 416
#     4  12  25  45  72 101 138 186 232 285 347 412
#     4  12  26  39  68 105 137 176 233 288 352 408
#     4  11  27  46  71 105 140 180 234 294 347 404
#     4  12  26  46  70 104 147 182 227 284 348 417
#     4  12  25  46  71 100 140 186 231 285 348 412
#
# _framework density 20.772659999999998
#
# number of rings (size 3 to 8) (size 9 to 14) (size 15 to 20)
#    0.000    0.200    6.000    3.000    5.600    1.600 
#    0.000    0.000    0.000    0.000    0.000    0.000 
#    0.000    0.000    0.000    0.000    0.000    0.000 
#
# Total GULP energy -247999.247911 kJ/mol
# GULP energy per Si atom -12399.962396 kJ/mol
# Density = 2.072538 g / cm^3
# Si number density = 20.772660 Si / 1000 Ang^3
#
#
#
# Elastic Constant Matrix: (Units=GPa)
#
#
# Indices 1 2 3 4 5 6 
#
# 1 179.6084 35.2871 46.6806 0.0000 -5.1994 0.0000
# 2 35.2871 105.6295 21.7722 0.0000 -1.5212 0.0000
# 3 46.6806 21.7722 75.9965 0.0000 -3.0323 0.0000
# 4 0.0000 0.0000 0.0000 51.8980 0.0000 -6.9298
# 5 -5.1994 -1.5212 -3.0323 0.0000 47.4684 0.0000
# 6 0.0000 0.0000 0.0000 -6.9298 0.0000 29.6180
#
#
#
# Elastic Compliance Matrix: (Units=1/GPa)
#
#
# Indices 1 2 3 4 5 6 
#
# 1 0.006855 -0.001508 -0.003760 0.000000 0.000462 0.000000
# 2 -0.001508 0.010394 -0.002050 0.000000 0.000037 0.000000
# 3 -0.003760 -0.002050 0.016077 0.000000 0.000550 0.000000
# 4 0.000000 0.000000 0.000000 0.019890 0.000000 0.004654
# 5 0.000462 0.000037 0.000550 0.000000 0.021154 0.000000
# 6 0.000000 0.000000 0.000000 0.004654 0.000000 0.034852
#
#
# Mechanical properties :
#
#
# Convention : Reuss Voigt Hill
#
# Bulk Modulus (GPa) = 53.50518 63.19046 58.34782
# Shear Modulus (GPa) = 38.43580 42.96320 40.69950
#
# Velocity S-wave (km/s) = 4.30619 4.55274 4.43118
# Velocity P-wave (km/s) = 7.10899 7.62382 7.37090
#
# Compressibility (1/GPa) = 0.01868978
#
# Stress axis : x y z
#
# Youngs Moduli (GPa) = 145.88827 96.20990 62.20006
#
# Poissons Ratio (x) = 0.14511 0.23386
# Poissons Ratio (y) = 0.22003 0.12750
# Poissons Ratio (z) = 0.54852 0.19722
#
# Static dielectric constant tensor:
#      x y z
#    x 3.935870 0.000000 -1.314300 
#    y 0.000000 3.837910 0.000000 
#    z -1.314300 0.000000 -6.327740 
# 
# 
# High freq. dielectric constant tensor:
#      x y z
#    x 1.835260 0.000000 0.000440 
#    y 0.000000 1.815670 0.000000 
#    z 0.000440 0.000000 1.821910 
# 
# From -- ./inp_files/118990.got.cif
#   From: 2010.06.25/outbox.cif.g09.slc.cpg/sg12_60_cif.got.tgz:118990.got - 2010.06.28 00:19:55.
