data_PCOD8115218
_publ_section_title
;
Structure prediction by ZEFSAII (Michael W. Deem and Ramdas Pophale) SiO2 
 PCOD8115218
Probable space group: C 2/M
;
_chemical_formula_sum "Si O2"
_cell_formula_units_Z 56
_cell_length_a 18.021012
_cell_length_b 8.369181
_cell_length_c 19.961271
_cell_angle_alpha 90.000000
_cell_angle_beta 116.687744
_cell_angle_gamma 90.000000
_cell_volume 2689.856287
_symmetry_space_group_name_H-M "C 2/M"
_symmetry_group_IT_number 12
_symmetry_cell_setting 'monoclinic'
loop_
_space_group_symop_operation_xyz
x,y,z
-x,y,-z
-x,-y,-z
x,-y,z
1/2+x,1/2+y,z
1/2-x,1/2+y,-z
1/2-x,1/2-y,-z
1/2+x,1/2-y,z
loop_
_atom_site_type_symbol
_atom_site_label
_atom_site_fract_x
_atom_site_fract_y
_atom_site_fract_z
Si Si1 0.986212 0.685173 0.640866
Si Si2 0.195645 0.685284 0.222237
Si Si3 0.155169 0.315578 0.637785
Si Si4 0.299794 0.811661 0.927418
Si Si5 0.127542 0.187645 0.915746
Si Si6 0.666771 0.685142 0.498733
Si Si7 0.964924 0.814134 0.776515
O O1 0.989328 0.500000 0.662875
O O2 0.909940 0.714452 0.560398
O O3 0.977701 0.793283 0.702858
O O4 0.069423 0.738310 0.636723
O O5 0.221064 0.500000 0.235591
O O6 0.271197 0.790299 0.279783
O O7 0.178230 0.739778 0.138970
O O8 0.114402 0.713631 0.233230
O O9 0.152017 0.500000 0.614377
O O10 0.171773 0.206092 0.580339
O O11 0.208528 0.743907 0.909966
O O12 0.302836 0.000000 0.938400
O O13 0.368629 0.735449 0.004520
O O14 0.044429 0.257442 0.848199
O O15 0.124867 0.000000 0.906199
O O16 0.655604 0.500000 0.476151
O O17 0.750000 0.750000 0.500000
O O18 0.950091 0.000000 0.786526
#
# Coordination Sequence:
#
# PCOD8115218 Si02
#       7
#     8   8   8   8   8   8   8
#     4  11  24  42  64  90 120 154 195 242 291 346
#     4  11  23  39  59  85 119 156 197 243 293 349
#     4  11  24  42  64  90 120 154 195 242 291 346
#     4   9  19  36  58  83 112 149 193 241 292 348
#     4   9  19  36  58  83 112 149 193 241 292 348
#     4  12  25  42  65  91 123 159 195 238 289 344
#     4  11  23  39  59  85 119 156 197 243 293 349
#
# _framework density 20.818956
#
# number of rings (size 3 to 8) (size 9 to 14) (size 15 to 20)
#    0.000    1.429    0.000    5.143    0.000    8.000 
#    0.000    5.714    0.000    0.000    0.000    0.000 
#    0.000    0.000    0.000    0.000    0.000    0.000 
#
# Total GULP energy -347393.574607 kJ/mol
# GULP energy per Si atom -12406.913379 kJ/mol
# Density = 2.077157 g / cm^3
# Si number density = 20.818956 Si / 1000 Ang^3
#
#
#
# Elastic Constant Matrix: (Units=GPa)
#
#
# Indices 1 2 3 4 5 6 
#
# 1 130.7124 25.3754 43.5518 0.0000 -7.0725 0.0000
# 2 25.3754 38.6335 16.8887 0.0000 3.0478 0.0000
# 3 43.5518 16.8887 101.6069 0.0000 -10.6213 0.0000
# 4 0.0000 0.0000 0.0000 36.1273 0.0000 -2.7068
# 5 -7.0725 3.0478 -10.6213 0.0000 33.3677 0.0000
# 6 0.0000 0.0000 0.0000 -2.7068 0.0000 25.9758
#
#
#
# Elastic Compliance Matrix: (Units=1/GPa)
#
#
# Indices 1 2 3 4 5 6 
#
# 1 0.009796 -0.005165 -0.003180 0.000000 0.001536 0.000000
# 2 -0.005165 0.031207 -0.003502 0.000000 -0.005060 0.000000
# 3 -0.003180 -0.003502 0.012154 0.000000 0.003515 0.000000
# 4 0.000000 0.000000 0.000000 0.027898 0.000000 0.002907
# 5 0.001536 -0.005060 0.003515 0.000000 0.031876 0.000000
# 6 0.000000 0.000000 0.000000 0.002907 0.000000 0.038800
#
#
# Mechanical properties :
#
#
# Convention : Reuss Voigt Hill
#
# Bulk Modulus (GPa) = 33.94074 49.17605 41.55839
# Shear Modulus (GPa) = 26.99121 31.43660 29.21391
#
# Velocity S-wave (km/s) = 3.60456 3.89009 3.75004
# Velocity P-wave (km/s) = 5.80190 6.62187 6.22540
#
# Compressibility (1/GPa) = 0.02946312
#
# Stress axis : x y z
#
# Youngs Moduli (GPa) = 102.08640 32.04404 82.27578
#
# Poissons Ratio (x) = 0.16551 0.26160
# Poissons Ratio (y) = 0.52730 0.28814
# Poissons Ratio (z) = 0.32459 0.11222
#
# Static dielectric constant tensor:
#      x y z
#    x 3.899220 0.000000 0.081140 
#    y 0.000000 3.587580 0.000000 
#    z 0.081140 0.000000 3.872490 
# 
# 
# High freq. dielectric constant tensor:
#      x y z
#    x 1.819620 0.000000 0.000910 
#    y 0.000000 1.811350 0.000000 
#    z 0.000910 0.000000 1.828290 
# 
# From -- ./inp_files/314364.got.cif
#   From: 2010.06.25/outbox.cif.g09.slc.cpg/sg12_158_cif.got.tgz:314364.got - 2010.06.28 00:19:55.
