data_PCOD8115524
_publ_section_title
;
Structure prediction by ZEFSAII (Michael W. Deem and Ramdas Pophale) SiO2 
 PCOD8115524
Probable space group: C 2/M
;
_chemical_formula_sum "Si O2"
_cell_formula_units_Z 48
_cell_length_a 20.176470
_cell_length_b 18.012798
_cell_length_c 21.514709
_cell_angle_alpha 90.000000
_cell_angle_beta 20.300061
_cell_angle_gamma 90.000000
_cell_volume 2712.764053
_symmetry_space_group_name_H-M "C 2/M"
_symmetry_group_IT_number 12
_symmetry_cell_setting 'monoclinic'
loop_
_space_group_symop_operation_xyz
x,y,z
-x,y,-z
-x,-y,-z
x,-y,z
1/2+x,1/2+y,z
1/2-x,1/2+y,-z
1/2-x,1/2-y,-z
1/2+x,1/2-y,z
loop_
_atom_site_type_symbol
_atom_site_label
_atom_site_fract_x
_atom_site_fract_y
_atom_site_fract_z
Si Si1 0.643722 0.696615 0.045702
Si Si2 0.735343 0.196241 0.454310
Si Si3 0.371301 0.085659 0.249588
Si Si4 0.117141 0.305829 0.956858
Si Si5 0.031377 0.805176 0.542722
Si Si6 0.472425 0.085784 0.750414
O O1 0.444703 0.670526 0.249848
O O2 0.750000 0.750000 0.000000
O O3 0.608570 0.738304 0.012240
O O4 0.765746 0.623146 0.925665
O O5 0.750000 0.250000 0.500000
O O6 0.631152 0.237220 0.489642
O O7 0.619263 0.122477 0.573136
O O8 0.163482 0.122191 0.427474
O O9 0.450914 0.098663 0.248044
O O10 0.349268 0.000000 0.251782
O O11 0.519584 0.121009 0.070844
O O12 0.333657 0.326807 0.749623
O O13 0.000000 0.278915 0.000000
O O14 0.000000 0.778506 0.500000
O O15 0.452190 0.000000 0.750917
#
# Coordination Sequence:
#
# PCOD8115524 Si02
#       6
#     8   8   8   8   8   8
#     4  12  20  37  64  87 114 154 198 241 289 342
#     4  12  20  37  64  87 114 154 198 241 289 342
#     4  11  24  39  54  86 126 156 195 242 289 342
#     4  12  22  38  60  88 115 155 204 242 286 347
#     4  12  22  38  60  88 115 155 204 242 286 347
#     4  11  24  39  60  92 122 148 195 250 293 342
#
# _framework density 17.694129
#
# number of rings (size 3 to 8) (size 9 to 14) (size 15 to 20)
#    0.000    0.333   10.000    0.000    0.000    2.000 
#    0.000    3.333    0.000    1.000    0.000    0.000 
#    0.000    0.000    0.000    0.000    0.000    0.000 
#
# Total GULP energy -297737.235838 kJ/mol
# GULP energy per Si atom -12405.718160 kJ/mol
# Density = 1.765386 g / cm^3
# Si number density = 17.694129 Si / 1000 Ang^3
#
#
#
# Elastic Constant Matrix: (Units=GPa)
#
#
# Indices 1 2 3 4 5 6 
#
# 1 117.8109 65.8482 40.3581 -0.0034 3.1649 0.0045
# 2 65.8482 125.2247 71.1886 -0.0779 0.3320 0.0092
# 3 40.3581 71.1886 196.1477 -0.1048 -7.4605 0.0277
# 4 -0.0034 -0.0779 -0.1048 32.3081 0.0122 -0.4639
# 5 3.1649 0.3320 -7.4605 0.0122 26.8993 0.0055
# 6 0.0045 0.0092 0.0277 -0.4639 0.0055 23.0824
#
#
#
# Elastic Compliance Matrix: (Units=1/GPa)
#
#
# Indices 1 2 3 4 5 6 
#
# 1 0.012083 -0.006181 -0.000297 -0.000014 -0.001428 0.000001
# 2 -0.006181 0.013259 -0.003556 0.000020 -0.000423 0.000001
# 3 -0.000297 -0.003556 0.006522 0.000012 0.001888 -0.000007
# 4 -0.000014 0.000020 0.000012 0.030961 -0.000009 0.000622
# 5 -0.001428 -0.000423 0.001888 -0.000009 0.037872 -0.000011
# 6 0.000001 0.000001 -0.000007 0.000622 -0.000011 0.043336
#
#
# Mechanical properties :
#
#
# Convention : Reuss Voigt Hill
#
# Bulk Modulus (GPa) = 84.78444 88.21923 86.50183
# Shear Modulus (GPa) = 29.75595 33.91051 31.83323
#
# Velocity S-wave (km/s) = 4.10528 4.38252 4.24616
# Velocity P-wave (km/s) = 8.39594 8.69337 8.54595
#
# Compressibility (1/GPa) = 0.01179462
#
# Stress axis : x y z
#
# Youngs Moduli (GPa) = 82.75991 75.42163 153.33058
#
# Poissons Ratio (x) = 0.46619 0.04556
# Poissons Ratio (y) = 0.51155 0.54530
# Poissons Ratio (z) = 0.02459 0.26823
#
# Static dielectric constant tensor:
#      x y z
#    x 3.447300 -0.000100 -0.026990 
#    y -0.000100 3.152830 0.000520 
#    z -0.026990 0.000520 3.994950 
# 
# 
# High freq. dielectric constant tensor:
#      x y z
#    x 1.690840 0.000000 -0.001470 
#    y 0.000000 1.663380 0.000010 
#    z -0.001470 0.000010 1.709140 
# 
# From -- ./inp_files/285335.got.cif
#   From: 2010.06.25/outbox.cif.g09.slc.cpg/sg12_143_cif.got.tgz:285335.got - 2010.06.28 00:19:55.
