data_PCOD8115689
_publ_section_title
;
Structure prediction by ZEFSAII (Michael W. Deem and Ramdas Pophale) SiO2 
 PCOD8115689
Probable space group: C 2/M
;
_chemical_formula_sum "Si O2"
_cell_formula_units_Z 56
_cell_length_a 12.320695
_cell_length_b 24.484438
_cell_length_c 10.439301
_cell_angle_alpha 90.000000
_cell_angle_beta 117.670602
_cell_angle_gamma 90.000000
_cell_volume 2789.010021
_symmetry_space_group_name_H-M "C 2/M"
_symmetry_group_IT_number 12
_symmetry_cell_setting 'monoclinic'
loop_
_space_group_symop_operation_xyz
x,y,z
-x,y,-z
-x,-y,-z
x,-y,z
1/2+x,1/2+y,z
1/2-x,1/2+y,-z
1/2-x,1/2-y,-z
1/2+x,1/2-y,z
loop_
_atom_site_type_symbol
_atom_site_label
_atom_site_fract_x
_atom_site_fract_y
_atom_site_fract_z
Si Si1 0.243432 0.628974 0.556337
Si Si2 0.643651 0.437575 0.603131
Si Si3 0.030798 0.313173 0.323336
Si Si4 0.738532 0.152353 0.832301
Si Si5 0.965440 0.805301 0.616201
Si Si6 0.865031 0.269079 0.872416
Si Si7 0.181781 0.141294 0.857515
O O1 0.287006 0.579661 0.489575
O O2 0.102605 0.644360 0.452917
O O3 0.254531 0.614786 0.713731
O O4 0.324865 0.682729 0.570561
O O5 0.500000 0.430097 0.500000
O O6 0.677271 0.500000 0.649122
O O7 0.694549 0.405157 0.755973
O O8 0.002383 0.257911 0.384401
O O9 0.121945 0.295700 0.259603
O O10 0.904794 0.340969 0.210844
O O11 0.797367 0.211244 0.834811
O O12 0.803546 0.120597 0.987276
O O13 0.000000 0.834253 0.500000
O O14 0.048417 0.831211 0.773561
O O15 0.785113 0.311895 0.908173
O O16 0.000000 0.260620 0.000000
#
# Coordination Sequence:
#
# PCOD8115689 Si02
#       7
#     8   8   8   8   8   8   8
#     4  12  23  39  61  89 125 168 208 266 312 365
#     4  11  24  46  73  95 116 158 218 274 322 369
#     4  12  23  37  56  89 137 175 215 245 297 384
#     4  12  26  36  58  95 134 173 208 251 314 377
#     4  12  20  35  58  90 126 169 208 244 301 378
#     4  12  22  36  57  88 134 183 209 245 303 383
#     4  12  22  40  61  91 132 160 210 262 307 376
#
# _framework density 20.078810000000001
#
# number of rings (size 3 to 8) (size 9 to 14) (size 15 to 20)
#    0.000    0.143    8.571    3.000    0.000    0.000 
#    0.000    0.714    0.000    7.286    0.000    0.000 
#    0.000    0.000    0.000    0.000    0.000    0.000 
#
# Total GULP energy -347090.171902 kJ/mol
# GULP energy per Si atom -12396.077568 kJ/mol
# Density = 2.003311 g / cm^3
# Si number density = 20.078810 Si / 1000 Ang^3
#
#
#
# Elastic Constant Matrix: (Units=GPa)
#
#
# Indices 1 2 3 4 5 6 
#
# 1 65.4952 17.8104 43.4984 0.0000 4.0441 0.0000
# 2 17.8104 77.1227 30.5319 0.0000 -2.6660 0.0000
# 3 43.4984 30.5319 150.5072 0.0000 -12.9582 0.0000
# 4 0.0000 0.0000 0.0000 12.6033 0.0000 -0.6339
# 5 4.0441 -2.6660 -12.9582 0.0000 48.3495 0.0000
# 6 0.0000 0.0000 0.0000 -0.6339 0.0000 18.3103
#
#
#
# Elastic Compliance Matrix: (Units=1/GPa)
#
#
# Indices 1 2 3 4 5 6 
#
# 1 0.019802 -0.002511 -0.005495 0.000000 -0.003268 0.000000
# 2 -0.002511 0.014417 -0.002162 0.000000 0.000425 0.000000
# 3 -0.005495 -0.002162 0.008906 0.000000 0.002727 0.000000
# 4 0.000000 0.000000 0.000000 0.079483 0.000000 0.002752
# 5 -0.003268 0.000425 0.002727 0.000000 0.021710 0.000000
# 6 0.000000 0.000000 0.000000 0.002752 0.000000 0.054709
#
#
# Mechanical properties :
#
#
# Convention : Reuss Voigt Hill
#
# Bulk Modulus (GPa) = 43.88114 52.97852 48.42983
# Shear Modulus (GPa) = 22.03031 29.27158 25.65094
#
# Velocity S-wave (km/s) = 3.31598 3.82230 3.57811
# Velocity P-wave (km/s) = 6.04672 6.77662 6.42205
#
# Compressibility (1/GPa) = 0.02278884
#
# Stress axis : x y z
#
# Youngs Moduli (GPa) = 50.49907 69.36303 112.28585
#
# Poissons Ratio (x) = 0.17414 0.61703
# Poissons Ratio (y) = 0.12678 0.24281
# Poissons Ratio (z) = 0.27750 0.14999
#
# Static dielectric constant tensor:
#      x y z
#    x 3.835370 0.000000 -0.177230 
#    y 0.000000 3.237630 0.000000 
#    z -0.177230 0.000000 3.956930 
# 
# 
# High freq. dielectric constant tensor:
#      x y z
#    x 1.795830 0.000000 -0.003430 
#    y 0.000000 1.720150 0.000000 
#    z -0.003430 0.000000 1.805170 
# 
# From -- ./inp_files/135490.got.cif
#   From: 2010.06.25/outbox.cif.g09.slc.cpg/sg12_68_cif.got.tgz:135490.got - 2010.06.28 00:19:55.
