data_PCOD8115697
_publ_section_title
;
Structure prediction by ZEFSAII (Michael W. Deem and Ramdas Pophale) SiO2 
 PCOD8115697
Probable space group: C 2/M
;
_chemical_formula_sum "Si O2"
_cell_formula_units_Z 48
_cell_length_a 15.776097
_cell_length_b 28.213217
_cell_length_c 11.961516
_cell_angle_alpha 90.000000
_cell_angle_beta 154.006985
_cell_angle_gamma 90.000000
_cell_volume 2333.306513
_symmetry_space_group_name_H-M "C 2/M"
_symmetry_group_IT_number 12
_symmetry_cell_setting 'monoclinic'
loop_
_space_group_symop_operation_xyz
x,y,z
-x,y,-z
-x,-y,-z
x,-y,z
1/2+x,1/2+y,z
1/2-x,1/2+y,-z
1/2-x,1/2-y,-z
1/2+x,1/2-y,z
loop_
_atom_site_type_symbol
_atom_site_label
_atom_site_fract_x
_atom_site_fract_y
_atom_site_fract_z
Si Si1 0.500000 0.857377 0.500000
Si Si2 0.609797 0.383874 0.406863
Si Si3 0.493355 0.119716 0.245181
Si Si4 0.407419 0.685835 0.002184
Si Si5 0.637437 0.447104 0.771431
Si Si6 0.340269 0.780484 0.009414
Si Si7 0.000000 0.164982 0.500000
O O1 0.482483 0.890101 0.592200
O O2 0.320546 0.822354 0.272924
O O3 0.490769 0.433539 0.270441
O O4 0.601063 0.367558 0.525669
O O5 0.818303 0.394947 0.602397
O O6 0.493712 0.343548 0.205683
O O7 0.315023 0.090891 0.978655
O O8 0.475528 0.176721 0.211256
O O9 0.458505 0.741783 0.076183
O O10 0.500000 0.665541 0.000000
O O11 0.500000 0.445147 0.500000
O O12 0.722308 0.500000 0.887368
O O13 0.168224 0.801041 0.735464
O O14 0.250000 0.750000 0.000000
#
# Coordination Sequence:
#
# PCOD8115697 Si02
#       7
#     4   8   8   8   8   8   4
#     4  12  21  44  69  92 136 180 231 276 319 392
#     4  12  24  44  68  97 137 177 219 273 341 394
#     4  12  26  42  69 101 131 182 225 275 339 395
#     4  12  25  40  63  99 136 188 227 268 322 390
#     4  11  24  48  74  99 133 168 217 282 343 409
#     4  12  23  39  60  92 137 182 227 272 320 385
#     4  12  23  40  61  90 136 172 223 276 319 390
#
# _framework density 20.571664999999999
#
# number of rings (size 3 to 8) (size 9 to 14) (size 15 to 20)
#    0.000    0.167    9.167    0.500    2.333    3.333 
#    0.000    2.083    0.000    1.500    0.000    0.000 
#    0.000    0.000    0.000    0.000    0.000    0.000 
#
# Total GULP energy -297386.192585 kJ/mol
# GULP energy per Si atom -12391.091358 kJ/mol
# Density = 2.052484 g / cm^3
# Si number density = 20.571665 Si / 1000 Ang^3
#
#
#
# Elastic Constant Matrix: (Units=GPa)
#
#
# Indices 1 2 3 4 5 6 
#
# 1 142.1049 38.9015 46.6877 -0.0010 10.3136 0.0007
# 2 38.9015 125.4910 34.3579 -0.0005 3.5409 0.0003
# 3 46.6877 34.3579 99.0323 -0.0050 11.5733 0.0030
# 4 -0.0010 -0.0005 -0.0050 218.5091 -0.0018 -120.0578
# 5 10.3136 3.5409 11.5733 -0.0018 39.9320 0.0011
# 6 0.0007 0.0003 0.0030 -120.0578 0.0011 85.3355
#
#
#
# Elastic Compliance Matrix: (Units=1/GPa)
#
#
# Indices 1 2 3 4 5 6 
#
# 1 0.008702 -0.001744 -0.003367 0.000000 -0.001117 0.000000
# 2 -0.001744 0.009155 -0.002393 0.000000 0.000332 0.000000
# 3 -0.003367 -0.002393 0.012823 0.000000 -0.002635 0.000000
# 4 0.000000 0.000000 0.000000 0.020161 0.000000 0.028364
# 5 -0.001117 0.000332 -0.002635 0.000000 0.026065 0.000000
# 6 0.000000 0.000000 0.000000 0.028364 0.000000 0.051624
#
#
# Mechanical properties :
#
#
# Convention : Reuss Voigt Hill
#
# Bulk Modulus (GPa) = 63.80607 67.39139 65.59873
# Shear Modulus (GPa) = 33.61089 85.20073 59.40581
#
# Velocity S-wave (km/s) = 4.04647 6.44255 5.37961
# Velocity P-wave (km/s) = 7.27432 9.39002 8.39905
#
# Compressibility (1/GPa) = 0.01567249
#
# Stress axis : x y z
#
# Youngs Moduli (GPa) = 114.92002 109.22834 77.98535
#
# Poissons Ratio (x) = 0.19052 0.26255
# Poissons Ratio (y) = 0.20045 0.18660
# Poissons Ratio (z) = 0.38689 0.26136
#
# Static dielectric constant tensor:
#      x y z
#    x 4.023900 0.000000 -0.237940 
#    y 0.000000 3.467510 0.000000 
#    z -0.237940 0.000000 3.470760 
# 
# 
# High freq. dielectric constant tensor:
#      x y z
#    x 1.814810 0.000000 -0.004610 
#    y 0.000000 1.789830 0.000000 
#    z -0.004610 0.000000 1.807370 
# 
# From -- ./inp_files/149907.got.cif
#   From: 2010.06.25/outbox.cif.g09.slc.cpg/sg12_75_cif.got.tgz:149907.got - 2010.06.28 00:19:55.
