data_PCOD8115019
_publ_section_title
;
Structure prediction by ZEFSAII (Michael W. Deem and Ramdas Pophale) SiO2 
 PCOD8115019
Probable space group: C 2/M
;
_chemical_formula_sum "Si O2"
_cell_formula_units_Z 56
_cell_length_a 11.515432
_cell_length_b 17.312227
_cell_length_c 14.782284
_cell_angle_alpha 90.000000
_cell_angle_beta 75.111765
_cell_angle_gamma 90.000000
_cell_volume 2848.030295
_symmetry_space_group_name_H-M "C 2/M"
_symmetry_group_IT_number 12
_symmetry_cell_setting 'monoclinic'
loop_
_space_group_symop_operation_xyz
x,y,z
-x,y,-z
-x,-y,-z
x,-y,z
1/2+x,1/2+y,z
1/2-x,1/2+y,-z
1/2-x,1/2-y,-z
1/2+x,1/2-y,z
loop_
_atom_site_type_symbol
_atom_site_label
_atom_site_fract_x
_atom_site_fract_y
_atom_site_fract_z
Si Si1 0.526711 0.000000 0.848032
Si Si2 0.019607 0.183651 0.747131
Si Si3 0.802812 0.411463 0.454699
Si Si4 0.605807 0.687815 0.413382
Si Si5 0.715762 0.153694 0.349330
Si Si6 0.991044 0.640878 0.279895
Si Si7 0.429780 0.414572 0.926202
Si Si8 0.300526 0.000000 0.017228
O O1 0.544571 0.923605 0.785045
O O2 0.630475 0.000000 0.901595
O O3 0.394048 0.000000 0.916698
O O4 0.150192 0.144825 0.715052
O O5 0.946202 0.162335 0.672206
O O6 0.027160 0.275530 0.761759
O O7 0.947835 0.146942 0.844109
O O8 0.820646 0.500000 0.425314
O O9 0.673693 0.384297 0.443839
O O10 0.808278 0.402250 0.561354
O O11 0.907745 0.362986 0.385471
O O12 0.500000 0.715676 0.500000
O O13 0.697758 0.758425 0.384995
O O14 0.627781 0.129885 0.285434
O O15 0.481803 0.500000 0.889421
O O16 0.285580 0.423931 0.972768
O O17 0.500000 0.383220 0.000000
#
# Coordination Sequence:
#
# PCOD8115019 Si02
#       8
#     4   8   8   8   8   8   8   4
#     4  11  24  44  67  91 127 171 207 258 316 392
#     4  11  23  41  66  98 120 169 214 258 324 377
#     4  12  24  39  60  90 129 173 218 260 307 369
#     4  11  22  41  62  87 131 170 212 259 315 367
#     4  11  23  39  62  88 130 169 211 259 307 375
#     4  11  25  39  65  92 127 169 214 259 310 378
#     4   9  22  43  71  95 126 158 202 268 328 374
#     4   9  23  46  68  89 126 165 200 255 336 377
#
# _framework density 19.662711999999999
#
# number of rings (size 3 to 8) (size 9 to 14) (size 15 to 20)
#    0.429    0.857    3.571    2.571    5.000    2.000 
#    2.571    0.714    0.000    0.000    0.000    0.000 
#    0.000    0.000    0.000    0.000    0.000    0.000 
#
# Total GULP energy -347278.061607 kJ/mol
# GULP energy per Si atom -12402.787915 kJ/mol
# Density = 1.961796 g / cm^3
# Si number density = 19.662712 Si / 1000 Ang^3
#
#
#
# Elastic Constant Matrix: (Units=GPa)
#
#
# Indices 1 2 3 4 5 6 
#
# 1 93.7091 14.0023 29.4574 0.0000 -1.4169 0.0000
# 2 14.0023 67.8430 20.4497 0.0000 7.1749 0.0000
# 3 29.4574 20.4497 87.4681 0.0000 0.9074 0.0000
# 4 0.0000 0.0000 0.0000 29.7029 0.0000 -6.7489
# 5 -1.4169 7.1749 0.9074 0.0000 38.0695 0.0000
# 6 0.0000 0.0000 0.0000 -6.7489 0.0000 12.6635
#
#
#
# Elastic Compliance Matrix: (Units=1/GPa)
#
#
# Indices 1 2 3 4 5 6 
#
# 1 0.012075 -0.001452 -0.003735 0.000000 0.000812 0.000000
# 2 -0.001452 0.016359 -0.003304 0.000000 -0.003058 0.000000
# 3 -0.003735 -0.003304 0.013462 0.000000 0.000163 0.000000
# 4 0.000000 0.000000 0.000000 0.038305 0.000000 0.020414
# 5 0.000812 -0.003058 0.000163 0.000000 0.026871 0.000000
# 6 0.000000 0.000000 0.000000 0.020414 0.000000 0.089847
#
#
# Mechanical properties :
#
#
# Convention : Reuss Voigt Hill
#
# Bulk Modulus (GPa) = 40.14072 41.87104 41.00588
# Shear Modulus (GPa) = 22.50176 28.42790 25.46483
#
# Velocity S-wave (km/s) = 3.38655 3.80646 3.60263
# Velocity P-wave (km/s) = 5.97918 6.37650 6.18103
#
# Compressibility (1/GPa) = 0.02491236
#
# Stress axis : x y z
#
# Youngs Moduli (GPa) = 82.81699 61.12866 74.28582
#
# Poissons Ratio (x) = 0.08876 0.27749
# Poissons Ratio (y) = 0.12026 0.24543
# Poissons Ratio (z) = 0.30936 0.20196
#
# Static dielectric constant tensor:
#      x y z
#    x 3.706860 0.000000 0.032330 
#    y 0.000000 3.378440 0.000000 
#    z 0.032330 0.000000 3.417650 
# 
# 
# High freq. dielectric constant tensor:
#      x y z
#    x 1.782030 0.000000 0.001240 
#    y 0.000000 1.753540 0.000000 
#    z 0.001240 0.000000 1.757660 
# 
# From -- ./inp_files/206616.got.cif
#   From: 2010.06.25/outbox.cif.g09.slc.cpg/sg12_104_cif.got.tgz:206616.got - 2010.06.28 00:19:55.
