data_PCOD8115494
_publ_section_title
;
Structure prediction by ZEFSAII (Michael W. Deem and Ramdas Pophale) SiO2 
 PCOD8115494
Probable space group: C 2/M
;
_chemical_formula_sum "Si O2"
_cell_formula_units_Z 36
_cell_length_a 11.694892
_cell_length_b 23.592473
_cell_length_c 8.316844
_cell_angle_alpha 90.000000
_cell_angle_beta 139.799349
_cell_angle_gamma 90.000000
_cell_volume 1481.159589
_symmetry_space_group_name_H-M "C 2/M"
_symmetry_group_IT_number 12
_symmetry_cell_setting 'monoclinic'
loop_
_space_group_symop_operation_xyz
x,y,z
-x,y,-z
-x,-y,-z
x,-y,z
1/2+x,1/2+y,z
1/2-x,1/2+y,-z
1/2-x,1/2-y,-z
1/2+x,1/2-y,z
loop_
_atom_site_type_symbol
_atom_site_label
_atom_site_fract_x
_atom_site_fract_y
_atom_site_fract_z
Si Si1 0.500000 0.194790 0.500000
Si Si2 0.587021 0.500000 0.346979
Si Si3 0.707201 0.226372 0.280665
Si Si4 0.255406 0.598179 0.313607
Si Si5 0.060025 0.404965 0.795416
Si Si6 0.723212 0.000000 0.774545
O O1 0.676800 0.232975 0.709652
O O2 0.493836 0.156669 0.331815
O O3 0.588719 0.556330 0.460924
O O4 0.744990 0.500000 0.382499
O O5 0.405339 0.500000 0.060736
O O6 0.750000 0.250000 0.500000
O O7 0.792061 0.164135 0.380970
O O8 0.500000 0.225773 0.000000
O O9 0.094008 0.575515 0.249979
O O10 0.230532 0.594058 0.094857
O O11 0.104548 0.445750 0.694321
#
# Coordination Sequence:
#
# PCOD8115494 Si02
#       6
#     4   4   8   8   8   4
#     4  12  26  45  80 105 146 204 246 300 374 436
#     4  11  26  45  70 103 142 188 234 313 362 432
#     4  12  26  49  73 110 152 194 252 308 363 440
#     4  11  23  46  69 102 145 182 235 304 366 429
#     4  11  23  45  70 103 139 189 236 294 370 438
#     4  11  26  43  70 106 141 184 249 293 370 449
#
# _framework density 24.305282999999999
#
# number of rings (size 3 to 8) (size 9 to 14) (size 15 to 20)
#    0.000    0.667    4.444    2.667    0.000   12.000 
#    0.000    0.000    0.000    0.000    0.000    0.000 
#    0.000    0.000    0.000    0.000    0.000    0.000 
#
# Total GULP energy -223002.595809 kJ/mol
# GULP energy per Si atom -12389.033100 kJ/mol
# Density = 2.424996 g / cm^3
# Si number density = 24.305283 Si / 1000 Ang^3
#
#
#
# Elastic Constant Matrix: (Units=GPa)
#
#
# Indices 1 2 3 4 5 6 
#
# 1 79.1955 30.0595 35.2255 0.0000 -1.3574 0.0000
# 2 30.0595 186.3829 71.9940 0.0000 -6.4037 0.0000
# 3 35.2255 71.9940 154.5814 0.0000 -19.5276 0.0000
# 4 0.0000 0.0000 0.0000 68.1154 0.0000 -26.7557
# 5 -1.3574 -6.4037 -19.5276 0.0000 41.1731 0.0000
# 6 0.0000 0.0000 0.0000 -26.7557 0.0000 47.7240
#
#
#
# Elastic Compliance Matrix: (Units=1/GPa)
#
#
# Indices 1 2 3 4 5 6 
#
# 1 0.014339 -0.001262 -0.002813 0.000000 -0.001058 0.000000
# 2 -0.001262 0.006661 -0.002861 0.000000 -0.000362 0.000000
# 3 -0.002813 -0.002861 0.008908 0.000000 0.003687 0.000000
# 4 0.000000 0.000000 0.000000 0.018827 0.000000 0.010555
# 5 -0.001058 -0.000362 0.003687 0.000000 0.025945 0.000000
# 6 0.000000 0.000000 0.000000 0.010555 0.000000 0.026871
#
#
# Mechanical properties :
#
#
# Convention : Reuss Voigt Hill
#
# Bulk Modulus (GPa) = 62.35741 77.19087 69.77414
# Shear Modulus (GPa) = 41.40088 50.26124 45.83106
#
# Velocity S-wave (km/s) = 4.13167 4.55237 4.34711
# Velocity P-wave (km/s) = 6.96222 7.71102 7.34617
#
# Compressibility (1/GPa) = 0.01603659
#
# Stress axis : x y z
#
# Youngs Moduli (GPa) = 69.73845 150.11922 112.25553
#
# Poissons Ratio (x) = 0.18949 0.31581
# Poissons Ratio (y) = 0.08803 0.32111
# Poissons Ratio (z) = 0.19620 0.42943
#
# Static dielectric constant tensor:
#      x y z
#    x 4.751480 0.000000 -0.015350 
#    y 0.000000 4.818320 0.000000 
#    z -0.015350 0.000000 4.705510 
# 
# 
# High freq. dielectric constant tensor:
#      x y z
#    x 1.974570 0.000000 -0.015180 
#    y 0.000000 1.970850 0.000000 
#    z -0.015180 0.000000 1.980740 
# 
# From -- ./inp_files/52962.got.cif
#   From: 2010.06.25/outbox.cif.g09.slc.cpg/sg12_27_cif.got.tgz:52962.got - 2010.06.28 00:19:55.
