data_PCOD8115797
_publ_section_title
;
Structure prediction by ZEFSAII (Michael W. Deem and Ramdas Pophale) SiO2 
 PCOD8115797
Probable space group: C 2/M
;
_chemical_formula_sum "Si O2"
_cell_formula_units_Z 48
_cell_length_a 8.916980
_cell_length_b 24.729888
_cell_length_c 11.669114
_cell_angle_alpha 90.000000
_cell_angle_beta 55.806786
_cell_angle_gamma 90.000000
_cell_volume 2128.436007
_symmetry_space_group_name_H-M "C 2/M"
_symmetry_group_IT_number 12
_symmetry_cell_setting 'monoclinic'
loop_
_space_group_symop_operation_xyz
x,y,z
-x,y,-z
-x,-y,-z
x,-y,z
1/2+x,1/2+y,z
1/2-x,1/2+y,-z
1/2-x,1/2-y,-z
1/2+x,1/2-y,z
loop_
_atom_site_type_symbol
_atom_site_label
_atom_site_fract_x
_atom_site_fract_y
_atom_site_fract_z
Si Si1 0.755943 0.756588 0.634646
Si Si2 0.298120 0.614949 0.085493
Si Si3 0.417425 0.211818 0.913496
Si Si4 0.712186 0.060753 0.904124
Si Si5 0.687780 0.139275 0.369175
Si Si6 0.048037 0.134684 0.361839
O O1 0.750000 0.750000 0.500000
O O2 0.552533 0.759901 0.767558
O O3 0.844647 0.702251 0.652328
O O4 0.870424 0.807270 0.633633
O O5 0.146673 0.655312 0.107194
O O6 0.240371 0.600447 0.240009
O O7 0.500000 0.640650 0.000000
O O8 0.294598 0.565021 0.997893
O O9 0.500000 0.198898 0.000000
O O10 0.250000 0.250000 0.000000
O O11 0.807278 0.102998 0.777371
O O12 0.750192 0.000000 0.843968
O O13 0.500000 0.073174 0.000000
O O14 0.500000 0.115454 0.500000
O O15 0.855378 0.140760 0.383738
O O16 0.000000 0.102421 0.500000
#
# Coordination Sequence:
#
# PCOD8115797 Si02
#       6
#     8   8   8   8   8   8
#     4  12  25  42  65 101 147 199 241 280 341 421
#     4  12  24  44  70 101 139 180 238 293 366 426
#     4  12  26  41  63  97 144 191 243 293 346 420
#     4  11  27  52  81 106 133 182 244 308 371 427
#     4  12  27  43  64 107 150 196 233 281 347 428
#     4  12  26  47  73 104 148 192 242 293 350 424
#
# _framework density 22.551772
#
# number of rings (size 3 to 8) (size 9 to 14) (size 15 to 20)
#    0.000    0.167    3.333    6.500    7.000    0.667 
#    0.000    0.000    0.000    1.000    0.000    0.000 
#    0.000    0.000    0.000    0.000    0.000    0.000 
#
# Total GULP energy -297493.616111 kJ/mol
# GULP energy per Si atom -12395.567338 kJ/mol
# Density = 2.250044 g / cm^3
# Si number density = 22.551772 Si / 1000 Ang^3
#
#
#
# Elastic Constant Matrix: (Units=GPa)
#
#
# Indices 1 2 3 4 5 6 
#
# 1 137.0569 25.3686 82.4294 0.0000 -0.6284 0.0000
# 2 25.3686 67.9424 44.6788 0.0000 3.8238 0.0000
# 3 82.4294 44.6788 207.5266 0.0000 -9.2199 0.0000
# 4 0.0000 0.0000 0.0000 12.7602 0.0000 4.2438
# 5 -0.6284 3.8238 -9.2199 0.0000 50.4586 0.0000
# 6 0.0000 0.0000 0.0000 4.2438 0.0000 20.0881
#
#
#
# Elastic Compliance Matrix: (Units=1/GPa)
#
#
# Indices 1 2 3 4 5 6 
#
# 1 0.009688 -0.001222 -0.003605 0.000000 -0.000445 0.000000
# 2 -0.001222 0.017500 -0.003369 0.000000 -0.001957 0.000000
# 3 -0.003605 -0.003369 0.007042 0.000000 0.001497 0.000000
# 4 0.000000 0.000000 0.000000 0.084291 0.000000 -0.017807
# 5 -0.000445 -0.001957 0.001497 0.000000 0.020235 0.000000
# 6 0.000000 0.000000 0.000000 -0.017807 0.000000 0.053543
#
#
# Mechanical properties :
#
#
# Convention : Reuss Voigt Hill
#
# Bulk Modulus (GPa) = 56.05684 79.71996 67.88840
# Shear Modulus (GPa) = 23.29499 33.99798 28.64648
#
# Velocity S-wave (km/s) = 3.21745 3.88693 3.56793
# Velocity P-wave (km/s) = 6.22202 7.45458 6.86602
#
# Compressibility (1/GPa) = 0.01783904
#
# Stress axis : x y z
#
# Youngs Moduli (GPa) = 103.21528 57.14161 141.99549
#
# Poissons Ratio (x) = 0.06982 0.51189
# Poissons Ratio (y) = 0.12611 0.47843
# Poissons Ratio (z) = 0.37209 0.19253
#
# Static dielectric constant tensor:
#      x y z
#    x 4.354870 0.000000 0.107870 
#    y 0.000000 3.755860 0.000000 
#    z 0.107870 0.000000 4.664220 
# 
# 
# High freq. dielectric constant tensor:
#      x y z
#    x 1.917850 0.000000 -0.003000 
#    y 0.000000 1.838550 0.000000 
#    z -0.003000 0.000000 1.916300 
# 
# From -- ./inp_files/123476.got.cif
#   From: 2010.06.25/outbox.cif.g09.slc.cpg/sg12_62_cif.got.tgz:123476.got - 2010.06.28 00:19:55.
