data_PCOD8115612
_publ_section_title
;
Structure prediction by ZEFSAII (Michael W. Deem and Ramdas Pophale) SiO2 
 PCOD8115612
Probable space group: C 2/M
;
_chemical_formula_sum "Si O2"
_cell_formula_units_Z 32
_cell_length_a 12.013022
_cell_length_b 21.925690
_cell_length_c 5.567968
_cell_angle_alpha 90.000000
_cell_angle_beta 67.032326
_cell_angle_gamma 90.000000
_cell_volume 1350.306261
_symmetry_space_group_name_H-M "C 2/M"
_symmetry_group_IT_number 12
_symmetry_cell_setting 'monoclinic'
loop_
_space_group_symop_operation_xyz
x,y,z
-x,y,-z
-x,-y,-z
x,-y,z
1/2+x,1/2+y,z
1/2-x,1/2+y,-z
1/2-x,1/2-y,-z
1/2+x,1/2-y,z
loop_
_atom_site_type_symbol
_atom_site_label
_atom_site_fract_x
_atom_site_fract_y
_atom_site_fract_z
Si Si1 0.702190 0.500000 0.939259
Si Si2 0.178167 0.291671 0.875179
Si Si3 0.406605 0.304532 0.390135
Si Si4 0.000000 0.394607 0.000000
Si Si5 0.000000 0.092784 0.000000
Si Si6 0.146982 0.500000 0.684031
O O1 0.613792 0.557430 0.011710
O O2 0.779554 0.500000 0.626603
O O3 0.777696 0.500000 0.125305
O O4 0.273681 0.317668 0.603441
O O5 0.087951 0.245585 0.821587
O O6 0.250000 0.250000 0.000000
O O7 0.101866 0.350132 0.038473
O O8 0.500000 0.276392 0.500000
O O9 0.454702 0.368912 0.262196
O O10 0.936803 0.439011 0.249123
#
# Coordination Sequence:
#
# PCOD8115612 Si02
#       6
#     4   8   8   4   4   4
#     4  11  28  49  74 108 146 193 253 315 372 439
#     4  11  24  45  69 109 150 189 242 302 371 454
#     4  11  24  42  70 108 144 189 239 300 381 443
#     4  11  25  46  74 102 151 195 250 310 364 459
#     4  11  25  42  74 104 145 185 246 312 372 447
#     4  11  28  53  72 110 143 202 253 305 380 440
#
# _framework density 23.698328
#
# number of rings (size 3 to 8) (size 9 to 14) (size 15 to 20)
#    0.000    1.000    0.000    5.250   10.500    3.000 
#   13.500    0.000    0.000    0.000    0.000    0.000 
#    0.000    0.000    0.000    0.000    0.000    0.000 
#
# Total GULP energy -198269.797216 kJ/mol
# GULP energy per Si atom -12391.862326 kJ/mol
# Density = 2.364439 g / cm^3
# Si number density = 23.698328 Si / 1000 Ang^3
#
#
#
# Elastic Constant Matrix: (Units=GPa)
#
#
# Indices 1 2 3 4 5 6 
#
# 1 141.2898 80.7836 60.5132 0.0000 7.2402 0.0000
# 2 80.7836 177.0171 69.8466 0.0000 -14.5341 0.0000
# 3 60.5132 69.8466 135.7007 0.0000 -9.0972 0.0000
# 4 0.0000 0.0000 0.0000 61.0784 0.0000 -29.5328
# 5 7.2402 -14.5341 -9.0972 0.0000 54.8154 0.0000
# 6 0.0000 0.0000 0.0000 -29.5328 0.0000 88.7655
#
#
#
# Elastic Compliance Matrix: (Units=1/GPa)
#
#
# Indices 1 2 3 4 5 6 
#
# 1 0.010780 -0.004001 -0.002947 0.000000 -0.002974 0.000000
# 2 -0.004001 0.008665 -0.002514 0.000000 0.002409 0.000000
# 3 -0.002947 -0.002514 0.010071 0.000000 0.001394 0.000000
# 4 0.000000 0.000000 0.000000 0.019511 0.000000 0.006491
# 5 -0.002974 0.002409 0.001394 0.000000 0.019506 0.000000
# 6 0.000000 0.000000 0.000000 0.006491 0.000000 0.013425
#
#
# Mechanical properties :
#
#
# Convention : Reuss Voigt Hill
#
# Bulk Modulus (GPa) = 94.41915 97.36603 95.89259
# Shear Modulus (GPa) = 47.88689 57.12280 52.50485
#
# Velocity S-wave (km/s) = 4.50008 4.91492 4.71207
# Velocity P-wave (km/s) = 8.18105 8.56641 8.37595
#
# Compressibility (1/GPa) = 0.01059107
#
# Stress axis : x y z
#
# Youngs Moduli (GPa) = 92.76671 115.40946 99.29494
#
# Poissons Ratio (x) = 0.46172 0.29264
# Poissons Ratio (y) = 0.37113 0.24966
# Poissons Ratio (z) = 0.27340 0.29018
#
# Static dielectric constant tensor:
#      x y z
#    x 3.242780 0.000000 -0.492560 
#    y 0.000000 4.509740 0.000000 
#    z -0.492560 0.000000 4.249450 
# 
# 
# High freq. dielectric constant tensor:
#      x y z
#    x 1.957370 0.000000 -0.028620 
#    y 0.000000 1.950660 0.000000 
#    z -0.028620 0.000000 1.935950 
# 
# From -- ./inp_files/6866.got.cif
#   From: 2010.06.25/outbox.cif.g09.slc.cpg/sg12_4_cif.got.tgz:6866.got - 2010.06.28 00:19:55.
