data_PCOD8115965
_publ_section_title
;
Structure prediction by ZEFSAII (Michael W. Deem and Ramdas Pophale) SiO2 
 PCOD8115965
Probable space group: C 2/M
;
_chemical_formula_sum "Si O2"
_cell_formula_units_Z 56
_cell_length_a 33.442112
_cell_length_b 9.877715
_cell_length_c 17.683654
_cell_angle_alpha 90.000000
_cell_angle_beta 138.787320
_cell_angle_gamma 90.000000
_cell_volume 3848.687734
_symmetry_space_group_name_H-M "C 2/M"
_symmetry_group_IT_number 12
_symmetry_cell_setting 'monoclinic'
loop_
_space_group_symop_operation_xyz
x,y,z
-x,y,-z
-x,-y,-z
x,-y,z
1/2+x,1/2+y,z
1/2-x,1/2+y,-z
1/2-x,1/2-y,-z
1/2+x,1/2-y,z
loop_
_atom_site_type_symbol
_atom_site_label
_atom_site_fract_x
_atom_site_fract_y
_atom_site_fract_z
Si Si1 0.645991 0.838906 0.559943
Si Si2 0.810529 0.848512 0.667324
Si Si3 0.798147 0.155318 0.974807
Si Si4 0.331475 0.848661 0.571456
Si Si5 0.777845 0.839598 0.780793
Si Si6 0.163828 0.655309 0.843650
Si Si7 0.932925 0.661002 0.417016
O O1 0.633467 0.798090 0.454531
O O2 0.710240 0.776331 0.678879
O O3 0.593187 0.783432 0.540108
O O4 0.649551 0.000000 0.570393
O O5 0.739666 0.848263 0.547294
O O6 0.847459 0.750344 0.663691
O O7 0.818024 0.796007 0.764857
O O8 0.836937 0.000000 0.695397
O O9 0.838143 0.251341 0.084856
O O10 0.818403 0.000000 0.016251
O O11 0.809495 0.203926 0.904415
O O12 0.726895 0.172028 0.889537
O O13 0.352337 0.000000 0.623629
O O14 0.770364 0.000000 0.768621
O O15 0.153786 0.500000 0.854246
O O16 0.110503 0.707195 0.713061
O O17 0.935324 0.500000 0.422790
O O18 0.000000 0.722374 0.500000
#
# Coordination Sequence:
#
# PCOD8115965 Si02
#       7
#     8   8   8   8   8   8   8
#     4   8  12  20  33  49  69  95 125 151 177 213
#     4   8  13  20  31  47  67  91 119 146 171 205
#     4   9  15  24  39  54  72  99 127 150 178 222
#     4   8  13  20  31  46  67  94 118 141 174 214
#     4   8  12  20  34  50  69  96 125 148 173 213
#     4   9  16  25  37  55  76  95 121 157 189 213
#     4   9  15  23  37  56  76  98 127 160 187 212
#
# _framework density 14.550414999999999
#
# number of rings (size 3 to 8) (size 9 to 14) (size 15 to 20)
#    0.000    3.571    1.429    1.714    0.000    0.000 
#    0.000    0.714    0.000    2.143    0.000    0.000 
#    0.000    1.143    0.000   14.286    0.000    1.714 
#
# Total GULP energy -346914.129336 kJ/mol
# GULP energy per Si atom -12389.790333 kJ/mol
# Density = 1.451730 g / cm^3
# Si number density = 14.550415 Si / 1000 Ang^3
#
#
#
# Elastic Constant Matrix: (Units=GPa)
#
#
# Indices 1 2 3 4 5 6 
#
# 1 106.5298 38.6212 57.9198 0.0000 -33.5325 0.0000
# 2 38.6212 43.8481 31.6625 0.0000 -18.3177 0.0000
# 3 57.9198 31.6625 69.1806 0.0000 -22.3330 0.0000
# 4 0.0000 0.0000 0.0000 16.2936 0.0000 -8.6954
# 5 -33.5325 -18.3177 -22.3330 0.0000 29.8220 0.0000
# 6 0.0000 0.0000 0.0000 -8.6954 0.0000 15.2863
#
#
#
# Elastic Compliance Matrix: (Units=1/GPa)
#
#
# Indices 1 2 3 4 5 6 
#
# 1 0.021479 -0.005521 -0.011545 0.000000 0.012114 0.000000
# 2 -0.005521 0.039215 -0.009962 0.000000 0.010419 0.000000
# 3 -0.011545 -0.009962 0.029692 0.000000 0.003135 0.000000
# 4 0.000000 0.000000 0.000000 0.088126 0.000000 0.050129
# 5 0.012114 0.010419 0.003135 0.000000 0.055901 0.000000
# 6 0.000000 0.000000 0.000000 0.050129 0.000000 0.093933
#
#
# Mechanical properties :
#
#
# Convention : Reuss Voigt Hill
#
# Bulk Modulus (GPa) = 27.52560 52.88505 40.20533
# Shear Modulus (GPa) = 12.67385 18.37073 15.52229
#
# Velocity S-wave (km/s) = 2.95452 3.55710 3.26972
# Velocity P-wave (km/s) = 5.53149 7.30038 6.47661
#
# Compressibility (1/GPa) = 0.03632982
#
# Stress axis : x y z
#
# Youngs Moduli (GPa) = 46.55752 25.50050 33.67880
#
# Poissons Ratio (x) = 0.14079 0.38882
# Poissons Ratio (y) = 0.25705 0.33551
# Poissons Ratio (z) = 0.53751 0.25404
#
# Static dielectric constant tensor:
#      x y z
#    x 3.077710 0.000000 -0.366370 
#    y 0.000000 2.598160 0.000000 
#    z -0.366370 0.000000 2.706020 
# 
# 
# High freq. dielectric constant tensor:
#      x y z
#    x 1.545430 0.000000 -0.038640 
#    y 0.000000 1.517400 0.000000 
#    z -0.038640 0.000000 1.521370 
# 
# From -- ./inp_files/250577.got.cif
#   From: 2010.06.25/outbox.cif.g09.slc.cpg/sg12_126_cif.got.tgz:250577.got - 2010.06.28 00:19:55.
