data_PCOD8115230
_publ_section_title
;
Structure prediction by ZEFSAII (Michael W. Deem and Ramdas Pophale) SiO2 
 PCOD8115230
Probable space group: C 2/M
;
_chemical_formula_sum "Si O2"
_cell_formula_units_Z 56
_cell_length_a 11.552618
_cell_length_b 16.903967
_cell_length_c 18.862597
_cell_angle_alpha 90.000000
_cell_angle_beta 125.409967
_cell_angle_gamma 90.000000
_cell_volume 3002.220173
_symmetry_space_group_name_H-M "C 2/M"
_symmetry_group_IT_number 12
_symmetry_cell_setting 'monoclinic'
loop_
_space_group_symop_operation_xyz
x,y,z
-x,y,-z
-x,-y,-z
x,-y,z
1/2+x,1/2+y,z
1/2-x,1/2+y,-z
1/2-x,1/2-y,-z
1/2+x,1/2-y,z
loop_
_atom_site_type_symbol
_atom_site_label
_atom_site_fract_x
_atom_site_fract_y
_atom_site_fract_z
Si Si1 0.402497 0.845407 0.164964
Si Si2 0.876458 0.590550 0.007355
Si Si3 0.593816 0.336418 0.856122
Si Si4 0.826800 0.405877 0.672315
Si Si5 0.622812 0.586515 0.486304
Si Si6 0.895111 0.092686 0.898083
Si Si7 0.910031 0.905807 0.300271
O O1 0.425573 0.902969 0.106012
O O2 0.426483 0.756841 0.146928
O O3 0.519043 0.867066 0.265430
O O4 0.248002 0.857262 0.143804
O O5 0.838765 0.500000 0.975755
O O6 0.738448 0.643332 0.947771
O O7 0.000000 0.622021 0.000000
O O8 0.464514 0.380222 0.849107
O O9 0.600249 0.363618 0.777899
O O10 0.838932 0.500000 0.670527
O O11 0.755352 0.371167 0.573675
O O12 0.730695 0.382727 0.705866
O O13 0.500000 0.575685 0.500000
O O14 0.675096 0.500000 0.480488
O O15 0.551651 0.627595 0.391783
O O16 0.858634 0.000000 0.882402
O O17 0.000000 0.112147 0.000000
O O18 0.919667 0.000000 0.294190
#
# Coordination Sequence:
#
# PCOD8115230 Si02
#       7
#     8   8   8   8   8   8   8
#     4  12  25  36  56  82 115 148 187 231 281 329
#     4  11  23  39  61  83 107 139 183 235 287 333
#     4  12  25  36  56  82 115 148 187 231 281 329
#     4   9  17  33  58  84 111 139 180 230 280 334
#     4   7  12  26  53  85 107 135 175 223 277 333
#     4  11  24  42  60  75 107 159 202 224 266 341
#     4   9  17  33  58  84 111 139 180 230 280 334
#
# _framework density 18.652861999999999
#
# number of rings (size 3 to 8) (size 9 to 14) (size 15 to 20)
#    0.000    1.857    1.429    5.571    4.000    2.286 
#    0.000    0.714    0.000    0.857    0.000    4.000 
#    0.000    0.000    0.000    0.000    0.000    0.000 
#
# Total GULP energy -347100.489243 kJ/mol
# GULP energy per Si atom -12396.446044 kJ/mol
# Density = 1.861041 g / cm^3
# Si number density = 18.652862 Si / 1000 Ang^3
#
#
#
# Elastic Constant Matrix: (Units=GPa)
#
#
# Indices 1 2 3 4 5 6 
#
# 1 73.1711 11.4991 21.2708 0.0000 11.0530 0.0000
# 2 11.4991 47.6488 19.4058 0.0000 5.9458 0.0000
# 3 21.2708 19.4058 102.5148 0.0000 25.2418 0.0000
# 4 0.0000 0.0000 0.0000 10.7081 0.0000 3.4437
# 5 11.0530 5.9458 25.2418 0.0000 28.1907 0.0000
# 6 0.0000 0.0000 0.0000 3.4437 0.0000 17.2077
#
#
#
# Elastic Compliance Matrix: (Units=1/GPa)
#
#
# Indices 1 2 3 4 5 6 
#
# 1 0.015140 -0.002470 -0.001720 0.000000 -0.003875 0.000000
# 2 -0.002470 0.023175 -0.003732 0.000000 -0.000578 0.000000
# 3 -0.001720 -0.003732 0.013416 0.000000 -0.010551 0.000000
# 4 0.000000 0.000000 0.000000 0.099812 0.000000 -0.019975
# 5 -0.003875 -0.000578 -0.010551 0.000000 0.046562 0.000000
# 6 0.000000 0.000000 0.000000 -0.019975 0.000000 0.062111
#
#
# Mechanical properties :
#
#
# Convention : Reuss Voigt Hill
#
# Bulk Modulus (GPa) = 27.86475 36.40958 32.13716
# Shear Modulus (GPa) = 17.35984 22.63188 19.99586
#
# Velocity S-wave (km/s) = 3.05401 3.48705 3.27769
# Velocity P-wave (km/s) = 5.23517 5.98119 5.62057
#
# Compressibility (1/GPa) = 0.03588764
#
# Stress axis : x y z
#
# Youngs Moduli (GPa) = 66.04996 43.14986 74.53794
#
# Poissons Ratio (x) = 0.10657 0.12818
# Poissons Ratio (y) = 0.16313 0.27820
# Poissons Ratio (z) = 0.11358 0.16105
#
# Static dielectric constant tensor:
#      x y z
#    x 3.287190 0.000000 0.097990 
#    y 0.000000 3.141930 0.000000 
#    z 0.097990 0.000000 3.833640 
# 
# 
# High freq. dielectric constant tensor:
#      x y z
#    x 1.706680 0.000000 0.006490 
#    y 0.000000 1.699940 0.000000 
#    z 0.006490 0.000000 1.737340 
# 
# From -- ./inp_files/264288.got.cif
#   From: 2010.06.25/outbox.cif.g09.slc.cpg/sg12_133_cif.got.tgz:264288.got - 2010.06.28 00:19:55.
