data_PCOD8115882
_publ_section_title
;
Structure prediction by ZEFSAII (Michael W. Deem and Ramdas Pophale) SiO2 
 PCOD8115882
Probable space group: C 2/M
;
_chemical_formula_sum "Si O2"
_cell_formula_units_Z 52
_cell_length_a 8.749061
_cell_length_b 17.562120
_cell_length_c 21.295960
_cell_angle_alpha 90.000000
_cell_angle_beta 49.062637
_cell_angle_gamma 90.000000
_cell_volume 2471.882000
_symmetry_space_group_name_H-M "C 2/M"
_symmetry_group_IT_number 12
_symmetry_cell_setting 'monoclinic'
loop_
_space_group_symop_operation_xyz
x,y,z
-x,y,-z
-x,-y,-z
x,-y,z
1/2+x,1/2+y,z
1/2-x,1/2+y,-z
1/2-x,1/2-y,-z
1/2+x,1/2-y,z
loop_
_atom_site_type_symbol
_atom_site_label
_atom_site_fract_x
_atom_site_fract_y
_atom_site_fract_z
Si Si1 0.643876 0.912714 0.551765
Si Si2 0.081047 0.347705 0.693697
Si Si3 0.843854 0.500000 0.789654
Si Si4 0.302812 0.587451 0.375971
Si Si5 0.596426 0.500000 0.118470
Si Si6 0.342579 0.698783 0.741365
Si Si7 0.673136 0.000000 0.064148
Si Si8 0.884731 0.625361 0.091411
O O1 0.706809 0.862754 0.595421
O O2 0.402867 0.904557 0.607542
O O3 0.764193 0.884882 0.458030
O O4 0.698344 0.000000 0.550562
O O5 0.232750 0.318145 0.705538
O O6 0.977500 0.426136 0.741578
O O7 0.911391 0.285494 0.724436
O O8 0.642284 0.500000 0.800776
O O9 0.757833 0.500000 0.883051
O O10 0.378701 0.500000 0.354745
O O11 0.471727 0.640630 0.299965
O O12 0.694440 0.575313 0.121066
O O13 0.633378 0.500000 0.033474
O O14 0.191713 0.690746 0.841205
O O15 0.540227 0.925667 0.087831
O O16 0.000000 0.661658 0.000000
#
# Coordination Sequence:
#
# PCOD8115882 Si02
#       8
#     8   8   4   8   4   8   4   8
#     4   9  19  42  64 100 131 164 211 263 318 376
#     4  12  27  41  65  91 135 168 214 272 310 382
#     4  12  23  40  66  96 124 171 212 274 312 377
#     4   9  21  38  71  97 130 169 209 260 321 388
#     4   9  21  33  69  94 124 163 214 264 327 379
#     4  12  26  42  62  95 128 173 219 259 326 379
#     4   9  17  41  61  96 122 161 217 270 312 378
#     4   9  20  40  64  92 131 170 209 263 320 382
#
# _framework density 21.036604000000001
#
# number of rings (size 3 to 8) (size 9 to 14) (size 15 to 20)
#    0.000    1.846    2.308    3.000    7.538    1.231 
#    0.000    3.846    0.000    0.000    0.000    0.000 
#    0.000    0.000    0.000    0.000    0.000    0.000 
#
# Total GULP energy -322390.514522 kJ/mol
# GULP energy per Si atom -12399.635174 kJ/mol
# Density = 2.098872 g / cm^3
# Si number density = 21.036604 Si / 1000 Ang^3
#
#
#
# Elastic Constant Matrix: (Units=GPa)
#
#
# Indices 1 2 3 4 5 6 
#
# 1 65.6301 18.8812 7.9913 -0.0042 2.9938 0.0026
# 2 18.8812 97.1423 27.7520 -0.0029 0.8576 0.0019
# 3 7.9913 27.7520 88.5354 -0.0068 15.4935 0.0064
# 4 -0.0042 -0.0029 -0.0068 11.6335 0.0030 1.4361
# 5 2.9938 0.8576 15.4935 0.0030 37.1615 -0.0024
# 6 0.0026 0.0019 0.0064 1.4361 -0.0024 17.9415
#
#
#
# Elastic Compliance Matrix: (Units=1/GPa)
#
#
# Indices 1 2 3 4 5 6 
#
# 1 0.016203 -0.003050 -0.000313 0.000005 -0.001104 -0.000003
# 2 -0.003050 0.011940 -0.003735 -0.000001 0.001527 0.000001
# 3 -0.000313 -0.003735 0.013456 0.000009 -0.005499 -0.000006
# 4 0.000005 -0.000001 0.000009 0.086817 -0.000012 -0.006949
# 5 -0.001104 0.001527 -0.005499 -0.000012 0.029256 0.000007
# 6 -0.000003 0.000001 -0.000006 -0.006949 0.000007 0.056293
#
#
# Mechanical properties :
#
#
# Convention : Reuss Voigt Hill
#
# Bulk Modulus (GPa) = 36.49173 40.06187 38.27680
# Shear Modulus (GPa) = 21.07078 26.45952 23.76515
#
# Velocity S-wave (km/s) = 3.16828 3.55037 3.36475
# Velocity P-wave (km/s) = 5.54693 5.99100 5.77324
#
# Compressibility (1/GPa) = 0.02740347
#
# Stress axis : x y z
#
# Youngs Moduli (GPa) = 61.71731 83.74863 74.31545
#
# Poissons Ratio (x) = 0.25544 0.02327
# Poissons Ratio (y) = 0.18824 0.27755
# Poissons Ratio (z) = 0.01933 0.31278
#
# Static dielectric constant tensor:
#      x y z
#    x 3.699770 0.000000 0.218040 
#    y 0.000000 3.529530 0.000000 
#    z 0.218040 0.000000 3.994920 
# 
# 
# High freq. dielectric constant tensor:
#      x y z
#    x 1.822390 0.000000 0.014080 
#    y 0.000000 1.802210 0.000000 
#    z 0.014080 0.000000 1.837580 
# 
# From -- ./inp_files/256588.got.cif
#   From: 2010.06.25/outbox.cif.g09.slc.cpg/sg12_129_cif.got.tgz:256588.got - 2010.06.28 00:19:55.
