data_PCOD8115340
_publ_section_title
;
Structure prediction by ZEFSAII (Michael W. Deem and Ramdas Pophale) SiO2 
 PCOD8115340
Probable space group: C 2/M
;
_chemical_formula_sum "Si O2"
_cell_formula_units_Z 36
_cell_length_a 15.622939
_cell_length_b 23.760327
_cell_length_c 7.966415
_cell_angle_alpha 90.000000
_cell_angle_beta 34.097898
_cell_angle_gamma 90.000000
_cell_volume 1657.821794
_symmetry_space_group_name_H-M "C 2/M"
_symmetry_group_IT_number 12
_symmetry_cell_setting 'monoclinic'
loop_
_space_group_symop_operation_xyz
x,y,z
-x,y,-z
-x,-y,-z
x,-y,z
1/2+x,1/2+y,z
1/2-x,1/2+y,-z
1/2-x,1/2-y,-z
1/2+x,1/2-y,z
loop_
_atom_site_type_symbol
_atom_site_label
_atom_site_fract_x
_atom_site_fract_y
_atom_site_fract_z
Si Si1 0.000000 0.825365 0.500000
Si Si2 0.209675 0.646198 0.831753
Si Si3 0.962588 0.563748 0.368606
Si Si4 0.679505 0.624737 0.718982
Si Si5 0.905970 0.768367 0.982431
O O1 0.147745 0.866580 0.274721
O O2 0.995823 0.786543 0.339578
O O3 0.260494 0.639871 0.560089
O O4 0.175171 0.710876 0.932987
O O5 0.066979 0.605484 0.090846
O O6 0.999574 0.500000 0.254130
O O7 0.783011 0.575070 0.627225
O O8 0.000000 0.574048 0.500000
O O9 0.707155 0.679587 0.791580
O O10 0.500000 0.607340 0.000000
O O11 0.000000 0.758421 0.000000
#
# Coordination Sequence:
#
# PCOD8115340 Si02
#       5
#     4   8   8   8   8
#     4  12  24  40  65 106 139 194 232 284 358 420
#     4  12  25  42  72  99 145 187 236 294 346 428
#     4  11  27  48  71 103 140 185 241 299 351 415
#     4  11  23  45  72 100 145 183 232 292 349 424
#     4  11  23  41  65 103 146 182 234 284 354 419
#
# _framework density 21.715240000000001
#
# number of rings (size 3 to 8) (size 9 to 14) (size 15 to 20)
#    0.000    0.667    4.444    4.667    4.667    2.222 
#    0.000    0.556    0.000    0.000    0.000    0.000 
#    0.000    0.000    0.000    0.000    0.000    0.000 
#
# Total GULP energy -223116.536473 kJ/mol
# GULP energy per Si atom -12395.363137 kJ/mol
# Density = 2.166582 g / cm^3
# Si number density = 21.715240 Si / 1000 Ang^3
#
#
#
# Elastic Constant Matrix: (Units=GPa)
#
#
# Indices 1 2 3 4 5 6 
#
# 1 103.3978 50.7806 48.6260 0.0000 -12.3007 0.0000
# 2 50.7806 92.8598 63.1540 0.0000 -4.5385 0.0000
# 3 48.6260 63.1540 135.8688 0.0000 -1.2394 0.0000
# 4 0.0000 0.0000 0.0000 16.9882 0.0000 -5.8992
# 5 -12.3007 -4.5385 -1.2394 0.0000 44.7763 0.0000
# 6 0.0000 0.0000 0.0000 -5.8992 0.0000 21.8231
#
#
#
# Elastic Compliance Matrix: (Units=1/GPa)
#
#
# Indices 1 2 3 4 5 6 
#
# 1 0.014045 -0.006033 -0.002193 0.000000 0.003186 0.000000
# 2 -0.006033 0.018426 -0.006405 0.000000 0.000033 0.000000
# 3 -0.002193 -0.006405 0.011114 0.000000 -0.000944 0.000000
# 4 0.000000 0.000000 0.000000 0.064962 0.000000 0.017560
# 5 0.003186 0.000033 -0.000944 0.000000 0.023186 0.000000
# 6 0.000000 0.000000 0.000000 0.017560 0.000000 0.050570
#
#
# Mechanical properties :
#
#
# Convention : Reuss Voigt Hill
#
# Bulk Modulus (GPa) = 69.82560 73.02750 71.42655
# Shear Modulus (GPa) = 23.11191 28.02193 25.56692
#
# Velocity S-wave (km/s) = 3.26593 3.59615 3.43501
# Velocity P-wave (km/s) = 6.81518 7.13762 6.97826
#
# Compressibility (1/GPa) = 0.01432139
#
# Stress axis : x y z
#
# Youngs Moduli (GPa) = 71.20073 54.27135 89.98041
#
# Poissons Ratio (x) = 0.32743 0.19734
# Poissons Ratio (y) = 0.42957 0.57634
# Poissons Ratio (z) = 0.15615 0.34762
#
# Static dielectric constant tensor:
#      x y z
#    x 4.396090 0.000000 -0.369680 
#    y 0.000000 3.848900 0.000000 
#    z -0.369680 0.000000 4.462300 
# 
# 
# High freq. dielectric constant tensor:
#      x y z
#    x 1.874680 0.000000 0.003990 
#    y 0.000000 1.822870 0.000000 
#    z 0.003990 0.000000 1.864630 
# 
# From -- ./inp_files/39543.got.cif
#   From: 2010.06.25/outbox.cif.g09.slc.cpg/sg12_20_cif.got.tgz:39543.got - 2010.06.28 00:19:55.
