data_PCOD8115801
_publ_section_title
;
Structure prediction by ZEFSAII (Michael W. Deem and Ramdas Pophale) SiO2 
 PCOD8115801
Probable space group: C 2/M
;
_chemical_formula_sum "Si O2"
_cell_formula_units_Z 20
_cell_length_a 13.007630
_cell_length_b 13.481368
_cell_length_c 9.197342
_cell_angle_alpha 90.000000
_cell_angle_beta 135.001698
_cell_angle_gamma 90.000000
_cell_volume 1140.424676
_symmetry_space_group_name_H-M "C 2/M"
_symmetry_group_IT_number 12
_symmetry_cell_setting 'monoclinic'
loop_
_space_group_symop_operation_xyz
x,y,z
-x,y,-z
-x,-y,-z
x,-y,z
1/2+x,1/2+y,z
1/2-x,1/2+y,-z
1/2-x,1/2-y,-z
1/2+x,1/2-y,z
loop_
_atom_site_type_symbol
_atom_site_label
_atom_site_fract_x
_atom_site_fract_y
_atom_site_fract_z
Si Si1 0.733875 0.385903 0.771529
Si Si2 0.500000 0.249999 0.000000
Si Si3 0.537607 0.614095 0.303728
O O1 0.783271 0.500000 0.827673
O O2 0.619228 0.363224 0.783864
O O3 0.663266 0.362155 0.545030
O O4 0.872896 0.317882 0.937557
O O5 0.435341 0.317876 0.808222
O O6 0.546563 0.500000 0.263614
#
# Coordination Sequence:
#
# PCOD8115801 Si02
#       3
#     8   4   8
#     4   9  19  34  48  66  96 127 151 183 232 281
#     4  12  18  28  52  78  88 112 162 204 220 254
#     4   9  19  34  48  66  96 127 151 183 232 281
#
# _framework density 17.537327000000001
#
# number of rings (size 3 to 8) (size 9 to 14) (size 15 to 20)
#    0.000    2.400    0.000    6.000    0.000    0.000 
#    0.000    0.000    0.000    0.000    0.000   33.600 
#    0.000    0.000    0.000    0.000    0.000    0.000 
#
# Total GULP energy -124020.739155 kJ/mol
# GULP energy per Si atom -12402.073916 kJ/mol
# Density = 1.749741 g / cm^3
# Si number density = 17.537327 Si / 1000 Ang^3
#
#
#
# Elastic Constant Matrix: (Units=GPa)
#
#
# Indices 1 2 3 4 5 6 
#
# 1 35.0593 22.9488 3.6568 0.0000 0.8560 0.0000
# 2 22.9488 66.9715 22.4705 0.0000 0.0990 0.0000
# 3 3.6568 22.4705 34.6575 0.0000 -0.8179 0.0000
# 4 0.0000 0.0000 0.0000 19.2754 0.0000 -0.1333
# 5 0.8560 0.0990 -0.8179 0.0000 32.2289 0.0000
# 6 0.0000 0.0000 0.0000 -0.1333 0.0000 19.2970
#
#
#
# Elastic Compliance Matrix: (Units=1/GPa)
#
#
# Indices 1 2 3 4 5 6 
#
# 1 0.037625 -0.014765 0.005584 0.000000 -0.000812 0.000000
# 2 -0.014765 0.024882 -0.014576 0.000000 -0.000054 0.000000
# 3 0.005584 -0.014576 0.037735 0.000000 0.000854 0.000000
# 4 0.000000 0.000000 0.000000 0.051882 0.000000 0.000358
# 5 -0.000812 -0.000054 0.000854 0.000000 0.031071 0.000000
# 6 0.000000 0.000000 0.000000 0.000358 0.000000 0.051824
#
#
# Mechanical properties :
#
#
# Convention : Reuss Voigt Hill
#
# Bulk Modulus (GPa) = 18.96505 26.09340 22.52922
# Shear Modulus (GPa) = 16.66054 20.00107 18.33081
#
# Velocity S-wave (km/s) = 3.08556 3.38077 3.23653
# Velocity P-wave (km/s) = 4.85096 5.49095 5.18085
#
# Compressibility (1/GPa) = 0.05272856
#
# Stress axis : x y z
#
# Youngs Moduli (GPa) = 26.57776 40.18984 26.50048
#
# Poissons Ratio (x) = 0.59342 -0.14798
# Poissons Ratio (y) = 0.39243 0.38627
# Poissons Ratio (z) = -0.14842 0.58580
#
# Static dielectric constant tensor:
#      x y z
#    x 3.059960 0.000000 0.000250 
#    y 0.000000 3.198540 0.000000 
#    z 0.000250 0.000000 3.059940 
# 
# 
# High freq. dielectric constant tensor:
#      x y z
#    x 1.671360 0.000000 0.000010 
#    y 0.000000 1.683350 0.000000 
#    z 0.000010 0.000000 1.671320 
# 
# From -- ./inp_files/36870.got.cif
#   From: 2010.06.25/outbox.cif.g09.slc.cpg/sg12_19_cif.got.tgz:36870.got - 2010.06.28 00:19:55.
