data_PCOD8115202
_publ_section_title
;
Structure prediction by ZEFSAII (Michael W. Deem and Ramdas Pophale) SiO2 
 PCOD8115202
Probable space group: C 2/M
;
_chemical_formula_sum "Si O2"
_cell_formula_units_Z 48
_cell_length_a 24.685238
_cell_length_b 10.784417
_cell_length_c 9.627743
_cell_angle_alpha 90.000000
_cell_angle_beta 116.898560
_cell_angle_gamma 90.000000
_cell_volume 2285.758178
_symmetry_space_group_name_H-M "C 2/M"
_symmetry_group_IT_number 12
_symmetry_cell_setting 'monoclinic'
loop_
_space_group_symop_operation_xyz
x,y,z
-x,y,-z
-x,-y,-z
x,-y,z
1/2+x,1/2+y,z
1/2-x,1/2+y,-z
1/2-x,1/2-y,-z
1/2+x,1/2-y,z
loop_
_atom_site_type_symbol
_atom_site_label
_atom_site_fract_x
_atom_site_fract_y
_atom_site_fract_z
Si Si1 0.493859 0.640609 0.646928
Si Si2 0.885966 0.734868 0.685365
Si Si3 0.318630 0.144287 0.342850
Si Si4 0.323060 0.641339 0.855030
Si Si5 0.473229 0.000000 0.313905
Si Si6 0.109184 0.263366 0.825943
Si Si7 0.443271 0.000000 0.834294
O O1 0.500000 0.699885 0.500000
O O2 0.470817 0.500000 0.614241
O O3 0.447118 0.717680 0.683923
O O4 0.562446 0.647840 0.784804
O O5 0.837701 0.688086 0.517140
O O6 0.856500 0.840998 0.746131
O O7 0.902735 0.622420 0.809299
O O8 0.247581 0.166361 0.247886
O O9 0.351623 0.232307 0.269259
O O10 0.336357 0.000000 0.337961
O O11 0.334301 0.500000 0.917955
O O12 0.345524 0.743047 0.992868
O O13 0.500000 0.000000 0.500000
O O14 0.432755 0.884486 0.219336
O O15 0.535467 0.000000 0.300705
O O16 0.500000 0.000000 0.000000
#
# Coordination Sequence:
#
# PCOD8115202 Si02
#       7
#     8   8   8   8   4   8   4
#     4  11  23  38  64  97 130 169 209 259 324 399
#     4  12  23  43  69  93 134 171 220 275 336 393
#     4  11  23  44  69  95 126 174 230 277 328 387
#     4  11  27  45  63  92 135 182 224 269 323 393
#     4  12  22  38  70 106 126 164 208 267 344 394
#     4  12  22  42  68  97 133 164 217 274 336 391
#     4  12  24  38  62 102 132 160 204 271 343 401
#
# _framework density 20.999597999999999
#
# number of rings (size 3 to 8) (size 9 to 14) (size 15 to 20)
#    0.000    0.500    5.000    4.500    0.000    0.000 
#    0.000    1.667    7.333    0.000    0.000    0.000 
#    0.000    0.000    0.000    0.000    0.000    0.000 
#
# Total GULP energy -297590.945893 kJ/mol
# GULP energy per Si atom -12399.622746 kJ/mol
# Density = 2.095180 g / cm^3
# Si number density = 20.999598 Si / 1000 Ang^3
#
#
#
# Elastic Constant Matrix: (Units=GPa)
#
#
# Indices 1 2 3 4 5 6 
#
# 1 99.6870 34.4463 26.7443 0.0000 11.1232 0.0000
# 2 34.4463 91.5040 37.7836 0.0000 11.1683 0.0000
# 3 26.7443 37.7836 121.1767 0.0000 24.2659 0.0000
# 4 0.0000 0.0000 0.0000 33.3023 0.0000 1.8745
# 5 11.1232 11.1683 24.2659 0.0000 35.5933 0.0000
# 6 0.0000 0.0000 0.0000 1.8745 0.0000 25.0786
#
#
#
# Elastic Compliance Matrix: (Units=1/GPa)
#
#
# Indices 1 2 3 4 5 6 
#
# 1 0.011828 -0.003793 -0.001072 0.000000 -0.001775 0.000000
# 2 -0.003793 0.013827 -0.003292 0.000000 -0.000909 0.000000
# 3 -0.001072 -0.003292 0.010703 0.000000 -0.005929 0.000000
# 4 0.000000 0.000000 0.000000 0.030155 0.000000 -0.002254
# 5 -0.001775 -0.000909 -0.005929 0.000000 0.032977 0.000000
# 6 0.000000 0.000000 0.000000 -0.002254 0.000000 0.040043
#
#
# Mechanical properties :
#
#
# Convention : Reuss Voigt Hill
#
# Bulk Modulus (GPa) = 49.89457 56.70178 53.29818
# Shear Modulus (GPa) = 30.76396 33.02106 31.89251
#
# Velocity S-wave (km/s) = 3.83166 3.96973 3.90130
# Velocity P-wave (km/s) = 6.58687 6.93337 6.76234
#
# Compressibility (1/GPa) = 0.02004226
#
# Stress axis : x y z
#
# Youngs Moduli (GPa) = 84.54638 72.32401 93.43371
#
# Poissons Ratio (x) = 0.27433 0.10019
# Poissons Ratio (y) = 0.32069 0.30759
# Poissons Ratio (z) = 0.09066 0.23810
#
# Static dielectric constant tensor:
#      x y z
#    x 3.888760 0.000000 0.036470 
#    y 0.000000 3.844170 0.000000 
#    z 0.036470 0.000000 3.777790 
# 
# 
# High freq. dielectric constant tensor:
#      x y z
#    x 1.831250 0.000000 0.006350 
#    y 0.000000 1.823970 0.000000 
#    z 0.006350 0.000000 1.827570 
# 
# From -- ./inp_files/95020.got.cif
#   From: 2010.06.25/outbox.cif.g09.slc.cpg/sg12_48_cif.got.tgz:95020.got - 2010.06.28 00:19:55.
