data_PCOD8115435
_publ_section_title
;
Structure prediction by ZEFSAII (Michael W. Deem and Ramdas Pophale) SiO2 
 PCOD8115435
Probable space group: C 2/M
;
_chemical_formula_sum "Si O2"
_cell_formula_units_Z 32
_cell_length_a 13.939760
_cell_length_b 15.999503
_cell_length_c 10.463070
_cell_angle_alpha 90.000000
_cell_angle_beta 143.338483
_cell_angle_gamma 90.000000
_cell_volume 1393.343412
_symmetry_space_group_name_H-M "C 2/M"
_symmetry_group_IT_number 12
_symmetry_cell_setting 'monoclinic'
loop_
_space_group_symop_operation_xyz
x,y,z
-x,y,-z
-x,-y,-z
x,-y,z
1/2+x,1/2+y,z
1/2-x,1/2+y,-z
1/2-x,1/2-y,-z
1/2+x,1/2-y,z
loop_
_atom_site_type_symbol
_atom_site_label
_atom_site_fract_x
_atom_site_fract_y
_atom_site_fract_z
Si Si1 0.163761 0.821463 0.231052
Si Si2 0.388254 0.500000 0.186720
Si Si3 0.762746 0.000000 0.334422
Si Si4 0.709244 0.839841 0.898603
Si Si5 0.619504 0.145453 0.314754
O O1 0.296856 0.823261 0.260625
O O2 0.234700 0.868232 0.429193
O O3 0.118886 0.730358 0.235356
O O4 0.000000 0.862511 0.000000
O O5 0.302958 0.500000 0.230662
O O6 0.579270 0.500000 0.408072
O O7 0.338154 0.413838 0.062145
O O8 0.647201 0.077887 0.235928
O O9 0.540436 0.869344 0.774384
O O10 0.750000 0.750000 0.000000
#
# Coordination Sequence:
#
# PCOD8115435 Si02
#       5
#     8   4   4   8   8
#     4  11  23  43  68 102 136 183 229 282 343 412
#     4  11  27  44  71 106 137 185 231 289 352 412
#     4  11  25  46  67 102 143 175 237 293 341 417
#     4  12  24  44  71 102 141 182 232 284 348 412
#     4  11  25  43  70 101 139 182 232 283 350 410
#
# _framework density 22.966341
#
# number of rings (size 3 to 8) (size 9 to 14) (size 15 to 20)
#    0.000    0.750    2.500    4.500    3.500    2.000 
#    0.000    5.000    0.000    0.000    0.000    0.000 
#    0.000    0.000    0.000    0.000    0.000    0.000 
#
# Total GULP energy -198303.674039 kJ/mol
# GULP energy per Si atom -12393.979627 kJ/mol
# Density = 2.291407 g / cm^3
# Si number density = 22.966341 Si / 1000 Ang^3
#
#
#
# Elastic Constant Matrix: (Units=GPa)
#
#
# Indices 1 2 3 4 5 6 
#
# 1 143.0079 0.3166 7.6714 0.0000 6.6554 0.0000
# 2 0.3166 56.5039 -5.0710 0.0000 -6.3507 0.0000
# 3 7.6714 -5.0710 80.1237 0.0000 0.2449 0.0000
# 4 0.0000 0.0000 0.0000 56.2944 0.0000 5.7539
# 5 6.6554 -6.3507 0.2449 0.0000 37.7167 0.0000
# 6 0.0000 0.0000 0.0000 5.7539 0.0000 38.8908
#
#
#
# Elastic Compliance Matrix: (Units=1/GPa)
#
#
# Indices 1 2 3 4 5 6 
#
# 1 0.007090 -0.000246 -0.000691 0.000000 -0.001288 0.000000
# 2 -0.000246 0.018151 0.001163 0.000000 0.003092 0.000000
# 3 -0.000691 0.001163 0.012620 0.000000 0.000236 0.000000
# 4 0.000000 0.000000 0.000000 0.018037 0.000000 -0.002668
# 5 -0.001288 0.003092 0.000236 0.000000 0.027260 0.000000
# 6 0.000000 0.000000 0.000000 -0.002668 0.000000 0.026108
#
#
# Mechanical properties :
#
#
# Convention : Reuss Voigt Hill
#
# Bulk Modulus (GPa) = 26.10086 31.71885 28.90986
# Shear Modulus (GPa) = 41.12373 45.02829 43.07601
#
# Velocity S-wave (km/s) = 4.23615 4.43269 4.33554
# Velocity P-wave (km/s) = 5.94274 6.32767 6.13822
#
# Compressibility (1/GPa) = 0.03831291
#
# Stress axis : x y z
#
# Youngs Moduli (GPa) = 141.04064 55.09287 79.24119
#
# Poissons Ratio (x) = 0.01358 0.05472
# Poissons Ratio (y) = 0.03476 -0.09215
# Poissons Ratio (z) = 0.09739 -0.06407
#
# Static dielectric constant tensor:
#      x y z
#    x 4.465750 0.000000 -0.034230 
#    y 0.000000 3.931060 0.000000 
#    z -0.034230 0.000000 4.291450 
# 
# 
# High freq. dielectric constant tensor:
#      x y z
#    x 1.933960 0.000000 -0.003600 
#    y 0.000000 1.895320 0.000000 
#    z -0.003600 0.000000 1.911940 
# 
# From -- ./inp_files/143418.got.cif
#   From: 2010.06.25/outbox.cif.g09.slc.cpg/sg12_72_cif.got.tgz:143418.got - 2010.06.28 00:19:55.
