data_PCOD8115957
_publ_section_title
;
Structure prediction by ZEFSAII (Michael W. Deem and Ramdas Pophale) SiO2 
 PCOD8115957
Probable space group: C 2/M
;
_chemical_formula_sum "Si O2"
_cell_formula_units_Z 56
_cell_length_a 29.312348
_cell_length_b 13.897635
_cell_length_c 9.211069
_cell_angle_alpha 90.000000
_cell_angle_beta 90.002706
_cell_angle_gamma 90.000000
_cell_volume 3752.334484
_symmetry_space_group_name_H-M "C 2/M"
_symmetry_group_IT_number 12
_symmetry_cell_setting 'monoclinic'
loop_
_space_group_symop_operation_xyz
x,y,z
-x,y,-z
-x,-y,-z
x,-y,z
1/2+x,1/2+y,z
1/2-x,1/2+y,-z
1/2-x,1/2-y,-z
1/2+x,1/2-y,z
loop_
_atom_site_type_symbol
_atom_site_label
_atom_site_fract_x
_atom_site_fract_y
_atom_site_fract_z
Si Si1 0.680719 0.706928 0.172422
Si Si2 0.728709 0.106102 0.827226
Si Si3 0.680711 0.293072 0.827591
Si Si4 0.911161 0.112403 0.169432
Si Si5 0.500004 0.614402 0.336150
Si Si6 0.271283 0.893898 0.827219
Si Si7 0.411154 0.387597 0.830539
O O1 0.721677 0.639422 0.230809
O O2 0.690207 0.817128 0.223108
O O3 0.632429 0.669850 0.233127
O O4 0.679647 0.699902 0.000007
O O5 0.690197 0.182871 0.776904
O O6 0.717207 0.000000 0.764483
O O7 0.730183 0.103534 0.000003
O O8 0.632419 0.330150 0.766894
O O9 0.721666 0.360577 0.769195
O O10 0.955104 0.152477 0.254248
O O11 0.902817 0.000000 0.198609
O O12 0.919140 0.132387 0.999985
O O13 0.500000 0.654003 0.500000
O O14 0.500005 0.500000 0.332325
O O15 0.544907 0.652479 0.254282
O O16 0.282782 0.000000 0.764475
O O17 0.402809 0.500000 0.801365
#
# Coordination Sequence:
#
# PCOD8115957 Si02
#       7
#     8   8   8   8   8   8   8
#     4   8  13  19  29  48  72  97 122 144 171 209
#     4   8  12  18  28  45  72 100 121 144 174 206
#     4   8  13  19  29  48  72  97 122 144 171 209
#     4   9  15  23  36  53  73  96 120 146 176 210
#     4   9  17  27  37  51  72  95 118 146 181 219
#     4   8  12  18  28  45  72 100 121 144 174 206
#     4   9  15  23  36  53  73  96 120 146 176 210
#
# _framework density 14.924044
#
# number of rings (size 3 to 8) (size 9 to 14) (size 15 to 20)
#    0.000    3.571    0.000    3.000    0.000    5.143 
#    0.000    0.000    0.000    0.000    0.000    5.000 
#    0.000   11.429    0.000    0.000    0.000    0.000 
#
# Total GULP energy -346951.044221 kJ/mol
# GULP energy per Si atom -12391.108722 kJ/mol
# Density = 1.489008 g / cm^3
# Si number density = 14.924044 Si / 1000 Ang^3
#
#
#
# Elastic Constant Matrix: (Units=GPa)
#
#
# Indices 1 2 3 4 5 6 
#
# 1 146.5834 60.8214 35.7328 0.0000 9.2765 0.0000
# 2 60.8214 99.6225 18.4857 0.0000 3.6376 0.0000
# 3 35.7328 18.4857 29.4253 0.0000 0.7862 0.0000
# 4 0.0000 0.0000 0.0000 4.2134 0.0000 1.7043
# 5 9.2765 3.6376 0.7862 0.0000 2.1805 0.0000
# 6 0.0000 0.0000 0.0000 1.7043 0.0000 24.0263
#
#
#
# Elastic Compliance Matrix: (Units=1/GPa)
#
#
# Indices 1 2 3 4 5 6 
#
# 1 0.015909 -0.005007 -0.014730 0.000000 -0.054018 0.000000
# 2 -0.005007 0.013562 -0.002427 0.000000 -0.000447 0.000000
# 3 -0.014730 -0.002427 0.052117 0.000000 0.047926 0.000000
# 4 0.000000 0.000000 0.000000 0.244349 0.000000 -0.017333
# 5 -0.054018 -0.000447 0.047926 0.000000 0.671890 0.000000
# 6 0.000000 0.000000 0.000000 -0.017333 0.000000 0.042851
#
#
# Mechanical properties :
#
#
# Convention : Reuss Voigt Hill
#
# Bulk Modulus (GPa) = 26.84010 56.19009 41.51510
# Shear Modulus (GPa) = 4.55612 16.79012 10.67312
#
# Velocity S-wave (km/s) = 1.74914 3.35780 2.67715
# Velocity P-wave (km/s) = 4.70137 7.26399 6.11835
#
# Compressibility (1/GPa) = 0.03725768
#
# Stress axis : x y z
#
# Youngs Moduli (GPa) = 62.85766 73.73804 19.18763
#
# Poissons Ratio (x) = 0.36920 0.28264
# Poissons Ratio (y) = 0.31473 0.04658
# Poissons Ratio (z) = 0.92592 0.17900
#
# Static dielectric constant tensor:
#      x y z
#    x 3.068700 0.000000 0.055290 
#    y 0.000000 2.994630 0.000000 
#    z 0.055290 0.000000 2.425750 
# 
# 
# High freq. dielectric constant tensor:
#      x y z
#    x 1.571220 0.000000 0.004630 
#    y 0.000000 1.548100 0.000000 
#    z 0.004630 0.000000 1.517410 
# 
# From -- ./inp_files/103976.got.cif
#   From: 2010.06.25/outbox.cif.g09.slc.cpg/sg12_52_cif.got.tgz:103976.got - 2010.06.28 00:19:55.
