data_PCOD8115193
_publ_section_title
;
Structure prediction by ZEFSAII (Michael W. Deem and Ramdas Pophale) SiO2 
 PCOD8115193
Probable space group: C 2/M
;
_chemical_formula_sum "Si O2"
_cell_formula_units_Z 40
_cell_length_a 9.220626
_cell_length_b 25.588738
_cell_length_c 11.942739
_cell_angle_alpha 90.000000
_cell_angle_beta 138.910463
_cell_angle_gamma 90.000000
_cell_volume 1851.977186
_symmetry_space_group_name_H-M "C 2/M"
_symmetry_group_IT_number 12
_symmetry_cell_setting 'monoclinic'
loop_
_space_group_symop_operation_xyz
x,y,z
-x,y,-z
-x,-y,-z
x,-y,z
1/2+x,1/2+y,z
1/2-x,1/2+y,-z
1/2-x,1/2-y,-z
1/2+x,1/2-y,z
loop_
_atom_site_type_symbol
_atom_site_label
_atom_site_fract_x
_atom_site_fract_y
_atom_site_fract_z
Si Si1 0.204912 0.595430 0.035312
Si Si2 0.182766 0.940453 0.335359
Si Si3 0.471417 0.219423 0.608698
Si Si4 0.536105 0.895286 0.695837
Si Si5 0.264742 0.209825 0.908673
O O1 0.416418 0.560242 0.190774
O O2 0.320798 0.652978 0.104625
O O3 0.112401 0.580755 0.858624
O O4 0.000000 0.586292 0.000000
O O5 0.302986 0.919567 0.518478
O O6 0.270492 0.906280 0.281585
O O7 0.256380 0.000000 0.359003
O O8 0.500000 0.199380 0.500000
O O9 0.250000 0.250000 0.500000
O O10 0.500584 0.166900 0.698708
O O11 0.648584 0.264069 0.735521
O O12 0.500000 0.196866 0.000000
O O13 0.250000 0.250000 0.000000
#
# Coordination Sequence:
#
# PCOD8115193 Si02
#       5
#     8   8   8   8   8
#     4  11  26  44  65 101 141 176 220 276 341 407
#     4  11  25  47  74  99 128 170 233 294 338 390
#     4  12  24  39  63  97 134 179 220 267 324 397
#     4  11  23  44  70  98 133 176 228 280 330 396
#     4  11  23  38  61  91 133 175 212 258 317 390
#
# _framework density 21.598538000000001
#
# number of rings (size 3 to 8) (size 9 to 14) (size 15 to 20)
#    0.000    0.800    4.000    4.200    5.600    3.600 
#    0.000    1.000    0.000    0.000    0.000    0.000 
#    0.000    0.000    0.000    0.000    0.000    0.000 
#
# Total GULP energy -247916.251995 kJ/mol
# GULP energy per Si atom -12395.812600 kJ/mol
# Density = 2.154938 g / cm^3
# Si number density = 21.598538 Si / 1000 Ang^3
#
#
#
# Elastic Constant Matrix: (Units=GPa)
#
#
# Indices 1 2 3 4 5 6 
#
# 1 82.1123 19.0954 44.0757 0.0000 7.3369 0.0000
# 2 19.0954 105.4114 25.9316 0.0000 9.1288 0.0000
# 3 44.0757 25.9316 153.2797 0.0000 2.7576 0.0000
# 4 0.0000 0.0000 0.0000 23.5153 0.0000 4.3968
# 5 7.3369 9.1288 2.7576 0.0000 40.2022 0.0000
# 6 0.0000 0.0000 0.0000 4.3968 0.0000 22.6265
#
#
#
# Elastic Compliance Matrix: (Units=1/GPa)
#
#
# Indices 1 2 3 4 5 6 
#
# 1 0.014855 -0.001532 -0.003975 0.000000 -0.002090 0.000000
# 2 -0.001532 0.010243 -0.001257 0.000000 -0.001960 0.000000
# 3 -0.003975 -0.001257 0.007871 0.000000 0.000471 0.000000
# 4 0.000000 0.000000 0.000000 0.044129 0.000000 -0.008575
# 5 -0.002090 -0.001960 0.000471 0.000000 0.025669 0.000000
# 6 0.000000 0.000000 0.000000 -0.008575 0.000000 0.045862
#
#
# Mechanical properties :
#
#
# Convention : Reuss Voigt Hill
#
# Bulk Modulus (GPa) = 51.43666 57.66764 54.55215
# Shear Modulus (GPa) = 29.64937 34.04885 31.84911
#
# Velocity S-wave (km/s) = 3.70908 3.97475 3.84421
# Velocity P-wave (km/s) = 6.49689 6.91539 6.70941
#
# Compressibility (1/GPa) = 0.01944139
#
# Stress axis : x y z
#
# Youngs Moduli (GPa) = 67.31698 97.62586 127.04593
#
# Poissons Ratio (x) = 0.14958 0.50498
# Poissons Ratio (y) = 0.10314 0.15971
# Poissons Ratio (z) = 0.26757 0.12272
#
# Static dielectric constant tensor:
#      x y z
#    x 3.286870 0.000000 -0.251130 
#    y 0.000000 3.594970 0.000000 
#    z -0.251130 0.000000 3.826730 
# 
# 
# High freq. dielectric constant tensor:
#      x y z
#    x 1.834100 0.000000 0.003060 
#    y 0.000000 1.855360 0.000000 
#    z 0.003060 0.000000 1.862220 
# 
# From -- ./inp_files/125478.got.cif
#   From: 2010.06.25/outbox.cif.g09.slc.cpg/sg12_63_cif.got.tgz:125478.got - 2010.06.28 00:19:55.
