data_PCOD8115592
_publ_section_title
;
Structure prediction by ZEFSAII (Michael W. Deem and Ramdas Pophale) SiO2 
 PCOD8115592
Probable space group: C 2/M
;
_chemical_formula_sum "Si O2"
_cell_formula_units_Z 44
_cell_length_a 8.328253
_cell_length_b 17.381407
_cell_length_c 16.409574
_cell_angle_alpha 90.000000
_cell_angle_beta 68.412752
_cell_angle_gamma 90.000000
_cell_volume 2208.782545
_symmetry_space_group_name_H-M "C 2/M"
_symmetry_group_IT_number 12
_symmetry_cell_setting 'monoclinic'
loop_
_space_group_symop_operation_xyz
x,y,z
-x,y,-z
-x,-y,-z
x,-y,z
1/2+x,1/2+y,z
1/2-x,1/2+y,-z
1/2-x,1/2-y,-z
1/2+x,1/2-y,z
loop_
_atom_site_type_symbol
_atom_site_label
_atom_site_fract_x
_atom_site_fract_y
_atom_site_fract_z
Si Si1 0.018497 0.264554 0.341425
Si Si2 0.896889 0.692005 0.941863
Si Si3 0.368879 0.089113 0.448207
Si Si4 0.500000 0.662003 0.500000
Si Si5 0.873495 0.208085 0.215872
Si Si6 0.356326 0.586303 0.094893
O O1 0.171371 0.274293 0.247711
O O2 0.938358 0.349623 0.369677
O O3 0.060529 0.219106 0.416562
O O4 0.897086 0.209603 0.309400
O O5 0.818094 0.620929 0.908391
O O6 0.032043 0.728920 0.855322
O O7 0.750000 0.750000 0.000000
O O8 0.000000 0.659685 0.000000
O O9 0.500000 0.097461 0.500000
O O10 0.164956 0.111344 0.500213
O O11 0.374655 0.000000 0.416376
O O12 0.916248 0.125691 0.168067
O O13 0.318982 0.500000 0.125858
O O14 0.500000 0.596930 0.000000
#
# Coordination Sequence:
#
# PCOD8115592 Si02
#       6
#     8   8   8   4   8   8
#     4  12  23  40  68  94 129 173 230 271 326 400
#     4  12  20  39  68  94 125 172 221 264 321 405
#     4  11  24  43  67  97 133 174 221 282 349 400
#     4  12  23  46  69  98 128 184 236 278 327 412
#     4  12  22  38  66  97 123 175 220 269 326 397
#     4  11  24  42  64  95 134 169 212 276 337 392
#
# _framework density 19.920476000000001
#
# number of rings (size 3 to 8) (size 9 to 14) (size 15 to 20)
#    0.000    0.364    8.182    1.909    0.000    1.091 
#    0.000    1.818    0.000    0.000    0.000    0.000 
#    0.000    0.000    0.000    0.000    0.000    0.000 
#
# Total GULP energy -272569.817569 kJ/mol
# GULP energy per Si atom -12389.537162 kJ/mol
# Density = 1.987514 g / cm^3
# Si number density = 19.920476 Si / 1000 Ang^3
#
#
#
# Elastic Constant Matrix: (Units=GPa)
#
#
# Indices 1 2 3 4 5 6 
#
# 1 100.0757 62.8233 39.1619 0.0000 -3.1317 0.0000
# 2 62.8233 164.6319 69.9012 0.0000 8.4867 0.0000
# 3 39.1619 69.9012 103.8582 0.0000 2.6440 0.0000
# 4 0.0000 0.0000 0.0000 -52.7123 0.0000 1.2005
# 5 -3.1317 8.4867 2.6440 0.0000 46.5955 0.0000
# 6 0.0000 0.0000 0.0000 1.2005 0.0000 31.8503
#
#
#
# Elastic Compliance Matrix: (Units=1/GPa)
#
#
# Indices 1 2 3 4 5 6 
#
# 1 0.013668 -0.004344 -0.002277 0.000000 0.001839 0.000000
# 2 -0.004344 0.009955 -0.005016 0.000000 -0.001821 0.000000
# 3 -0.002277 -0.005016 0.013864 0.000000 -0.000026 0.000000
# 4 0.000000 0.000000 0.000000 -0.018955 0.000000 0.000714
# 5 0.001839 -0.001821 -0.000026 0.000000 0.021918 0.000000
# 6 0.000000 0.000000 0.000000 0.000714 0.000000 0.031370
#
#
# Mechanical properties :
#
#
# Convention : Reuss Voigt Hill
#
# Bulk Modulus (GPa) = 70.35676 79.14872 74.75274
# Shear Modulus (GPa) = 50.08419 18.25865 34.17142
#
# Velocity S-wave (km/s) = 5.01963 3.03079 4.14622
# Velocity P-wave (km/s) = 8.30608 7.21569 7.78001
#
# Compressibility (1/GPa) = 0.01421328
#
# Stress axis : x y z
#
# Youngs Moduli (GPa) = 73.16481 100.44865 72.12950
#
# Poissons Ratio (x) = 0.43630 0.16425
# Poissons Ratio (y) = 0.31780 0.36182
# Poissons Ratio (z) = 0.16661 0.50387
#
# Static dielectric constant tensor:
#      x y z
#    x 3.934230 0.000000 0.013150 
#    y 0.000000 3.692220 0.000000 
#    z 0.013150 0.000000 3.564280 
# 
# 
# High freq. dielectric constant tensor:
#      x y z
#    x 1.796430 0.000000 -0.003410 
#    y 0.000000 1.760080 0.000000 
#    z -0.003410 0.000000 1.783440 
# 
# From -- ./inp_files/195875.got.cif
#   From: 2010.06.25/outbox.cif.g09.slc.cpg/sg12_98_cif.got.tgz:195875.got - 2010.06.28 00:19:55.
