data_PCOD8115609
_publ_section_title
;
Structure prediction by ZEFSAII (Michael W. Deem and Ramdas Pophale) SiO2 
 PCOD8115609
Probable space group: C 2/M
;
_chemical_formula_sum "Si O2"
_cell_formula_units_Z 36
_cell_length_a 13.734993
_cell_length_b 14.573186
_cell_length_c 22.348830
_cell_angle_alpha 90.000000
_cell_angle_beta 158.458647
_cell_angle_gamma 90.000000
_cell_volume 1642.510195
_symmetry_space_group_name_H-M "C 2/M"
_symmetry_group_IT_number 12
_symmetry_cell_setting 'monoclinic'
loop_
_space_group_symop_operation_xyz
x,y,z
-x,y,-z
-x,-y,-z
x,-y,z
1/2+x,1/2+y,z
1/2-x,1/2+y,-z
1/2-x,1/2-y,-z
1/2+x,1/2-y,z
loop_
_atom_site_type_symbol
_atom_site_label
_atom_site_fract_x
_atom_site_fract_y
_atom_site_fract_z
Si Si1 0.885968 0.399855 0.557102
Si Si2 0.475317 0.208610 0.817577
Si Si3 0.788844 0.711788 0.170168
Si Si4 0.000000 0.671786 0.500000
Si Si5 0.292579 0.396322 0.232658
O O1 0.010226 0.500000 0.640445
O O2 0.851374 0.387557 0.465718
O O3 0.601963 0.392961 0.427072
O O4 0.076562 0.322226 0.692227
O O5 0.540348 0.175028 0.787803
O O6 0.384548 0.128109 0.810357
O O7 0.225356 0.275356 0.666411
O O8 0.750000 0.250000 0.000000
O O9 0.754428 0.822731 0.156761
O O10 0.500000 0.666954 0.000000
O O11 0.216220 0.500000 0.167940
#
# Coordination Sequence:
#
# PCOD8115609 Si02
#       5
#     8   8   8   4   8
#     4  11  24  42  69 103 136 182 235 286 347 414
#     4  12  24  42  70 102 135 182 229 284 350 412
#     4  12  23  44  70  96 140 183 228 285 353 411
#     4  12  21  42  71  94 140 182 233 282 347 410
#     4  11  24  44  69 101 134 178 232 284 339 409
#
# _framework density 21.917672
#
# number of rings (size 3 to 8) (size 9 to 14) (size 15 to 20)
#    0.000    0.444    6.667    2.333    0.000    1.778 
#    0.000    7.222    0.000    0.000    0.000    0.000 
#    0.000    0.000    0.000    0.000    0.000    0.000 
#
# Total GULP energy -223038.051800 kJ/mol
# GULP energy per Si atom -12391.002878 kJ/mol
# Density = 2.186779 g / cm^3
# Si number density = 21.917672 Si / 1000 Ang^3
#
#
#
# Elastic Constant Matrix: (Units=GPa)
#
#
# Indices 1 2 3 4 5 6 
#
# 1 161.1747 28.6594 25.7941 0.0076 13.7350 -0.0009
# 2 28.6594 82.4290 38.9384 0.0615 9.2920 -0.0071
# 3 25.7941 38.9384 126.1813 0.0876 6.0631 -0.0076
# 4 0.0076 0.0615 0.0876 9.6319 -0.0025 9.5098
# 5 13.7350 9.2920 6.0631 -0.0025 34.8718 -0.0015
# 6 -0.0009 -0.0071 -0.0076 9.5098 -0.0015 28.2123
#
#
#
# Elastic Compliance Matrix: (Units=1/GPa)
#
#
# Indices 1 2 3 4 5 6 
#
# 1 0.006818 -0.001785 -0.000743 0.000019 -0.002081 -0.000007
# 2 -0.001785 0.014998 -0.004140 -0.000090 -0.002574 0.000033
# 3 -0.000743 -0.004140 0.009366 -0.000089 -0.000233 0.000032
# 4 0.000019 -0.000090 -0.000089 0.155612 0.000041 -0.052454
# 5 -0.002081 -0.002574 -0.000233 0.000041 0.030222 -0.000013
# 6 -0.000007 0.000033 0.000032 -0.052454 -0.000013 0.053127
#
#
# Mechanical properties :
#
#
# Convention : Reuss Voigt Hill
#
# Bulk Modulus (GPa) = 56.03346 61.84099 58.93723
# Shear Modulus (GPa) = 17.27557 32.96942 25.12249
#
# Velocity S-wave (km/s) = 2.81054 3.88266 3.38926
# Velocity P-wave (km/s) = 6.01275 6.95532 6.50114
#
# Compressibility (1/GPa) = 0.01784648
#
# Stress axis : x y z
#
# Youngs Moduli (GPa) = 146.66917 66.67568 106.77295
#
# Poissons Ratio (x) = 0.11902 0.07933
# Poissons Ratio (y) = 0.26181 0.44200
# Poissons Ratio (z) = 0.10897 0.27601
#
# Static dielectric constant tensor:
#      x y z
#    x 4.215660 -0.000010 0.199690 
#    y -0.000010 3.779370 -0.000090 
#    z 0.199690 -0.000090 4.016140 
# 
# 
# High freq. dielectric constant tensor:
#      x y z
#    x 1.878920 0.000000 0.012990 
#    y 0.000000 1.833540 -0.000010 
#    z 0.012990 -0.000010 1.872540 
# 
# From -- ./inp_files/141715.got.cif
#   From: 2010.06.25/outbox.cif.g09.slc.cpg/sg12_71_cif.got.tgz:141715.got - 2010.06.28 00:19:55.
