data_PCOD8115858
_publ_section_title
;
Structure prediction by ZEFSAII (Michael W. Deem and Ramdas Pophale) SiO2 
 PCOD8115858
Probable space group: C 2/M
;
_chemical_formula_sum "Si O2"
_cell_formula_units_Z 40
_cell_length_a 16.066730
_cell_length_b 21.102753
_cell_length_c 10.120196
_cell_angle_alpha 90.000000
_cell_angle_beta 146.355545
_cell_angle_gamma 90.000000
_cell_volume 1901.055523
_symmetry_space_group_name_H-M "C 2/M"
_symmetry_group_IT_number 12
_symmetry_cell_setting 'monoclinic'
loop_
_space_group_symop_operation_xyz
x,y,z
-x,y,-z
-x,-y,-z
x,-y,z
1/2+x,1/2+y,z
1/2-x,1/2+y,-z
1/2-x,1/2-y,-z
1/2+x,1/2-y,z
loop_
_atom_site_type_symbol
_atom_site_label
_atom_site_fract_x
_atom_site_fract_y
_atom_site_fract_z
Si Si1 0.000000 0.313240 0.500000
Si Si2 0.374550 0.000000 0.945259
Si Si3 0.479173 0.366063 0.238167
Si Si4 0.662327 0.869528 0.953938
Si Si5 0.941736 0.000000 0.573463
Si Si6 0.263268 0.280867 0.297468
Si Si7 0.500000 0.297807 0.000000
O O1 0.856669 0.270394 0.339442
O O2 0.958326 0.357377 0.320651
O O3 0.373504 0.939393 0.039983
O O4 0.234898 0.000000 0.664279
O O5 0.500000 0.000000 0.000000
O O6 0.334299 0.357372 0.137963
O O7 0.507162 0.440584 0.273110
O O8 0.625327 0.329671 0.485215
O O9 0.445523 0.342065 0.047374
O O10 0.645441 0.817955 0.047061
O O11 0.000000 0.000000 0.500000
O O12 0.145715 0.243883 0.237699
#
# Coordination Sequence:
#
# PCOD8115858 Si02
#       7
#     4   4   8   8   4   8   4
#     4  12  24  41  72 101 140 184 224 270 350 412
#     4  12  28  47  72 106 128 172 238 287 333 398
#     4  12  23  45  72 101 135 184 231 278 334 407
#     4  12  24  46  72  98 139 184 227 278 341 408
#     4  12  22  45  78  96 124 184 236 277 330 411
#     4  12  23  43  71 101 139 184 229 276 333 409
#     4  12  28  39  64 113 146 170 224 288 344 392
#
# _framework density 21.040942999999999
#
# number of rings (size 3 to 8) (size 9 to 14) (size 15 to 20)
#    0.000    0.000    8.000    2.400    1.400    2.400 
#    0.000    0.000    0.000    0.000    0.000    0.000 
#    0.000    0.000    0.000    0.000    0.000    0.000 
#
# Total GULP energy -247961.898356 kJ/mol
# GULP energy per Si atom -12398.094918 kJ/mol
# Density = 2.099305 g / cm^3
# Si number density = 21.040943 Si / 1000 Ang^3
#
#
#
# Elastic Constant Matrix: (Units=GPa)
#
#
# Indices 1 2 3 4 5 6 
#
# 1 94.4464 49.5888 23.7534 0.0000 16.2122 0.0000
# 2 49.5888 150.0720 48.3709 0.0000 0.0460 0.0000
# 3 23.7534 48.3709 96.2392 0.0000 -6.4913 0.0000
# 4 0.0000 0.0000 0.0000 2.8457 0.0000 -1.5087
# 5 16.2122 0.0460 -6.4913 0.0000 34.9509 0.0000
# 6 0.0000 0.0000 0.0000 -1.5087 0.0000 51.6938
#
#
#
# Elastic Compliance Matrix: (Units=1/GPa)
#
#
# Indices 1 2 3 4 5 6 
#
# 1 0.014474 -0.004147 -0.001965 0.000000 -0.007073 0.000000
# 2 -0.004147 0.009160 -0.003495 0.000000 0.001262 0.000000
# 3 -0.001965 -0.003495 0.012855 0.000000 0.003304 0.000000
# 4 0.000000 0.000000 0.000000 0.356929 0.000000 0.010417
# 5 -0.007073 0.001262 0.003304 0.000000 0.032504 0.000000
# 6 0.000000 0.000000 0.000000 0.010417 0.000000 0.019649
#
#
# Mechanical properties :
#
#
# Convention : Reuss Voigt Hill
#
# Bulk Modulus (GPa) = 57.88910 64.90932 61.39921
# Shear Modulus (GPa) = 10.62599 32.50105 21.56352
#
# Velocity S-wave (km/s) = 2.24969 3.93448 3.20478
# Velocity P-wave (km/s) = 5.85837 7.18026 6.55273
#
# Compressibility (1/GPa) = 0.01727441
#
# Stress axis : x y z
#
# Youngs Moduli (GPa) = 69.09029 109.17055 77.78858
#
# Poissons Ratio (x) = 0.45274 0.15286
# Poissons Ratio (y) = 0.28652 0.27189
# Poissons Ratio (z) = 0.13577 0.38157
#
# Static dielectric constant tensor:
#      x y z
#    x 3.853600 0.000000 0.190630 
#    y 0.000000 5.579560 0.000000 
#    z 0.190630 0.000000 3.664170 
# 
# 
# High freq. dielectric constant tensor:
#      x y z
#    x 1.822640 0.000000 0.011780 
#    y 0.000000 1.835690 0.000000 
#    z 0.011780 0.000000 1.828200 
# 
# From -- ./inp_files/158530.got.cif
#   From: 2010.06.25/outbox.cif.g09.slc.cpg/sg12_80_cif.got.tgz:158530.got - 2010.06.28 00:19:55.
