data_PCOD8115211
_publ_section_title
;
Structure prediction by ZEFSAII (Michael W. Deem and Ramdas Pophale) SiO2 
 PCOD8115211
Probable space group: C 2/M
;
_chemical_formula_sum "Si O2"
_cell_formula_units_Z 48
_cell_length_a 14.466363
_cell_length_b 9.279099
_cell_length_c 17.202509
_cell_angle_alpha 90.000000
_cell_angle_beta 92.786897
_cell_angle_gamma 90.000000
_cell_volume 2306.444502
_symmetry_space_group_name_H-M "C 2/M"
_symmetry_group_IT_number 12
_symmetry_cell_setting 'monoclinic'
loop_
_space_group_symop_operation_xyz
x,y,z
-x,y,-z
-x,-y,-z
x,-y,z
1/2+x,1/2+y,z
1/2-x,1/2+y,-z
1/2-x,1/2-y,-z
1/2+x,1/2-y,z
loop_
_atom_site_type_symbol
_atom_site_label
_atom_site_fract_x
_atom_site_fract_y
_atom_site_fract_z
Si Si1 0.089829 0.840543 0.157403
Si Si2 0.858306 0.829575 0.296336
Si Si3 0.629398 0.660908 0.871551
Si Si4 0.784408 0.328051 0.577946
Si Si5 0.390028 0.161828 0.984949
Si Si6 0.935506 0.829840 0.670428
O O1 0.108644 0.793299 0.247024
O O2 0.980746 0.843311 0.139055
O O3 0.130001 0.000000 0.143901
O O4 0.138823 0.732125 0.098894
O O5 0.832757 0.771184 0.208528
O O6 0.783361 0.779797 0.355413
O O7 0.958720 0.775410 0.328513
O O8 0.864632 0.000000 0.288099
O O9 0.667951 0.500000 0.887329
O O10 0.660771 0.757109 0.945936
O O11 0.787810 0.500000 0.566497
O O12 0.750000 0.250000 0.500000
O O13 0.884602 0.264811 0.603053
O O14 0.353214 0.000000 0.982656
O O15 0.500000 0.168911 0.000000
O O16 0.926611 0.000000 0.651397
#
# Coordination Sequence:
#
# PCOD8115211 Si02
#       6
#     8   8   8   8   8   8
#     4   8  14  25  44  68  95 131 174 213 249 297
#     4   8  17  35  58  79 104 142 181 214 258 319
#     4   8  13  25  45  67  92 130 178 215 245 294
#     4  11  23  39  58  82 109 137 171 214 267 323
#     4   9  15  21  34  64 104 137 166 207 257 301
#     4   9  18  36  59  81 105 138 180 221 261 309
#
# _framework density 20.811252
#
# number of rings (size 3 to 8) (size 9 to 14) (size 15 to 20)
#    0.000    3.167    0.000    3.000    0.000    3.333 
#    0.000    9.167    0.000    1.000    0.000    0.000 
#    0.000    0.000    0.000    0.000    0.000    0.000 
#
# Total GULP energy -297506.258330 kJ/mol
# GULP energy per Si atom -12396.094097 kJ/mol
# Density = 2.076388 g / cm^3
# Si number density = 20.811252 Si / 1000 Ang^3
#
#
#
# Elastic Constant Matrix: (Units=GPa)
#
#
# Indices 1 2 3 4 5 6 
#
# 1 27.8621 4.7272 10.8593 0.0000 -2.1470 0.0000
# 2 4.7272 87.8350 35.1512 0.0000 -1.3742 0.0000
# 3 10.8593 35.1512 85.7587 0.0000 -0.4999 0.0000
# 4 0.0000 0.0000 0.0000 35.1570 0.0000 2.0964
# 5 -2.1470 -1.3742 -0.4999 0.0000 32.2531 0.0000
# 6 0.0000 0.0000 0.0000 2.0964 0.0000 15.6541
#
#
#
# Elastic Compliance Matrix: (Units=1/GPa)
#
#
# Indices 1 2 3 4 5 6 
#
# 1 0.037948 -0.000104 -0.004748 0.000000 0.002448 0.000000
# 2 -0.000104 0.013627 -0.005570 0.000000 0.000487 0.000000
# 3 -0.004748 -0.005570 0.014543 0.000000 -0.000328 0.000000
# 4 0.000000 0.000000 0.000000 0.028673 0.000000 -0.003840
# 5 0.002448 0.000487 -0.000328 0.000000 0.031183 0.000000
# 6 0.000000 0.000000 0.000000 -0.003840 0.000000 0.064395
#
#
# Mechanical properties :
#
#
# Convention : Reuss Voigt Hill
#
# Bulk Modulus (GPa) = 22.08745 33.65903 27.87324
# Shear Modulus (GPa) = 22.09414 26.66073 24.37744
#
# Velocity S-wave (km/s) = 3.26182 3.58309 3.42622
# Velocity P-wave (km/s) = 4.98219 5.77292 5.39207
#
# Compressibility (1/GPa) = 0.04527457
#
# Stress axis : x y z
#
# Youngs Moduli (GPa) = 26.35180 73.38314 68.76220
#
# Poissons Ratio (x) = 0.00761 0.32651
# Poissons Ratio (y) = 0.00273 0.38298
# Poissons Ratio (z) = 0.12513 0.40871
#
# Static dielectric constant tensor:
#      x y z
#    x 3.436180 0.000000 -0.133280 
#    y 0.000000 3.608760 0.000000 
#    z -0.133280 0.000000 4.048380 
# 
# 
# High freq. dielectric constant tensor:
#      x y z
#    x 1.797060 0.000000 0.002010 
#    y 0.000000 1.791370 0.000000 
#    z 0.002010 0.000000 1.821460 
# 
# From -- ./inp_files/267644.got.cif
#   From: 2010.06.25/outbox.cif.g09.slc.cpg/sg12_134_cif.got.tgz:267644.got - 2010.06.28 00:19:55.
