data_PCOD8115793
_publ_section_title
;
Structure prediction by ZEFSAII (Michael W. Deem and Ramdas Pophale) SiO2 
 PCOD8115793
Probable space group: C 2/M
;
_chemical_formula_sum "Si O2"
_cell_formula_units_Z 32
_cell_length_a 15.537866
_cell_length_b 15.327676
_cell_length_c 11.036390
_cell_angle_alpha 90.000000
_cell_angle_beta 152.805399
_cell_angle_gamma 90.000000
_cell_volume 1201.224927
_symmetry_space_group_name_H-M "C 2/M"
_symmetry_group_IT_number 12
_symmetry_cell_setting 'monoclinic'
loop_
_space_group_symop_operation_xyz
x,y,z
-x,y,-z
-x,-y,-z
x,-y,z
1/2+x,1/2+y,z
1/2-x,1/2+y,-z
1/2-x,1/2-y,-z
1/2+x,1/2-y,z
loop_
_atom_site_type_symbol
_atom_site_label
_atom_site_fract_x
_atom_site_fract_y
_atom_site_fract_z
Si Si1 0.906573 0.174483 0.184164
Si Si2 0.295566 0.400168 0.624347
Si Si3 0.386364 0.902589 0.011715
Si Si4 0.734722 0.755044 0.730200
O O1 0.781756 0.104161 0.099737
O O2 0.059204 0.120783 0.299235
O O3 0.019536 0.239756 0.418647
O O4 0.773443 0.231425 0.925339
O O5 0.318369 0.500000 0.697081
O O6 0.331832 0.336122 0.783980
O O7 0.084797 0.379442 0.319982
O O8 0.344200 0.837151 0.845950
O O9 0.386440 0.000000 0.958080
#
# Coordination Sequence:
#
# PCOD8115793 Si02
#       4
#     8   8   8   8
#     4  12  27  46  77 110 154 200 247 314 375 452
#     4  11  27  49  77 113 152 198 252 312 379 449
#     4  11  27  49  77 113 152 198 252 312 379 449
#     4  12  26  48  78 112 152 196 250 312 378 442
#
# _framework density 26.639475000000001
#
# number of rings (size 3 to 8) (size 9 to 14) (size 15 to 20)
#    0.000    0.500    2.500    3.750    7.000    6.000 
#    0.000    5.000    0.000    0.000    0.000    0.000 
#    0.000    0.000    0.000    0.000    0.000    0.000 
#
# Total GULP energy -198349.253956 kJ/mol
# GULP energy per Si atom -12396.828372 kJ/mol
# Density = 2.657884 g / cm^3
# Si number density = 26.639475 Si / 1000 Ang^3
#
#
#
# Elastic Constant Matrix: (Units=GPa)
#
#
# Indices 1 2 3 4 5 6 
#
# 1 160.8065 44.3055 84.3204 0.0000 2.1284 0.0000
# 2 44.3055 200.7396 93.2552 0.0000 -12.7716 0.0000
# 3 84.3204 93.2552 169.6954 0.0000 9.9718 0.0000
# 4 0.0000 0.0000 0.0000 40.2906 0.0000 -15.2129
# 5 2.1284 -12.7716 9.9718 0.0000 51.2508 0.0000
# 6 0.0000 0.0000 0.0000 -15.2129 0.0000 17.3296
#
#
#
# Elastic Compliance Matrix: (Units=1/GPa)
#
#
# Indices 1 2 3 4 5 6 
#
# 1 0.008426 0.000180 -0.004317 0.000000 0.000535 0.000000
# 2 0.000180 0.007001 -0.004085 0.000000 0.002532 0.000000
# 3 -0.004317 -0.004085 0.010452 0.000000 -0.002872 0.000000
# 4 0.000000 0.000000 0.000000 0.037125 0.000000 0.032591
# 5 0.000535 0.002532 -0.002872 0.000000 0.020680 0.000000
# 6 0.000000 0.000000 0.000000 0.032591 0.000000 0.086315
#
#
# Mechanical properties :
#
#
# Convention : Reuss Voigt Hill
#
# Bulk Modulus (GPa) = 106.00642 108.33374 107.17008
# Shear Modulus (GPa) = 26.37305 42.39823 34.38564
#
# Velocity S-wave (km/s) = 3.14984 3.99376 3.59664
# Velocity P-wave (km/s) = 7.28752 7.87539 7.58715
#
# Compressibility (1/GPa) = 0.00943339
#
# Stress axis : x y z
#
# Youngs Moduli (GPa) = 118.68551 142.83844 95.67657
#
# Poissons Ratio (x) = -0.02569 0.41303
# Poissons Ratio (y) = -0.02134 0.39088
# Poissons Ratio (z) = 0.51235 0.58356
#
# Static dielectric constant tensor:
#      x y z
#    x 4.824660 0.000000 0.053410 
#    y 0.000000 4.813100 0.000000 
#    z 0.053410 0.000000 5.180810 
# 
# 
# High freq. dielectric constant tensor:
#      x y z
#    x 2.095790 0.000000 0.022690 
#    y 0.000000 2.064480 0.000000 
#    z 0.022690 0.000000 2.109750 
# 
# From -- ./inp_files/46718.got.cif
#   From: 2010.06.25/outbox.cif.g09.slc.cpg/sg12_24_cif.got.tgz:46718.got - 2010.06.28 00:19:55.
