data_PCOD8115980
_publ_section_title
;
Structure prediction by ZEFSAII (Michael W. Deem and Ramdas Pophale) SiO2 
 PCOD8115980
Probable space group: C 2/M
;
_chemical_formula_sum "Si O2"
_cell_formula_units_Z 48
_cell_length_a 19.754469
_cell_length_b 9.376927
_cell_length_c 16.235837
_cell_angle_alpha 90.000000
_cell_angle_beta 73.009074
_cell_angle_gamma 90.000000
_cell_volume 2876.192276
_symmetry_space_group_name_H-M "C 2/M"
_symmetry_group_IT_number 12
_symmetry_cell_setting 'monoclinic'
loop_
_space_group_symop_operation_xyz
x,y,z
-x,y,-z
-x,-y,-z
x,-y,z
1/2+x,1/2+y,z
1/2-x,1/2+y,-z
1/2-x,1/2-y,-z
1/2+x,1/2-y,z
loop_
_atom_site_type_symbol
_atom_site_label
_atom_site_fract_x
_atom_site_fract_y
_atom_site_fract_z
Si Si1 0.781024 0.831894 0.565734
Si Si2 0.690385 0.339348 0.916872
Si Si3 0.730586 0.157887 0.758663
Si Si4 0.609045 0.340795 0.238983
Si Si5 0.351013 0.160868 0.920439
Si Si6 0.932141 0.169875 0.571620
O O1 0.750000 0.750000 0.500000
O O2 0.732580 0.795080 0.662446
O O3 0.860885 0.775585 0.552583
O O4 0.780591 0.000000 0.548517
O O5 0.660677 0.500000 0.922714
O O6 0.684519 0.268823 0.828372
O O7 0.770782 0.340012 0.918335
O O8 0.642697 0.248869 0.997078
O O9 0.809622 0.151481 0.764514
O O10 0.696875 0.000000 0.779383
O O11 0.583577 0.500000 0.222858
O O12 0.598698 0.235058 0.165597
O O13 0.565227 0.281493 0.333401
O O14 0.377930 0.000000 0.925688
O O15 0.000000 0.233819 0.500000
O O16 0.931984 0.000000 0.570209
#
# Coordination Sequence:
#
# PCOD8115980 Si02
#       6
#     8   8   8   8   8   8
#     4   9  17  28  43  62  84 111 141 174 210 248
#     4   9  15  21  31  48  69  96 130 163 194 232
#     4   8  14  24  35  49  72 101 130 160 199 241
#     4   8  13  22  36  52  71  97 130 166 199 234
#     4   9  15  21  30  46  71 101 128 156 194 240
#     4   8  14  26  44  63  82 108 143 178 210 244
#
# _framework density 16.688731000000001
#
# number of rings (size 3 to 8) (size 9 to 14) (size 15 to 20)
#    0.000    3.500    0.000    3.000    0.000    4.667 
#    0.000    2.500    0.000    2.000    0.000    0.000 
#    0.000    1.333    0.000   15.333    0.000   18.833 
#
# Total GULP energy -297425.940653 kJ/mol
# GULP energy per Si atom -12392.747527 kJ/mol
# Density = 1.665075 g / cm^3
# Si number density = 16.688731 Si / 1000 Ang^3
#
#
#
# Elastic Constant Matrix: (Units=GPa)
#
#
# Indices 1 2 3 4 5 6 
#
# 1 24.3963 19.8062 35.3340 0.0000 -2.1274 0.0000
# 2 19.8062 109.4454 86.7576 0.0000 0.9876 0.0000
# 3 35.3340 86.7576 176.3105 0.0000 -4.8309 0.0000
# 4 0.0000 0.0000 0.0000 33.1460 0.0000 4.6721
# 5 -2.1274 0.9876 -4.8309 0.0000 17.0169 0.0000
# 6 0.0000 0.0000 0.0000 4.6721 0.0000 8.7621
#
#
#
# Elastic Compliance Matrix: (Units=1/GPa)
#
#
# Indices 1 2 3 4 5 6 
#
# 1 0.058380 -0.002341 -0.010425 0.000000 0.004475 0.000000
# 2 -0.002341 0.015226 -0.007111 0.000000 -0.003195 0.000000
# 3 -0.010425 -0.007111 0.011324 0.000000 0.002324 0.000000
# 4 0.000000 0.000000 0.000000 0.032621 0.000000 -0.017394
# 5 0.004475 -0.003195 0.002324 0.000000 0.060170 0.000000
# 6 0.000000 0.000000 0.000000 -0.017394 0.000000 0.123403
#
#
# Mechanical properties :
#
#
# Convention : Reuss Voigt Hill
#
# Bulk Modulus (GPa) = 22.13585 65.99421 44.06503
# Shear Modulus (GPa) = 14.04742 23.00195 18.52469
#
# Velocity S-wave (km/s) = 2.90441 3.71656 3.33530
# Velocity P-wave (km/s) = 4.95381 7.61887 6.42601
#
# Compressibility (1/GPa) = 0.04517560
#
# Stress axis : x y z
#
# Youngs Moduli (GPa) = 17.12919 65.67625 88.30986
#
# Poissons Ratio (x) = 0.15377 0.92064
# Poissons Ratio (y) = 0.04010 0.62795
# Poissons Ratio (z) = 0.17857 0.46701
#
# Static dielectric constant tensor:
#      x y z
#    x 2.521020 0.000000 -0.161660 
#    y 0.000000 3.174960 0.000000 
#    z -0.161660 0.000000 3.547390 
# 
# 
# High freq. dielectric constant tensor:
#      x y z
#    x 1.556590 0.000000 -0.004160 
#    y 0.000000 1.632730 0.000000 
#    z -0.004160 0.000000 1.662980 
# 
# From -- ./inp_files/236609.got.cif
#   From: 2010.06.25/outbox.cif.g09.slc.cpg/sg12_119_cif.got.tgz:236609.got - 2010.06.28 00:19:55.
