data_PCOD8115577
_publ_section_title
;
Structure prediction by ZEFSAII (Michael W. Deem and Ramdas Pophale) SiO2 
 PCOD8115577
Probable space group: C 2/M
;
_chemical_formula_sum "Si O2"
_cell_formula_units_Z 36
_cell_length_a 7.314127
_cell_length_b 26.781189
_cell_length_c 8.599856
_cell_angle_alpha 90.000000
_cell_angle_beta 70.679415
_cell_angle_gamma 90.000000
_cell_volume 1589.678383
_symmetry_space_group_name_H-M "C 2/M"
_symmetry_group_IT_number 12
_symmetry_cell_setting 'monoclinic'
loop_
_space_group_symop_operation_xyz
x,y,z
-x,y,-z
-x,-y,-z
x,-y,z
1/2+x,1/2+y,z
1/2-x,1/2+y,-z
1/2-x,1/2-y,-z
1/2+x,1/2-y,z
loop_
_atom_site_type_symbol
_atom_site_label
_atom_site_fract_x
_atom_site_fract_y
_atom_site_fract_z
Si Si1 0.310239 0.353279 0.859268
Si Si2 0.822975 0.773511 0.634811
Si Si3 0.756333 0.670441 0.784262
Si Si4 0.803214 0.943088 0.644569
Si Si5 0.000000 0.399987 0.500000
O O1 0.206424 0.317209 0.758687
O O2 0.525525 0.329830 0.816977
O O3 0.298978 0.409788 0.802327
O O4 0.200282 0.350167 0.054357
O O5 0.750000 0.750000 0.500000
O O6 0.848434 0.726260 0.745008
O O7 0.000000 0.801687 0.500000
O O8 0.851469 0.634159 0.634197
O O9 0.619807 0.934437 0.584592
O O10 0.000000 0.930541 0.500000
O O11 0.799514 0.000000 0.703692
#
# Coordination Sequence:
#
# PCOD8115577 Si02
#       5
#     8   8   8   8   4
#     4  11  24  44  63  95 137 178 216 279 333 391
#     4  12  22  38  63  92 130 175 218 263 323 398
#     4  11  24  41  66  97 133 174 224 269 334 400
#     4  11  24  45  71  99 132 175 222 278 336 390
#     4  12  23  44  70 100 128 176 227 272 330 404
#
# _framework density 22.646090999999998
#
# number of rings (size 3 to 8) (size 9 to 14) (size 15 to 20)
#    0.000    0.667    5.556    3.000    0.000    0.889 
#    0.000    5.556    0.000    0.000    0.000    0.000 
#    0.000    0.000    0.000    0.000    0.000    0.000 
#
# Total GULP energy -223002.656951 kJ/mol
# GULP energy per Si atom -12389.036497 kJ/mol
# Density = 2.259455 g / cm^3
# Si number density = 22.646091 Si / 1000 Ang^3
#
#
#
# Elastic Constant Matrix: (Units=GPa)
#
#
# Indices 1 2 3 4 5 6 
#
# 1 26.4828 3.4395 5.8042 0.0000 3.4958 0.0000
# 2 3.4395 152.9140 71.6217 0.0000 10.4181 0.0000
# 3 5.8042 71.6217 166.1072 0.0000 10.9661 0.0000
# 4 0.0000 0.0000 0.0000 39.9839 0.0000 8.4403
# 5 3.4958 10.4181 10.9661 0.0000 32.3395 0.0000
# 6 0.0000 0.0000 0.0000 8.4403 0.0000 25.9624
#
#
#
# Elastic Compliance Matrix: (Units=1/GPa)
#
#
# Indices 1 2 3 4 5 6 
#
# 1 0.038503 -0.000120 -0.001045 0.000000 -0.003769 0.000000
# 2 -0.000120 0.008264 -0.003462 0.000000 -0.001475 0.000000
# 3 -0.001045 -0.003462 0.007639 0.000000 -0.001362 0.000000
# 4 0.000000 0.000000 0.000000 0.026853 0.000000 -0.008730
# 5 -0.003769 -0.001475 -0.001362 0.000000 0.032267 0.000000
# 6 0.000000 0.000000 0.000000 -0.008730 0.000000 0.041355
#
#
# Mechanical properties :
#
#
# Convention : Reuss Voigt Hill
#
# Bulk Modulus (GPa) = 22.14687 56.35942 39.25314
# Shear Modulus (GPa) = 27.90414 37.29973 32.60193
#
# Velocity S-wave (km/s) = 3.51406 4.06282 3.79836
# Velocity P-wave (km/s) = 5.12499 6.85198 6.05042
#
# Compressibility (1/GPa) = 0.04515311
#
# Stress axis : x y z
#
# Youngs Moduli (GPa) = 25.97232 121.00289 130.90217
#
# Poissons Ratio (x) = 0.01450 0.13677
# Poissons Ratio (y) = 0.00311 0.45315
# Poissons Ratio (z) = 0.02714 0.41888
#
# Static dielectric constant tensor:
#      x y z
#    x 4.192520 0.000000 0.158480 
#    y 0.000000 3.988160 0.000000 
#    z 0.158480 0.000000 4.424150 
# 
# 
# High freq. dielectric constant tensor:
#      x y z
#    x 1.897850 0.000000 0.004170 
#    y 0.000000 1.883710 0.000000 
#    z 0.004170 0.000000 1.907410 
# 
# From -- ./inp_files/39062.got.cif
#   From: 2010.06.25/outbox.cif.g09.slc.cpg/sg12_20_cif.got.tgz:39062.got - 2010.06.28 00:19:55.
