data_PCOD8115731
_publ_section_title
;
Structure prediction by ZEFSAII (Michael W. Deem and Ramdas Pophale) SiO2 
 PCOD8115731
Probable space group: C 2/M
;
_chemical_formula_sum "Si O2"
_cell_formula_units_Z 48
_cell_length_a 13.726616
_cell_length_b 30.862152
_cell_length_c 14.280178
_cell_angle_alpha 90.000000
_cell_angle_beta 158.667989
_cell_angle_gamma 90.000000
_cell_volume 2200.656351
_symmetry_space_group_name_H-M "C 2/M"
_symmetry_group_IT_number 12
_symmetry_cell_setting 'monoclinic'
loop_
_space_group_symop_operation_xyz
x,y,z
-x,y,-z
-x,-y,-z
x,-y,z
1/2+x,1/2+y,z
1/2-x,1/2+y,-z
1/2-x,1/2-y,-z
1/2+x,1/2-y,z
loop_
_atom_site_type_symbol
_atom_site_label
_atom_site_fract_x
_atom_site_fract_y
_atom_site_fract_z
Si Si1 0.179860 0.049477 0.385568
Si Si2 0.500000 0.635446 0.000000
Si Si3 0.727920 0.680679 0.039968
Si Si4 0.000000 0.622380 0.000000
Si Si5 0.995324 0.235280 0.323229
Si Si6 0.391667 0.094166 0.106695
Si Si7 0.000000 0.819964 0.500000
Si Si8 0.500000 0.918460 0.500000
O O1 0.374616 0.064131 0.643437
O O2 0.338872 0.052576 0.429969
O O3 0.097263 0.000000 0.328801
O O4 0.907801 0.077373 0.138600
O O5 0.490761 0.662598 0.894473
O O6 0.778635 0.609195 0.245416
O O7 0.926695 0.641511 0.186799
O O8 0.839409 0.719971 0.203436
O O9 0.651592 0.699908 0.871501
O O10 0.745482 0.651631 0.752280
O O11 0.064706 0.593690 0.966493
O O12 0.250000 0.250000 0.500000
O O13 0.095435 0.212126 0.505238
#
# Coordination Sequence:
#
# PCOD8115731 Si02
#       8
#     8   4   8   4   8   8   4   4
#     4  12  26  47  75 108 142 179 225 289 354 433
#     4  12  26  39  75 102 136 186 228 280 345 415
#     4  11  25  45  64 100 142 182 237 283 345 409
#     4  12  26  47  75 102 134 190 242 292 341 425
#     4  11  27  42  66  99 140 190 236 299 341 402
#     4  12  25  48  74 102 140 186 234 286 356 415
#     4  12  26  45  70  99 141 192 243 287 354 401
#     4  12  23  45  70 109 138 184 222 273 352 425
#
# _framework density 21.811674
#
# number of rings (size 3 to 8) (size 9 to 14) (size 15 to 20)
#    0.000    0.333    5.000    2.750    9.333    0.000 
#    0.000    5.000    0.000    0.000    0.000    0.000 
#    0.000    0.000    0.000    0.000    0.000    0.000 
#
# Total GULP energy -297499.312280 kJ/mol
# GULP energy per Si atom -12395.804678 kJ/mol
# Density = 2.176203 g / cm^3
# Si number density = 21.811674 Si / 1000 Ang^3
#
#
#
# Elastic Constant Matrix: (Units=GPa)
#
#
# Indices 1 2 3 4 5 6 
#
# 1 110.5630 39.5085 18.0896 -0.0086 -11.5458 -0.0037
# 2 39.5085 109.0027 33.5643 -0.0007 -8.5619 -0.0002
# 3 18.0896 33.5643 122.4705 -0.0280 -0.1680 -0.0104
# 4 -0.0086 -0.0007 -0.0280 169.1472 -0.0051 45.2650
# 5 -11.5458 -8.5619 -0.1680 -0.0051 32.2736 -0.0022
# 6 -0.0037 -0.0002 -0.0104 45.2650 -0.0022 47.3163
#
#
#
# Elastic Compliance Matrix: (Units=1/GPa)
#
#
# Indices 1 2 3 4 5 6 
#
# 1 0.010684 -0.003451 -0.000628 0.000000 0.002903 0.000000
# 2 -0.003451 0.011365 -0.002603 0.000000 0.001767 0.000000
# 3 -0.000628 -0.002603 0.008970 0.000001 -0.000869 0.000001
# 4 0.000000 0.000000 0.000001 0.007946 0.000001 -0.007602
# 5 0.002903 0.001767 -0.000869 0.000001 0.032488 0.000001
# 6 0.000000 0.000000 0.000001 -0.007602 0.000001 0.028407
#
#
# Mechanical properties :
#
#
# Convention : Reuss Voigt Hill
#
# Bulk Modulus (GPa) = 56.63993 58.26235 57.45114
# Shear Modulus (GPa) = 41.97860 66.47237 54.22548
#
# Velocity S-wave (km/s) = 4.39178 5.52646 4.99147
# Velocity P-wave (km/s) = 7.19312 8.21534 7.72117
#
# Compressibility (1/GPa) = 0.01765539
#
# Stress axis : x y z
#
# Youngs Moduli (GPa) = 93.60030 87.98924 111.48142
#
# Poissons Ratio (x) = 0.30364 0.07005
# Poissons Ratio (y) = 0.32300 0.29014
# Poissons Ratio (z) = 0.05881 0.22900
#
# Static dielectric constant tensor:
#      x y z
#    x 4.110340 0.000000 -0.012530 
#    y 0.000000 3.813540 0.000000 
#    z -0.012530 0.000000 3.678470 
# 
# 
# High freq. dielectric constant tensor:
#      x y z
#    x 1.874260 0.000000 -0.004120 
#    y 0.000000 1.856690 0.000000 
#    z -0.004120 0.000000 1.857540 
# 
# From -- ./inp_files/219655.got.cif
#   From: 2010.06.25/outbox.cif.g09.slc.cpg/sg12_110_cif.got.tgz:219655.got - 2010.06.28 00:19:55.
