data_PCOD8115946
_publ_section_title
;
Structure prediction by ZEFSAII (Michael W. Deem and Ramdas Pophale) SiO2 
 PCOD8115946
Probable space group: C 2/M
;
_chemical_formula_sum "Si O2"
_cell_formula_units_Z 20
_cell_length_a 5.100264
_cell_length_b 21.746772
_cell_length_c 9.293295
_cell_angle_alpha 90.000000
_cell_angle_beta 126.152033
_cell_angle_gamma 90.000000
_cell_volume 832.291053
_symmetry_space_group_name_H-M "C 2/M"
_symmetry_group_IT_number 12
_symmetry_cell_setting 'monoclinic'
loop_
_space_group_symop_operation_xyz
x,y,z
-x,y,-z
-x,-y,-z
x,-y,z
1/2+x,1/2+y,z
1/2-x,1/2+y,-z
1/2-x,1/2-y,-z
1/2+x,1/2-y,z
loop_
_atom_site_type_symbol
_atom_site_label
_atom_site_fract_x
_atom_site_fract_y
_atom_site_fract_z
Si Si1 0.616274 0.000000 0.876247
Si Si2 0.000000 0.706517 0.500000
Si Si3 0.500000 0.206934 0.000000
Si Si4 0.648984 0.873102 0.311654
O O1 0.482243 0.941231 0.749829
O O2 0.500000 0.000000 0.000000
O O3 0.000000 0.000000 0.000000
O O4 0.750000 0.750000 0.500000
O O5 0.111657 0.661507 0.667002
O O6 0.315960 0.163366 0.826748
O O7 0.250000 0.250000 0.000000
O O8 0.000000 0.874229 0.500000
#
# Coordination Sequence:
#
# PCOD8115946 Si02
#       4
#     4   4   4   8
#     4  12  31  55  82 115 160 212 274 336 403 472
#     4  12  26  45  78 121 160 198 258 324 394 476
#     4  12  30  47  80 119 166 208 258 328 404 474
#     4  12  29  53  85 117 161 213 273 330 398 478
#
# _framework density 24.030055000000001
#
# number of rings (size 3 to 8) (size 9 to 14) (size 15 to 20)
#    0.000    0.000    4.000    3.000   14.000    0.800 
#    0.000    0.000    0.000    0.000    0.000    0.000 
#    0.000    0.000    0.000    0.000    0.000    0.000 
#
# Total GULP energy -123929.817084 kJ/mol
# GULP energy per Si atom -12392.981708 kJ/mol
# Density = 2.397536 g / cm^3
# Si number density = 24.030055 Si / 1000 Ang^3
#
#
#
# Elastic Constant Matrix: (Units=GPa)
#
#
# Indices 1 2 3 4 5 6 
#
# 1 182.1980 103.0742 82.6175 0.0000 -16.6819 0.0000
# 2 103.0742 262.4386 115.1102 0.0000 -16.2206 0.0000
# 3 82.6175 115.1102 201.8434 0.0000 -5.7351 0.0000
# 4 0.0000 0.0000 0.0000 65.5572 0.0000 -17.5372
# 5 -16.6819 -16.2206 -5.7351 0.0000 53.1294 0.0000
# 6 0.0000 0.0000 0.0000 -17.5372 0.0000 18.3763
#
#
#
# Elastic Compliance Matrix: (Units=1/GPa)
#
#
# Indices 1 2 3 4 5 6 
#
# 1 0.007675 -0.002079 -0.001911 0.000000 0.001569 0.000000
# 2 -0.002079 0.005728 -0.002392 0.000000 0.000838 0.000000
# 3 -0.001911 -0.002392 0.007085 0.000000 -0.000566 0.000000
# 4 0.000000 0.000000 0.000000 0.020483 0.000000 0.019548
# 5 0.001569 0.000838 -0.000566 0.000000 0.019509 0.000000
# 6 0.000000 0.000000 0.000000 0.019548 0.000000 0.073073
#
#
# Mechanical properties :
#
#
# Convention : Reuss Voigt Hill
#
# Bulk Modulus (GPa) = 129.47919 138.67598 134.07758
# Shear Modulus (GPa) = 33.58153 50.45779 42.01966
#
# Velocity S-wave (km/s) = 3.74234 4.58730 4.18620
# Velocity P-wave (km/s) = 8.52483 9.26782 8.90408
#
# Compressibility (1/GPa) = 0.00772325
#
# Stress axis : x y z
#
# Youngs Moduli (GPa) = 130.29246 174.58550 141.15250
#
# Poissons Ratio (x) = 0.36299 0.26977
# Poissons Ratio (y) = 0.27090 0.33760
# Poissons Ratio (z) = 0.24901 0.41756
#
# Static dielectric constant tensor:
#      x y z
#    x 3.905100 0.000000 -0.364150 
#    y 0.000000 5.253250 0.000000 
#    z -0.364150 0.000000 4.884400 
# 
# 
# High freq. dielectric constant tensor:
#      x y z
#    x 1.961500 0.000000 -0.023630 
#    y 0.000000 1.983750 0.000000 
#    z -0.023630 0.000000 1.968170 
# 
# From -- ./inp_files/33370.got.cif
#   From: 2010.06.25/outbox.cif.g09.slc.cpg/sg12_17_cif.got.tgz:33370.got - 2010.06.28 00:19:55.
