data_PCOD8115127
_publ_section_title
;
Structure prediction by ZEFSAII (Michael W. Deem and Ramdas Pophale) SiO2 
 PCOD8115127
Probable space group: C 2/M
;
_chemical_formula_sum "Si O2"
_cell_formula_units_Z 32
_cell_length_a 16.820786
_cell_length_b 14.872640
_cell_length_c 11.015718
_cell_angle_alpha 90.000000
_cell_angle_beta 147.240989
_cell_angle_gamma 90.000000
_cell_volume 1491.180107
_symmetry_space_group_name_H-M "C 2/M"
_symmetry_group_IT_number 12
_symmetry_cell_setting 'monoclinic'
loop_
_space_group_symop_operation_xyz
x,y,z
-x,y,-z
-x,-y,-z
x,-y,z
1/2+x,1/2+y,z
1/2-x,1/2+y,-z
1/2-x,1/2-y,-z
1/2+x,1/2-y,z
loop_
_atom_site_type_symbol
_atom_site_label
_atom_site_fract_x
_atom_site_fract_y
_atom_site_fract_z
Si Si1 0.112541 0.500000 0.528921
Si Si2 0.852445 0.854696 0.882900
Si Si3 0.272138 0.338767 0.252584
Si Si4 0.043129 0.896591 0.719017
Si Si5 0.064804 0.500000 0.948999
O O1 0.214060 0.411963 0.661294
O O2 0.000000 0.500000 0.500000
O O3 0.040139 0.500000 0.303054
O O4 0.810787 0.751023 0.815199
O O5 0.884898 0.880600 0.060982
O O6 0.000000 0.877700 0.000000
O O7 0.368156 0.373965 0.491433
O O8 0.380675 0.327778 0.277200
O O9 0.155297 0.409479 0.055113
O O10 0.067775 0.000000 0.710080
O O11 0.000000 0.500000 0.000000
#
# Coordination Sequence:
#
# PCOD8115127 Si02
#       5
#     4   8   8   8   4
#     4  12  29  48  72 103 145 189 240 289 356 429
#     4  12  28  45  71 103 142 184 231 296 356 418
#     4  11  24  44  69 103 137 184 233 288 349 425
#     4  11  22  45  74  96 138 188 239 282 351 422
#     4  12  26  43  70 105 144 180 234 297 355 414
#
# _framework density 21.459513000000001
#
# number of rings (size 3 to 8) (size 9 to 14) (size 15 to 20)
#    0.000    0.500    3.750    4.125   10.500    1.000 
#    0.000    0.000    0.000    0.000    0.000    0.000 
#    0.000    0.000    0.000    0.000    0.000    0.000 
#
# Total GULP energy -198343.536729 kJ/mol
# GULP energy per Si atom -12396.471046 kJ/mol
# Density = 2.141067 g / cm^3
# Si number density = 21.459513 Si / 1000 Ang^3
#
#
#
# Elastic Constant Matrix: (Units=GPa)
#
#
# Indices 1 2 3 4 5 6 
#
# 1 95.7755 19.8850 48.8170 0.0000 6.0247 0.0000
# 2 19.8850 133.9057 60.5719 0.0000 10.8303 0.0000
# 3 48.8170 60.5719 186.3189 0.0000 -14.8694 0.0000
# 4 0.0000 0.0000 0.0000 39.4593 0.0000 2.6388
# 5 6.0247 10.8303 -14.8694 0.0000 41.5584 0.0000
# 6 0.0000 0.0000 0.0000 2.6388 0.0000 17.4332
#
#
#
# Elastic Compliance Matrix: (Units=1/GPa)
#
#
# Indices 1 2 3 4 5 6 
#
# 1 0.012415 -0.000019 -0.003490 0.000000 -0.003043 0.000000
# 2 -0.000019 0.009248 -0.003287 0.000000 -0.003583 0.000000
# 3 -0.003490 -0.003287 0.007678 0.000000 0.004110 0.000000
# 4 0.000000 0.000000 0.000000 0.025602 0.000000 -0.003875
# 5 -0.003043 -0.003583 0.004110 0.000000 0.026908 0.000000
# 6 0.000000 0.000000 0.000000 -0.003875 0.000000 0.057948
#
#
# Mechanical properties :
#
#
# Convention : Reuss Voigt Hill
#
# Bulk Modulus (GPa) = 63.49613 74.94977 69.22295
# Shear Modulus (GPa) = 31.51782 38.80528 35.16155
#
# Velocity S-wave (km/s) = 3.83653 4.25703 4.05224
# Velocity P-wave (km/s) = 7.01985 7.69188 7.36354
#
# Compressibility (1/GPa) = 0.01574899
#
# Stress axis : x y z
#
# Youngs Moduli (GPa) = 80.54702 108.13579 130.23980
#
# Poissons Ratio (x) = 0.00205 0.45448
# Poissons Ratio (y) = 0.00153 0.42815
# Poissons Ratio (z) = 0.28107 0.35548
#
# Static dielectric constant tensor:
#      x y z
#    x 4.133760 0.000000 0.241630 
#    y 0.000000 3.951980 0.000000 
#    z 0.241630 0.000000 4.428410 
# 
# 
# High freq. dielectric constant tensor:
#      x y z
#    x 1.837400 0.000000 -0.000380 
#    y 0.000000 1.845340 0.000000 
#    z -0.000380 0.000000 1.870610 
# 
# From -- ./inp_files/129489.got.cif
#   From: 2010.06.25/outbox.cif.g09.slc.cpg/sg12_65_cif.got.tgz:129489.got - 2010.06.28 00:19:55.
