data_PCOD8115718
_publ_section_title
;
Structure prediction by ZEFSAII (Michael W. Deem and Ramdas Pophale) SiO2 
 PCOD8115718
Probable space group: C 2/M
;
_chemical_formula_sum "Si O2"
_cell_formula_units_Z 48
_cell_length_a 15.047730
_cell_length_b 26.931183
_cell_length_c 9.636521
_cell_angle_alpha 90.000000
_cell_angle_beta 38.575385
_cell_angle_gamma 90.000000
_cell_volume 2435.082335
_symmetry_space_group_name_H-M "C 2/M"
_symmetry_group_IT_number 12
_symmetry_cell_setting 'monoclinic'
loop_
_space_group_symop_operation_xyz
x,y,z
-x,y,-z
-x,-y,-z
x,-y,z
1/2+x,1/2+y,z
1/2-x,1/2+y,-z
1/2-x,1/2-y,-z
1/2+x,1/2-y,z
loop_
_atom_site_type_symbol
_atom_site_label
_atom_site_fract_x
_atom_site_fract_y
_atom_site_fract_z
Si Si1 0.106278 0.943698 0.669320
Si Si2 0.603664 0.352106 0.496700
Si Si3 0.708990 0.444171 0.847016
Si Si4 0.636092 0.851719 0.247341
Si Si5 0.572097 0.701812 0.054515
Si Si6 0.387976 0.183221 0.025017
O O1 0.162224 0.903726 0.489975
O O2 0.200787 0.938612 0.691471
O O3 0.118227 0.000000 0.596444
O O4 0.942602 0.929911 0.901390
O O5 0.500000 0.367700 0.500000
O O6 0.522610 0.318010 0.705001
O O7 0.732316 0.319306 0.281956
O O8 0.751108 0.500000 0.836471
O O9 0.830396 0.408851 0.758995
O O10 0.500000 0.833343 0.500000
O O11 0.767264 0.817392 0.132347
O O12 0.603501 0.849490 0.123907
O O13 0.500000 0.683230 0.000000
O O14 0.574164 0.760840 0.062253
O O15 0.500000 0.162143 0.000000
#
# Coordination Sequence:
#
# PCOD8115718 Si02
#       6
#     8   8   8   8   8   8
#     4   9  18  35  65  97 124 159 212 264 310 370
#     4  12  23  40  67  91 131 167 208 270 314 377
#     4   9  18  37  63  95 124 158 212 263 307 373
#     4  12  25  40  65  95 127 166 208 264 314 379
#     4  11  25  43  66  91 120 172 220 257 310 374
#     4  11  28  43  60  94 132 168 211 260 323 374
#
# _framework density 19.711859
#
# number of rings (size 3 to 8) (size 9 to 14) (size 15 to 20)
#    0.000    1.333    3.333    2.500    7.000    2.000 
#    0.000    0.833    0.000    1.000    0.000    0.000 
#    0.000    0.000    0.000    0.000    0.000    0.000 
#
# Total GULP energy -297706.300954 kJ/mol
# GULP energy per Si atom -12404.429206 kJ/mol
# Density = 1.966699 g / cm^3
# Si number density = 19.711859 Si / 1000 Ang^3
#
#
#
# Elastic Constant Matrix: (Units=GPa)
#
#
# Indices 1 2 3 4 5 6 
#
# 1 138.5701 47.3183 50.2625 0.0000 10.1883 0.0000
# 2 47.3183 93.7892 38.9200 0.0000 13.4708 0.0000
# 3 50.2625 38.9200 124.9921 0.0000 6.5002 0.0000
# 4 0.0000 0.0000 0.0000 11.5738 0.0000 -5.7474
# 5 10.1883 13.4708 6.5002 0.0000 30.4085 0.0000
# 6 0.0000 0.0000 0.0000 -5.7474 0.0000 36.7533
#
#
#
# Elastic Compliance Matrix: (Units=1/GPa)
#
#
# Indices 1 2 3 4 5 6 
#
# 1 0.009458 -0.003521 -0.002653 0.000000 -0.001042 0.000000
# 2 -0.003521 0.014245 -0.002784 0.000000 -0.004536 0.000000
# 3 -0.002653 -0.002784 0.009934 0.000000 -0.000002 0.000000
# 4 0.000000 0.000000 0.000000 0.093677 0.000000 0.014649
# 5 -0.001042 -0.004536 -0.000002 0.000000 0.035244 0.000000
# 6 0.000000 0.000000 0.000000 0.014649 0.000000 0.029499
#
#
# Mechanical properties :
#
#
# Convention : Reuss Voigt Hill
#
# Bulk Modulus (GPa) = 63.60546 70.03923 66.82235
# Shear Modulus (GPa) = 23.23274 30.47050 26.85162
#
# Velocity S-wave (km/s) = 3.43682 3.93593 3.69481
# Velocity P-wave (km/s) = 6.93446 7.50093 7.22325
#
# Compressibility (1/GPa) = 0.01572192
#
# Stress axis : x y z
#
# Youngs Moduli (GPa) = 105.73375 70.19807 100.66332
#
# Poissons Ratio (x) = 0.24718 0.26702
# Poissons Ratio (y) = 0.37231 0.28024
# Poissons Ratio (z) = 0.28047 0.19542
#
# Static dielectric constant tensor:
#      x y z
#    x 3.721440 0.000000 0.063370 
#    y 0.000000 3.618580 0.000000 
#    z 0.063370 0.000000 3.449570 
# 
# 
# High freq. dielectric constant tensor:
#      x y z
#    x 1.774380 0.000000 0.006970 
#    y 0.000000 1.774790 0.000000 
#    z 0.006970 0.000000 1.755190 
# 
# From -- ./inp_files/67303.got.cif
#   From: 2010.06.25/outbox.cif.g09.slc.cpg/sg12_34_cif.got.tgz:67303.got - 2010.06.28 00:19:55.
