data_PCOD8115544
_publ_section_title
;
Structure prediction by ZEFSAII (Michael W. Deem and Ramdas Pophale) SiO2 
 PCOD8115544
Probable space group: C 2/M
;
_chemical_formula_sum "Si O2"
_cell_formula_units_Z 48
_cell_length_a 17.467256
_cell_length_b 7.756255
_cell_length_c 31.439410
_cell_angle_alpha 90.000000
_cell_angle_beta 148.032772
_cell_angle_gamma 90.000000
_cell_volume 2255.085804
_symmetry_space_group_name_H-M "C 2/M"
_symmetry_group_IT_number 12
_symmetry_cell_setting 'monoclinic'
loop_
_space_group_symop_operation_xyz
x,y,z
-x,y,-z
-x,-y,-z
x,-y,z
1/2+x,1/2+y,z
1/2-x,1/2+y,-z
1/2-x,1/2-y,-z
1/2+x,1/2-y,z
loop_
_atom_site_type_symbol
_atom_site_label
_atom_site_fract_x
_atom_site_fract_y
_atom_site_fract_z
Si Si1 0.917069 0.693595 0.330174
Si Si2 0.114513 0.195943 0.861153
Si Si3 0.762145 0.000000 0.391840
Si Si4 0.941600 0.797103 0.016926
Si Si5 0.481881 0.500000 0.421471
Si Si6 0.036825 0.800503 0.296498
Si Si7 0.610059 0.809675 0.178642
O O1 0.976444 0.500000 0.367098
O O2 0.743105 0.684193 0.251946
O O3 0.956756 0.753929 0.301870
O O4 0.987922 0.825791 0.396661
O O5 0.079785 0.233211 0.795577
O O6 0.011292 0.307136 0.842343
O O7 0.084387 0.000000 0.859543
O O8 0.278808 0.240006 0.948485
O O9 0.837001 0.000000 0.381183
O O10 0.672131 0.175714 0.353060
O O11 0.876303 0.000000 0.483378
O O12 0.042252 0.726390 0.101154
O O13 0.950898 0.000000 0.021096
O O14 0.000000 0.720184 0.000000
O O15 0.089809 0.000000 0.321430
O O16 0.678718 0.000000 0.210184
#
# Coordination Sequence:
#
# PCOD8115544 Si02
#       7
#     8   8   4   8   4   8   8
#     4  12  24  44  71 102 137 181 226 282 341 410
#     4  11  24  40  63  93 130 173 225 278 336 401
#     4  11  26  46  74 102 140 181 221 287 340 410
#     4  11  24  40  60  89 125 173 224 280 337 395
#     4  11  26  48  70 106 140 175 231 277 346 410
#     4  11  24  44  70 104 136 180 229 280 340 410
#     4  12  24  40  64  92 132 174 223 280 336 402
#
# _framework density 21.285221
#
# number of rings (size 3 to 8) (size 9 to 14) (size 15 to 20)
#    0.000    0.667    2.500    5.000    2.333    7.333 
#    0.000    1.667    0.000    0.000    0.000    0.000 
#    0.000    0.000    0.000    0.000    0.000    0.000 
#
# Total GULP energy -297724.757826 kJ/mol
# GULP energy per Si atom -12405.198243 kJ/mol
# Density = 2.123678 g / cm^3
# Si number density = 21.285221 Si / 1000 Ang^3
#
#
#
# Elastic Constant Matrix: (Units=GPa)
#
#
# Indices 1 2 3 4 5 6 
#
# 1 62.5548 27.6699 -7.3679 -0.0015 -17.4777 0.0015
# 2 27.6699 138.2645 27.3113 -0.0184 -10.9773 0.0177
# 3 -7.3679 27.3113 61.8184 0.0141 -10.1338 -0.0133
# 4 -0.0015 -0.0184 0.0141 -361.6039 0.0126 366.2790
# 5 -17.4777 -10.9773 -10.1338 0.0126 39.4611 -0.0120
# 6 0.0015 0.0177 -0.0133 366.2790 -0.0120 -309.9604
#
#
#
# Elastic Compliance Matrix: (Units=1/GPa)
#
#
# Indices 1 2 3 4 5 6 
#
# 1 0.021598 -0.004785 0.006304 0.000000 0.009854 0.000000
# 2 -0.004785 0.009055 -0.004703 0.000000 -0.000808 0.000000
# 3 0.006304 -0.004703 0.020095 0.000001 0.006644 0.000000
# 4 0.000000 0.000000 0.000001 0.014040 0.000001 0.016591
# 5 0.009854 -0.000808 0.006644 0.000001 0.031187 0.000000
# 6 0.000000 0.000000 0.000000 0.016591 0.000000 0.016379
#
#
# Mechanical properties :
#
#
# Convention : Reuss Voigt Hill
#
# Bulk Modulus (GPa) = 22.53362 39.76269 31.14815
# Shear Modulus (GPa) = 37.44872 -112.08567 -37.31848
#
# Velocity S-wave (km/s) = 4.19904 -7.26452 -4.19173
# Velocity P-wave (km/s) = 5.84113 7.18630 2.96008
#
# Compressibility (1/GPa) = 0.04437813
#
# Stress axis : x y z
#
# Youngs Moduli (GPa) = 46.30035 110.43635 49.76426
#
# Poissons Ratio (x) = 0.52845 -0.31369
# Poissons Ratio (y) = 0.22155 0.23406
# Poissons Ratio (z) = -0.29186 0.51941
#
# Static dielectric constant tensor:
#      x y z
#    x 4.017180 0.000000 -0.127560 
#    y 0.000000 4.085350 0.000000 
#    z -0.127560 0.000000 3.739980 
# 
# 
# High freq. dielectric constant tensor:
#      x y z
#    x 1.849680 0.000000 -0.007420 
#    y 0.000000 1.851380 0.000000 
#    z -0.007420 0.000000 1.833820 
# 
# From -- ./inp_files/378578.got.cif
#   From: 2010.06.25/outbox.cif.g09.slc.cpg/sg12_190_cif.got.tgz:378578.got - 2010.06.28 00:19:55.
