data_PCOD8115207
_publ_section_title
;
Structure prediction by ZEFSAII (Michael W. Deem and Ramdas Pophale) SiO2 
 PCOD8115207
Probable space group: C 2/M
;
_chemical_formula_sum "Si O2"
_cell_formula_units_Z 48
_cell_length_a 17.070703
_cell_length_b 17.545635
_cell_length_c 17.510725
_cell_angle_alpha 90.000000
_cell_angle_beta 150.046789
_cell_angle_gamma 90.000000
_cell_volume 2618.663951
_symmetry_space_group_name_H-M "C 2/M"
_symmetry_group_IT_number 12
_symmetry_cell_setting 'monoclinic'
loop_
_space_group_symop_operation_xyz
x,y,z
-x,y,-z
-x,-y,-z
x,-y,z
1/2+x,1/2+y,z
1/2-x,1/2+y,-z
1/2-x,1/2-y,-z
1/2+x,1/2-y,z
loop_
_atom_site_type_symbol
_atom_site_label
_atom_site_fract_x
_atom_site_fract_y
_atom_site_fract_z
Si Si1 0.695204 0.296354 0.283327
Si Si2 0.917825 0.717670 0.116552
Si Si3 0.872934 0.413070 0.957367
Si Si4 0.149221 0.585055 0.680836
Si Si5 0.627479 0.673121 0.664152
Si Si6 0.974142 0.303276 0.629466
O O1 0.512750 0.282722 0.149891
O O2 0.707734 0.370176 0.239088
O O3 0.753924 0.222641 0.286828
O O4 0.799563 0.312342 0.447482
O O5 0.030042 0.698031 0.282712
O O6 0.750000 0.750000 0.000000
O O7 0.899016 0.641502 0.051392
O O8 0.874412 0.500000 0.988032
O O9 0.708080 0.395329 0.777544
O O10 0.000000 0.398050 0.000000
O O11 0.206482 0.500000 0.748661
O O12 0.091536 0.627195 0.708301
O O13 0.000000 0.586035 0.500000
O O14 0.500000 0.635930 0.500000
O O15 0.546887 0.725863 0.658975
#
# Coordination Sequence:
#
# PCOD8115207 Si02
#       6
#     8   8   8   8   8   8
#     4   9  18  33  55  81 108 141 185 219 257 329
#     4  12  22  34  55  79 109 147 178 222 271 316
#     4  11  23  39  56  77 108 147 184 224 272 325
#     4   8  15  31  56  83 108 135 171 221 273 319
#     4   9  17  35  59  81 104 138 185 228 266 319
#     4   9  18  32  56  84 107 138 178 223 269 321
#
# _framework density 18.329957
#
# number of rings (size 3 to 8) (size 9 to 14) (size 15 to 20)
#    0.000    2.333    3.333    2.500    0.000    1.000 
#    0.000    0.833    0.000    1.000    0.000    0.000 
#    0.000    0.000    0.000    0.000    0.000    0.000 
#
# Total GULP energy -297488.017621 kJ/mol
# GULP energy per Si atom -12395.334068 kJ/mol
# Density = 1.828824 g / cm^3
# Si number density = 18.329957 Si / 1000 Ang^3
#
#
#
# Elastic Constant Matrix: (Units=GPa)
#
#
# Indices 1 2 3 4 5 6 
#
# 1 82.9335 46.0411 31.5810 -0.0004 6.6080 0.0006
# 2 46.0411 103.5071 33.6930 -0.0014 5.8582 0.0009
# 3 31.5810 33.6930 69.5485 -0.0012 0.0339 0.0012
# 4 -0.0004 -0.0014 -0.0012 23.3470 -0.0019 -2.5778
# 5 6.6080 5.8582 0.0339 -0.0019 36.4577 0.0004
# 6 0.0006 0.0009 0.0012 -2.5778 0.0004 18.5076
#
#
#
# Elastic Compliance Matrix: (Units=1/GPa)
#
#
# Indices 1 2 3 4 5 6 
#
# 1 0.017487 -0.006019 -0.005024 0.000000 -0.002198 0.000000
# 2 -0.006019 0.013666 -0.003887 0.000000 -0.001101 0.000000
# 3 -0.005024 -0.003887 0.018542 0.000001 0.001518 -0.000001
# 4 0.000000 0.000000 0.000001 0.043501 0.000002 0.006059
# 5 -0.002198 -0.001101 0.001518 0.000002 0.028003 0.000000
# 6 0.000000 0.000000 -0.000001 0.006059 0.000000 0.054876
#
#
# Mechanical properties :
#
#
# Convention : Reuss Voigt Hill
#
# Bulk Modulus (GPa) = 50.41301 53.17991 51.79646
# Shear Modulus (GPa) = 23.52423 25.30739 24.41581
#
# Velocity S-wave (km/s) = 3.58631 3.71975 3.65364
# Velocity P-wave (km/s) = 6.68667 6.89379 6.79102
#
# Compressibility (1/GPa) = 0.01983615
#
# Stress axis : x y z
#
# Youngs Moduli (GPa) = 57.18373 73.17415 53.93160
#
# Poissons Ratio (x) = 0.44043 0.27095
# Poissons Ratio (y) = 0.34418 0.20963
# Poissons Ratio (z) = 0.28728 0.28442
#
# Static dielectric constant tensor:
#      x y z
#    x 3.363100 0.000000 -0.082390 
#    y 0.000000 3.338520 0.000000 
#    z -0.082390 0.000000 3.403310 
# 
# 
# High freq. dielectric constant tensor:
#      x y z
#    x 1.708010 0.000000 -0.005000 
#    y 0.000000 1.690220 0.000000 
#    z -0.005000 0.000000 1.704260 
# 
# From -- ./inp_files/97564.got.cif
#   From: 2010.06.25/outbox.cif.g09.slc.cpg/sg12_49_cif.got.tgz:97564.got - 2010.06.28 00:19:55.
