data_PCOD8115714
_publ_section_title
;
Structure prediction by ZEFSAII (Michael W. Deem and Ramdas Pophale) SiO2 
 PCOD8115714
Probable space group: C 2/M
;
_chemical_formula_sum "Si O2"
_cell_formula_units_Z 48
_cell_length_a 9.420060
_cell_length_b 26.622863
_cell_length_c 14.818723
_cell_angle_alpha 90.000000
_cell_angle_beta 35.700033
_cell_angle_gamma 90.000000
_cell_volume 2168.658092
_symmetry_space_group_name_H-M "C 2/M"
_symmetry_group_IT_number 12
_symmetry_cell_setting 'monoclinic'
loop_
_space_group_symop_operation_xyz
x,y,z
-x,y,-z
-x,-y,-z
x,-y,z
1/2+x,1/2+y,z
1/2-x,1/2+y,-z
1/2-x,1/2-y,-z
1/2+x,1/2-y,z
loop_
_atom_site_type_symbol
_atom_site_label
_atom_site_fract_x
_atom_site_fract_y
_atom_site_fract_z
Si Si1 0.107589 0.892812 0.349885
Si Si2 0.776812 0.338823 0.870987
Si Si3 0.503762 0.220013 0.600939
Si Si4 0.333075 0.055864 0.508095
Si Si5 0.960171 0.445440 0.793028
Si Si6 0.098699 0.701286 0.851795
O O1 0.287534 0.938576 0.282454
O O2 0.252451 0.850381 0.222223
O O3 0.000000 0.871139 0.500000
O O4 0.903925 0.910295 0.384988
O O5 0.952873 0.327930 0.693181
O O6 0.786491 0.397330 0.897516
O O7 0.870946 0.303158 0.902139
O O8 0.500000 0.323236 0.000000
O O9 0.500000 0.200292 0.500000
O O10 0.273301 0.255515 0.728003
O O11 0.750000 0.250000 0.500000
O O12 0.500000 0.080372 0.500000
O O13 0.491867 0.052097 0.337115
O O14 0.249005 0.000000 0.581616
O O15 0.847564 0.500000 0.881181
O O16 0.000000 0.715262 0.000000
#
# Coordination Sequence:
#
# PCOD8115714 Si02
#       6
#     8   8   8   8   8   8
#     4   9  18  35  62  87 121 166 219 264 316 385
#     4  11  26  44  65  98 135 175 219 268 332 392
#     4  12  26  45  72 100 129 170 216 274 327 395
#     4   9  17  29  51  86 122 155 206 272 325 371
#     4   9  19  37  61  89 125 172 220 264 318 384
#     4  11  25  43  64  93 135 173 212 268 329 393
#
# _framework density 22.133502
#
# number of rings (size 3 to 8) (size 9 to 14) (size 15 to 20)
#    0.000    1.833    1.667    1.500    7.000    5.667 
#    0.000    0.000    0.000   12.500    0.000    0.000 
#    0.000    0.000    0.000    0.000    0.000    0.000 
#
# Total GULP energy -297530.994924 kJ/mol
# GULP energy per Si atom -12397.124789 kJ/mol
# Density = 2.208313 g / cm^3
# Si number density = 22.133502 Si / 1000 Ang^3
#
#
#
# Elastic Constant Matrix: (Units=GPa)
#
#
# Indices 1 2 3 4 5 6 
#
# 1 170.8235 28.1247 42.6941 0.0000 -14.6588 0.0000
# 2 28.1247 88.9441 22.0485 0.0000 -5.7085 0.0000
# 3 42.6941 22.0485 81.0733 0.0000 -6.8613 0.0000
# 4 0.0000 0.0000 0.0000 7.2255 0.0000 3.7437
# 5 -14.6588 -5.7085 -6.8613 0.0000 41.0025 0.0000
# 6 0.0000 0.0000 0.0000 3.7437 0.0000 27.7303
#
#
#
# Elastic Compliance Matrix: (Units=1/GPa)
#
#
# Indices 1 2 3 4 5 6 
#
# 1 0.007021 -0.001315 -0.003188 0.000000 0.001794 0.000000
# 2 -0.001315 0.012355 -0.002599 0.000000 0.000815 0.000000
# 3 -0.003188 -0.002599 0.014803 0.000000 0.000975 0.000000
# 4 0.000000 0.000000 0.000000 0.148808 0.000000 -0.020090
# 5 0.001794 0.000815 0.000975 0.000000 0.025307 0.000000
# 6 0.000000 0.000000 0.000000 -0.020090 0.000000 0.038774
#
#
# Mechanical properties :
#
#
# Convention : Reuss Voigt Hill
#
# Bulk Modulus (GPa) = 50.06006 58.50841 54.28423
# Shear Modulus (GPa) = 18.66161 31.72321 25.19241
#
# Velocity S-wave (km/s) = 2.90683 3.78996 3.37739
# Velocity P-wave (km/s) = 5.82518 6.75599 6.30778
#
# Compressibility (1/GPa) = 0.01997600
#
# Stress axis : x y z
#
# Youngs Moduli (GPa) = 142.42641 80.93703 67.55517
#
# Poissons Ratio (x) = 0.10641 0.21537
# Poissons Ratio (y) = 0.18725 0.17556
# Poissons Ratio (z) = 0.45407 0.21034
#
# Static dielectric constant tensor:
#      x y z
#    x 4.179410 0.000000 0.007230 
#    y 0.000000 4.220870 0.000000 
#    z 0.007230 0.000000 3.989630 
# 
# 
# High freq. dielectric constant tensor:
#      x y z
#    x 1.884250 0.000000 -0.010020 
#    y 0.000000 1.879020 0.000000 
#    z -0.010020 0.000000 1.839630 
# 
# From -- ./inp_files/200128.got.cif
#   From: 2010.06.25/outbox.cif.g09.slc.cpg/sg12_101_cif.got.tgz:200128.got - 2010.06.28 00:19:55.
