data_PCOD8115231
_publ_section_title
;
Structure prediction by ZEFSAII (Michael W. Deem and Ramdas Pophale) SiO2 
 PCOD8115231
Probable space group: C 2/M
;
_chemical_formula_sum "Si O2"
_cell_formula_units_Z 64
_cell_length_a 20.289059
_cell_length_b 8.589515
_cell_length_c 21.576251
_cell_angle_alpha 90.000000
_cell_angle_beta 61.853532
_cell_angle_gamma 90.000000
_cell_volume 3315.502273
_symmetry_space_group_name_H-M "C 2/M"
_symmetry_group_IT_number 12
_symmetry_cell_setting 'monoclinic'
loop_
_space_group_symop_operation_xyz
x,y,z
-x,y,-z
-x,-y,-z
x,-y,z
1/2+x,1/2+y,z
1/2-x,1/2+y,-z
1/2-x,1/2-y,-z
1/2+x,1/2-y,z
loop_
_atom_site_type_symbol
_atom_site_label
_atom_site_fract_x
_atom_site_fract_y
_atom_site_fract_z
Si Si1 0.667597 0.820522 0.925391
Si Si2 0.024186 0.814429 0.555600
Si Si3 0.086925 0.820306 0.075571
Si Si4 0.828707 0.184324 0.445155
Si Si5 0.596147 0.321710 0.712270
Si Si6 0.058438 0.178601 0.287262
Si Si7 0.327599 0.179454 0.849788
Si Si8 0.927816 0.320854 0.150878
O O1 0.755083 0.786516 0.884828
O O2 0.633385 0.782072 0.873723
O O3 0.654856 0.000000 0.949408
O O4 0.627966 0.711946 0.993016
O O5 0.107128 0.753750 0.536367
O O6 0.000000 0.744137 0.500000
O O7 0.965197 0.760179 0.634136
O O8 0.024997 0.000000 0.553852
O O9 0.121281 0.713385 0.113649
O O10 0.999570 0.785446 0.106758
O O11 0.097456 0.000000 0.089354
O O12 0.750000 0.250000 0.500000
O O13 0.848845 0.238585 0.366493
O O14 0.826942 0.000000 0.448152
O O15 0.613980 0.500000 0.721013
O O16 0.510653 0.304927 0.728949
O O17 0.609989 0.216647 0.766299
O O18 0.126627 0.282942 0.233021
O O19 0.084888 0.000000 0.278518
O O20 0.303727 0.000000 0.860088
O O21 0.952703 0.500000 0.137428
#
# Coordination Sequence:
#
# PCOD8115231 Si02
#       8
#     8   8   8   8   8   8   8   8
#     4  11  25  43  59  83 119 151 187 238 290 337
#     4   8  15  31  56  83 110 144 189 232 273 329
#     4  12  24  40  64  88 114 150 190 232 285 344
#     4   9  18  33  54  82 113 148 188 229 279 332
#     4   9  18  34  57  81 111 153 194 232 277 337
#     4   9  17  33  58  84 110 148 193 235 280 332
#     4  12  24  39  60  86 116 151 194 237 284 339
#     4  11  23  39  61  88 115 148 193 239 282 337
#
# _framework density 19.303260000000002
#
# number of rings (size 3 to 8) (size 9 to 14) (size 15 to 20)
#    0.000    1.875    1.250    5.250    0.000    4.000 
#    2.250    1.875    0.000    0.750    0.000    0.000 
#    0.000    0.000    0.000    0.000    0.000    0.000 
#
# Total GULP energy -396881.705323 kJ/mol
# GULP energy per Si atom -12402.553291 kJ/mol
# Density = 1.925933 g / cm^3
# Si number density = 19.303260 Si / 1000 Ang^3
#
#
#
# Elastic Constant Matrix: (Units=GPa)
#
#
# Indices 1 2 3 4 5 6 
#
# 1 75.4127 21.7312 49.9649 0.0002 -0.7323 -0.0011
# 2 21.7312 49.4055 25.2522 -0.0008 1.8372 -0.0017
# 3 49.9649 25.2522 136.4159 0.0002 0.4600 -0.0003
# 4 0.0002 -0.0008 0.0002 30.3145 0.0001 -2.9082
# 5 -0.7323 1.8372 0.4600 0.0001 34.5550 -0.0002
# 6 -0.0011 -0.0017 -0.0003 -2.9082 -0.0002 26.5846
#
#
#
# Elastic Compliance Matrix: (Units=1/GPa)
#
#
# Indices 1 2 3 4 5 6 
#
# 1 0.018666 -0.005238 -0.005870 0.000000 0.000752 0.000000
# 2 -0.005238 0.023870 -0.002496 0.000001 -0.001347 0.000001
# 3 -0.005870 -0.002496 0.009943 0.000000 -0.000124 0.000000
# 4 0.000000 0.000001 0.000000 0.033337 0.000000 0.003647
# 5 0.000752 -0.001347 -0.000124 0.000000 0.029029 0.000000
# 6 0.000000 0.000001 0.000000 0.003647 0.000000 0.038015
#
#
# Mechanical properties :
#
#
# Convention : Reuss Voigt Hill
#
# Bulk Modulus (GPa) = 39.56902 50.57009 45.06955
# Shear Modulus (GPa) = 26.52647 29.24320 27.88484
#
# Velocity S-wave (km/s) = 3.71104 3.89644 3.80487
# Velocity P-wave (km/s) = 6.23743 6.81891 6.53464
#
# Compressibility (1/GPa) = 0.02527230
#
# Stress axis : x y z
#
# Youngs Moduli (GPa) = 53.57298 41.89304 100.57541
#
# Poissons Ratio (x) = 0.21944 0.59035
# Poissons Ratio (y) = 0.28063 0.25099
# Poissons Ratio (z) = 0.31446 0.10455
#
# Static dielectric constant tensor:
#      x y z
#    x 3.118960 0.000000 0.250850 
#    y 0.000000 3.323250 0.000000 
#    z 0.250850 0.000000 3.696030 
# 
# 
# High freq. dielectric constant tensor:
#      x y z
#    x 1.740260 0.000000 0.000650 
#    y 0.000000 1.736810 0.000000 
#    z 0.000650 0.000000 1.764390 
# 
# From -- ./inp_files/319841.got.cif
#   From: 2010.06.25/outbox.cif.g09.slc.cpg/sg12_160_cif.got.tgz:319841.got - 2010.06.28 00:19:55.
