data_PCOD8115349
_publ_section_title
;
Structure prediction by ZEFSAII (Michael W. Deem and Ramdas Pophale) SiO2 
 PCOD8115349
Probable space group: C 2/M
;
_chemical_formula_sum "Si O2"
_cell_formula_units_Z 36
_cell_length_a 11.939391
_cell_length_b 26.925064
_cell_length_c 8.000688
_cell_angle_alpha 90.000000
_cell_angle_beta 139.241218
_cell_angle_gamma 90.000000
_cell_volume 1679.178501
_symmetry_space_group_name_H-M "C 2/M"
_symmetry_group_IT_number 12
_symmetry_cell_setting 'monoclinic'
loop_
_space_group_symop_operation_xyz
x,y,z
-x,y,-z
-x,-y,-z
x,-y,z
1/2+x,1/2+y,z
1/2-x,1/2+y,-z
1/2-x,1/2-y,-z
1/2+x,1/2-y,z
loop_
_atom_site_type_symbol
_atom_site_label
_atom_site_fract_x
_atom_site_fract_y
_atom_site_fract_z
Si Si1 0.451708 0.249167 0.251461
Si Si2 0.423024 0.650029 0.736294
Si Si3 0.964468 0.357135 0.651269
Si Si4 0.141325 0.445793 0.018921
Si Si5 0.000000 0.907793 0.500000
O O1 0.500000 0.255801 0.500000
O O2 0.551429 0.290814 0.255663
O O3 0.503432 0.196331 0.227801
O O4 0.250000 0.250000 0.000000
O O5 0.229095 0.629730 0.518855
O O6 0.518219 0.625032 0.687643
O O7 0.500000 0.632536 0.000000
O O8 0.000000 0.347160 0.500000
O O9 0.098338 0.400296 0.848867
O O10 0.132969 0.500000 0.918682
O O11 0.329406 0.441023 0.313108
O O12 0.000000 0.443779 0.000000
#
# Coordination Sequence:
#
# PCOD8115349 Si02
#       5
#     8   8   8   8   4
#     4  11  23  41  65  99 139 186 231 280 348 416
#     4  12  24  42  69 102 139 184 229 278 344 419
#     4  11  24  43  66  98 137 179 228 286 344 410
#     4  11  24  44  70  98 132 181 231 285 350 408
#     4  12  23  46  72 102 142 178 227 288 348 406
#
# _framework density 21.439053000000001
#
# number of rings (size 3 to 8) (size 9 to 14) (size 15 to 20)
#    0.000    0.667    3.333    6.333    0.000    1.333 
#    0.000    0.000    0.000    3.333    0.000    0.000 
#    0.000    0.000    0.000    0.000    0.000    0.000 
#
# Total GULP energy -223122.460402 kJ/mol
# GULP energy per Si atom -12395.692245 kJ/mol
# Density = 2.139026 g / cm^3
# Si number density = 21.439053 Si / 1000 Ang^3
#
#
#
# Elastic Constant Matrix: (Units=GPa)
#
#
# Indices 1 2 3 4 5 6 
#
# 1 96.8602 28.4791 43.0743 0.0000 7.9459 0.0000
# 2 28.4791 119.2997 39.8076 0.0000 2.3894 0.0000
# 3 43.0743 39.8076 139.8078 0.0000 18.9639 0.0000
# 4 0.0000 0.0000 0.0000 15.8447 0.0000 4.4949
# 5 7.9459 2.3894 18.9639 0.0000 47.6730 0.0000
# 6 0.0000 0.0000 0.0000 4.4949 0.0000 87.8042
#
#
#
# Elastic Compliance Matrix: (Units=1/GPa)
#
#
# Indices 1 2 3 4 5 6 
#
# 1 0.012344 -0.001873 -0.003175 0.000000 -0.000701 0.000000
# 2 -0.001873 0.009564 -0.002244 0.000000 0.000726 0.000000
# 3 -0.003175 -0.002244 0.009178 0.000000 -0.003009 0.000000
# 4 0.000000 0.000000 0.000000 0.064043 0.000000 -0.003278
# 5 -0.000701 0.000726 -0.003009 0.000000 0.022254 0.000000
# 6 0.000000 0.000000 0.000000 -0.003278 0.000000 0.011557
#
#
# Mechanical properties :
#
#
# Convention : Reuss Voigt Hill
#
# Bulk Modulus (GPa) = 60.60216 64.29885 62.45051
# Shear Modulus (GPa) = 33.55148 46.57152 40.06150
#
# Velocity S-wave (km/s) = 3.96026 4.66582 4.32745
# Velocity P-wave (km/s) = 7.01713 7.68655 7.35946
#
# Compressibility (1/GPa) = 0.01650106
#
# Stress axis : x y z
#
# Youngs Moduli (GPa) = 81.00903 104.56062 108.95577
#
# Poissons Ratio (x) = 0.19589 0.34591
# Poissons Ratio (y) = 0.15177 0.24454
# Poissons Ratio (z) = 0.25718 0.23467
#
# Static dielectric constant tensor:
#      x y z
#    x 3.719790 0.000000 0.150080 
#    y 0.000000 4.418770 0.000000 
#    z 0.150080 0.000000 3.737080 
# 
# 
# High freq. dielectric constant tensor:
#      x y z
#    x 1.844200 0.000000 0.017150 
#    y 0.000000 1.842530 0.000000 
#    z 0.017150 0.000000 1.845300 
# 
# From -- ./inp_files/52948.got.cif
#   From: 2010.06.25/outbox.cif.g09.slc.cpg/sg12_27_cif.got.tgz:52948.got - 2010.06.28 00:19:55.
