data_PCOD8115128
_publ_section_title
;
Structure prediction by ZEFSAII (Michael W. Deem and Ramdas Pophale) SiO2 
 PCOD8115128
Probable space group: C 2/M
;
_chemical_formula_sum "Si O2"
_cell_formula_units_Z 52
_cell_length_a 18.886299
_cell_length_b 12.634254
_cell_length_c 11.087834
_cell_angle_alpha 90.000000
_cell_angle_beta 61.576089
_cell_angle_gamma 90.000000
_cell_volume 2326.774718
_symmetry_space_group_name_H-M "C 2/M"
_symmetry_group_IT_number 12
_symmetry_cell_setting 'monoclinic'
loop_
_space_group_symop_operation_xyz
x,y,z
-x,y,-z
-x,-y,-z
x,-y,z
1/2+x,1/2+y,z
1/2-x,1/2+y,-z
1/2-x,1/2-y,-z
1/2+x,1/2-y,z
loop_
_atom_site_type_symbol
_atom_site_label
_atom_site_fract_x
_atom_site_fract_y
_atom_site_fract_z
Si Si1 0.152725 0.687167 0.810332
Si Si2 0.821028 0.120745 0.585593
Si Si3 0.920620 0.500000 0.493073
Si Si4 0.661207 0.000000 0.192321
Si Si5 0.421847 0.381616 0.742222
Si Si6 0.917072 0.500000 0.991598
Si Si7 0.205637 0.835061 0.960832
Si Si8 0.429226 0.774418 0.355631
O O1 0.226605 0.643454 0.671705
O O2 0.172451 0.796827 0.859369
O O3 0.077728 0.709180 0.782404
O O4 0.131544 0.603472 0.930687
O O5 0.863126 0.142418 0.679115
O O6 0.857193 0.199440 0.457553
O O7 0.833745 0.000000 0.532496
O O8 0.855818 0.500000 0.651711
O O9 0.919434 0.391839 0.417566
O O10 0.000000 0.500000 0.500000
O O11 0.584459 0.000000 0.156568
O O12 0.717470 0.903485 0.124116
O O13 0.461343 0.500000 0.696374
O O14 0.486867 0.286434 0.686247
O O15 0.369305 0.385112 0.906333
O O16 0.000000 0.500000 0.000000
O O17 0.250000 0.750000 0.000000
#
# Coordination Sequence:
#
# PCOD8115128 Si02
#       8
#     8   8   4   4   8   4   8   8
#     4  12  26  45  70 104 142 189 236 292 361 426
#     4  11  22  45  75  99 136 189 244 292 349 431
#     4  12  29  44  71 106 150 194 235 297 357 437
#     4  12  26  50  74 108 140 188 242 300 359 423
#     4  11  24  47  75 107 139 186 242 297 359 423
#     4  12  27  44  71 103 144 184 235 298 355 430
#     4  12  24  44  77 103 138 183 239 298 352 427
#     4  12  28  46  68 107 152 187 235 296 364 432
#
# _framework density 22.348531999999999
#
# number of rings (size 3 to 8) (size 9 to 14) (size 15 to 20)
#    0.000    0.308    4.615    3.692    6.462    1.231 
#    2.769    0.769    0.000    0.000    0.000    0.000 
#    0.000    0.000    0.000    0.000    0.000    0.000 
#
# Total GULP energy -322211.476114 kJ/mol
# GULP energy per Si atom -12392.749081 kJ/mol
# Density = 2.229767 g / cm^3
# Si number density = 22.348532 Si / 1000 Ang^3
#
#
#
# Elastic Constant Matrix: (Units=GPa)
#
#
# Indices 1 2 3 4 5 6 
#
# 1 89.0945 34.4844 18.6289 0.0000 12.4976 0.0000
# 2 34.4844 142.1844 36.3823 0.0000 9.5675 0.0000
# 3 18.6289 36.3823 78.0243 0.0000 7.5248 0.0000
# 4 0.0000 0.0000 0.0000 -3.3244 0.0000 -66.7913
# 5 12.4976 9.5675 7.5248 0.0000 47.2057 0.0000
# 6 0.0000 0.0000 0.0000 -66.7913 0.0000 -62.8756
#
#
#
# Elastic Compliance Matrix: (Units=1/GPa)
#
#
# Indices 1 2 3 4 5 6 
#
# 1 0.012920 -0.002534 -0.001648 0.000000 -0.002644 0.000000
# 2 -0.002534 0.008534 -0.003323 0.000000 -0.000529 0.000000
# 3 -0.001648 -0.003323 0.014881 0.000000 -0.001262 0.000000
# 4 0.000000 0.000000 0.000000 0.014787 0.000000 -0.015708
# 5 -0.002644 -0.000529 -0.001262 0.000000 0.022192 0.000000
# 6 0.000000 0.000000 0.000000 -0.015708 0.000000 0.000782
#
#
# Mechanical properties :
#
#
# Convention : Reuss Voigt Hill
#
# Bulk Modulus (GPa) = 46.89409 54.25494 50.57451
# Shear Modulus (GPa) = 51.96664 10.85499 31.41081
#
# Velocity S-wave (km/s) = 4.82735 2.20628 3.75306
# Velocity P-wave (km/s) = 7.21801 5.55155 6.43892
#
# Compressibility (1/GPa) = 0.02132465
#
# Stress axis : x y z
#
# Youngs Moduli (GPa) = 77.39716 117.18370 67.19815
#
# Poissons Ratio (x) = 0.29694 0.11076
# Poissons Ratio (y) = 0.19612 0.22331
# Poissons Ratio (z) = 0.12757 0.38942
#
# Static dielectric constant tensor:
#      x y z
#    x 4.077700 0.000000 -0.382730 
#    y 0.000000 -3.334850 0.000000 
#    z -0.382730 0.000000 4.060980 
# 
# 
# High freq. dielectric constant tensor:
#      x y z
#    x 1.882000 0.000000 -0.000870 
#    y 0.000000 1.899640 0.000000 
#    z -0.000870 0.000000 1.884030 
# 
# From -- ./inp_files/165580.got.cif
#   From: 2010.06.25/outbox.cif.g09.slc.cpg/sg12_83_cif.got.tgz:165580.got - 2010.06.28 00:19:55.
