data_PCOD8115741
_publ_section_title
;
Structure prediction by ZEFSAII (Michael W. Deem and Ramdas Pophale) SiO2 
 PCOD8115741
Probable space group: C 2/M
;
_chemical_formula_sum "Si O2"
_cell_formula_units_Z 40
_cell_length_a 7.716979
_cell_length_b 27.326471
_cell_length_c 8.405872
_cell_angle_alpha 90.000000
_cell_angle_beta 89.349278
_cell_angle_gamma 90.000000
_cell_volume 1772.497498
_symmetry_space_group_name_H-M "C 2/M"
_symmetry_group_IT_number 12
_symmetry_cell_setting 'monoclinic'
loop_
_space_group_symop_operation_xyz
x,y,z
-x,y,-z
-x,-y,-z
x,-y,z
1/2+x,1/2+y,z
1/2-x,1/2+y,-z
1/2-x,1/2-y,-z
1/2+x,1/2-y,z
loop_
_atom_site_type_symbol
_atom_site_label
_atom_site_fract_x
_atom_site_fract_y
_atom_site_fract_z
Si Si1 0.640147 0.717565 0.882690
Si Si2 0.642777 0.213613 0.611560
Si Si3 0.684719 0.119544 0.793202
Si Si4 0.006524 0.056526 0.314050
Si Si5 0.206241 0.621056 0.168326
O O1 0.554740 0.753731 0.752611
O O2 0.743528 0.676298 0.780858
O O3 0.500000 0.691729 0.000000
O O4 0.750000 0.750000 0.000000
O O5 0.500000 0.189085 0.500000
O O6 0.750000 0.250000 0.500000
O O7 0.744608 0.168438 0.695284
O O8 0.805464 0.074790 0.742305
O O9 0.482262 0.107186 0.759431
O O10 0.706554 0.125947 0.979263
O O11 0.000000 0.066145 0.500000
O O12 0.847468 0.082900 0.228457
O O13 0.990950 0.000000 0.268772
#
# Coordination Sequence:
#
# PCOD8115741 Si02
#       5
#     8   8   8   8   8
#     4  12  23  41  65  99 146 193 238 286 347 427
#     4  12  27  40  62 104 144 191 241 290 353 426
#     4  11  25  47  71 106 143 188 241 297 358 428
#     4  11  28  50  75 108 144 184 236 303 374 432
#     4  11  25  45  75 105 143 190 243 299 355 428
#
# _framework density 22.567027
#
# number of rings (size 3 to 8) (size 9 to 14) (size 15 to 20)
#    0.000    0.600    2.000    5.400    8.400    2.400 
#    0.000    4.000    0.000    0.000    0.000    0.000 
#    0.000    0.000    0.000    0.000    0.000    0.000 
#
# Total GULP energy -247912.217856 kJ/mol
# GULP energy per Si atom -12395.610893 kJ/mol
# Density = 2.251566 g / cm^3
# Si number density = 22.567027 Si / 1000 Ang^3
#
#
#
# Elastic Constant Matrix: (Units=GPa)
#
#
# Indices 1 2 3 4 5 6 
#
# 1 143.4100 65.2307 39.1220 0.0000 4.2035 0.0000
# 2 65.2307 127.2524 54.2014 0.0000 11.5881 0.0000
# 3 39.1220 54.2014 111.1312 0.0000 9.8495 0.0000
# 4 0.0000 0.0000 0.0000 43.5987 0.0000 4.2785
# 5 4.2035 11.5881 9.8495 0.0000 34.3607 0.0000
# 6 0.0000 0.0000 0.0000 4.2785 0.0000 40.1567
#
#
#
# Elastic Compliance Matrix: (Units=1/GPa)
#
#
# Indices 1 2 3 4 5 6 
#
# 1 0.009230 -0.004270 -0.001226 0.000000 0.000662 0.000000
# 2 -0.004270 0.012031 -0.004157 0.000000 -0.002344 0.000000
# 3 -0.001226 -0.004157 0.011615 0.000000 -0.001778 0.000000
# 4 0.000000 0.000000 0.000000 0.023179 0.000000 -0.002470
# 5 0.000662 -0.002344 -0.001778 0.000000 0.030322 0.000000
# 6 0.000000 0.000000 0.000000 -0.002470 0.000000 0.025166
#
#
# Mechanical properties :
#
#
# Convention : Reuss Voigt Hill
#
# Bulk Modulus (GPa) = 73.68444 77.65574 75.67009
# Shear Modulus (GPa) = 36.93562 38.50586 37.72074
#
# Velocity S-wave (km/s) = 4.05001 4.13521 4.09283
# Velocity P-wave (km/s) = 7.38867 7.56874 7.47924
#
# Compressibility (1/GPa) = 0.01357139
#
# Stress axis : x y z
#
# Youngs Moduli (GPa) = 108.34225 83.11768 86.09658
#
# Poissons Ratio (x) = 0.35489 0.10551
# Poissons Ratio (y) = 0.46259 0.35791
# Poissons Ratio (z) = 0.13278 0.34553
#
# Static dielectric constant tensor:
#      x y z
#    x 3.757030 0.000000 -0.022080 
#    y 0.000000 3.936920 0.000000 
#    z -0.022080 0.000000 4.639680 
# 
# 
# High freq. dielectric constant tensor:
#      x y z
#    x 1.894590 0.000000 0.001720 
#    y 0.000000 1.872200 0.000000 
#    z 0.001720 0.000000 1.913440 
# 
# From -- ./inp_files/40545.got.cif
#   From: 2010.06.25/outbox.cif.g09.slc.cpg/sg12_21_cif.got.tgz:40545.got - 2010.06.28 00:19:55.
