data_PCOD8115183
_publ_section_title
;
Structure prediction by ZEFSAII (Michael W. Deem and Ramdas Pophale) SiO2 
 PCOD8115183
Probable space group: C 2/M
;
_chemical_formula_sum "Si O2"
_cell_formula_units_Z 56
_cell_length_a 14.965299
_cell_length_b 8.619441
_cell_length_c 28.458720
_cell_angle_alpha 90.000000
_cell_angle_beta 48.249535
_cell_angle_gamma 90.000000
_cell_volume 2738.728267
_symmetry_space_group_name_H-M "C 2/M"
_symmetry_group_IT_number 12
_symmetry_cell_setting 'monoclinic'
loop_
_space_group_symop_operation_xyz
x,y,z
-x,y,-z
-x,-y,-z
x,-y,z
1/2+x,1/2+y,z
1/2-x,1/2+y,-z
1/2-x,1/2-y,-z
1/2+x,1/2-y,z
loop_
_atom_site_type_symbol
_atom_site_label
_atom_site_fract_x
_atom_site_fract_y
_atom_site_fract_z
Si Si1 0.887671 0.681215 0.070013
Si Si2 0.540167 0.319627 0.264374
Si Si3 0.287522 0.177810 0.937922
Si Si4 0.466788 0.825239 0.194031
Si Si5 0.402772 0.816533 0.495855
Si Si6 0.210489 0.178194 0.806146
Si Si7 0.869939 0.182474 0.408408
O O1 0.897588 0.500000 0.078386
O O2 0.767647 0.716697 0.083541
O O3 0.881734 0.776887 0.120161
O O4 0.000000 0.738851 0.000000
O O5 0.524847 0.500000 0.257794
O O6 0.515773 0.217583 0.227564
O O7 0.674517 0.287766 0.233902
O O8 0.449224 0.265850 0.336622
O O9 0.429586 0.186494 0.881556
O O10 0.242363 0.000000 0.950283
O O11 0.250000 0.250000 0.000000
O O12 0.359362 0.709593 0.217937
O O13 0.417154 0.000000 0.212960
O O14 0.500000 0.749675 0.500000
O O15 0.266362 0.761525 0.554863
O O16 0.429788 0.758732 0.433641
O O17 0.412412 0.000000 0.493131
O O18 0.249622 0.000000 0.796193
O O19 0.872702 0.000000 0.415694
#
# Coordination Sequence:
#
# PCOD8115183 Si02
#       7
#     8   8   8   8   8   8   8
#     4  11  23  39  60  86 117 152 195 250 312 373
#     4  11  23  41  63  88 125 167 209 258 307 365
#     4  11  23  38  59  86 117 152 196 249 307 374
#     4  11  24  42  62  88 120 157 203 253 309 374
#     4   9  18  35  60  90 126 163 202 248 295 351
#     4  12  25  41  62  88 118 158 205 254 311 372
#     4   9  20  37  58  89 124 161 204 248 300 356
#
# _framework density 20.447447
#
# number of rings (size 3 to 8) (size 9 to 14) (size 15 to 20)
#    0.000    1.429    1.429    3.857    0.000    8.857 
#    0.000    1.429    0.000    0.000    0.000    0.000 
#    0.000    0.000    0.000    0.000    0.000    0.000 
#
# Total GULP energy -347267.300688 kJ/mol
# GULP energy per Si atom -12402.403596 kJ/mol
# Density = 2.040091 g / cm^3
# Si number density = 20.447447 Si / 1000 Ang^3
#
#
#
# Elastic Constant Matrix: (Units=GPa)
#
#
# Indices 1 2 3 4 5 6 
#
# 1 127.7320 18.7552 34.7951 0.0003 1.5830 0.0007
# 2 18.7552 54.3640 31.6386 0.0008 4.7931 0.0014
# 3 34.7951 31.6386 116.6681 0.0000 2.4434 0.0001
# 4 0.0003 0.0008 0.0000 27.4197 0.0001 4.1345
# 5 1.5830 4.7931 2.4434 0.0001 20.3195 0.0001
# 6 0.0007 0.0014 0.0001 4.1345 0.0001 29.9247
#
#
#
# Elastic Compliance Matrix: (Units=1/GPa)
#
#
# Indices 1 2 3 4 5 6 
#
# 1 0.008661 -0.001762 -0.002105 0.000000 -0.000006 0.000000
# 2 -0.001762 0.022609 -0.005511 0.000000 -0.004533 -0.000001
# 3 -0.002105 -0.005511 0.010690 0.000000 0.000178 0.000000
# 4 0.000000 0.000000 0.000000 0.037246 0.000000 -0.005146
# 5 -0.000006 -0.004533 0.000178 0.000000 0.050262 0.000000
# 6 0.000000 -0.000001 0.000000 -0.005146 0.000000 0.034128
#
#
# Mechanical properties :
#
#
# Convention : Reuss Voigt Hill
#
# Bulk Modulus (GPa) = 43.09616 52.12688 47.61152
# Shear Modulus (GPa) = 26.30364 29.77114 28.03739
#
# Velocity S-wave (km/s) = 3.59054 3.81987 3.70698
# Velocity P-wave (km/s) = 6.18963 6.70848 6.45427
#
# Compressibility (1/GPa) = 0.02320392
#
# Stress axis : x y z
#
# Youngs Moduli (GPa) = 115.45777 44.22942 93.54686
#
# Poissons Ratio (x) = 0.07795 0.19692
# Poissons Ratio (y) = 0.20349 0.51551
# Poissons Ratio (z) = 0.24304 0.24374
#
# Static dielectric constant tensor:
#      x y z
#    x 3.421210 0.000000 -0.576130 
#    y 0.000000 3.740930 0.000000 
#    z -0.576130 0.000000 3.537190 
# 
# 
# High freq. dielectric constant tensor:
#      x y z
#    x 1.807750 0.000000 0.000980 
#    y 0.000000 1.798490 0.000000 
#    z 0.000980 0.000000 1.794000 
# 
# From -- ./inp_files/337880.got.cif
#   From: 2010.06.25/outbox.cif.g09.slc.cpg/sg12_169_cif.got.tgz:337880.got - 2010.06.28 00:19:55.
