data_PCOD8115160
_publ_section_title
;
Structure prediction by ZEFSAII (Michael W. Deem and Ramdas Pophale) SiO2 
 PCOD8115160
Probable space group: C 2/M
;
_chemical_formula_sum "Si O2"
_cell_formula_units_Z 64
_cell_length_a 20.735503
_cell_length_b 19.466288
_cell_length_c 17.513613
_cell_angle_alpha 90.000000
_cell_angle_beta 151.040001
_cell_angle_gamma 90.000000
_cell_volume 3422.923989
_symmetry_space_group_name_H-M "C 2/M"
_symmetry_group_IT_number 12
_symmetry_cell_setting 'monoclinic'
loop_
_space_group_symop_operation_xyz
x,y,z
-x,y,-z
-x,-y,-z
x,-y,z
1/2+x,1/2+y,z
1/2-x,1/2+y,-z
1/2-x,1/2-y,-z
1/2+x,1/2-y,z
loop_
_atom_site_type_symbol
_atom_site_label
_atom_site_fract_x
_atom_site_fract_y
_atom_site_fract_z
Si Si1 0.386404 0.922162 0.118803
Si Si2 0.951465 0.074836 0.682478
Si Si3 0.156589 0.923520 0.763426
Si Si4 0.033773 0.284331 0.241032
Si Si5 0.821420 0.922964 0.963665
Si Si6 0.111199 0.210800 0.048674
Si Si7 0.172338 0.198937 0.494978
Si Si8 0.855138 0.201103 0.359428
O O1 0.498262 0.863733 0.221467
O O2 0.446741 0.000000 0.189298
O O3 0.297730 0.919367 0.951627
O O4 0.299281 0.904455 0.103751
O O5 0.042947 0.095029 0.705738
O O6 0.038021 0.077870 0.848118
O O7 0.832184 0.129305 0.560663
O O8 0.887374 0.000000 0.606563
O O9 0.152388 0.871543 0.689971
O O10 0.136231 0.000000 0.709163
O O11 0.046023 0.246053 0.335964
O O12 0.181543 0.270046 0.362604
O O13 0.934938 0.247831 0.078062
O O14 0.837179 0.866655 0.913481
O O15 0.797868 0.000000 0.905274
O O16 0.240713 0.248961 0.212801
O O17 0.000000 0.211552 0.000000
O O18 0.159372 0.180866 0.568786
O O19 0.000000 0.236647 0.500000
#
# Coordination Sequence:
#
# PCOD8115160 Si02
#       8
#     8   8   8   8   8   8   8   8
#     4   9  19  37  62  89 115 152 202 244 288 358
#     4   9  17  33  56  84 116 148 194 242 289 347
#     4   9  18  33  55  84 117 153 191 237 288 346
#     4  11  23  39  60  81 122 161 195 241 301 357
#     4   9  20  38  64  91 111 146 204 252 292 353
#     4  12  24  41  63  87 121 162 198 243 304 359
#     4  11  23  37  54  87 121 156 199 243 296 352
#     4  12  24  36  57  90 123 155 203 250 291 352
#
# _framework density 18.697465000000001
#
# number of rings (size 3 to 8) (size 9 to 14) (size 15 to 20)
#    0.000    1.750    5.000    1.500    1.750    2.000 
#    0.000    0.000    0.000    3.375    0.000    0.000 
#    0.000    0.000    0.000    0.000    0.000    0.000 
#
# Total GULP energy -396495.681324 kJ/mol
# GULP energy per Si atom -12390.490041 kJ/mol
# Density = 1.865491 g / cm^3
# Si number density = 18.697465 Si / 1000 Ang^3
#
#
#
# Elastic Constant Matrix: (Units=GPa)
#
#
# Indices 1 2 3 4 5 6 
#
# 1 58.4579 36.2051 24.2827 -0.0003 -4.4747 -0.0002
# 2 36.2051 129.1639 42.9149 -0.0002 -3.3939 -0.0001
# 3 24.2827 42.9149 81.7195 -0.0009 2.9641 -0.0002
# 4 -0.0003 -0.0002 -0.0009 -41.1638 -0.0005 56.2366
# 5 -4.4747 -3.3939 2.9641 -0.0005 21.0331 0.0000
# 6 -0.0002 -0.0001 -0.0002 56.2366 0.0000 -13.5692
#
#
#
# Elastic Compliance Matrix: (Units=1/GPa)
#
#
# Indices 1 2 3 4 5 6 
#
# 1 0.022122 -0.004654 -0.004295 0.000000 0.004561 0.000000
# 2 -0.004654 0.010462 -0.004158 0.000000 0.001284 0.000000
# 3 -0.004295 -0.004158 0.015835 0.000000 -0.003816 0.000000
# 4 0.000000 0.000000 0.000000 0.005211 0.000000 0.021596
# 5 0.004561 0.001284 -0.003816 0.000000 0.049259 0.000000
# 6 0.000000 0.000000 0.000000 0.021596 0.000000 0.015808
#
#
# Mechanical properties :
#
#
# Convention : Reuss Voigt Hill
#
# Bulk Modulus (GPa) = 45.03362 52.90521 48.96942
# Shear Modulus (GPa) = 32.82746 4.32259 18.57502
#
# Velocity S-wave (km/s) = 4.19467 1.52213 3.15533
# Velocity P-wave (km/s) = 6.89914 5.60767 6.28666
#
# Compressibility (1/GPa) = 0.02220563
#
# Stress axis : x y z
#
# Youngs Moduli (GPa) = 45.20419 95.58631 63.15152
#
# Poissons Ratio (x) = 0.44486 0.27122
# Poissons Ratio (y) = 0.21038 0.26256
# Poissons Ratio (z) = 0.19414 0.39741
#
# Static dielectric constant tensor:
#      x y z
#    x 3.310140 0.000000 -0.079730 
#    y 0.000000 3.648060 0.000000 
#    z -0.079730 0.000000 3.446640 
# 
# 
# High freq. dielectric constant tensor:
#      x y z
#    x 1.706970 0.000000 -0.005530 
#    y 0.000000 1.736790 0.000000 
#    z -0.005530 0.000000 1.720570 
# 
# From -- ./inp_files/285213.got.cif
#   From: 2010.06.25/outbox.cif.g09.slc.cpg/sg12_143_cif.got.tgz:285213.got - 2010.06.28 00:19:55.
