data_PCOD8115751
_publ_section_title
;
Structure prediction by ZEFSAII (Michael W. Deem and Ramdas Pophale) SiO2 
 PCOD8115751
Probable space group: C 2/M
;
_chemical_formula_sum "Si O2"
_cell_formula_units_Z 48
_cell_length_a 14.320282
_cell_length_b 18.415908
_cell_length_c 17.453473
_cell_angle_alpha 90.000000
_cell_angle_beta 151.578783
_cell_angle_gamma 90.000000
_cell_volume 2190.724777
_symmetry_space_group_name_H-M "C 2/M"
_symmetry_group_IT_number 12
_symmetry_cell_setting 'monoclinic'
loop_
_space_group_symop_operation_xyz
x,y,z
-x,y,-z
-x,-y,-z
x,-y,z
1/2+x,1/2+y,z
1/2-x,1/2+y,-z
1/2-x,1/2-y,-z
1/2+x,1/2-y,z
loop_
_atom_site_type_symbol
_atom_site_label
_atom_site_fract_x
_atom_site_fract_y
_atom_site_fract_z
Si Si1 0.960239 0.081533 0.382985
Si Si2 0.831215 0.329387 0.081653
Si Si3 0.097474 0.318242 0.146607
Si Si4 0.712161 0.814673 0.635408
Si Si5 0.195952 0.332639 0.453557
Si Si6 0.479296 0.580310 0.895485
O O1 0.766072 0.130408 0.233940
O O2 0.000000 0.073256 0.500000
O O3 0.147565 0.120377 0.480560
O O4 0.930762 0.000000 0.326862
O O5 0.937827 0.362539 0.082257
O O6 0.978726 0.335518 0.260605
O O7 0.750000 0.250000 0.000000
O O8 0.646300 0.378022 0.969169
O O9 0.157592 0.257225 0.253553
O O10 0.000000 0.282179 0.000000
O O11 0.500000 0.783796 0.500000
O O12 0.710824 0.855532 0.552686
O O13 0.773843 0.878730 0.736454
O O14 0.250000 0.250000 0.500000
O O15 0.471235 0.500000 0.854866
O O16 0.500000 0.577506 0.000000
#
# Coordination Sequence:
#
# PCOD8115751 Si02
#       6
#     8   8   8   8   8   8
#     4  11  25  47  69 101 142 180 225 281 341 406
#     4  12  25  43  69 108 135 178 228 281 341 408
#     4  12  26  42  72 103 139 180 227 277 342 410
#     4  12  25  43  72 104 134 176 232 288 336 405
#     4  12  23  42  72 101 139 178 230 278 341 403
#     4  11  26  48  70  98 140 184 228 283 341 403
#
# _framework density 21.910558000000002
#
# number of rings (size 3 to 8) (size 9 to 14) (size 15 to 20)
#    0.000    0.333    5.000    3.000    7.000    2.667 
#    0.000    0.000    0.000    0.000    0.000    0.000 
#    0.000    0.000    0.000    0.000    0.000    0.000 
#
# Total GULP energy -297342.682662 kJ/mol
# GULP energy per Si atom -12389.278444 kJ/mol
# Density = 2.186069 g / cm^3
# Si number density = 21.910558 Si / 1000 Ang^3
#
#
#
# Elastic Constant Matrix: (Units=GPa)
#
#
# Indices 1 2 3 4 5 6 
#
# 1 95.3297 32.6568 30.1460 0.1055 4.2547 0.0080
# 2 32.6568 133.8525 36.3239 0.0154 10.7336 -0.0090
# 3 30.1460 36.3239 104.9763 0.1423 -0.8799 -0.0012
# 4 0.1055 0.0154 0.1423 23.1576 0.0455 4.5530
# 5 4.2547 10.7336 -0.8799 0.0455 40.5600 0.0032
# 6 0.0080 -0.0090 -0.0012 4.5530 0.0032 38.1728
#
#
#
# Elastic Compliance Matrix: (Units=1/GPa)
#
#
# Indices 1 2 3 4 5 6 
#
# 1 0.012130 -0.002153 -0.002744 -0.000036 -0.000762 0.000001
# 2 -0.002153 0.008837 -0.002458 0.000023 -0.002166 0.000000
# 3 -0.002744 -0.002458 0.011174 -0.000058 0.001181 0.000007
# 4 -0.000036 0.000023 -0.000058 0.044220 -0.000053 -0.005274
# 5 -0.000762 -0.002166 0.001181 -0.000053 0.025334 0.000004
# 6 0.000001 0.000000 0.000007 -0.005274 0.000004 0.026826
#
#
# Mechanical properties :
#
#
# Convention : Reuss Voigt Hill
#
# Bulk Modulus (GPa) = 57.37228 59.15688 58.26458
# Shear Modulus (GPa) = 33.54783 36.04687 34.79735
#
# Velocity S-wave (km/s) = 3.91721 4.06049 3.98949
# Velocity P-wave (km/s) = 6.83381 7.00295 6.91889
#
# Compressibility (1/GPa) = 0.01743002
#
# Stress axis : x y z
#
# Youngs Moduli (GPa) = 82.44344 113.16193 89.49024
#
# Poissons Ratio (x) = 0.24369 0.24560
# Poissons Ratio (y) = 0.17754 0.21992
# Poissons Ratio (z) = 0.22626 0.27810
#
# Static dielectric constant tensor:
#      x y z
#    x 3.827020 0.000580 -0.263870 
#    y 0.000580 4.038750 0.000510 
#    z -0.263870 0.000510 5.236000 
# 
# 
# High freq. dielectric constant tensor:
#      x y z
#    x 1.877620 0.000000 -0.001230 
#    y 0.000000 1.843660 -0.000020 
#    z -0.001230 -0.000020 1.877890 
# 
# From -- ./inp_files/271795.got.cif
#   From: 2010.06.25/outbox.cif.g09.slc.cpg/sg12_136_cif.got.tgz:271795.got - 2010.06.28 00:19:55.
