data_PCOD8115745
_publ_section_title
;
Structure prediction by ZEFSAII (Michael W. Deem and Ramdas Pophale) SiO2 
 PCOD8115745
Probable space group: C 2/M
;
_chemical_formula_sum "Si O2"
_cell_formula_units_Z 48
_cell_length_a 14.316350
_cell_length_b 17.715474
_cell_length_c 9.421696
_cell_angle_alpha 90.000000
_cell_angle_beta 101.580646
_cell_angle_gamma 90.000000
_cell_volume 2340.895692
_symmetry_space_group_name_H-M "C 2/M"
_symmetry_group_IT_number 12
_symmetry_cell_setting 'monoclinic'
loop_
_space_group_symop_operation_xyz
x,y,z
-x,y,-z
-x,-y,-z
x,-y,z
1/2+x,1/2+y,z
1/2-x,1/2+y,-z
1/2-x,1/2-y,-z
1/2+x,1/2-y,z
loop_
_atom_site_type_symbol
_atom_site_label
_atom_site_fract_x
_atom_site_fract_y
_atom_site_fract_z
Si Si1 0.214195 0.761747 0.830618
Si Si2 0.931202 0.088012 0.609007
Si Si3 0.462341 0.000000 0.829393
Si Si4 0.862523 0.655423 0.724546
Si Si5 0.276298 0.138602 0.407790
Si Si6 0.405673 0.000000 0.373727
Si Si7 0.501180 0.710002 0.835835
O O1 0.267904 0.836301 0.791498
O O2 0.243050 0.694865 0.729499
O O3 0.102531 0.773711 0.796705
O O4 0.250000 0.750000 0.000000
O O5 0.820613 0.108239 0.548137
O O6 0.000000 0.111550 0.500000
O O7 0.960410 0.134612 0.755382
O O8 0.942863 0.000000 0.646744
O O9 0.399716 0.928434 0.763969
O O10 0.561468 0.000000 0.777687
O O11 0.500000 0.000000 0.000000
O O12 0.837265 0.675526 0.553666
O O13 0.941316 0.714981 0.793777
O O14 0.340158 0.071679 0.370739
O O15 0.500000 0.000000 0.500000
O O16 0.500000 0.691557 0.000000
#
# Coordination Sequence:
#
# PCOD8115745 Si02
#       7
#     8   8   4   8   8   4   8
#     4  12  26  44  70 101 136 184 232 288 348 413
#     4  11  25  46  72 100 137 179 231 288 342 406
#     4  12  28  46  70 106 145 186 230 291 362 415
#     4  12  25  45  71 102 141 181 235 287 347 423
#     4  12  24  45  72 103 138 178 236 285 347 425
#     4  12  24  46  71 104 138 181 228 294 354 416
#     4  12  25  46  69  98 141 181 231 285 344 415
#
# _framework density 20.504971999999999
#
# number of rings (size 3 to 8) (size 9 to 14) (size 15 to 20)
#    0.000    0.167    5.833    3.000    4.667    0.333 
#    1.500    0.000    0.000    0.000    0.000    0.000 
#    0.000    0.000    0.000    0.000    0.000    0.000 
#
# Total GULP energy -297587.855893 kJ/mol
# GULP energy per Si atom -12399.493996 kJ/mol
# Density = 2.045830 g / cm^3
# Si number density = 20.504972 Si / 1000 Ang^3
#
#
#
# Elastic Constant Matrix: (Units=GPa)
#
#
# Indices 1 2 3 4 5 6 
#
# 1 130.5678 50.7073 52.7587 0.0000 -23.3796 0.0000
# 2 50.7073 93.3047 39.9124 0.0000 1.9562 0.0000
# 3 52.7587 39.9124 144.1553 0.0000 1.5999 0.0000
# 4 0.0000 0.0000 0.0000 46.1141 0.0000 -32.5100
# 5 -23.3796 1.9562 1.5999 0.0000 41.9095 0.0000
# 6 0.0000 0.0000 0.0000 -32.5100 0.0000 65.7722
#
#
#
# Elastic Compliance Matrix: (Units=1/GPa)
#
#
# Indices 1 2 3 4 5 6 
#
# 1 0.012357 -0.005557 -0.003065 0.000000 0.007270 0.000000
# 2 -0.005557 0.014665 -0.001985 0.000000 -0.003709 0.000000
# 3 -0.003065 -0.001985 0.008630 0.000000 -0.001946 0.000000
# 4 0.000000 0.000000 0.000000 0.033283 0.000000 0.016451
# 5 0.007270 -0.003709 -0.001946 0.000000 0.028164 0.000000
# 6 0.000000 0.000000 0.000000 0.016451 0.000000 0.023336
#
#
# Mechanical properties :
#
#
# Convention : Reuss Voigt Hill
#
# Bulk Modulus (GPa) = 69.26321 72.75387 71.00854
# Shear Modulus (GPa) = 34.13886 45.73579 39.93733
#
# Velocity S-wave (km/s) = 4.08475 4.72791 4.41805
# Velocity P-wave (km/s) = 7.48993 8.08470 7.79299
#
# Compressibility (1/GPa) = 0.01443768
#
# Stress axis : x y z
#
# Youngs Moduli (GPa) = 80.92539 68.19149 115.87735
#
# Poissons Ratio (x) = 0.37894 0.35512
# Poissons Ratio (y) = 0.44971 0.23004
# Poissons Ratio (z) = 0.24800 0.13538
#
# Static dielectric constant tensor:
#      x y z
#    x -123.544910 0.000000 80.333890 
#    y 0.000000 3.829860 0.000000 
#    z 80.333890 0.000000 -46.733950 
# 
# 
# High freq. dielectric constant tensor:
#      x y z
#    x 1.827800 0.000000 -0.006280 
#    y 0.000000 1.804710 0.000000 
#    z -0.006280 0.000000 1.813520 
# 
# From -- ./inp_files/61777.got.cif
#   From: 2010.06.25/outbox.cif.g09.slc.cpg/sg12_31_cif.got.tgz:61777.got - 2010.06.28 00:19:55.
