data_PCOD8115864
_publ_section_title
;
Structure prediction by ZEFSAII (Michael W. Deem and Ramdas Pophale) SiO2 
 PCOD8115864
Probable space group: C 2/M
;
_chemical_formula_sum "Si O2"
_cell_formula_units_Z 56
_cell_length_a 20.117990
_cell_length_b 8.788372
_cell_length_c 15.994904
_cell_angle_alpha 90.000000
_cell_angle_beta 110.035046
_cell_angle_gamma 90.000000
_cell_volume 2656.829565
_symmetry_space_group_name_H-M "C 2/M"
_symmetry_group_IT_number 12
_symmetry_cell_setting 'monoclinic'
loop_
_space_group_symop_operation_xyz
x,y,z
-x,y,-z
-x,-y,-z
x,-y,z
1/2+x,1/2+y,z
1/2-x,1/2+y,-z
1/2-x,1/2-y,-z
1/2+x,1/2-y,z
loop_
_atom_site_type_symbol
_atom_site_label
_atom_site_fract_x
_atom_site_fract_y
_atom_site_fract_z
Si Si1 0.798812 0.178705 0.091117
Si Si2 0.328373 0.323917 0.400916
Si Si3 0.233919 0.179132 0.226320
Si Si4 0.598505 0.179934 0.226241
Si Si5 0.612326 0.175443 0.421568
Si Si6 0.558472 0.171736 0.833563
Si Si7 0.047067 0.669201 0.630794
O O1 0.778917 0.244750 0.172504
O O2 0.880497 0.217982 0.105620
O O3 0.788114 0.000000 0.086886
O O4 0.750000 0.250000 0.000000
O O5 0.308277 0.500000 0.387420
O O6 0.266996 0.229313 0.328865
O O7 0.332501 0.271812 0.499362
O O8 0.403758 0.295574 0.389485
O O9 0.152408 0.233733 0.187848
O O10 0.238326 0.000000 0.216509
O O11 0.612820 0.236592 0.327120
O O12 0.518401 0.221790 0.163747
O O13 0.610206 0.000000 0.224946
O O14 0.534521 0.196104 0.429417
O O15 0.635138 0.000000 0.432836
O O16 0.553824 0.180315 0.732496
O O17 0.576238 0.000000 0.869912
O O18 0.071457 0.500000 0.611957
#
# Coordination Sequence:
#
# PCOD8115864 Si02
#       7
#     8   8   8   8   8   8   8
#     4  12  25  43  69  99 127 155 194 246 299 362
#     4  12  23  33  51  82 119 160 207 260 306 353
#     4  12  25  42  63  88 122 163 204 252 307 361
#     4   9  20  40  64  90 123 164 207 248 300 363
#     4   9  19  35  55  81 116 163 207 249 300 360
#     4   9  18  37  65  93 123 161 199 243 301 365
#     4   9  17  32  55  81 115 158 202 246 300 363
#
# _framework density 21.077753999999999
#
# number of rings (size 3 to 8) (size 9 to 14) (size 15 to 20)
#    0.000    1.714    1.429    6.000    0.000    4.000 
#    0.000    3.571    0.000    4.286    0.000    0.000 
#    0.000    0.000    0.000    0.000    0.000    0.000 
#
# Total GULP energy -347246.059858 kJ/mol
# GULP energy per Si atom -12401.644995 kJ/mol
# Density = 2.102978 g / cm^3
# Si number density = 21.077754 Si / 1000 Ang^3
#
#
#
# Elastic Constant Matrix: (Units=GPa)
#
#
# Indices 1 2 3 4 5 6 
#
# 1 98.0061 42.5977 25.8873 0.0000 22.0089 0.0000
# 2 42.5977 126.2408 39.1964 0.0000 17.0094 0.0000
# 3 25.8873 39.1964 73.4034 0.0000 28.8942 0.0000
# 4 0.0000 0.0000 0.0000 30.3069 0.0000 3.3867
# 5 22.0089 17.0094 28.8942 0.0000 22.8184 0.0000
# 6 0.0000 0.0000 0.0000 3.3867 0.0000 33.9458
#
#
#
# Elastic Compliance Matrix: (Units=1/GPa)
#
#
# Indices 1 2 3 4 5 6 
#
# 1 0.014355 -0.003708 0.002551 0.000000 -0.014312 0.000000
# 2 -0.003708 0.010473 -0.005223 0.000000 0.002383 0.000000
# 3 0.002551 -0.005223 0.029805 0.000000 -0.036308 0.000000
# 4 0.000000 0.000000 0.000000 0.033368 0.000000 -0.003329
# 5 -0.014312 0.002383 -0.036308 0.000000 0.101828 0.000000
# 6 0.000000 0.000000 0.000000 -0.003329 0.000000 0.029791
#
#
# Mechanical properties :
#
#
# Convention : Reuss Voigt Hill
#
# Bulk Modulus (GPa) = 23.88107 57.00147 40.44127
# Shear Modulus (GPa) = 20.29745 30.07881 25.18813
#
# Velocity S-wave (km/s) = 3.10656 3.78172 3.46064
# Velocity P-wave (km/s) = 4.92160 6.79490 5.93266
#
# Compressibility (1/GPa) = 0.04187417
#
# Stress axis : x y z
#
# Youngs Moduli (GPa) = 69.66135 95.48365 33.55181
#
# Poissons Ratio (x) = 0.35401 -0.08559
# Poissons Ratio (y) = 0.25827 0.17523
# Poissons Ratio (z) = -0.17770 0.49869
#
# Static dielectric constant tensor:
#      x y z
#    x 3.967480 0.000000 0.150910 
#    y 0.000000 3.647750 0.000000 
#    z 0.150910 0.000000 3.666910 
# 
# 
# High freq. dielectric constant tensor:
#      x y z
#    x 1.829720 0.000000 0.014420 
#    y 0.000000 1.810370 0.000000 
#    z 0.014420 0.000000 1.813480 
# 
# From -- ./inp_files/281697.got.cif
#   From: 2010.06.25/outbox.cif.g09.slc.cpg/sg12_141_cif.got.tgz:281697.got - 2010.06.28 00:19:55.
