data_PCOD8115522
_publ_section_title
;
Structure prediction by ZEFSAII (Michael W. Deem and Ramdas Pophale) SiO2 
 PCOD8115522
Probable space group: C 2/M
;
_chemical_formula_sum "Si O2"
_cell_formula_units_Z 48
_cell_length_a 22.711401
_cell_length_b 9.143193
_cell_length_c 19.326871
_cell_angle_alpha 90.000000
_cell_angle_beta 142.541481
_cell_angle_gamma 90.000000
_cell_volume 2440.846229
_symmetry_space_group_name_H-M "C 2/M"
_symmetry_group_IT_number 12
_symmetry_cell_setting 'monoclinic'
loop_
_space_group_symop_operation_xyz
x,y,z
-x,y,-z
-x,-y,-z
x,-y,z
1/2+x,1/2+y,z
1/2-x,1/2+y,-z
1/2-x,1/2-y,-z
1/2+x,1/2-y,z
loop_
_atom_site_type_symbol
_atom_site_label
_atom_site_fract_x
_atom_site_fract_y
_atom_site_fract_z
Si Si1 0.529247 0.832074 0.373451
Si Si2 0.380471 0.328694 0.947512
Si Si3 0.105960 0.837586 0.567667
Si Si4 0.334405 0.169890 0.619899
Si Si5 0.171634 0.328668 0.756372
Si Si6 0.914270 0.826658 0.824063
O O1 0.602032 0.740849 0.489811
O O2 0.564515 0.811073 0.327939
O O3 0.417036 0.777751 0.276774
O O4 0.536673 0.000000 0.404229
O O5 0.395190 0.500000 0.955609
O O6 0.277223 0.287734 0.887477
O O7 0.380399 0.273301 0.868139
O O8 0.472756 0.273079 0.077809
O O9 0.171439 0.747250 0.681455
O O10 0.000000 0.844627 0.500000
O O11 0.149048 0.000000 0.597807
O O12 0.250000 0.250000 0.500000
O O13 0.348276 0.241913 0.707536
O O14 0.307342 0.000000 0.603058
O O15 0.165005 0.500000 0.735985
O O16 0.901740 0.000000 0.799903
#
# Coordination Sequence:
#
# PCOD8115522 Si02
#       6
#     8   8   8   8   8   8
#     4   9  19  34  50  70 101 138 177 214 253 308
#     4   8  16  32  58  83 104 133 172 214 260 310
#     4   9  17  28  44  71 106 136 165 209 260 303
#     4  11  24  39  54  75 104 142 180 217 262 315
#     4   9  16  30  53  77 100 134 176 214 253 305
#     4   9  18  36  57  80 107 136 172 216 258 308
#
# _framework density 19.665312
#
# number of rings (size 3 to 8) (size 9 to 14) (size 15 to 20)
#    0.000    2.833    0.000    2.000    2.333    3.333 
#    0.000    3.333    0.000    0.000    0.000    0.000 
#    0.000    0.000    0.000    0.000    0.000    0.000 
#
# Total GULP energy -297390.588493 kJ/mol
# GULP energy per Si atom -12391.274521 kJ/mol
# Density = 1.962055 g / cm^3
# Si number density = 19.665312 Si / 1000 Ang^3
#
#
#
# Elastic Constant Matrix: (Units=GPa)
#
#
# Indices 1 2 3 4 5 6 
#
# 1 53.2502 16.0977 25.4014 0.0000 6.8396 0.0000
# 2 16.0977 63.7719 32.5963 0.0000 -0.2019 0.0000
# 3 25.4014 32.5963 110.3360 0.0000 7.6244 0.0000
# 4 0.0000 0.0000 0.0000 20.1790 0.0000 -4.0781
# 5 6.8396 -0.2019 7.6244 0.0000 32.2132 0.0000
# 6 0.0000 0.0000 0.0000 -4.0781 0.0000 19.9575
#
#
#
# Elastic Compliance Matrix: (Units=1/GPa)
#
#
# Indices 1 2 3 4 5 6 
#
# 1 0.022178 -0.003694 -0.003749 0.000000 -0.003845 0.000000
# 2 -0.003694 0.019150 -0.004951 0.000000 0.002076 0.000000
# 3 -0.003749 -0.004951 0.011524 0.000000 -0.001963 0.000000
# 4 0.000000 0.000000 0.000000 0.051691 0.000000 0.010563
# 5 -0.003845 0.002076 -0.001963 0.000000 0.032337 0.000000
# 6 0.000000 0.000000 0.000000 0.010563 0.000000 0.052265
#
#
# Mechanical properties :
#
#
# Convention : Reuss Voigt Hill
#
# Bulk Modulus (GPa) = 35.63066 41.72765 38.67915
# Shear Modulus (GPa) = 22.39254 24.68745 23.54000
#
# Velocity S-wave (km/s) = 3.37810 3.54698 3.46357
# Velocity P-wave (km/s) = 5.77696 6.16764 5.97549
#
# Compressibility (1/GPa) = 0.02806572
#
# Stress axis : x y z
#
# Youngs Moduli (GPa) = 45.08941 52.21812 86.77243
#
# Poissons Ratio (x) = 0.19292 0.32528
# Poissons Ratio (y) = 0.16658 0.42957
# Poissons Ratio (z) = 0.16903 0.25851
#
# Static dielectric constant tensor:
#      x y z
#    x 3.653290 0.000000 0.332130 
#    y 0.000000 3.487920 0.000000 
#    z 0.332130 0.000000 3.656210 
# 
# 
# High freq. dielectric constant tensor:
#      x y z
#    x 1.759790 0.000000 0.024760 
#    y 0.000000 1.744710 0.000000 
#    z 0.024760 0.000000 1.755770 
# 
# From -- ./inp_files/323866.got.cif
#   From: 2010.06.25/outbox.cif.g09.slc.cpg/sg12_162_cif.got.tgz:323866.got - 2010.06.28 00:19:55.
