data_PCOD8115678
_publ_section_title
;
Structure prediction by ZEFSAII (Michael W. Deem and Ramdas Pophale) SiO2 
 PCOD8115678
Probable space group: C 2/M
;
_chemical_formula_sum "Si O2"
_cell_formula_units_Z 40
_cell_length_a 8.805717
_cell_length_b 27.404610
_cell_length_c 11.933124
_cell_angle_alpha 90.000000
_cell_angle_beta 140.326253
_cell_angle_gamma 90.000000
_cell_volume 1838.424204
_symmetry_space_group_name_H-M "C 2/M"
_symmetry_group_IT_number 12
_symmetry_cell_setting 'monoclinic'
loop_
_space_group_symop_operation_xyz
x,y,z
-x,y,-z
-x,-y,-z
x,-y,z
1/2+x,1/2+y,z
1/2-x,1/2+y,-z
1/2-x,1/2-y,-z
1/2+x,1/2-y,z
loop_
_atom_site_type_symbol
_atom_site_label
_atom_site_fract_x
_atom_site_fract_y
_atom_site_fract_z
Si Si1 0.534230 0.617339 0.338214
Si Si2 0.602981 0.884620 0.263704
Si Si3 0.635072 0.557251 0.963632
Si Si4 0.249456 0.285458 0.605047
Si Si5 0.527467 0.784625 0.891182
O O1 0.510410 0.580422 0.221762
O O2 0.556291 0.672140 0.302794
O O3 0.769953 0.604996 0.544971
O O4 0.298313 0.614082 0.277616
O O5 0.475098 0.831480 0.193357
O O6 0.407199 0.925308 0.126808
O O7 0.638603 0.500000 0.945291
O O8 0.500000 0.571991 0.000000
O O9 0.250000 0.250000 0.500000
O O10 0.306252 0.250770 0.742438
O O11 0.000000 0.309639 0.500000
O O12 0.500000 0.805570 0.000000
O O13 0.750000 0.750000 0.000000
#
# Coordination Sequence:
#
# PCOD8115678 Si02
#       5
#     8   8   8   8   8
#     4  11  25  44  72 101 135 190 234 282 352 413
#     4  11  24  45  70  99 139 180 232 290 341 420
#     4  11  27  48  72 104 139 175 228 297 359 419
#     4  12  24  40  63  97 142 185 228 284 336 403
#     4  12  24  38  61  95 133 180 229 273 334 400
#
# _framework density 21.757764000000002
#
# number of rings (size 3 to 8) (size 9 to 14) (size 15 to 20)
#    0.000    0.600    2.000    6.600    2.800    4.000 
#    0.000    4.000    0.000    0.000    0.000    0.000 
#    0.000    0.000    0.000    0.000    0.000    0.000 
#
# Total GULP energy -248022.663446 kJ/mol
# GULP energy per Si atom -12401.133172 kJ/mol
# Density = 2.170824 g / cm^3
# Si number density = 21.757764 Si / 1000 Ang^3
#
#
#
# Elastic Constant Matrix: (Units=GPa)
#
#
# Indices 1 2 3 4 5 6 
#
# 1 108.0993 55.4003 60.2170 0.0000 -1.9649 0.0000
# 2 55.4003 127.6417 73.2834 0.0000 -10.2025 0.0000
# 3 60.2170 73.2834 159.0383 0.0000 -15.7525 0.0000
# 4 0.0000 0.0000 0.0000 43.1842 0.0000 -1.5650
# 5 -1.9649 -10.2025 -15.7525 0.0000 35.2718 0.0000
# 6 0.0000 0.0000 0.0000 -1.5650 0.0000 35.5004
#
#
#
# Elastic Compliance Matrix: (Units=1/GPa)
#
#
# Indices 1 2 3 4 5 6 
#
# 1 0.013081 -0.003913 -0.003337 0.000000 -0.001894 0.000000
# 2 -0.003913 0.011852 -0.003831 0.000000 0.001499 0.000000
# 3 -0.003337 -0.003831 0.009614 0.000000 0.002999 0.000000
# 4 0.000000 0.000000 0.000000 0.023194 0.000000 0.001022
# 5 -0.001894 0.001499 0.002999 0.000000 0.030019 0.000000
# 6 0.000000 0.000000 0.000000 0.001022 0.000000 0.028214
#
#
# Mechanical properties :
#
#
# Convention : Reuss Voigt Hill
#
# Bulk Modulus (GPa) = 80.74979 85.84229 83.29604
# Shear Modulus (GPa) = 35.14587 36.51653 35.83120
#
# Velocity S-wave (km/s) = 4.02347 4.10118 4.06251
# Velocity P-wave (km/s) = 7.66669 7.87182 7.76993
#
# Compressibility (1/GPa) = 0.01238393
#
# Stress axis : x y z
#
# Youngs Moduli (GPa) = 76.44888 84.37232 104.01457
#
# Poissons Ratio (x) = 0.33012 0.34714
# Poissons Ratio (y) = 0.29912 0.39853
# Poissons Ratio (z) = 0.25514 0.32327
#
# Static dielectric constant tensor:
#      x y z
#    x 3.868710 0.000000 0.165630 
#    y 0.000000 4.181390 0.000000 
#    z 0.165630 0.000000 5.449400 
# 
# 
# High freq. dielectric constant tensor:
#      x y z
#    x 1.858020 0.000000 -0.001600 
#    y 0.000000 1.842990 0.000000 
#    z -0.001600 0.000000 1.878700 
# 
# From -- ./inp_files/125482.got.cif
#   From: 2010.06.25/outbox.cif.g09.slc.cpg/sg12_63_cif.got.tgz:125482.got - 2010.06.28 00:19:55.
