data_PCOD8115614
_publ_section_title
;
Structure prediction by ZEFSAII (Michael W. Deem and Ramdas Pophale) SiO2 
 PCOD8115614
Probable space group: C 2/M
;
_chemical_formula_sum "Si O2"
_cell_formula_units_Z 40
_cell_length_a 10.079324
_cell_length_b 13.713783
_cell_length_c 12.604503
_cell_angle_alpha 90.000000
_cell_angle_beta 75.386688
_cell_angle_gamma 90.000000
_cell_volume 1685.904484
_symmetry_space_group_name_H-M "C 2/M"
_symmetry_group_IT_number 12
_symmetry_cell_setting 'monoclinic'
loop_
_space_group_symop_operation_xyz
x,y,z
-x,y,-z
-x,-y,-z
x,-y,z
1/2+x,1/2+y,z
1/2-x,1/2+y,-z
1/2-x,1/2-y,-z
1/2+x,1/2-y,z
loop_
_atom_site_type_symbol
_atom_site_label
_atom_site_fract_x
_atom_site_fract_y
_atom_site_fract_z
Si Si1 0.351134 0.705687 0.163623
Si Si2 0.233315 0.000000 0.783643
Si Si3 0.500000 0.167590 0.500000
Si Si4 0.500000 0.839613 0.000000
Si Si5 0.282700 0.000000 0.541090
Si Si6 0.923965 0.793984 0.708032
Si Si7 0.681994 0.500000 0.332498
Si Si8 0.010667 0.500000 0.825112
O O1 0.328516 0.592160 0.141766
O O2 0.223492 0.744137 0.255391
O O3 0.490594 0.719031 0.202081
O O4 0.370606 0.768621 0.051737
O O5 0.192371 0.000000 0.667339
O O6 0.401102 0.000000 0.751316
O O7 0.367296 0.099747 0.521581
O O8 0.505746 0.238124 0.599898
O O9 0.475272 0.905265 0.901798
O O10 0.184312 0.000000 0.459439
O O11 0.903654 0.907637 0.688747
O O12 0.836343 0.500000 0.252007
#
# Coordination Sequence:
#
# PCOD8115614 Si02
#       8
#     8   4   4   4   4   8   4   4
#     4  12  27  48  73 109 144 190 245 305 361 422
#     4  12  26  46  74 110 152 182 240 303 359 436
#     4  11  24  43  72 104 140 201 236 285 354 442
#     4  11  26  49  78 102 138 201 246 301 364 426
#     4  11  24  42  75 107 143 200 237 278 363 448
#     4  12  27  46  75 106 151 188 243 300 359 433
#     4  12  26  46  71 110 151 184 239 301 358 432
#     4  11  24  49  74 107 140 196 246 294 360 438
#
# _framework density 23.726137000000001
#
# number of rings (size 3 to 8) (size 9 to 14) (size 15 to 20)
#    0.000    0.400    4.000    4.200    2.800    5.600 
#    0.000    0.000    0.000    0.000    0.000    0.000 
#    0.000    0.000    0.000    0.000    0.000    0.000 
#
# Total GULP energy -248054.725693 kJ/mol
# GULP energy per Si atom -12402.736285 kJ/mol
# Density = 2.367214 g / cm^3
# Si number density = 23.726137 Si / 1000 Ang^3
#
#
#
# Elastic Constant Matrix: (Units=GPa)
#
#
# Indices 1 2 3 4 5 6 
#
# 1 85.6444 27.3477 8.5678 0.0000 7.4210 0.0000
# 2 27.3477 201.0790 41.5057 0.0000 -16.9562 0.0000
# 3 8.5678 41.5057 72.8903 0.0000 -17.5949 0.0000
# 4 0.0000 0.0000 0.0000 43.9631 0.0000 -13.3460
# 5 7.4210 -16.9562 -17.5949 0.0000 26.0037 0.0000
# 6 0.0000 0.0000 0.0000 -13.3460 0.0000 21.6929
#
#
#
# Elastic Compliance Matrix: (Units=1/GPa)
#
#
# Indices 1 2 3 4 5 6 
#
# 1 0.013023 -0.001895 -0.001969 0.000000 -0.006284 0.000000
# 2 -0.001895 0.005982 -0.002524 0.000000 0.002734 0.000000
# 3 -0.001969 -0.002524 0.018079 0.000000 0.011149 0.000000
# 4 0.000000 0.000000 0.000000 0.027970 0.000000 0.017208
# 5 -0.006284 0.002734 0.011149 0.000000 0.049576 0.000000
# 6 0.000000 0.000000 0.000000 0.017208 0.000000 0.056685
#
#
# Mechanical properties :
#
#
# Convention : Reuss Voigt Hill
#
# Bulk Modulus (GPa) = 41.13623 57.16181 49.14902
# Shear Modulus (GPa) = 26.01556 37.14478 31.58017
#
# Velocity S-wave (km/s) = 3.31493 3.96101 3.65228
# Velocity P-wave (km/s) = 5.65926 6.71298 6.20852
#
# Compressibility (1/GPa) = 0.02430947
#
# Stress axis : x y z
#
# Youngs Moduli (GPa) = 76.78934 167.15823 55.31252
#
# Poissons Ratio (x) = 0.31671 0.10890
# Poissons Ratio (y) = 0.14549 0.13960
# Poissons Ratio (z) = 0.15118 0.42189
#
# Static dielectric constant tensor:
#      x y z
#    x 4.037790 0.000000 -0.031380 
#    y 0.000000 4.754520 0.000000 
#    z -0.031380 0.000000 4.233640 
# 
# 
# High freq. dielectric constant tensor:
#      x y z
#    x 1.929030 0.000000 -0.000520 
#    y 0.000000 1.972160 0.000000 
#    z -0.000520 0.000000 1.936120 
# 
# From -- ./inp_files/129672.got.cif
#   From: 2010.06.25/outbox.cif.g09.slc.cpg/sg12_65_cif.got.tgz:129672.got - 2010.06.28 00:19:55.
