data_PCOD8115022
_publ_section_title
;
Structure prediction by ZEFSAII (Michael W. Deem and Ramdas Pophale) SiO2 
 PCOD8115022
Probable space group: C 2/M
;
_chemical_formula_sum "Si O2"
_cell_formula_units_Z 56
_cell_length_a 18.650795
_cell_length_b 22.306726
_cell_length_c 15.770754
_cell_angle_alpha 90.000000
_cell_angle_beta 155.803404
_cell_angle_gamma 90.000000
_cell_volume 2689.246083
_symmetry_space_group_name_H-M "C 2/M"
_symmetry_group_IT_number 12
_symmetry_cell_setting 'monoclinic'
loop_
_space_group_symop_operation_xyz
x,y,z
-x,y,-z
-x,-y,-z
x,-y,z
1/2+x,1/2+y,z
1/2-x,1/2+y,-z
1/2-x,1/2-y,-z
1/2+x,1/2-y,z
loop_
_atom_site_type_symbol
_atom_site_label
_atom_site_fract_x
_atom_site_fract_y
_atom_site_fract_z
Si Si1 0.086526 0.192389 0.187001
Si Si2 0.985622 0.679516 0.081784
Si Si3 0.862232 0.434323 0.175516
Si Si4 0.086525 0.807610 0.687000
Si Si5 0.637767 0.934324 0.324489
Si Si6 0.985622 0.320484 0.581783
Si Si7 0.999999 0.886093 0.249999
O O1 0.288297 0.172576 0.401304
O O2 0.989345 0.151654 0.151369
O O3 0.073568 0.259631 0.212581
O O4 0.000000 0.184627 0.000000
O O5 0.097909 0.620107 0.218712
O O6 0.788297 0.672578 0.901304
O O7 0.000000 0.692280 0.000000
O O8 0.878022 0.500000 0.237123
O O9 0.000007 0.429269 0.250013
O O10 0.902087 0.379894 0.281291
O O11 0.669055 0.428264 0.929124
O O12 0.000000 0.815373 0.500000
O O13 0.073566 0.740369 0.712580
O O14 0.989344 0.848346 0.651368
O O15 0.830950 0.928266 0.570881
O O16 0.621969 0.000000 0.262872
O O17 0.000000 0.307714 0.500000
#
# Coordination Sequence:
#
# PCOD8115022 Si02
#       7
#     8   8   8   8   8   8   8
#     4  11  23  39  64  99 128 162 206 259 319 376
#     4  11  22  41  63  92 131 162 207 262 312 376
#     4  11  24  42  63  90 125 167 214 258 306 369
#     4  11  23  39  64  99 128 162 206 259 319 376
#     4  11  24  42  63  90 125 167 214 258 306 369
#     4  11  22  41  63  92 131 162 207 262 312 376
#     4  12  23  42  70  92 127 166 208 260 318 372
#
# _framework density 20.82368
#
# number of rings (size 3 to 8) (size 9 to 14) (size 15 to 20)
#    0.000    0.857    2.857    7.286    2.000    2.857 
#    0.000    0.000    0.000    4.286    0.000    0.000 
#    0.000    0.000    0.000    0.000    0.000    0.000 
#
# Total GULP energy -347019.884149 kJ/mol
# GULP energy per Si atom -12393.567291 kJ/mol
# Density = 2.077628 g / cm^3
# Si number density = 20.823680 Si / 1000 Ang^3
#
#
#
# Elastic Constant Matrix: (Units=GPa)
#
#
# Indices 1 2 3 4 5 6 
#
# 1 84.9044 21.0573 20.9064 0.0003 13.2380 0.0001
# 2 21.0573 111.5626 43.3367 0.0002 4.7711 0.0001
# 3 20.9064 43.3367 121.7050 0.0012 26.0521 0.0004
# 4 0.0003 0.0002 0.0012 -404.6926 0.0006 -166.4447
# 5 13.2380 4.7711 26.0521 0.0006 34.4122 0.0002
# 6 0.0001 0.0001 0.0004 -166.4447 0.0002 -27.2129
#
#
#
# Elastic Compliance Matrix: (Units=1/GPa)
#
#
# Indices 1 2 3 4 5 6 
#
# 1 0.013107 -0.002058 -0.000597 0.000000 -0.004304 0.000000
# 2 -0.002058 0.010802 -0.003988 0.000000 0.002313 0.000000
# 3 -0.000597 -0.003988 0.011423 0.000000 -0.007865 0.000000
# 4 0.000000 0.000000 0.000000 0.001630 0.000000 -0.009972
# 5 -0.004304 0.002313 -0.007865 0.000000 0.036349 0.000000
# 6 0.000000 0.000000 0.000000 -0.009972 0.000000 0.024246
#
#
# Mechanical properties :
#
#
# Convention : Reuss Voigt Hill
#
# Bulk Modulus (GPa) = 45.36117 54.30810 49.83463
# Shear Modulus (GPa) = 42.30407 -63.97389 -10.83491
#
# Velocity S-wave (km/s) = 4.51215 -5.54873 -2.28352
# Velocity P-wave (km/s) = 6.99834 3.86194 4.12687
#
# Compressibility (1/GPa) = 0.02204529
#
# Stress axis : x y z
#
# Youngs Moduli (GPa) = 76.29800 92.57335 87.54358
#
# Poissons Ratio (x) = 0.19049 0.05229
# Poissons Ratio (y) = 0.15700 0.34914
# Poissons Ratio (z) = 0.04557 0.36920
#
# Static dielectric constant tensor:
#      x y z
#    x 3.663350 0.000000 0.148090 
#    y 0.000000 4.214210 0.000000 
#    z 0.148090 0.000000 3.680460 
# 
# 
# High freq. dielectric constant tensor:
#      x y z
#    x 1.812370 0.000000 0.024000 
#    y 0.000000 1.821330 0.000000 
#    z 0.024000 0.000000 1.821180 
# 
# From -- ./inp_files/286063.got.cif
#   From: 2010.06.25/outbox.cif.g09.slc.cpg/sg12_144_cif.got.tgz:286063.got - 2010.06.28 00:19:55.
