data_PCOD8115029
_publ_section_title
;
Structure prediction by ZEFSAII (Michael W. Deem and Ramdas Pophale) SiO2 
 PCOD8115029
Probable space group: C 2/M
;
_chemical_formula_sum "Si O2"
_cell_formula_units_Z 40
_cell_length_a 8.985150
_cell_length_b 22.186644
_cell_length_c 9.771673
_cell_angle_alpha 90.000000
_cell_angle_beta 80.038617
_cell_angle_gamma 90.000000
_cell_volume 1918.619447
_symmetry_space_group_name_H-M "C 2/M"
_symmetry_group_IT_number 12
_symmetry_cell_setting 'monoclinic'
loop_
_space_group_symop_operation_xyz
x,y,z
-x,y,-z
-x,-y,-z
x,-y,z
1/2+x,1/2+y,z
1/2-x,1/2+y,-z
1/2-x,1/2-y,-z
1/2+x,1/2-y,z
loop_
_atom_site_type_symbol
_atom_site_label
_atom_site_fract_x
_atom_site_fract_y
_atom_site_fract_z
Si Si1 0.179446 0.934486 0.459972
Si Si2 0.781410 0.882219 0.265587
Si Si3 0.869682 0.142978 0.773513
Si Si4 0.145270 0.735765 0.390025
Si Si5 0.325323 0.069388 0.994878
O O1 0.259055 0.914700 0.586276
O O2 0.222405 0.890442 0.331515
O O3 0.000000 0.933024 0.500000
O O4 0.239971 0.000000 0.410458
O O5 0.707558 0.816528 0.282911
O O6 0.705290 0.922374 0.160917
O O7 0.961949 0.878973 0.219452
O O8 0.876960 0.211750 0.720222
O O9 0.771331 0.123812 0.920795
O O10 0.250000 0.750000 0.500000
O O11 0.000000 0.717458 0.500000
O O12 0.278523 0.000000 0.042886
O O13 0.500000 0.080244 0.000000
#
# Coordination Sequence:
#
# PCOD8115029 Si02
#       5
#     8   8   8   8   8
#     4   9  17  32  59  92 120 156 213 268 314 373
#     4  11  23  40  67  95 129 174 218 265 324 389
#     4  11  22  41  65  95 128 174 219 263 325 390
#     4  12  23  42  67 101 137 167 213 276 326 385
#     4  11  27  46  64  94 135 173 217 273 330 386
#
# _framework density 20.848324999999999
#
# number of rings (size 3 to 8) (size 9 to 14) (size 15 to 20)
#    0.000    1.200    4.000    2.400    2.800    4.000 
#    0.000    0.000    0.000    4.800    0.000    0.000 
#    0.000    0.000    0.000    0.000    0.000    0.000 
#
# Total GULP energy -247790.972627 kJ/mol
# GULP energy per Si atom -12389.548631 kJ/mol
# Density = 2.080087 g / cm^3
# Si number density = 20.848325 Si / 1000 Ang^3
#
#
#
# Elastic Constant Matrix: (Units=GPa)
#
#
# Indices 1 2 3 4 5 6 
#
# 1 100.6518 17.0268 37.2794 0.0000 10.8174 0.0000
# 2 17.0268 95.6719 31.1477 0.0000 -1.4568 0.0000
# 3 37.2794 31.1477 95.7005 0.0000 16.8774 0.0000
# 4 0.0000 0.0000 0.0000 35.9091 0.0000 -0.8807
# 5 10.8174 -1.4568 16.8774 0.0000 38.6984 0.0000
# 6 0.0000 0.0000 0.0000 -0.8807 0.0000 27.0268
#
#
#
# Elastic Compliance Matrix: (Units=1/GPa)
#
#
# Indices 1 2 3 4 5 6 
#
# 1 0.011732 -0.000797 -0.004038 0.000000 -0.001549 0.000000
# 2 -0.000797 0.011933 -0.004000 0.000000 0.002416 0.000000
# 3 -0.004038 -0.004000 0.014247 0.000000 -0.005235 0.000000
# 4 0.000000 0.000000 0.000000 0.027870 0.000000 0.000908
# 5 -0.001549 0.002416 -0.005235 0.000000 0.028648 0.000000
# 6 0.000000 0.000000 0.000000 0.000908 0.000000 0.037030
#
#
# Mechanical properties :
#
#
# Convention : Reuss Voigt Hill
#
# Bulk Modulus (GPa) = 49.39757 51.43688 50.41723
# Shear Modulus (GPa) = 32.07662 34.09822 33.08742
#
# Velocity S-wave (km/s) = 3.92672 4.04857 3.98811
# Velocity P-wave (km/s) = 6.65613 6.82496 6.74107
#
# Compressibility (1/GPa) = 0.02024391
#
# Stress axis : x y z
#
# Youngs Moduli (GPa) = 85.23740 83.80014 70.18959
#
# Poissons Ratio (x) = 0.06679 0.28340
# Poissons Ratio (y) = 0.06794 0.28073
# Poissons Ratio (z) = 0.34415 0.33516
#
# Static dielectric constant tensor:
#      x y z
#    x 3.616060 0.000000 0.123560 
#    y 0.000000 3.568770 0.000000 
#    z 0.123560 0.000000 3.870940 
# 
# 
# High freq. dielectric constant tensor:
#      x y z
#    x 1.811600 0.000000 0.014730 
#    y 0.000000 1.821860 0.000000 
#    z 0.014730 0.000000 1.816040 
# 
# From -- ./inp_files/39218.got.cif
#   From: 2010.06.25/outbox.cif.g09.slc.cpg/sg12_20_cif.got.tgz:39218.got - 2010.06.28 00:19:55.
