data_PCOD8115940
_publ_section_title
;
Structure prediction by ZEFSAII (Michael W. Deem and Ramdas Pophale) SiO2 
 PCOD8115940
Probable space group: C 2/M
;
_chemical_formula_sum "Si O2"
_cell_formula_units_Z 20
_cell_length_a 9.188029
_cell_length_b 22.039144
_cell_length_c 7.882255
_cell_angle_alpha 90.000000
_cell_angle_beta 148.278759
_cell_angle_gamma 90.000000
_cell_volume 839.223103
_symmetry_space_group_name_H-M "C 2/M"
_symmetry_group_IT_number 12
_symmetry_cell_setting 'monoclinic'
loop_
_space_group_symop_operation_xyz
x,y,z
-x,y,-z
-x,-y,-z
x,-y,z
1/2+x,1/2+y,z
1/2-x,1/2+y,-z
1/2-x,1/2-y,-z
1/2+x,1/2-y,z
loop_
_atom_site_type_symbol
_atom_site_label
_atom_site_fract_x
_atom_site_fract_y
_atom_site_fract_z
Si Si1 0.245559 0.000000 0.870881
Si Si2 0.389139 0.188745 0.701289
Si Si3 0.108071 0.879785 0.918211
O O1 0.246306 0.058343 0.992496
O O2 0.000000 0.000000 0.500000
O O3 0.500000 0.000000 0.000000
O O4 0.250000 0.250000 0.500000
O O5 0.151165 0.137360 0.459300
O O6 0.500000 0.195868 0.000000
O O7 0.652442 0.171661 0.845102
O O8 0.000000 0.887664 0.000000
#
# Coordination Sequence:
#
# PCOD8115940 Si02
#       3
#     4   8   8
#     4  12  25  46  73 102 139 184 231 286 349 416
#     4  12  26  47  72 103 142 186 233 287 347 416
#     4  12  26  46  72 106 141 182 233 290 348 412
#
# _framework density 23.831565999999999
#
# number of rings (size 3 to 8) (size 9 to 14) (size 15 to 20)
#    0.000    0.000    0.000   11.400    0.000    3.200 
#    0.000    8.000    0.000    0.000    0.000    0.000 
#    0.000    0.000    0.000    0.000    0.000    0.000 
#
# Total GULP energy -124057.175097 kJ/mol
# GULP energy per Si atom -12405.717510 kJ/mol
# Density = 2.377732 g / cm^3
# Si number density = 23.831566 Si / 1000 Ang^3
#
#
#
# Elastic Constant Matrix: (Units=GPa)
#
#
# Indices 1 2 3 4 5 6 
#
# 1 220.3573 112.1856 89.2873 0.0000 21.9161 0.0000
# 2 112.1856 143.8775 74.9006 0.0000 -4.5792 0.0000
# 3 89.2873 74.9006 183.6653 0.0000 9.6900 0.0000
# 4 0.0000 0.0000 0.0000 42.9186 0.0000 9.9128
# 5 21.9161 -4.5792 9.6900 0.0000 51.8891 0.0000
# 6 0.0000 0.0000 0.0000 9.9128 0.0000 35.8401
#
#
#
# Elastic Compliance Matrix: (Units=1/GPa)
#
#
# Indices 1 2 3 4 5 6 
#
# 1 0.008625 -0.006060 -0.001516 0.000000 -0.003894 0.000000
# 2 -0.006060 0.013193 -0.002657 0.000000 0.004220 0.000000
# 3 -0.001516 -0.002657 0.007316 0.000000 -0.000960 0.000000
# 4 0.000000 0.000000 0.000000 0.024890 0.000000 -0.006884
# 5 -0.003894 0.004220 -0.000960 0.000000 0.021468 0.000000
# 6 0.000000 0.000000 0.000000 -0.006884 0.000000 0.029806
#
#
# Mechanical properties :
#
#
# Convention : Reuss Voigt Hill
#
# Bulk Modulus (GPa) = 115.36796 122.29411 118.83103
# Shear Modulus (GPa) = 38.86446 44.23136 41.54791
#
# Velocity S-wave (km/s) = 4.04269 4.31280 4.17993
# Velocity P-wave (km/s) = 8.38487 8.73085 8.55961
#
# Compressibility (1/GPa) = 0.00866792
#
# Stress axis : x y z
#
# Youngs Moduli (GPa) = 115.94512 75.79970 136.68746
#
# Poissons Ratio (x) = 0.45932 0.20725
# Poissons Ratio (y) = 0.70258 0.36317
# Poissons Ratio (z) = 0.17580 0.20139
#
# Static dielectric constant tensor:
#      x y z
#    x 4.332740 0.000000 0.318840 
#    y 0.000000 4.577140 0.000000 
#    z 0.318840 0.000000 4.905340 
# 
# 
# High freq. dielectric constant tensor:
#      x y z
#    x 1.958820 0.000000 0.011440 
#    y 0.000000 1.952760 0.000000 
#    z 0.011440 0.000000 1.970810 
# 
# From -- ./inp_files/2313.got.cif
#   From: 2010.06.25/outbox.cif.g09.slc.cpg/sg12_2_cif.got.tgz:2313.got - 2010.06.28 00:19:55.
