data_PCOD8115898
_publ_section_title
;
Structure prediction by ZEFSAII (Michael W. Deem and Ramdas Pophale) SiO2 
 PCOD8115898
Probable space group: C 2/M
;
_chemical_formula_sum "Si O2"
_cell_formula_units_Z 52
_cell_length_a 10.189717
_cell_length_b 22.076537
_cell_length_c 11.162626
_cell_angle_alpha 90.000000
_cell_angle_beta 115.255792
_cell_angle_gamma 90.000000
_cell_volume 2271.045166
_symmetry_space_group_name_H-M "C 2/M"
_symmetry_group_IT_number 12
_symmetry_cell_setting 'monoclinic'
loop_
_space_group_symop_operation_xyz
x,y,z
-x,y,-z
-x,-y,-z
x,-y,z
1/2+x,1/2+y,z
1/2-x,1/2+y,-z
1/2-x,1/2-y,-z
1/2+x,1/2-y,z
loop_
_atom_site_type_symbol
_atom_site_label
_atom_site_fract_x
_atom_site_fract_y
_atom_site_fract_z
Si Si1 0.366239 0.500000 0.852799
Si Si2 0.350716 0.869048 0.490057
Si Si3 0.677511 0.381979 0.812594
Si Si4 0.068780 0.667008 0.226934
Si Si5 0.741812 0.620522 0.104805
Si Si6 0.756602 0.500000 0.432978
Si Si7 0.401514 0.691020 0.745699
Si Si8 0.860233 0.000000 0.361845
O O1 0.261790 0.557254 0.827416
O O2 0.390903 0.500000 0.713595
O O3 0.500000 0.500000 0.000000
O O4 0.500000 0.841106 0.500000
O O5 0.347293 0.865139 0.631540
O O6 0.338316 0.937433 0.434582
O O7 0.228254 0.824585 0.393611
O O8 0.833875 0.351241 0.849310
O O9 0.543150 0.337534 0.738367
O O10 0.655065 0.441956 0.727420
O O11 0.670385 0.395562 0.950413
O O12 0.066658 0.738535 0.237249
O O13 0.905163 0.643544 0.153763
O O14 0.640301 0.668128 0.136794
O O15 0.755049 0.500000 0.576451
O O16 0.000000 0.000000 0.500000
#
# Coordination Sequence:
#
# PCOD8115898 Si02
#       8
#     4   8   8   8   8   4   8   4
#     4  12  25  46  82 114 150 189 253 315 374 458
#     4  12  24  46  75 112 150 195 256 312 381 453
#     4  12  28  46  76 109 149 191 250 313 376 449
#     4  12  27  49  72 108 154 200 247 309 374 451
#     4  12  27  48  75 111 149 198 249 309 382 448
#     4  12  23  46  77 108 148 194 242 315 384 444
#     4  12  26  47  76 108 149 202 254 307 368 455
#     4  12  27  46  70 108 150 184 241 314 388 438
#
# _framework density 22.896946
#
# number of rings (size 3 to 8) (size 9 to 14) (size 15 to 20)
#    0.000    0.000    4.615    4.846    2.154    4.923 
#    0.000    1.538    0.000    0.000    0.000    0.000 
#    0.000    0.000    0.000    0.000    0.000    0.000 
#
# Total GULP energy -322196.775616 kJ/mol
# GULP energy per Si atom -12392.183678 kJ/mol
# Density = 2.284483 g / cm^3
# Si number density = 22.896946 Si / 1000 Ang^3
#
#
#
# Elastic Constant Matrix: (Units=GPa)
#
#
# Indices 1 2 3 4 5 6 
#
# 1 127.2682 50.6197 12.4150 0.0000 16.3933 0.0000
# 2 50.6197 162.3337 43.0812 0.0000 17.9047 0.0000
# 3 12.4150 43.0812 145.5749 0.0000 -8.2836 0.0000
# 4 0.0000 0.0000 0.0000 27.8970 0.0000 3.3500
# 5 16.3933 17.9047 -8.2836 0.0000 34.6776 0.0000
# 6 0.0000 0.0000 0.0000 3.3500 0.0000 24.0682
#
#
#
# Elastic Compliance Matrix: (Units=1/GPa)
#
#
# Indices 1 2 3 4 5 6 
#
# 1 0.009274 -0.002481 -0.000237 0.000000 -0.003160 0.000000
# 2 -0.002481 0.007938 -0.002336 0.000000 -0.003484 0.000000
# 3 -0.000237 -0.002336 0.007761 0.000000 0.003172 0.000000
# 4 0.000000 0.000000 0.000000 0.036455 0.000000 -0.005074
# 5 -0.003160 -0.003484 0.003172 0.000000 0.032887 0.000000
# 6 0.000000 0.000000 0.000000 -0.005074 0.000000 0.042255
#
#
# Mechanical properties :
#
#
# Convention : Reuss Voigt Hill
#
# Bulk Modulus (GPa) = 67.26226 71.93432 69.59829
# Shear Modulus (GPa) = 32.97444 39.26595 36.12020
#
# Velocity S-wave (km/s) = 3.79901 4.14563 3.97610
# Velocity P-wave (km/s) = 6.97733 7.37562 7.17924
#
# Compressibility (1/GPa) = 0.01486718
#
# Stress axis : x y z
#
# Youngs Moduli (GPa) = 107.82639 125.97977 128.84561
#
# Poissons Ratio (x) = 0.31250 0.03049
# Poissons Ratio (y) = 0.26747 0.30095
# Poissons Ratio (z) = 0.02552 0.29426
#
# Static dielectric constant tensor:
#      x y z
#    x 4.170160 0.000000 -0.073670 
#    y 0.000000 3.983950 0.000000 
#    z -0.073670 0.000000 4.223390 
# 
# 
# High freq. dielectric constant tensor:
#      x y z
#    x 1.910540 0.000000 -0.006740 
#    y 0.000000 1.910170 0.000000 
#    z -0.006740 0.000000 1.924290 
# 
# From -- ./inp_files/134067.got.cif
#   From: 2010.06.25/outbox.cif.g09.slc.cpg/sg12_68_cif.got.tgz:134067.got - 2010.06.28 00:19:55.
