data_PCOD8115399
_publ_section_title
;
Structure prediction by ZEFSAII (Michael W. Deem and Ramdas Pophale) SiO2 
 PCOD8115399
Probable space group: C 2/M
;
_chemical_formula_sum "Si O2"
_cell_formula_units_Z 32
_cell_length_a 21.875188
_cell_length_b 10.410085
_cell_length_c 9.660425
_cell_angle_alpha 90.000000
_cell_angle_beta 41.004613
_cell_angle_gamma 90.000000
_cell_volume 1443.395810
_symmetry_space_group_name_H-M "C 2/M"
_symmetry_group_IT_number 12
_symmetry_cell_setting 'monoclinic'
loop_
_space_group_symop_operation_xyz
x,y,z
-x,y,-z
-x,-y,-z
x,-y,z
1/2+x,1/2+y,z
1/2-x,1/2+y,-z
1/2-x,1/2-y,-z
1/2+x,1/2-y,z
loop_
_atom_site_type_symbol
_atom_site_label
_atom_site_fract_x
_atom_site_fract_y
_atom_site_fract_z
Si Si1 0.569282 0.359928 0.567166
Si Si2 0.864307 0.198237 0.961013
Si Si3 0.669539 0.650048 0.674133
Si Si4 0.336572 0.136770 0.769953
O O1 0.607479 0.500000 0.454831
O O2 0.458104 0.362050 0.736423
O O3 0.590719 0.338622 0.692360
O O4 0.618386 0.249575 0.396056
O O5 0.851050 0.336920 0.909460
O O6 0.874726 0.202338 0.108095
O O7 0.772652 0.118706 0.076197
O O8 0.703513 0.500000 0.630322
O O9 0.750000 0.750000 0.500000
O O10 0.384556 0.000000 0.652946
#
# Coordination Sequence:
#
# PCOD8115399 Si02
#       4
#     8   8   8   8
#     4  11  24  42  69  99 128 168 219 266 319 387
#     4  11  24  42  67  95 132 173 215 262 322 381
#     4  11  23  42  67  96 128 167 215 268 322 381
#     4  11  25  44  67  97 134 171 214 267 322 381
#
# _framework density 22.169943
#
# number of rings (size 3 to 8) (size 9 to 14) (size 15 to 20)
#    0.000    1.000    2.500    3.750    0.000   12.000 
#    0.000    0.000    0.000    4.500    0.000    0.000 
#    0.000    0.000    0.000    0.000    0.000    0.000 
#
# Total GULP energy -198224.558511 kJ/mol
# GULP energy per Si atom -12389.034907 kJ/mol
# Density = 2.211948 g / cm^3
# Si number density = 22.169943 Si / 1000 Ang^3
#
#
#
# Elastic Constant Matrix: (Units=GPa)
#
#
# Indices 1 2 3 4 5 6 
#
# 1 117.5324 76.7848 37.2547 0.0000 7.0348 0.0000
# 2 76.7848 195.8109 88.9461 0.0000 17.2529 0.0000
# 3 37.2547 88.9461 113.4042 0.0000 -5.4135 0.0000
# 4 0.0000 0.0000 0.0000 23.3510 0.0000 7.8491
# 5 7.0348 17.2529 -5.4135 0.0000 40.5811 0.0000
# 6 0.0000 0.0000 0.0000 7.8491 0.0000 10.2630
#
#
#
# Elastic Compliance Matrix: (Units=1/GPa)
#
#
# Indices 1 2 3 4 5 6 
#
# 1 0.011451 -0.004284 -0.000412 0.000000 -0.000219 0.000000
# 2 -0.004284 0.010330 -0.006913 0.000000 -0.004571 0.000000
# 3 -0.000412 -0.006913 0.014612 0.000000 0.004960 0.000000
# 4 0.000000 0.000000 0.000000 0.057644 0.000000 -0.044086
# 5 -0.000219 -0.004571 0.004960 0.000000 0.027285 0.000000
# 6 0.000000 0.000000 0.000000 -0.044086 0.000000 0.131155
#
#
# Mechanical properties :
#
#
# Convention : Reuss Voigt Hill
#
# Bulk Modulus (GPa) = 75.90234 92.52431 84.21332
# Shear Modulus (GPa) = 17.85172 29.75646 23.80409
#
# Velocity S-wave (km/s) = 2.84072 3.66758 3.28031
# Velocity P-wave (km/s) = 6.71346 7.73043 7.23982
#
# Compressibility (1/GPa) = 0.01317482
#
# Stress axis : x y z
#
# Youngs Moduli (GPa) = 87.33151 96.80913 68.43636
#
# Poissons Ratio (x) = 0.41469 0.02822
# Poissons Ratio (y) = 0.37410 0.47309
# Poissons Ratio (z) = 0.03601 0.66922
#
# Static dielectric constant tensor:
#      x y z
#    x 4.482730 0.000000 0.141260 
#    y 0.000000 4.025660 0.000000 
#    z 0.141260 0.000000 3.997510 
# 
# 
# High freq. dielectric constant tensor:
#      x y z
#    x 1.893900 0.000000 0.004930 
#    y 0.000000 1.871360 0.000000 
#    z 0.004930 0.000000 1.863540 
# 
# From -- ./inp_files/56907.got.cif
#   From: 2010.06.25/outbox.cif.g09.slc.cpg/sg12_29_cif.got.tgz:56907.got - 2010.06.28 00:19:55.
