data_PCOD8115785
_publ_section_title
;
Structure prediction by ZEFSAII (Michael W. Deem and Ramdas Pophale) SiO2 
 PCOD8115785
Probable space group: C 2/M
;
_chemical_formula_sum "Si O2"
_cell_formula_units_Z 44
_cell_length_a 8.315268
_cell_length_b 28.768301
_cell_length_c 8.544480
_cell_angle_alpha 90.000000
_cell_angle_beta 102.572395
_cell_angle_gamma 90.000000
_cell_volume 1994.966458
_symmetry_space_group_name_H-M "C 2/M"
_symmetry_group_IT_number 12
_symmetry_cell_setting 'monoclinic'
loop_
_space_group_symop_operation_xyz
x,y,z
-x,y,-z
-x,-y,-z
x,-y,z
1/2+x,1/2+y,z
1/2-x,1/2+y,-z
1/2-x,1/2-y,-z
1/2+x,1/2-y,z
loop_
_atom_site_type_symbol
_atom_site_label
_atom_site_fract_x
_atom_site_fract_y
_atom_site_fract_z
Si Si1 0.325284 0.805861 0.734807
Si Si2 0.168617 0.604112 0.083223
Si Si3 0.500000 0.149305 0.500000
Si Si4 0.776163 0.880494 0.766370
Si Si5 0.540927 0.553803 0.688558
Si Si6 0.977333 0.793466 0.814417
O O1 0.394726 0.848064 0.852705
O O2 0.367516 0.818222 0.563650
O O3 0.418571 0.759040 0.796401
O O4 0.133288 0.799551 0.733147
O O5 0.282504 0.576026 0.229128
O O6 0.270255 0.616767 0.951424
O O7 0.000000 0.576382 0.000000
O O8 0.400526 0.115814 0.358434
O O9 0.846040 0.830728 0.724298
O O10 0.892243 0.923337 0.749806
O O11 0.500000 0.562393 0.500000
O O12 0.547792 0.500000 0.734810
O O13 0.000000 0.806285 0.000000
#
# Coordination Sequence:
#
# PCOD8115785 Si02
#       6
#     8   8   4   8   8   8
#     4  12  25  43  66 104 144 194 244 297 362 429
#     4  12  24  46  74 106 143 188 242 294 360 432
#     4  12  28  44  65 104 150 190 245 308 358 424
#     4  12  25  44  72 103 141 191 240 302 360 426
#     4  11  26  50  77 108 145 186 234 299 376 441
#     4  12  24  41  70  99 140 190 250 301 356 427
#
# _framework density 22.055510000000002
#
# number of rings (size 3 to 8) (size 9 to 14) (size 15 to 20)
#    0.000    0.182    5.455    3.818    0.000    4.727 
#    0.000    0.455    0.000    0.000    0.000    0.000 
#    0.000    0.000    0.000    0.000    0.000    0.000 
#
# Total GULP energy -272751.349603 kJ/mol
# GULP energy per Si atom -12397.788618 kJ/mol
# Density = 2.200531 g / cm^3
# Si number density = 22.055510 Si / 1000 Ang^3
#
#
#
# Elastic Constant Matrix: (Units=GPa)
#
#
# Indices 1 2 3 4 5 6 
#
# 1 138.9746 54.2153 59.4878 0.0000 -2.4487 0.0000
# 2 54.2153 128.8876 60.4816 0.0000 9.9604 0.0000
# 3 59.4878 60.4816 118.1011 0.0000 5.4725 0.0000
# 4 0.0000 0.0000 0.0000 23.1504 0.0000 -3.8492
# 5 -2.4487 9.9604 5.4725 0.0000 56.2650 0.0000
# 6 0.0000 0.0000 0.0000 -3.8492 0.0000 33.4072
#
#
#
# Elastic Compliance Matrix: (Units=1/GPa)
#
#
# Indices 1 2 3 4 5 6 
#
# 1 0.009767 -0.002459 -0.003717 0.000000 0.001222 0.000000
# 2 -0.002459 0.010928 -0.004283 0.000000 -0.001625 0.000000
# 3 -0.003717 -0.004283 0.012562 0.000000 -0.000625 0.000000
# 4 0.000000 0.000000 0.000000 0.044039 0.000000 0.005074
# 5 0.001222 -0.001625 -0.000625 0.000000 0.018175 0.000000
# 6 0.000000 0.000000 0.000000 0.005074 0.000000 0.030518
#
#
# Mechanical properties :
#
#
# Convention : Reuss Voigt Hill
#
# Bulk Modulus (GPa) = 81.03678 81.59253 81.31465
# Shear Modulus (GPa) = 33.10790 36.68309 34.89549
#
# Velocity S-wave (km/s) = 3.87863 4.08268 3.98196
# Velocity P-wave (km/s) = 7.54190 7.70057 7.62165
#
# Compressibility (1/GPa) = 0.01234008
#
# Stress axis : x y z
#
# Youngs Moduli (GPa) = 102.38099 91.50625 79.60459
#
# Poissons Ratio (x) = 0.22497 0.29592
# Poissons Ratio (y) = 0.25171 0.34093
# Poissons Ratio (z) = 0.38059 0.39191
#
# Static dielectric constant tensor:
#      x y z
#    x 4.271960 0.000000 -0.086600 
#    y 0.000000 3.975390 0.000000 
#    z -0.086600 0.000000 4.295710 
# 
# 
# High freq. dielectric constant tensor:
#      x y z
#    x 1.885180 0.000000 -0.004060 
#    y 0.000000 1.847470 0.000000 
#    z -0.004060 0.000000 1.882550 
# 
# From -- ./inp_files/41840.got.cif
#   From: 2010.06.25/outbox.cif.g09.slc.cpg/sg12_21_cif.got.tgz:41840.got - 2010.06.28 00:19:55.
