data_PCOD8115360
_publ_section_title
;
Structure prediction by ZEFSAII (Michael W. Deem and Ramdas Pophale) SiO2 
 PCOD8115360
Probable space group: C 2/M
;
_chemical_formula_sum "Si O2"
_cell_formula_units_Z 64
_cell_length_a 10.046701
_cell_length_b 17.079828
_cell_length_c 31.538122
_cell_angle_alpha 90.000000
_cell_angle_beta 37.339953
_cell_angle_gamma 90.000000
_cell_volume 3282.497131
_symmetry_space_group_name_H-M "C 2/M"
_symmetry_group_IT_number 12
_symmetry_cell_setting 'monoclinic'
loop_
_space_group_symop_operation_xyz
x,y,z
-x,y,-z
-x,-y,-z
x,-y,z
1/2+x,1/2+y,z
1/2-x,1/2+y,-z
1/2-x,1/2-y,-z
1/2+x,1/2-y,z
loop_
_atom_site_type_symbol
_atom_site_label
_atom_site_fract_x
_atom_site_fract_y
_atom_site_fract_z
Si Si1 0.209158 0.909778 0.919237
Si Si2 0.125153 0.909647 0.287268
Si Si3 0.791501 0.591075 0.080544
Si Si4 0.865378 0.340601 0.151424
Si Si5 0.634401 0.660448 0.849324
Si Si6 0.937465 0.590428 0.286964
Si Si7 0.039776 0.093333 0.443244
Si Si8 0.743299 0.906672 0.443440
O O1 0.423716 0.893810 0.892797
O O2 0.209554 0.855794 0.878057
O O3 0.207772 0.000000 0.905308
O O4 0.000000 0.888126 0.000000
O O5 0.170952 0.859463 0.233716
O O6 0.321050 0.897911 0.271139
O O7 0.895592 0.880066 0.365543
O O8 0.107691 0.000000 0.278421
O O9 0.807142 0.500000 0.088309
O O10 0.779984 0.641686 0.126093
O O11 0.573227 0.606890 0.108956
O O12 0.000000 0.617502 0.000000
O O13 0.931455 0.250369 0.139060
O O14 0.839741 0.640406 0.766794
O O15 0.998978 0.500000 0.277961
O O16 0.776342 0.619968 0.365277
O O17 0.000000 0.128999 0.500000
O O18 0.847038 0.124328 0.461189
O O19 0.033781 0.000000 0.445687
O O20 0.500000 0.870895 0.500000
O O21 0.736685 0.000000 0.446102
#
# Coordination Sequence:
#
# PCOD8115360 Si02
#       8
#     8   8   8   8   8   8   8   8
#     4  11  23  41  67  89 106 145 202 241 273 344
#     4   9  17  33  58  81 107 149 196 236 273 328
#     4  11  25  43  59  81 118 153 182 233 301 348
#     4  12  24  38  59  87 118 152 189 237 288 339
#     4  12  24  38  59  87 118 152 189 237 288 339
#     4   9  17  33  58  81 107 149 196 236 273 328
#     4   8  14  26  47  77 109 139 178 231 281 322
#     4   8  14  26  47  77 109 139 178 231 281 322
#
# _framework density 19.497350999999998
#
# number of rings (size 3 to 8) (size 9 to 14) (size 15 to 20)
#    0.000    2.000    1.250    5.250    0.000    5.000 
#    2.250    0.000    0.000    0.750    0.000    3.500 
#    0.000    0.000    0.000    0.000    0.000    0.000 
#
# Total GULP energy -396869.264578 kJ/mol
# GULP energy per Si atom -12402.164518 kJ/mol
# Density = 1.945297 g / cm^3
# Si number density = 19.497351 Si / 1000 Ang^3
#
#
#
# Elastic Constant Matrix: (Units=GPa)
#
#
# Indices 1 2 3 4 5 6 
#
# 1 73.0373 16.9346 54.9533 -0.0125 -1.5114 0.0037
# 2 16.9346 46.4290 36.7267 -0.0262 6.4540 0.0030
# 3 54.9533 36.7267 151.2280 -0.0506 -3.8586 -0.0022
# 4 -0.0125 -0.0262 -0.0506 3.9040 0.0146 -1.2884
# 5 -1.5114 6.4540 -3.8586 0.0146 40.5527 -0.0018
# 6 0.0037 0.0030 -0.0022 -1.2884 -0.0018 20.3193
#
#
#
# Elastic Compliance Matrix: (Units=1/GPa)
#
#
# Indices 1 2 3 4 5 6 
#
# 1 0.018973 -0.001894 -0.006424 -0.000039 0.000397 -0.000006
# 2 -0.001894 0.027844 -0.006204 0.000120 -0.005092 0.000003
# 3 -0.006424 -0.006204 0.010498 0.000070 0.001747 0.000008
# 4 -0.000039 0.000120 0.000070 0.261623 -0.000107 0.016589
# 5 0.000397 -0.005092 0.001747 -0.000107 0.025651 -0.000004
# 6 -0.000006 0.000003 0.000008 0.016589 -0.000004 0.050266
#
#
# Mechanical properties :
#
#
# Convention : Reuss Voigt Hill
#
# Bulk Modulus (GPa) = 35.37122 54.21373 44.79248
# Shear Modulus (GPa) = 11.53874 23.76052 17.64963
#
# Velocity S-wave (km/s) = 2.43535 3.49471 3.01197
# Velocity P-wave (km/s) = 5.10773 6.64455 5.92617
#
# Compressibility (1/GPa) = 0.02827157
#
# Stress axis : x y z
#
# Youngs Moduli (GPa) = 52.70786 35.91386 95.25384
#
# Poissons Ratio (x) = 0.06800 0.61194
# Poissons Ratio (y) = 0.09980 0.59096
# Poissons Ratio (z) = 0.33861 0.22281
#
# Static dielectric constant tensor:
#      x y z
#    x 3.480100 -0.000010 -0.001180 
#    y -0.000010 3.140560 0.000000 
#    z -0.001180 0.000000 3.840400 
# 
# 
# High freq. dielectric constant tensor:
#      x y z
#    x 1.750580 0.000000 -0.000440 
#    y 0.000000 1.726130 0.000000 
#    z -0.000440 0.000000 1.775460 
# 
# From -- ./inp_files/372957.got.cif
#   From: 2010.06.25/outbox.cif.g09.slc.cpg/sg12_187_cif.got.tgz:372957.got - 2010.06.28 00:19:55.
