data_PCOD8115952
_publ_section_title
;
Structure prediction by ZEFSAII (Michael W. Deem and Ramdas Pophale) SiO2 
 PCOD8115952
Probable space group: C 2/M
;
_chemical_formula_sum "Si O2"
_cell_formula_units_Z 56
_cell_length_a 9.814044
_cell_length_b 19.492168
_cell_length_c 20.456745
_cell_angle_alpha 90.000000
_cell_angle_beta 61.331251
_cell_angle_gamma 90.000000
_cell_volume 3433.572719
_symmetry_space_group_name_H-M "C 2/M"
_symmetry_group_IT_number 12
_symmetry_cell_setting 'monoclinic'
loop_
_space_group_symop_operation_xyz
x,y,z
-x,y,-z
-x,-y,-z
x,-y,z
1/2+x,1/2+y,z
1/2-x,1/2+y,-z
1/2-x,1/2-y,-z
1/2+x,1/2-y,z
loop_
_atom_site_type_symbol
_atom_site_label
_atom_site_fract_x
_atom_site_fract_y
_atom_site_fract_z
Si Si1 0.428477 0.687265 0.914798
Si Si2 0.006677 0.082031 0.340246
Si Si3 0.687164 0.917969 0.659753
Si Si4 0.551328 0.421201 0.791603
Si Si5 0.758073 0.812734 0.085203
Si Si6 0.134538 0.578799 0.208398
Si Si7 0.161451 0.074978 0.500001
O O1 0.442134 0.620977 0.865714
O O2 0.362029 0.750000 0.887969
O O3 0.595113 0.709586 0.904886
O O4 0.310922 0.667314 0.000001
O O5 0.968753 0.108916 0.276644
O O6 0.877101 0.112276 0.421617
O O7 0.179146 0.107001 0.320857
O O8 0.997856 0.000000 0.345260
O O9 0.522036 0.891084 0.723354
O O10 0.720334 0.887724 0.578381
O O11 0.688374 0.000000 0.654737
O O12 0.496526 0.500000 0.808622
O O13 0.731306 0.413407 0.768691
O O14 0.673562 0.879022 0.134288
O O15 0.113776 0.500000 0.191378
O O16 0.000000 0.065859 0.500000
O O17 0.231226 0.000000 0.500001
#
# Coordination Sequence:
#
# PCOD8115952 Si02
#       7
#     8   8   8   8   8   8   8
#     4   9  18  32  48  64  83 110 143 176 209 248
#     4   8  13  22  37  57  82 112 143 172 203 242
#     4   8  13  22  37  57  82 112 143 172 203 242
#     4   9  17  28  42  63  90 114 137 170 212 254
#     4   9  18  32  48  64  83 110 143 176 209 248
#     4   9  17  28  42  63  90 114 137 170 212 254
#     4   7  10  18  33  53  78 109 142 171 199 237
#
# _framework density 16.309542
#
# number of rings (size 3 to 8) (size 9 to 14) (size 15 to 20)
#    0.000    3.571    0.000    1.714    0.000    1.714 
#    0.000    3.571    0.000    4.286    0.000    9.000 
#    0.000    0.000    0.000    0.000    0.000    0.000 
#
# Total GULP energy -346912.140226 kJ/mol
# GULP energy per Si atom -12389.719294 kJ/mol
# Density = 1.627242 g / cm^3
# Si number density = 16.309542 Si / 1000 Ang^3
#
#
#
# Elastic Constant Matrix: (Units=GPa)
#
#
# Indices 1 2 3 4 5 6 
#
# 1 65.5595 34.8152 63.8424 0.0000 2.4564 0.0000
# 2 34.8152 47.6278 50.9819 0.0000 0.7008 0.0000
# 3 63.8424 50.9819 134.1852 0.0000 0.5189 0.0000
# 4 0.0000 0.0000 0.0000 4.3842 0.0000 -0.5795
# 5 2.4564 0.7008 0.5189 0.0000 29.0927 0.0000
# 6 0.0000 0.0000 0.0000 -0.5795 0.0000 17.7452
#
#
#
# Elastic Compliance Matrix: (Units=1/GPa)
#
#
# Indices 1 2 3 4 5 6 
#
# 1 0.032156 -0.011976 -0.010740 0.000000 -0.002235 0.000000
# 2 -0.011976 0.039859 -0.009447 0.000000 0.000220 0.000000
# 3 -0.010740 -0.009447 0.016148 0.000000 0.000846 0.000000
# 4 0.000000 0.000000 0.000000 0.229079 0.000000 0.007481
# 5 -0.002235 0.000220 0.000846 0.000000 0.034541 0.000000
# 6 0.000000 0.000000 0.000000 0.007481 0.000000 0.056598
#
#
# Mechanical properties :
#
#
# Convention : Reuss Voigt Hill
#
# Bulk Modulus (GPa) = 41.95126 60.73905 51.34515
# Shear Modulus (GPa) = 10.40249 16.75995 13.58122
#
# Velocity S-wave (km/s) = 2.52824 3.20912 2.88881
# Velocity P-wave (km/s) = 5.85666 7.14518 6.53276
#
# Compressibility (1/GPa) = 0.02383719
#
# Stress axis : x y z
#
# Youngs Moduli (GPa) = 31.09859 25.08820 61.92551
#
# Poissons Ratio (x) = 0.30045 0.66510
# Poissons Ratio (y) = 0.37243 0.58502
# Poissons Ratio (z) = 0.33401 0.23701
#
# Static dielectric constant tensor:
#      x y z
#    x 3.049480 0.000000 0.019070 
#    y 0.000000 2.632160 0.000000 
#    z 0.019070 0.000000 3.489210 
# 
# 
# High freq. dielectric constant tensor:
#      x y z
#    x 1.615100 0.000000 0.001250 
#    y 0.000000 1.570490 0.000000 
#    z 0.001250 0.000000 1.643970 
# 
# From -- ./inp_files/280448.got.cif
#   From: 2010.06.25/outbox.cif.g09.slc.cpg/sg12_141_cif.got.tgz:280448.got - 2010.06.28 00:19:55.
