data_PCOD8115566
_publ_section_title
;
Structure prediction by ZEFSAII (Michael W. Deem and Ramdas Pophale) SiO2 
 PCOD8115566
Probable space group: C 2/M
;
_chemical_formula_sum "Si O2"
_cell_formula_units_Z 44
_cell_length_a 9.106332
_cell_length_b 17.149240
_cell_length_c 15.282861
_cell_angle_alpha 90.000000
_cell_angle_beta 106.408177
_cell_angle_gamma 90.000000
_cell_volume 2289.473102
_symmetry_space_group_name_H-M "C 2/M"
_symmetry_group_IT_number 12
_symmetry_cell_setting 'monoclinic'
loop_
_space_group_symop_operation_xyz
x,y,z
-x,y,-z
-x,-y,-z
x,-y,z
1/2+x,1/2+y,z
1/2-x,1/2+y,-z
1/2-x,1/2-y,-z
1/2+x,1/2-y,z
loop_
_atom_site_type_symbol
_atom_site_label
_atom_site_fract_x
_atom_site_fract_y
_atom_site_fract_z
Si Si1 0.854185 0.300714 0.333741
Si Si2 0.842585 0.909899 0.200892
Si Si3 0.099190 0.786594 0.936159
Si Si4 0.500000 0.693763 0.500000
Si Si5 0.374440 0.590731 0.625255
Si Si6 0.095845 0.307629 0.226973
O O1 0.781315 0.382426 0.353011
O O2 0.728088 0.257389 0.254033
O O3 0.892326 0.247598 0.423129
O O4 0.005499 0.317840 0.302721
O O5 0.865135 0.860878 0.117177
O O6 0.679595 0.888985 0.217977
O O7 0.978766 0.889125 0.290643
O O8 0.843430 0.000000 0.175352
O O9 0.016216 0.717400 0.869427
O O10 0.250000 0.750000 0.000000
O O11 0.000000 0.817929 0.000000
O O12 0.389591 0.638618 0.538246
O O13 0.361925 0.500000 0.601396
#
# Coordination Sequence:
#
# PCOD8115566 Si02
#       6
#     8   8   8   4   8   8
#     4  12  22  38  67  91 122 162 216 249 300 370
#     4  11  24  43  64  93 128 164 203 256 318 367
#     4  12  22  38  68  94 118 161 207 255 303 369
#     4  12  21  38  67  92 120 168 214 252 297 376
#     4  11  24  41  62  92 129 163 205 259 313 362
#     4  12  21  42  63  91 124 164 206 251 309 371
#
# _framework density 19.218395000000001
#
# number of rings (size 3 to 8) (size 9 to 14) (size 15 to 20)
#    0.000    0.364    9.091    0.818    0.000    1.091 
#    0.000    2.273    0.000    0.000    0.000    0.000 
#    0.000    0.000    0.000    0.000    0.000    0.000 
#
# Total GULP energy -272908.600006 kJ/mol
# GULP energy per Si atom -12404.936364 kJ/mol
# Density = 1.917465 g / cm^3
# Si number density = 19.218395 Si / 1000 Ang^3
#
#
#
# Elastic Constant Matrix: (Units=GPa)
#
#
# Indices 1 2 3 4 5 6 
#
# 1 131.0470 59.5311 52.7367 0.0000 -22.2231 0.0000
# 2 59.5311 108.4747 59.2501 0.0000 -4.9358 0.0000
# 3 52.7367 59.2501 113.3250 0.0000 -7.8670 0.0000
# 4 0.0000 0.0000 0.0000 28.1095 0.0000 -3.2202
# 5 -22.2231 -4.9358 -7.8670 0.0000 39.2819 0.0000
# 6 0.0000 0.0000 0.0000 -3.2202 0.0000 36.0353
#
#
#
# Elastic Compliance Matrix: (Units=1/GPa)
#
#
# Indices 1 2 3 4 5 6 
#
# 1 0.011799 -0.004807 -0.002592 0.000000 0.005552 0.000000
# 2 -0.004807 0.014865 -0.005673 0.000000 -0.001988 0.000000
# 3 -0.002592 -0.005673 0.013026 0.000000 0.000429 0.000000
# 4 0.000000 0.000000 0.000000 0.035943 0.000000 0.003212
# 5 0.005552 -0.001988 0.000429 0.000000 0.028434 0.000000
# 6 0.000000 0.000000 0.000000 0.003212 0.000000 0.028038
#
#
# Mechanical properties :
#
#
# Convention : Reuss Voigt Hill
#
# Bulk Modulus (GPa) = 73.82078 77.32028 75.57053
# Shear Modulus (GPa) = 30.71913 32.77393 31.74653
#
# Velocity S-wave (km/s) = 4.00237 4.13406 4.06874
# Velocity P-wave (km/s) = 7.73650 7.94399 7.84093
#
# Compressibility (1/GPa) = 0.01354632
#
# Stress axis : x y z
#
# Youngs Moduli (GPa) = 84.75159 67.27235 76.76763
#
# Poissons Ratio (x) = 0.32337 0.19900
# Poissons Ratio (y) = 0.40739 0.43550
# Poissons Ratio (z) = 0.21970 0.38163
#
# Static dielectric constant tensor:
#      x y z
#    x 3.820590 0.000000 -0.069450 
#    y 0.000000 3.461760 0.000000 
#    z -0.069450 0.000000 3.595070 
# 
# 
# High freq. dielectric constant tensor:
#      x y z
#    x 1.761100 0.000000 -0.004790 
#    y 0.000000 1.733100 0.000000 
#    z -0.004790 0.000000 1.757080 
# 
# From -- ./inp_files/195451.got.cif
#   From: 2010.06.25/outbox.cif.g09.slc.cpg/sg12_98_cif.got.tgz:195451.got - 2010.06.28 00:19:55.
