data_PCOD8115941
_publ_section_title
;
Structure prediction by ZEFSAII (Michael W. Deem and Ramdas Pophale) SiO2 
 PCOD8115941
Probable space group: C 2/M
;
_chemical_formula_sum "Si O2"
_cell_formula_units_Z 36
_cell_length_a 9.853498
_cell_length_b 14.611328
_cell_length_c 13.506990
_cell_angle_alpha 90.000000
_cell_angle_beta 125.906585
_cell_angle_gamma 90.000000
_cell_volume 1575.106450
_symmetry_space_group_name_H-M "C 2/M"
_symmetry_group_IT_number 12
_symmetry_cell_setting 'monoclinic'
loop_
_space_group_symop_operation_xyz
x,y,z
-x,y,-z
-x,-y,-z
x,-y,z
1/2+x,1/2+y,z
1/2-x,1/2+y,-z
1/2-x,1/2-y,-z
1/2+x,1/2-y,z
loop_
_atom_site_type_symbol
_atom_site_label
_atom_site_fract_x
_atom_site_fract_y
_atom_site_fract_z
Si Si1 0.533998 0.669699 0.275167
Si Si2 0.320612 0.000000 0.627357
Si Si3 0.737014 0.500000 0.382232
Si Si4 0.859894 0.831640 0.007325
Si Si5 0.668559 0.311430 0.627941
Si Si6 0.309764 0.000000 0.178642
O O1 0.631010 0.587915 0.368108
O O2 0.376880 0.699555 0.275577
O O3 0.666355 0.751559 0.319560
O O4 0.457912 0.626567 0.142564
O O5 0.210738 0.913637 0.613140
O O6 0.372179 0.000000 0.530735
O O7 0.494173 0.000000 0.761946
O O8 0.791027 0.500000 0.290381
O O9 0.766372 0.910070 0.905180
O O10 0.750000 0.750000 0.000000
O O11 0.000000 0.784324 0.000000
O O12 0.500000 0.275863 0.500000
#
# Coordination Sequence:
#
# PCOD8115941 Si02
#       6
#     8   4   4   8   8   4
#     4  12  26  45  75 107 146 192 240 297 365 430
#     4  12  27  48  73 107 149 190 246 300 363 432
#     4  12  25  46  74 102 148 185 241 295 364 418
#     4  12  25  48  74 105 148 191 242 300 357 431
#     4  12  26  47  72 110 151 190 239 300 365 432
#     4  12  27  48  75 109 143 195 247 297 364 430
#
# _framework density 22.855599000000002
#
# number of rings (size 3 to 8) (size 9 to 14) (size 15 to 20)
#    0.000    0.000    4.444    5.667    3.111    0.000 
#    0.000    1.667    0.000    0.000    0.000    0.000 
#    0.000    0.000    0.000    0.000    0.000    0.000 
#
# Total GULP energy -223055.872283 kJ/mol
# GULP energy per Si atom -12391.992905 kJ/mol
# Density = 2.280358 g / cm^3
# Si number density = 22.855599 Si / 1000 Ang^3
#
#
#
# Elastic Constant Matrix: (Units=GPa)
#
#
# Indices 1 2 3 4 5 6 
#
# 1 164.5152 65.7008 68.8766 0.0000 -18.7826 0.0000
# 2 65.7008 139.6341 37.1194 0.0000 3.8504 0.0000
# 3 68.8766 37.1194 143.1451 0.0000 -1.9293 0.0000
# 4 0.0000 0.0000 0.0000 19.8313 0.0000 -6.2843
# 5 -18.7826 3.8504 -1.9293 0.0000 34.4151 0.0000
# 6 0.0000 0.0000 0.0000 -6.2843 0.0000 41.7602
#
#
#
# Elastic Compliance Matrix: (Units=1/GPa)
#
#
# Indices 1 2 3 4 5 6 
#
# 1 0.009736 -0.003768 -0.003633 0.000000 0.005531 0.000000
# 2 -0.003768 0.009183 -0.000610 0.000000 -0.003118 0.000000
# 3 -0.003633 -0.000610 0.008873 0.000000 -0.001417 0.000000
# 4 0.000000 0.000000 0.000000 0.052950 0.000000 0.007968
# 5 0.005531 -0.003118 -0.001417 0.000000 0.032345 0.000000
# 6 0.000000 0.000000 0.000000 0.007968 0.000000 0.025145
#
#
# Mechanical properties :
#
#
# Convention : Reuss Voigt Hill
#
# Bulk Modulus (GPa) = 84.96478 87.85423 86.40950
# Shear Modulus (GPa) = 31.61022 37.57450 34.59236
#
# Velocity S-wave (km/s) = 3.72296 4.05902 3.89462
# Velocity P-wave (km/s) = 7.46565 7.77752 7.62318
#
# Compressibility (1/GPa) = 0.01176958
#
# Stress axis : x y z
#
# Youngs Moduli (GPa) = 102.71657 108.90273 112.69996
#
# Poissons Ratio (x) = 0.41030 0.40943
# Poissons Ratio (y) = 0.38699 0.06879
# Poissons Ratio (z) = 0.37316 0.06647
#
# Static dielectric constant tensor:
#      x y z
#    x 4.269120 0.000000 -0.119990 
#    y 0.000000 4.100920 0.000000 
#    z -0.119990 0.000000 4.864190 
# 
# 
# High freq. dielectric constant tensor:
#      x y z
#    x 1.916470 0.000000 -0.004430 
#    y 0.000000 1.900110 0.000000 
#    z -0.004430 0.000000 1.925240 
# 
# From -- ./inp_files/195774.got.cif
#   From: 2010.06.25/outbox.cif.g09.slc.cpg/sg12_98_cif.got.tgz:195774.got - 2010.06.28 00:19:55.
