data_PCOD8115009
_publ_section_title
;
Structure prediction by ZEFSAII (Michael W. Deem and Ramdas Pophale) SiO2 
 PCOD8115009
Probable space group: C 2/M
;
_chemical_formula_sum "Si O2"
_cell_formula_units_Z 40
_cell_length_a 22.190800
_cell_length_b 14.599827
_cell_length_c 10.293094
_cell_angle_alpha 90.000000
_cell_angle_beta 31.897868
_cell_angle_gamma 90.000000
_cell_volume 1762.117886
_symmetry_space_group_name_H-M "C 2/M"
_symmetry_group_IT_number 12
_symmetry_cell_setting 'monoclinic'
loop_
_space_group_symop_operation_xyz
x,y,z
-x,y,-z
-x,-y,-z
x,-y,z
1/2+x,1/2+y,z
1/2-x,1/2+y,-z
1/2-x,1/2-y,-z
1/2+x,1/2-y,z
loop_
_atom_site_type_symbol
_atom_site_label
_atom_site_fract_x
_atom_site_fract_y
_atom_site_fract_z
Si Si1 0.444570 0.604234 0.465563
Si Si2 0.559483 0.288006 0.024258
Si Si3 0.233696 0.599993 0.277755
Si Si4 0.731568 0.854750 0.999832
Si Si5 0.027125 0.394837 0.205221
O O1 0.500000 0.634805 0.500000
O O2 0.475293 0.500000 0.370991
O O3 0.487081 0.670792 0.275237
O O4 0.308815 0.614880 0.735771
O O5 0.568002 0.177526 0.020736
O O6 0.500000 0.316672 0.000000
O O7 0.687816 0.327515 0.790253
O O8 0.252170 0.500000 0.307506
O O9 0.102969 0.631011 0.524752
O O10 0.267127 0.591061 0.064577
O O11 0.750000 0.750000 0.000000
O O12 0.601783 0.878494 0.198284
O O13 0.038938 0.500000 0.134339
#
# Coordination Sequence:
#
# PCOD8115009 Si02
#       5
#     8   8   8   8   8
#     4  11  22  40  69 104 140 177 228 292 347 405
#     4  12  27  46  72 100 143 189 238 286 354 419
#     4  11  23  43  71 105 141 180 230 289 349 419
#     4  12  21  40  72 105 142 179 227 291 353 416
#     4  11  25  45  69 101 140 185 235 290 354 418
#
# _framework density 22.699957000000001
#
# number of rings (size 3 to 8) (size 9 to 14) (size 15 to 20)
#    0.000    0.600    4.000    4.200    0.000    4.400 
#    0.000    0.000    0.000    0.000    0.000    0.000 
#    0.000    0.000    0.000    0.000    0.000    0.000 
#
# Total GULP energy -248033.100279 kJ/mol
# GULP energy per Si atom -12401.655014 kJ/mol
# Density = 2.264829 g / cm^3
# Si number density = 22.699957 Si / 1000 Ang^3
#
#
#
# Elastic Constant Matrix: (Units=GPa)
#
#
# Indices 1 2 3 4 5 6 
#
# 1 146.5111 54.9200 50.0458 0.0000 -20.1916 0.0000
# 2 54.9200 163.6244 56.7058 0.0000 -12.9470 0.0000
# 3 50.0458 56.7058 92.0771 0.0000 -31.1484 0.0000
# 4 0.0000 0.0000 0.0000 30.8303 0.0000 -11.9170
# 5 -20.1916 -12.9470 -31.1484 0.0000 36.1066 0.0000
# 6 0.0000 0.0000 0.0000 -11.9170 0.0000 17.1029
#
#
#
# Elastic Compliance Matrix: (Units=1/GPa)
#
#
# Indices 1 2 3 4 5 6 
#
# 1 0.008770 -0.001717 -0.003189 0.000000 0.001537 0.000000
# 2 -0.001717 0.008199 -0.004867 0.000000 -0.002218 0.000000
# 3 -0.003189 -0.004867 0.020331 0.000000 0.014010 0.000000
# 4 0.000000 0.000000 0.000000 0.044392 0.000000 0.030931
# 5 0.001537 -0.002218 0.014010 0.000000 0.039846 0.000000
# 6 0.000000 0.000000 0.000000 0.030931 0.000000 0.080022
#
#
# Mechanical properties :
#
#
# Convention : Reuss Voigt Hill
#
# Bulk Modulus (GPa) = 56.32560 80.61730 68.47145
# Shear Modulus (GPa) = 22.02423 32.84405 27.43414
#
# Velocity S-wave (km/s) = 3.11823 3.80791 3.48020
# Velocity P-wave (km/s) = 6.15073 7.41114 6.81016
#
# Compressibility (1/GPa) = 0.01775392
#
# Stress axis : x y z
#
# Youngs Moduli (GPa) = 114.02121 121.96878 49.18711
#
# Poissons Ratio (x) = 0.20939 0.15688
# Poissons Ratio (y) = 0.19574 0.23938
# Poissons Ratio (z) = 0.36367 0.59358
#
# Static dielectric constant tensor:
#      x y z
#    x 3.862900 0.000000 -0.288180 
#    y 0.000000 4.281280 0.000000 
#    z -0.288180 0.000000 4.225320 
# 
# 
# High freq. dielectric constant tensor:
#      x y z
#    x 1.866490 0.000000 -0.030030 
#    y 0.000000 1.915010 0.000000 
#    z -0.030030 0.000000 1.895540 
# 
# From -- ./inp_files/176342.got.cif
#   From: 2010.06.25/outbox.cif.g09.slc.cpg/sg12_89_cif.got.tgz:176342.got - 2010.06.28 00:19:55.
