data_PCOD8115235
_publ_section_title
;
Structure prediction by ZEFSAII (Michael W. Deem and Ramdas Pophale) SiO2 
 PCOD8115235
Probable space group: C 2/M
;
_chemical_formula_sum "Si O2"
_cell_formula_units_Z 40
_cell_length_a 30.200765
_cell_length_b 8.481352
_cell_length_c 22.930480
_cell_angle_alpha 90.000000
_cell_angle_beta 18.893786
_cell_angle_gamma 90.000000
_cell_volume 1901.922797
_symmetry_space_group_name_H-M "C 2/M"
_symmetry_group_IT_number 12
_symmetry_cell_setting 'monoclinic'
loop_
_space_group_symop_operation_xyz
x,y,z
-x,y,-z
-x,-y,-z
x,-y,z
1/2+x,1/2+y,z
1/2-x,1/2+y,-z
1/2-x,1/2-y,-z
1/2+x,1/2-y,z
loop_
_atom_site_type_symbol
_atom_site_label
_atom_site_fract_x
_atom_site_fract_y
_atom_site_fract_z
Si Si1 0.072568 0.183710 0.850075
Si Si2 0.627789 0.815018 0.113132
Si Si3 0.891919 0.317456 0.587105
Si Si4 0.141095 0.318109 0.961887
Si Si5 0.132632 0.817978 0.503974
O O1 0.233600 0.214678 0.651018
O O2 0.010716 0.278747 0.872136
O O3 0.046326 0.000000 0.873307
O O4 0.000000 0.242825 0.000000
O O5 0.658861 0.775743 0.007342
O O6 0.485995 0.729580 0.303824
O O7 0.611583 0.000000 0.144503
O O8 0.750000 0.750000 0.000000
O O9 0.910929 0.500000 0.547086
O O10 0.921716 0.213512 0.493316
O O11 0.000000 0.259771 0.500000
O O12 0.740666 0.290891 0.799896
O O13 0.175904 0.500000 0.907302
O O14 0.169524 0.000000 0.466195
#
# Coordination Sequence:
#
# PCOD8115235 Si02
#       5
#     8   8   8   8   8
#     4  11  23  41  67  96 129 168 213 265 322 381
#     4  11  25  45  67  95 133 172 215 264 320 382
#     4  11  23  39  62  92 126 166 213 265 319 378
#     4  11  24  41  65  95 127 167 213 264 320 380
#     4  12  25  41  66  95 128 170 215 264 320 379
#
# _framework density 21.031345999999999
#
# number of rings (size 3 to 8) (size 9 to 14) (size 15 to 20)
#    0.000    0.800    2.000    5.400    0.000    9.600 
#    0.000    0.000    0.000    0.000    0.000    0.000 
#    0.000    0.000    0.000    0.000    0.000    0.000 
#
# Total GULP energy -248169.205163 kJ/mol
# GULP energy per Si atom -12408.460258 kJ/mol
# Density = 2.098348 g / cm^3
# Si number density = 21.031346 Si / 1000 Ang^3
#
#
#
# Elastic Constant Matrix: (Units=GPa)
#
#
# Indices 1 2 3 4 5 6 
#
# 1 103.4640 29.8599 1.5597 -0.0130 -7.0109 0.0006
# 2 29.8599 71.6944 13.4006 -0.0251 11.1849 0.0009
# 3 1.5597 13.4006 73.4604 -0.0290 -5.6889 0.0014
# 4 -0.0130 -0.0251 -0.0290 31.6440 0.0034 -3.3860
# 5 -7.0109 11.1849 -5.6889 0.0034 35.7094 0.0008
# 6 0.0006 0.0009 0.0014 -3.3860 0.0008 35.4079
#
#
#
# Elastic Compliance Matrix: (Units=1/GPa)
#
#
# Indices 1 2 3 4 5 6 
#
# 1 0.011578 -0.005692 0.001120 0.000001 0.004235 0.000000
# 2 -0.005692 0.018180 -0.003769 0.000010 -0.007412 0.000001
# 3 0.001120 -0.003769 0.014565 0.000010 0.003721 0.000000
# 4 0.000001 0.000010 0.000010 0.031928 -0.000004 0.003053
# 5 0.004235 -0.007412 0.003721 -0.000004 0.031750 -0.000001
# 6 0.000000 0.000001 0.000000 0.003053 -0.000001 0.028534
#
#
# Mechanical properties :
#
#
# Convention : Reuss Voigt Hill
#
# Bulk Modulus (GPa) = 36.17923 37.58436 36.88180
# Shear Modulus (GPa) = 30.78238 34.13883 32.46060
#
# Velocity S-wave (km/s) = 3.82991 4.03331 3.93292
# Velocity P-wave (km/s) = 6.06609 6.29282 6.18050
#
# Compressibility (1/GPa) = 0.02764016
#
# Stress axis : x y z
#
# Youngs Moduli (GPa) = 86.37059 55.00616 68.65878
#
# Poissons Ratio (x) = 0.31310 -0.07693
# Poissons Ratio (y) = 0.49164 0.25881
# Poissons Ratio (z) = -0.09677 0.20735
#
# Static dielectric constant tensor:
#      x y z
#    x 4.025830 0.000000 -0.024200 
#    y 0.000000 3.758120 0.000030 
#    z -0.024200 0.000030 3.791050 
# 
# 
# High freq. dielectric constant tensor:
#      x y z
#    x 1.836250 0.000000 -0.007870 
#    y 0.000000 1.832360 0.000000 
#    z -0.007870 0.000000 1.824660 
# 
# From -- ./inp_files/151626.got.cif
#   From: 2010.06.25/outbox.cif.g09.slc.cpg/sg12_76_cif.got.tgz:151626.got - 2010.06.28 00:19:55.
