data_PCOD8115122
_publ_section_title
;
Structure prediction by ZEFSAII (Michael W. Deem and Ramdas Pophale) SiO2 
 PCOD8115122
Probable space group: C 2/M
;
_chemical_formula_sum "Si O2"
_cell_formula_units_Z 36
_cell_length_a 11.769212
_cell_length_b 22.209146
_cell_length_c 5.393793
_cell_angle_alpha 90.000000
_cell_angle_beta 81.679020
_cell_angle_gamma 90.000000
_cell_volume 1395.010282
_symmetry_space_group_name_H-M "C 2/M"
_symmetry_group_IT_number 12
_symmetry_cell_setting 'monoclinic'
loop_
_space_group_symop_operation_xyz
x,y,z
-x,y,-z
-x,-y,-z
x,-y,z
1/2+x,1/2+y,z
1/2-x,1/2+y,-z
1/2-x,1/2-y,-z
1/2+x,1/2-y,z
loop_
_atom_site_type_symbol
_atom_site_label
_atom_site_fract_x
_atom_site_fract_y
_atom_site_fract_z
Si Si1 0.271639 0.000000 0.182650
Si Si2 0.221289 0.839570 0.841216
Si Si3 0.886727 0.278109 0.171482
Si Si4 0.116984 0.397561 0.573612
Si Si5 0.125151 0.000000 0.718284
Si Si6 0.000000 0.901616 0.000000
O O1 0.347706 0.938868 0.200595
O O2 0.184269 0.000000 0.437173
O O3 0.213209 0.000000 0.931670
O O4 0.175965 0.781364 0.696429
O O5 0.275872 0.893155 0.654860
O O6 0.311856 0.815337 0.003175
O O7 0.113118 0.863537 0.036746
O O8 0.914939 0.327739 0.367955
O O9 0.000000 0.254559 0.000000
O O10 0.000000 0.426769 0.500000
O O11 0.039902 0.057320 0.756235
#
# Coordination Sequence:
#
# PCOD8115122 Si02
#       6
#     4   8   8   8   4   4
#     4  12  27  49  73 105 144 190 247 293 363 425
#     4  11  23  44  68 105 139 185 234 291 357 431
#     4  11  23  43  71  99 144 183 235 291 358 424
#     4  12  25  44  68 102 139 186 236 298 352 430
#     4  11  26  48  74 105 148 187 238 304 356 430
#     4  11  22  44  74 102 144 187 242 290 368 419
#
# _framework density 25.806259000000001
#
# number of rings (size 3 to 8) (size 9 to 14) (size 15 to 20)
#    0.000    0.667    5.556    2.333    0.000    1.778 
#    4.000    1.667    0.000    0.000    0.000    0.000 
#    0.000    0.000    0.000    0.000    0.000    0.000 
#
# Total GULP energy -223005.447764 kJ/mol
# GULP energy per Si atom -12389.191542 kJ/mol
# Density = 2.574752 g / cm^3
# Si number density = 25.806259 Si / 1000 Ang^3
#
#
#
# Elastic Constant Matrix: (Units=GPa)
#
#
# Indices 1 2 3 4 5 6 
#
# 1 147.4755 31.1771 30.1236 0.0000 -7.2855 0.0000
# 2 31.1771 118.4063 7.4202 0.0000 3.2197 0.0000
# 3 30.1236 7.4202 55.3251 0.0000 0.0356 0.0000
# 4 0.0000 0.0000 0.0000 24.9355 0.0000 -2.4799
# 5 -7.2855 3.2197 0.0356 0.0000 33.0039 0.0000
# 6 0.0000 0.0000 0.0000 -2.4799 0.0000 90.6003
#
#
#
# Elastic Compliance Matrix: (Units=1/GPa)
#
#
# Indices 1 2 3 4 5 6 
#
# 1 0.008141 -0.001936 -0.004174 0.000000 0.001991 0.000000
# 2 -0.001936 0.009000 -0.000152 0.000000 -0.001305 0.000000
# 3 -0.004174 -0.000152 0.020369 0.000000 -0.000929 0.000000
# 4 0.000000 0.000000 0.000000 0.040213 0.000000 0.001101
# 5 0.001991 -0.001305 -0.000929 0.000000 0.030867 0.000000
# 6 0.000000 0.000000 0.000000 0.001101 0.000000 0.011068
#
#
# Mechanical properties :
#
#
# Convention : Reuss Voigt Hill
#
# Bulk Modulus (GPa) = 40.02373 50.96096 45.49235
# Shear Modulus (GPa) = 35.58429 46.54034 41.06231
#
# Velocity S-wave (km/s) = 3.71738 4.25131 3.99328
# Velocity P-wave (km/s) = 5.82823 6.62485 6.23927
#
# Compressibility (1/GPa) = 0.02498518
#
# Stress axis : x y z
#
# Youngs Moduli (GPa) = 122.83395 111.10722 49.09469
#
# Poissons Ratio (x) = 0.21512 0.20494
# Poissons Ratio (y) = 0.23782 0.00747
# Poissons Ratio (z) = 0.51274 0.01690
#
# Static dielectric constant tensor:
#      x y z
#    x 4.928430 0.000000 -0.230850 
#    y 0.000000 5.310230 0.000000 
#    z -0.230850 0.000000 4.142120 
# 
# 
# High freq. dielectric constant tensor:
#      x y z
#    x 2.052330 0.000000 -0.013880 
#    y 0.000000 2.058920 0.000000 
#    z -0.013880 0.000000 1.984280 
# 
# From -- ./inp_files/6972.got.cif
#   From: 2010.06.25/outbox.cif.g09.slc.cpg/sg12_4_cif.got.tgz:6972.got - 2010.06.28 00:19:55.
