data_PCOD8115254
_publ_section_title
;
Structure prediction by ZEFSAII (Michael W. Deem and Ramdas Pophale) SiO2 
 PCOD8115254
Probable space group: C 2/M
;
_chemical_formula_sum "Si O2"
_cell_formula_units_Z 60
_cell_length_a 8.928547
_cell_length_b 19.234642
_cell_length_c 21.383594
_cell_angle_alpha 90.000000
_cell_angle_beta 126.845585
_cell_angle_gamma 90.000000
_cell_volume 2938.825081
_symmetry_space_group_name_H-M "C 2/M"
_symmetry_group_IT_number 12
_symmetry_cell_setting 'monoclinic'
loop_
_space_group_symop_operation_xyz
x,y,z
-x,y,-z
-x,-y,-z
x,-y,z
1/2+x,1/2+y,z
1/2-x,1/2+y,-z
1/2-x,1/2-y,-z
1/2+x,1/2-y,z
loop_
_atom_site_type_symbol
_atom_site_label
_atom_site_fract_x
_atom_site_fract_y
_atom_site_fract_z
Si Si1 0.891190 0.827840 0.217205
Si Si2 0.475686 0.187925 0.622818
Si Si3 0.000000 0.383811 0.500000
Si Si4 0.543829 0.420982 0.080894
Si Si5 0.588322 0.421882 0.369100
Si Si6 0.587682 0.322342 0.587082
Si Si7 0.814699 0.578848 0.921367
Si Si8 0.781220 0.182351 0.787277
O O1 0.725495 0.877717 0.151546
O O2 0.804074 0.757207 0.219905
O O3 0.020843 0.869888 0.298235
O O4 0.014050 0.805842 0.188748
O O5 0.430438 0.159778 0.542516
O O6 0.527432 0.268885 0.626392
O O7 0.309158 0.179228 0.631113
O O8 0.647981 0.148645 0.700071
O O9 0.814938 0.425648 0.433126
O O10 0.622580 0.500000 0.100498
O O11 0.354869 0.417014 0.072804
O O12 0.702676 0.370136 0.149822
O O13 0.500000 0.395476 0.000000
O O14 0.520999 0.500000 0.337395
O O15 0.488147 0.397217 0.408686
O O16 0.500000 0.299514 0.500000
O O17 0.852240 0.500000 0.909361
O O18 0.000000 0.610110 0.000000
#
# Coordination Sequence:
#
# PCOD8115254 Si02
#       8
#     8   8   4   8   8   8   8   8
#     4  11  23  40  64  92 127 163 209 265 312 376
#     4  12  22  39  65  95 121 162 211 266 314 369
#     4  12  23  44  68  92 119 166 220 266 315 384
#     4   9  20  41  65  91 125 164 204 252 311 376
#     4  12  26  44  62  89 128 170 213 266 326 379
#     4  12  23  39  64  89 125 162 212 261 317 378
#     4   9  19  38  63  90 121 163 208 251 306 374
#     4  11  23  39  64  93 126 161 209 260 312 371
#
# _framework density 20.416322000000001
#
# number of rings (size 3 to 8) (size 9 to 14) (size 15 to 20)
#    0.000    1.067    4.667    2.600    0.000    2.400 
#    0.000    3.333    0.000    0.000    0.000    0.000 
#    0.000    0.000    0.000    0.000    0.000    0.000 
#
# Total GULP energy -371845.634679 kJ/mol
# GULP energy per Si atom -12394.854489 kJ/mol
# Density = 2.036985 g / cm^3
# Si number density = 20.416322 Si / 1000 Ang^3
#
#
#
# Elastic Constant Matrix: (Units=GPa)
#
#
# Indices 1 2 3 4 5 6 
#
# 1 83.1057 40.2391 21.2834 0.0000 3.1392 0.0000
# 2 40.2391 116.9821 61.7252 0.0000 -1.5871 0.0000
# 3 21.2834 61.7252 152.2270 0.0000 2.8504 0.0000
# 4 0.0000 0.0000 0.0000 33.9945 0.0000 1.0696
# 5 3.1392 -1.5871 2.8504 0.0000 31.5148 0.0000
# 6 0.0000 0.0000 0.0000 1.0696 0.0000 18.3414
#
#
#
# Elastic Compliance Matrix: (Units=1/GPa)
#
#
# Indices 1 2 3 4 5 6 
#
# 1 0.014528 -0.005045 0.000046 0.000000 -0.001705 0.000000
# 2 -0.005045 0.012655 -0.004455 0.000000 0.001543 0.000000
# 3 0.000046 -0.004455 0.008388 0.000000 -0.000988 0.000000
# 4 0.000000 0.000000 0.000000 0.029471 0.000000 -0.001719
# 5 -0.001705 0.001543 -0.000988 0.000000 0.032068 0.000000
# 6 0.000000 0.000000 0.000000 -0.001719 0.000000 0.054622
#
#
# Mechanical properties :
#
#
# Convention : Reuss Voigt Hill
#
# Bulk Modulus (GPa) = 60.01048 66.53446 63.27247
# Shear Modulus (GPa) = 28.37799 32.04130 30.20964
#
# Velocity S-wave (km/s) = 3.73227 3.96586 3.85084
# Velocity P-wave (km/s) = 6.93039 7.32327 7.12954
#
# Compressibility (1/GPa) = 0.01666376
#
# Stress axis : x y z
#
# Youngs Moduli (GPa) = 68.83197 79.01859 119.22396
#
# Poissons Ratio (x) = 0.39864 -0.00552
# Poissons Ratio (y) = 0.34725 0.53114
# Poissons Ratio (z) = -0.00319 0.35203
#
# Static dielectric constant tensor:
#      x y z
#    x 3.737650 0.000000 0.028390 
#    y 0.000000 3.608830 0.000000 
#    z 0.028390 0.000000 3.945470 
# 
# 
# High freq. dielectric constant tensor:
#      x y z
#    x 1.795990 0.000000 -0.001750 
#    y 0.000000 1.781110 0.000000 
#    z -0.001750 0.000000 1.809870 
# 
# From -- ./inp_files/301892.got.cif
#   From: 2010.06.25/outbox.cif.g09.slc.cpg/sg12_151_cif.got.tgz:301892.got - 2010.06.28 00:19:55.
