data_PCOD8115939
_publ_section_title
;
Structure prediction by ZEFSAII (Michael W. Deem and Ramdas Pophale) SiO2 
 PCOD8115939
Probable space group: C 2/M
;
_chemical_formula_sum "Si O2"
_cell_formula_units_Z 48
_cell_length_a 16.711272
_cell_length_b 28.398295
_cell_length_c 9.465681
_cell_angle_alpha 90.000000
_cell_angle_beta 31.348599
_cell_angle_gamma 90.000000
_cell_volume 2337.009394
_symmetry_space_group_name_H-M "C 2/M"
_symmetry_group_IT_number 12
_symmetry_cell_setting 'monoclinic'
loop_
_space_group_symop_operation_xyz
x,y,z
-x,y,-z
-x,-y,-z
x,-y,z
1/2+x,1/2+y,z
1/2-x,1/2+y,-z
1/2-x,1/2-y,-z
1/2+x,1/2-y,z
loop_
_atom_site_type_symbol
_atom_site_label
_atom_site_fract_x
_atom_site_fract_y
_atom_site_fract_z
Si Si1 0.653508 0.131638 0.357973
Si Si2 0.651290 0.128660 0.692409
Si Si3 0.332626 0.445323 0.921092
Si Si4 0.828984 0.783215 0.490819
Si Si5 0.190479 0.230250 0.945173
Si Si6 0.689321 0.445892 0.366086
O O1 0.500000 0.136147 0.500000
O O2 0.617104 0.123235 0.577762
O O3 0.746315 0.179652 0.195893
O O4 0.747144 0.086447 0.164164
O O5 0.795735 0.163063 0.499708
O O6 0.698170 0.079682 0.694143
O O7 0.500000 0.148358 0.000000
O O8 0.288890 0.500000 0.011184
O O9 0.512981 0.437569 0.673598
O O10 0.284936 0.429128 0.834756
O O11 0.750000 0.750000 0.500000
O O12 0.749555 0.771899 0.757548
O O13 0.008351 0.773250 0.222474
O O14 0.250000 0.250000 0.000000
O O15 0.733578 0.500000 0.311148
#
# Coordination Sequence:
#
# PCOD8115939 Si02
#       6
#     8   8   8   8   8   8
#     4  12  26  43  64  95 133 172 223 273 331 399
#     4  12  26  42  66  95 130 175 220 276 334 391
#     4   9  20  41  68  96 130 170 215 272 333 395
#     4  12  25  45  69  95 133 171 219 271 329 383
#     4  12  27  45  67  99 131 175 219 270 326 397
#     4   9  20  41  68  97 129 169 218 270 331 399
#
# _framework density 20.539069999999999
#
# number of rings (size 3 to 8) (size 9 to 14) (size 15 to 20)
#    0.000    1.000    1.667    6.000    4.667    3.333 
#    0.000    1.667    0.000    0.000    0.000    0.000 
#    0.000    0.000    0.000    0.000    0.000    0.000 
#
# Total GULP energy -297620.690969 kJ/mol
# GULP energy per Si atom -12400.862124 kJ/mol
# Density = 2.049232 g / cm^3
# Si number density = 20.539070 Si / 1000 Ang^3
#
#
#
# Elastic Constant Matrix: (Units=GPa)
#
#
# Indices 1 2 3 4 5 6 
#
# 1 160.0655 42.5973 65.7191 0.0000 8.1049 0.0000
# 2 42.5973 84.3188 36.1621 0.0000 5.5082 0.0000
# 3 65.7191 36.1621 124.9870 -0.0001 7.7099 0.0000
# 4 0.0000 0.0000 -0.0001 37.6425 0.0000 -1.4124
# 5 8.1049 5.5082 7.7099 0.0000 46.7909 0.0000
# 6 0.0000 0.0000 0.0000 -1.4124 0.0000 40.1486
#
#
#
# Elastic Compliance Matrix: (Units=1/GPa)
#
#
# Indices 1 2 3 4 5 6 
#
# 1 0.008490 -0.002686 -0.003653 0.000000 -0.000552 0.000000
# 2 -0.002686 0.014433 -0.002715 0.000000 -0.000786 0.000000
# 3 -0.003653 -0.002715 0.010758 0.000000 -0.000820 0.000000
# 4 0.000000 0.000000 0.000000 0.026601 0.000000 0.000936
# 5 -0.000552 -0.000786 -0.000820 0.000000 0.021695 0.000000
# 6 0.000000 0.000000 0.000000 0.000936 0.000000 0.024940
#
#
# Mechanical properties :
#
#
# Convention : Reuss Voigt Hill
#
# Bulk Modulus (GPa) = 64.21649 73.14758 68.68204
# Shear Modulus (GPa) = 38.39798 39.90925 39.15362
#
# Velocity S-wave (km/s) = 4.32847 4.41283 4.37086
# Velocity P-wave (km/s) = 7.50429 7.85209 7.68016
#
# Compressibility (1/GPa) = 0.01557232
#
# Stress axis : x y z
#
# Youngs Moduli (GPa) = 117.78420 69.28781 92.95811
#
# Poissons Ratio (x) = 0.18614 0.33956
# Poissons Ratio (y) = 0.31642 0.25235
# Poissons Ratio (z) = 0.43024 0.18809
#
# Static dielectric constant tensor:
#      x y z
#    x 3.822050 0.000000 0.109640 
#    y 0.000000 1.646760 0.000000 
#    z 0.109640 0.000000 3.756530 
# 
# 
# High freq. dielectric constant tensor:
#      x y z
#    x 1.816650 0.000000 0.001120 
#    y 0.000000 1.810980 0.000000 
#    z 0.001120 0.000000 1.811100 
# 
# From -- ./inp_files/67319.got.cif
#   From: 2010.06.25/outbox.cif.g09.slc.cpg/sg12_34_cif.got.tgz:67319.got - 2010.06.28 00:19:55.
