data_PCOD8115584
_publ_section_title
;
Structure prediction by ZEFSAII (Michael W. Deem and Ramdas Pophale) SiO2 
 PCOD8115584
Probable space group: C 2/M
;
_chemical_formula_sum "Si O2"
_cell_formula_units_Z 56
_cell_length_a 7.889778
_cell_length_b 17.621275
_cell_length_c 20.494228
_cell_angle_alpha 90.000000
_cell_angle_beta 122.781717
_cell_angle_gamma 90.000000
_cell_volume 2395.493992
_symmetry_space_group_name_H-M "C 2/M"
_symmetry_group_IT_number 12
_symmetry_cell_setting 'monoclinic'
loop_
_space_group_symop_operation_xyz
x,y,z
-x,y,-z
-x,-y,-z
x,-y,z
1/2+x,1/2+y,z
1/2-x,1/2+y,-z
1/2-x,1/2-y,-z
1/2+x,1/2-y,z
loop_
_atom_site_type_symbol
_atom_site_label
_atom_site_fract_x
_atom_site_fract_y
_atom_site_fract_z
Si Si1 0.184200 0.830996 0.175934
Si Si2 0.810082 0.912605 0.072982
Si Si3 0.848262 0.412469 0.098823
Si Si4 0.395019 0.167359 0.352905
Si Si5 0.649912 0.676440 0.588675
Si Si6 0.039801 0.088828 0.338109
Si Si7 0.228607 0.341404 0.174877
O O1 0.177302 0.895495 0.117116
O O2 0.321612 0.852715 0.265341
O O3 0.233734 0.747763 0.160462
O O4 0.949090 0.847858 0.142149
O O5 0.647782 0.898670 0.096838
O O6 0.882717 0.000000 0.086450
O O7 0.741762 0.883531 0.988791
O O8 0.904517 0.500000 0.108381
O O9 0.021298 0.359949 0.170383
O O10 0.331967 0.253262 0.357692
O O11 0.636711 0.154935 0.401006
O O12 0.276844 0.113445 0.380233
O O13 0.500000 0.700601 0.500000
O O14 0.551583 0.607642 0.609400
O O15 0.919924 0.133174 0.257082
O O16 0.020344 0.000000 0.322631
#
# Coordination Sequence:
#
# PCOD8115584 Si02
#       7
#     8   8   8   8   8   8   8
#     4  12  24  40  67  95 132 175 236 293 347 420
#     4  11  24  42  62  92 135 181 230 289 361 425
#     4  11  25  41  62  93 134 182 233 295 359 420
#     4  12  25  46  77 112 144 195 243 295 359 438
#     4  12  26  48  82 114 149 191 240 291 360 442
#     4  12  27  47  74 111 152 194 242 303 364 429
#     4  12  23  41  65  95 131 180 235 296 351 419
#
# _framework density 23.377224999999999
#
# number of rings (size 3 to 8) (size 9 to 14) (size 15 to 20)
#    0.000    0.286    4.286    4.714    0.000    7.143 
#    0.000    0.714    0.000    0.000    0.000    0.000 
#    0.000    0.000    0.000    0.000    0.000    0.000 
#
# Total GULP energy -346891.612715 kJ/mol
# GULP energy per Si atom -12388.986168 kJ/mol
# Density = 2.332402 g / cm^3
# Si number density = 23.377225 Si / 1000 Ang^3
#
#
#
# Elastic Constant Matrix: (Units=GPa)
#
#
# Indices 1 2 3 4 5 6 
#
# 1 99.4505 48.0810 36.6147 0.0000 11.8455 0.0000
# 2 48.0810 107.7527 20.6108 0.0000 7.0868 0.0000
# 3 36.6147 20.6108 89.4078 0.0000 7.9684 0.0000
# 4 0.0000 0.0000 0.0000 22.5837 0.0000 -3.0052
# 5 11.8455 7.0868 7.9684 0.0000 38.2070 0.0000
# 6 0.0000 0.0000 0.0000 -3.0052 0.0000 42.1194
#
#
#
# Elastic Compliance Matrix: (Units=1/GPa)
#
#
# Indices 1 2 3 4 5 6 
#
# 1 0.014696 -0.005524 -0.004514 0.000000 -0.002590 0.000000
# 2 -0.005524 0.011855 -0.000435 0.000000 -0.000395 0.000000
# 3 -0.004514 -0.000435 0.013248 0.000000 -0.001283 0.000000
# 4 0.000000 0.000000 0.000000 0.044704 0.000000 0.003190
# 5 -0.002590 -0.000395 -0.001283 0.000000 0.027317 0.000000
# 6 0.000000 0.000000 0.000000 0.003190 0.000000 0.023970
#
#
# Mechanical properties :
#
#
# Convention : Reuss Voigt Hill
#
# Bulk Modulus (GPa) = 53.04472 56.35820 54.70146
# Shear Modulus (GPa) = 30.67084 33.33565 32.00324
#
# Velocity S-wave (km/s) = 3.62608 3.78032 3.70400
# Velocity P-wave (km/s) = 6.34597 6.57381 6.46089
#
# Compressibility (1/GPa) = 0.01885202
#
# Stress axis : x y z
#
# Youngs Moduli (GPa) = 68.04367 84.35496 75.48254
#
# Poissons Ratio (x) = 0.46597 0.34075
# Poissons Ratio (y) = 0.37587 0.03286
# Poissons Ratio (z) = 0.30717 0.03673
#
# Static dielectric constant tensor:
#      x y z
#    x 4.855630 0.000000 -0.107310 
#    y 0.000000 3.817230 0.000000 
#    z -0.107310 0.000000 3.957000 
# 
# 
# High freq. dielectric constant tensor:
#      x y z
#    x 1.980610 0.000000 -0.007750 
#    y 0.000000 1.909860 0.000000 
#    z -0.007750 0.000000 1.916610 
# 
# From -- ./inp_files/300868.got.cif
#   From: 2010.06.25/outbox.cif.g09.slc.cpg/sg12_151_cif.got.tgz:300868.got - 2010.06.28 00:19:55.
