data_PCOD8115272
_publ_section_title
;
Structure prediction by ZEFSAII (Michael W. Deem and Ramdas Pophale) SiO2 
 PCOD8115272
Probable space group: C 2/M
;
_chemical_formula_sum "Si O2"
_cell_formula_units_Z 56
_cell_length_a 9.118763
_cell_length_b 30.383060
_cell_length_c 15.061316
_cell_angle_alpha 90.000000
_cell_angle_beta 46.746583
_cell_angle_gamma 90.000000
_cell_volume 3039.195393
_symmetry_space_group_name_H-M "C 2/M"
_symmetry_group_IT_number 12
_symmetry_cell_setting 'monoclinic'
loop_
_space_group_symop_operation_xyz
x,y,z
-x,y,-z
-x,-y,-z
x,-y,z
1/2+x,1/2+y,z
1/2-x,1/2+y,-z
1/2-x,1/2-y,-z
1/2+x,1/2-y,z
loop_
_atom_site_type_symbol
_atom_site_label
_atom_site_fract_x
_atom_site_fract_y
_atom_site_fract_z
Si Si1 0.308648 0.500000 0.858797
Si Si2 0.272378 0.239445 0.090553
Si Si3 0.535031 0.584019 0.135151
Si Si4 0.814633 0.796700 0.509770
Si Si5 0.886438 0.321992 0.742752
Si Si6 0.423401 0.670773 0.279689
Si Si7 0.512616 0.000000 0.148911
Si Si8 0.306936 0.085478 0.860823
O O1 0.441914 0.543551 0.807506
O O2 0.204546 0.500000 0.806167
O O3 0.171329 0.500000 0.003267
O O4 0.244935 0.285603 0.152177
O O5 0.102078 0.205865 0.193401
O O6 0.500000 0.220337 0.000000
O O7 0.250000 0.250000 0.000000
O O8 0.503727 0.624257 0.214064
O O9 0.358430 0.570880 0.141558
O O10 0.726695 0.594452 0.993628
O O11 0.750000 0.750000 0.500000
O O12 0.622492 0.813151 0.643079
O O13 0.868943 0.829574 0.406489
O O14 0.000000 0.792524 0.500000
O O15 0.783420 0.320935 0.688452
O O16 0.890744 0.368447 0.791286
O O17 0.536612 0.955554 0.198384
#
# Coordination Sequence:
#
# PCOD8115272 Si02
#       8
#     4   8   8   8   8   8   4   8
#     4   9  17  31  49  80 121 150 183 227 280 341
#     4  12  24  37  56  85 120 150 184 232 292 341
#     4   9  18  34  56  84 115 150 187 230 283 345
#     4  12  26  42  60  80 109 154 203 243 287 333
#     4  11  23  40  61  83 115 152 197 241 281 342
#     4  11  23  41  59  85 113 153 197 238 285 341
#     4   9  17  31  49  82 117 152 185 225 280 343
#     4   9  18  33  58  83 114 150 189 228 283 343
#
# _framework density 18.425930000000001
#
# number of rings (size 3 to 8) (size 9 to 14) (size 15 to 20)
#    0.000    1.571    2.857    2.571    4.000    2.857 
#    5.143    0.000    0.000    0.857    0.000    6.000 
#    0.000    0.000    0.000    0.000    0.000    0.000 
#
# Total GULP energy -346965.113670 kJ/mol
# GULP energy per Si atom -12391.611202 kJ/mol
# Density = 1.838399 g / cm^3
# Si number density = 18.425930 Si / 1000 Ang^3
#
#
#
# Elastic Constant Matrix: (Units=GPa)
#
#
# Indices 1 2 3 4 5 6 
#
# 1 120.8845 60.7207 39.0830 0.0000 -2.6432 0.0000
# 2 60.7207 122.4514 28.4773 0.0000 2.4151 0.0000
# 3 39.0830 28.4773 69.0522 0.0000 -2.5502 0.0000
# 4 0.0000 0.0000 0.0000 -12.0605 0.0000 -6.5703
# 5 -2.6432 2.4151 -2.5502 0.0000 34.6447 0.0000
# 6 0.0000 0.0000 0.0000 -6.5703 0.0000 26.8401
#
#
#
# Elastic Compliance Matrix: (Units=1/GPa)
#
#
# Indices 1 2 3 4 5 6 
#
# 1 0.012407 -0.005028 -0.004914 0.000000 0.000935 0.000000
# 2 -0.005028 0.011099 -0.001779 0.000000 -0.001288 0.000000
# 3 -0.004914 -0.001779 0.018037 0.000000 0.001077 0.000000
# 4 0.000000 0.000000 0.000000 -0.073159 0.000000 -0.017909
# 5 0.000935 -0.001288 0.001077 0.000000 0.029105 0.000000
# 6 0.000000 0.000000 0.000000 -0.017909 0.000000 0.032874
#
#
# Mechanical properties :
#
#
# Convention : Reuss Voigt Hill
#
# Bulk Modulus (GPa) = 55.24787 63.21667 59.23227
# Shear Modulus (GPa) = 83.55821 22.15867 52.85844
#
# Velocity S-wave (km/s) = 6.74141 3.47159 5.36183
# Velocity P-wave (km/s) = 9.52073 7.10297 8.39930
#
# Compressibility (1/GPa) = 0.01810024
#
# Stress axis : x y z
#
# Youngs Moduli (GPa) = 80.59805 90.09896 55.44266
#
# Poissons Ratio (x) = 0.45302 0.27246
# Poissons Ratio (y) = 0.40525 0.09863
# Poissons Ratio (z) = 0.39608 0.16028
#
# Static dielectric constant tensor:
#      x y z
#    x 3.498480 0.000000 0.108670 
#    y 0.000000 3.515100 0.000000 
#    z 0.108670 0.000000 2.991900 
# 
# 
# High freq. dielectric constant tensor:
#      x y z
#    x 1.727700 0.000000 0.004550 
#    y 0.000000 1.718130 0.000000 
#    z 0.004550 0.000000 1.689620 
# 
# From -- ./inp_files/200885.got.cif
#   From: 2010.06.25/outbox.cif.g09.slc.cpg/sg12_101_cif.got.tgz:200885.got - 2010.06.28 00:19:55.
