data_PCOD8115478
_publ_section_title
;
Structure prediction by ZEFSAII (Michael W. Deem and Ramdas Pophale) SiO2 
 PCOD8115478
Probable space group: C 2/M
;
_chemical_formula_sum "Si O2"
_cell_formula_units_Z 44
_cell_length_a 14.545362
_cell_length_b 13.613699
_cell_length_c 13.170513
_cell_angle_alpha 90.000000
_cell_angle_beta 58.906931
_cell_angle_gamma 90.000000
_cell_volume 2233.285813
_symmetry_space_group_name_H-M "C 2/M"
_symmetry_group_IT_number 12
_symmetry_cell_setting 'monoclinic'
loop_
_space_group_symop_operation_xyz
x,y,z
-x,y,-z
-x,-y,-z
x,-y,z
1/2+x,1/2+y,z
1/2-x,1/2+y,-z
1/2-x,1/2-y,-z
1/2+x,1/2-y,z
loop_
_atom_site_type_symbol
_atom_site_label
_atom_site_fract_x
_atom_site_fract_y
_atom_site_fract_z
Si Si1 0.808701 0.000000 0.387800
Si Si2 0.597770 0.000000 0.369629
Si Si3 0.629395 0.500000 0.423963
Si Si4 0.099247 0.386398 0.005877
Si Si5 0.560179 0.816519 0.247506
Si Si6 0.667314 0.722692 0.637659
Si Si7 0.720821 0.324450 0.247282
O O1 0.700096 0.000000 0.385255
O O2 0.801365 0.000000 0.512758
O O3 0.866390 0.106377 0.334350
O O4 0.500000 0.000000 0.500000
O O5 0.592366 0.094198 0.301423
O O6 0.500000 0.500000 0.500000
O O7 0.669742 0.404945 0.346339
O O8 0.078537 0.500000 0.039751
O O9 0.206599 0.371072 0.881424
O O10 0.105021 0.333298 0.109754
O O11 0.000000 0.341350 0.000000
O O12 0.433911 0.793751 0.322837
O O13 0.619003 0.720937 0.251705
O O14 0.750000 0.750000 0.500000
O O15 0.715892 0.746684 0.719944
#
# Coordination Sequence:
#
# PCOD8115478 Si02
#       7
#     4   4   4   8   8   8   8
#     4  12  24  46  66 100 143 177 231 275 340 432
#     4  12  26  39  68 104 141 179 225 283 348 418
#     4  12  26  43  70 103 141 184 234 280 341 428
#     4  11  23  44  71  98 130 179 239 292 346 408
#     4  12  26  44  69  99 142 184 232 286 354 417
#     4  12  25  42  70 101 139 181 227 283 352 414
#     4  12  25  43  70  98 137 187 230 287 350 414
#
# _framework density 19.701912
#
# number of rings (size 3 to 8) (size 9 to 14) (size 15 to 20)
#    0.000    0.182    7.273    2.727    0.000    0.000 
#    0.000    0.000    0.000    1.091    0.000    0.000 
#    0.000    0.000    0.000    0.000    0.000    0.000 
#
# Total GULP energy -272686.375467 kJ/mol
# GULP energy per Si atom -12394.835249 kJ/mol
# Density = 1.965707 g / cm^3
# Si number density = 19.701912 Si / 1000 Ang^3
#
#
#
# Elastic Constant Matrix: (Units=GPa)
#
#
# Indices 1 2 3 4 5 6 
#
# 1 109.8901 29.4138 59.6474 0.0000 13.1656 0.0000
# 2 29.4138 112.3504 38.4771 0.0000 13.0493 0.0000
# 3 59.6474 38.4771 123.0097 0.0000 12.1313 0.0000
# 4 0.0000 0.0000 0.0000 34.1852 0.0000 1.6088
# 5 13.1656 13.0493 12.1313 0.0000 40.5923 0.0000
# 6 0.0000 0.0000 0.0000 1.6088 0.0000 37.5835
#
#
#
# Elastic Compliance Matrix: (Units=1/GPa)
#
#
# Indices 1 2 3 4 5 6 
#
# 1 0.012692 -0.001170 -0.005584 0.000000 -0.002072 0.000000
# 2 -0.001170 0.010297 -0.002436 0.000000 -0.002203 0.000000
# 3 -0.005584 -0.002436 0.011688 0.000000 -0.000899 0.000000
# 4 0.000000 0.000000 0.000000 0.029311 0.000000 -0.001255
# 5 -0.002072 -0.002203 -0.000899 0.000000 0.026284 0.000000
# 6 0.000000 0.000000 0.000000 -0.001255 0.000000 0.026661
#
#
# Mechanical properties :
#
#
# Convention : Reuss Voigt Hill
#
# Bulk Modulus (GPa) = 61.36305 66.70299 64.03302
# Shear Modulus (GPa) = 35.52458 36.98632 36.25545
#
# Velocity S-wave (km/s) = 4.25090 4.33748 4.29441
# Velocity P-wave (km/s) = 7.43686 7.68209 7.56047
#
# Compressibility (1/GPa) = 0.01629645
#
# Stress axis : x y z
#
# Youngs Moduli (GPa) = 78.78693 97.11325 85.55759
#
# Poissons Ratio (x) = 0.11361 0.47778
# Poissons Ratio (y) = 0.09217 0.20846
# Poissons Ratio (z) = 0.43997 0.23661
#
# Static dielectric constant tensor:
#      x y z
#    x 2.753440 0.000000 -1.112670 
#    y 0.000000 3.885710 0.000000 
#    z -1.112670 0.000000 2.130030 
# 
# 
# High freq. dielectric constant tensor:
#      x y z
#    x 1.781780 0.000000 0.016420 
#    y 0.000000 1.783760 0.000000 
#    z 0.016420 0.000000 1.769440 
# 
# From -- ./inp_files/142661.got.cif
#   From: 2010.06.25/outbox.cif.g09.slc.cpg/sg12_72_cif.got.tgz:142661.got - 2010.06.28 00:19:55.
