data_PCOD8115763
_publ_section_title
;
Structure prediction by ZEFSAII (Michael W. Deem and Ramdas Pophale) SiO2 
 PCOD8115763
Probable space group: C 2/M
;
_chemical_formula_sum "Si O2"
_cell_formula_units_Z 40
_cell_length_a 9.155370
_cell_length_b 27.893904
_cell_length_c 13.701673
_cell_angle_alpha 90.000000
_cell_angle_beta 31.716258
_cell_angle_gamma 90.000000
_cell_volume 1839.532904
_symmetry_space_group_name_H-M "C 2/M"
_symmetry_group_IT_number 12
_symmetry_cell_setting 'monoclinic'
loop_
_space_group_symop_operation_xyz
x,y,z
-x,y,-z
-x,-y,-z
x,-y,z
1/2+x,1/2+y,z
1/2-x,1/2+y,-z
1/2-x,1/2-y,-z
1/2+x,1/2-y,z
loop_
_atom_site_type_symbol
_atom_site_label
_atom_site_fract_x
_atom_site_fract_y
_atom_site_fract_z
Si Si1 0.276699 0.798427 0.544510
Si Si2 0.208095 0.889420 0.467335
Si Si3 0.215049 0.299559 0.964558
Si Si4 0.745346 0.609248 0.935274
Si Si5 0.315818 0.443500 0.840746
O O1 0.500000 0.789357 0.500000
O O2 0.250000 0.750000 0.500000
O O3 0.350863 0.842107 0.431749
O O4 0.997969 0.815442 0.754213
O O5 0.483444 0.916262 0.268371
O O6 0.000000 0.874264 0.500000
O O7 0.041484 0.921992 0.638325
O O8 0.250000 0.250000 0.000000
O O9 0.136062 0.341583 0.084318
O O10 0.000000 0.293064 0.000000
O O11 0.500000 0.621307 0.000000
O O12 0.613740 0.573475 0.090067
O O13 0.340269 0.500000 0.817680
O O14 0.000000 0.425638 0.000000
#
# Coordination Sequence:
#
# PCOD8115763 Si02
#       5
#     8   8   8   8   8
#     4  12  24  41  64 100 141 181 232 283 334 407
#     4  12  24  43  72 101 137 183 232 285 345 412
#     4  12  23  41  65  96 140 182 231 284 338 406
#     4  12  25  44  69 102 141 181 227 288 349 411
#     4  11  25  48  74 104 138 179 233 292 350 421
#
# _framework density 21.74465
#
# number of rings (size 3 to 8) (size 9 to 14) (size 15 to 20)
#    0.000    0.200    4.000    6.600    0.000    1.600 
#    0.000    1.000    0.000    0.000    0.000    0.000 
#    0.000    0.000    0.000    0.000    0.000    0.000 
#
# Total GULP energy -248041.190203 kJ/mol
# GULP energy per Si atom -12402.059510 kJ/mol
# Density = 2.169516 g / cm^3
# Si number density = 21.744650 Si / 1000 Ang^3
#
#
#
# Elastic Constant Matrix: (Units=GPa)
#
#
# Indices 1 2 3 4 5 6 
#
# 1 185.4427 49.9284 56.2200 0.0000 -13.0374 0.0000
# 2 49.9284 102.0848 35.0026 0.0000 9.9401 0.0000
# 3 56.2200 35.0026 157.1733 0.0000 9.7073 0.0000
# 4 0.0000 0.0000 0.0000 29.7701 0.0000 0.2502
# 5 -13.0374 9.9401 9.7073 0.0000 43.0380 0.0000
# 6 0.0000 0.0000 0.0000 0.2502 0.0000 24.3527
#
#
#
# Elastic Compliance Matrix: (Units=1/GPa)
#
#
# Indices 1 2 3 4 5 6 
#
# 1 0.007077 -0.003081 -0.002050 0.000000 0.003318 0.000000
# 2 -0.003081 0.012110 -0.001384 0.000000 -0.003418 0.000000
# 3 -0.002050 -0.001384 0.007527 0.000000 -0.001999 0.000000
# 4 0.000000 0.000000 0.000000 0.033594 0.000000 -0.000345
# 5 0.003318 -0.003418 -0.001999 0.000000 0.025481 0.000000
# 6 0.000000 0.000000 0.000000 -0.000345 0.000000 0.041067
#
#
# Mechanical properties :
#
#
# Convention : Reuss Voigt Hill
#
# Bulk Modulus (GPa) = 73.07691 80.77808 76.92749
# Shear Modulus (GPa) = 34.61478 39.66881 37.14180
#
# Velocity S-wave (km/s) = 3.99416 4.27582 4.13739
# Velocity P-wave (km/s) = 7.41289 7.84895 7.63403
#
# Compressibility (1/GPa) = 0.01368421
#
# Stress axis : x y z
#
# Youngs Moduli (GPa) = 141.30489 82.57573 132.84955
#
# Poissons Ratio (x) = 0.25445 0.27235
# Poissons Ratio (y) = 0.43541 0.18381
# Poissons Ratio (z) = 0.28968 0.11425
#
# Static dielectric constant tensor:
#      x y z
#    x 4.119120 0.000000 0.231220 
#    y 0.000000 3.683030 0.000000 
#    z 0.231220 0.000000 4.340650 
# 
# 
# High freq. dielectric constant tensor:
#      x y z
#    x 1.869870 0.000000 0.010850 
#    y 0.000000 1.842470 0.000000 
#    z 0.010850 0.000000 1.875690 
# 
# From -- ./inp_files/40550.got.cif
#   From: 2010.06.25/outbox.cif.g09.slc.cpg/sg12_21_cif.got.tgz:40550.got - 2010.06.28 00:19:55.
