data_PCOD8115837
_publ_section_title
;
Structure prediction by ZEFSAII (Michael W. Deem and Ramdas Pophale) SiO2 
 PCOD8115837
Probable space group: C 2/M
;
_chemical_formula_sum "Si O2"
_cell_formula_units_Z 64
_cell_length_a 19.349685
_cell_length_b 27.679207
_cell_length_c 11.864403
_cell_angle_alpha 90.000000
_cell_angle_beta 147.241111
_cell_angle_gamma 90.000000
_cell_volume 3438.388426
_symmetry_space_group_name_H-M "C 2/M"
_symmetry_group_IT_number 12
_symmetry_cell_setting 'monoclinic'
loop_
_space_group_symop_operation_xyz
x,y,z
-x,y,-z
-x,-y,-z
x,-y,z
1/2+x,1/2+y,z
1/2-x,1/2+y,-z
1/2-x,1/2-y,-z
1/2+x,1/2-y,z
loop_
_atom_site_type_symbol
_atom_site_label
_atom_site_fract_x
_atom_site_fract_y
_atom_site_fract_z
Si Si1 0.401769 0.945023 0.528180
Si Si2 0.709202 0.701051 0.749999
Si Si3 0.640575 0.192107 0.668669
Si Si4 0.000497 0.720892 0.869374
Si Si5 0.689409 0.851273 0.495928
Si Si6 0.662715 0.356070 0.900803
Si Si7 0.905326 0.179815 0.638364
Si Si8 0.183620 0.554550 0.839774
O O1 0.344735 0.908077 0.541643
O O2 0.341618 0.931989 0.324740
O O3 0.554099 0.938677 0.732858
O O4 0.366916 0.000000 0.514941
O O5 0.631459 0.750359 0.656492
O O6 0.649517 0.662903 0.755485
O O7 0.689822 0.680681 0.598275
O O8 0.857935 0.709698 0.979497
O O9 0.500000 0.170571 0.500000
O O10 0.693589 0.173341 0.623373
O O11 0.731613 0.176160 0.893559
O O12 0.913976 0.674352 0.725980
O O13 0.944758 0.765901 0.724198
O O14 0.000000 0.733702 0.000000
O O15 0.830351 0.845794 0.637416
O O16 0.528806 0.352353 0.781659
O O17 0.705932 0.411750 0.958567
O O18 0.233244 0.500000 0.918325
#
# Coordination Sequence:
#
# PCOD8115837 Si02
#       8
#     8   8   8   8   8   8   8   8
#     4   9  18  36  63  92 119 147 189 251 304 341
#     4  12  24  41  56  84 123 158 204 245 288 349
#     4  12  22  36  59  89 118 151 198 245 295 349
#     4  12  23  39  59  84 118 166 204 239 291 353
#     4  12  23  38  61  87 125 157 196 245 297 354
#     4  12  24  37  60  87 122 159 196 244 302 348
#     4  12  26  40  55  86 124 164 200 241 288 360
#     4   9  18  36  62  92 117 146 196 247 295 353
#
# _framework density 18.613371000000001
#
# number of rings (size 3 to 8) (size 9 to 14) (size 15 to 20)
#    0.000    0.750    5.000    5.625    0.000    0.000 
#    0.000    0.625    0.000    4.125    0.000    0.000 
#    0.000    0.000    0.000    0.000    0.000    0.000 
#
# Total GULP energy -396982.580361 kJ/mol
# GULP energy per Si atom -12405.705636 kJ/mol
# Density = 1.857101 g / cm^3
# Si number density = 18.613371 Si / 1000 Ang^3
#
#
#
# Elastic Constant Matrix: (Units=GPa)
#
#
# Indices 1 2 3 4 5 6 
#
# 1 125.9620 54.6015 44.5949 0.0000 13.1836 0.0000
# 2 54.6015 126.3437 40.9985 0.0000 6.1134 0.0000
# 3 44.5949 40.9985 74.4195 0.0000 3.2611 0.0000
# 4 0.0000 0.0000 0.0000 29.3492 0.0000 0.5156
# 5 13.1836 6.1134 3.2611 0.0000 35.7084 0.0000
# 6 0.0000 0.0000 0.0000 0.5156 0.0000 27.4031
#
#
#
# Elastic Compliance Matrix: (Units=1/GPa)
#
#
# Indices 1 2 3 4 5 6 
#
# 1 0.011399 -0.003166 -0.004946 0.000000 -0.003215 0.000000
# 2 -0.003166 0.010566 -0.003912 0.000000 -0.000283 0.000000
# 3 -0.004946 -0.003912 0.018521 0.000000 0.000804 0.000000
# 4 0.000000 0.000000 0.000000 0.034084 0.000000 -0.000641
# 5 -0.003215 -0.000283 0.000804 0.000000 0.029166 0.000000
# 6 0.000000 0.000000 0.000000 -0.000641 0.000000 0.036504
#
#
# Mechanical properties :
#
#
# Convention : Reuss Voigt Hill
#
# Bulk Modulus (GPa) = 60.82882 67.45722 64.14302
# Shear Modulus (GPa) = 29.45251 30.92751 30.19001
#
# Velocity S-wave (km/s) = 3.98217 4.08066 4.03172
# Velocity P-wave (km/s) = 7.34130 7.64999 7.49723
#
# Compressibility (1/GPa) = 0.01643958
#
# Stress axis : x y z
#
# Youngs Moduli (GPa) = 87.73083 94.64322 53.99403
#
# Poissons Ratio (x) = 0.29961 0.26703
# Poissons Ratio (y) = 0.27773 0.21120
# Poissons Ratio (z) = 0.43388 0.37020
#
# Static dielectric constant tensor:
#      x y z
#    x 3.427560 0.000000 0.042070 
#    y 0.000000 3.378470 0.000000 
#    z 0.042070 0.000000 3.389430 
# 
# 
# High freq. dielectric constant tensor:
#      x y z
#    x 1.722530 0.000000 0.004340 
#    y 0.000000 1.709050 0.000000 
#    z 0.004340 0.000000 1.719390 
# 
# From -- ./inp_files/170614.got.cif
#   From: 2010.06.25/outbox.cif.g09.slc.cpg/sg12_86_cif.got.tgz:170614.got - 2010.06.28 00:19:55.
