data_PCOD8115464
_publ_section_title
;
Structure prediction by ZEFSAII (Michael W. Deem and Ramdas Pophale) SiO2 
 PCOD8115464
Probable space group: C 2/M
;
_chemical_formula_sum "Si O2"
_cell_formula_units_Z 56
_cell_length_a 13.059052
_cell_length_b 20.954854
_cell_length_c 14.109354
_cell_angle_alpha 90.000000
_cell_angle_beta 42.291179
_cell_angle_gamma 90.000000
_cell_volume 2598.083280
_symmetry_space_group_name_H-M "C 2/M"
_symmetry_group_IT_number 12
_symmetry_cell_setting 'monoclinic'
loop_
_space_group_symop_operation_xyz
x,y,z
-x,y,-z
-x,-y,-z
x,-y,z
1/2+x,1/2+y,z
1/2-x,1/2+y,-z
1/2-x,1/2-y,-z
1/2+x,1/2-y,z
loop_
_atom_site_type_symbol
_atom_site_label
_atom_site_fract_x
_atom_site_fract_y
_atom_site_fract_z
Si Si1 0.128945 0.427600 0.178081
Si Si2 0.654743 0.094264 0.941675
Si Si3 0.111521 0.807165 0.681984
Si Si4 0.280323 0.722341 0.876894
Si Si5 0.844935 0.340603 0.363535
Si Si6 0.834076 0.929048 0.644942
Si Si7 0.167409 0.838090 0.850581
O O1 0.089108 0.500000 0.237227
O O2 0.273053 0.402976 0.140870
O O3 0.994347 0.378102 0.296228
O O4 0.170623 0.429583 0.038420
O O5 0.649760 0.171117 0.944017
O O6 0.800191 0.069114 0.781007
O O7 0.500000 0.067805 0.000000
O O8 0.123981 0.731288 0.690346
O O9 0.220228 0.838548 0.530580
O O10 0.159068 0.845201 0.743510
O O11 0.938446 0.817401 0.767005
O O12 0.278386 0.779021 0.801662
O O13 0.250000 0.750000 0.000000
O O14 0.787845 0.379794 0.312388
O O15 0.000000 0.904233 0.500000
O O16 0.811366 0.000000 0.617417
O O17 0.000000 0.820973 0.000000
#
# Coordination Sequence:
#
# PCOD8115464 Si02
#       7
#     8   8   8   8   8   8   8
#     4  12  26  45  66  98 141 185 237 282 332 413
#     4  12  23  39  70 101 131 176 224 281 347 400
#     4  11  24  42  66  97 134 173 223 278 349 404
#     4  12  21  39  66 103 138 167 217 286 347 404
#     4  11  23  44  63  96 134 177 221 284 338 398
#     4  11  24  41  64  96 133 175 220 273 340 409
#     4  12  24  41  69  99 135 178 226 286 344 409
#
# _framework density 21.554352999999999
#
# number of rings (size 3 to 8) (size 9 to 14) (size 15 to 20)
#    0.000    0.429    5.714    3.000    0.000    1.429 
#    0.000    2.143    0.000    0.000    0.000    0.000 
#    0.000    0.000    0.000    0.000    0.000    0.000 
#
# Total GULP energy -347184.649906 kJ/mol
# GULP energy per Si atom -12399.451782 kJ/mol
# Density = 2.150529 g / cm^3
# Si number density = 21.554353 Si / 1000 Ang^3
#
#
#
# Elastic Constant Matrix: (Units=GPa)
#
#
# Indices 1 2 3 4 5 6 
#
# 1 104.3819 27.5108 33.1635 -0.0075 -1.1407 0.0055
# 2 27.5108 104.9405 16.4418 -0.0092 1.2201 0.0077
# 3 33.1635 16.4418 122.5233 -0.0176 -2.4284 0.0151
# 4 -0.0075 -0.0092 -0.0176 17.7258 0.0070 3.8154
# 5 -1.1407 1.2201 -2.4284 0.0070 27.9813 -0.0040
# 6 0.0055 0.0077 0.0151 3.8154 -0.0040 4.6121
#
#
#
# Elastic Compliance Matrix: (Units=1/GPa)
#
#
# Indices 1 2 3 4 5 6 
#
# 1 0.011086 -0.002493 -0.002660 0.000001 0.000330 -0.000001
# 2 -0.002493 0.010303 -0.000720 0.000008 -0.000613 -0.000019
# 3 -0.002660 -0.000720 0.008992 0.000015 0.000703 -0.000037
# 4 0.000001 0.000008 0.000015 0.068637 -0.000024 -0.056781
# 5 0.000330 -0.000613 0.000703 -0.000024 0.035839 0.000049
# 6 -0.000001 -0.000019 -0.000037 -0.056781 0.000049 0.263795
#
#
# Mechanical properties :
#
#
# Convention : Reuss Voigt Hill
#
# Bulk Modulus (GPa) = 53.66140 54.00864 53.83502
# Shear Modulus (GPa) = 12.00165 27.04581 19.52373
#
# Velocity S-wave (km/s) = 2.36224 3.54612 3.01290
# Velocity P-wave (km/s) = 5.69123 6.47132 6.09377
#
# Compressibility (1/GPa) = 0.01863537
#
# Stress axis : x y z
#
# Youngs Moduli (GPa) = 90.20443 97.06117 111.20869
#
# Poissons Ratio (x) = 0.24201 0.29576
# Poissons Ratio (y) = 0.22492 0.08005
# Poissons Ratio (z) = 0.23990 0.06987
#
# Static dielectric constant tensor:
#      x y z
#    x 5.258300 0.000170 0.052810 
#    y 0.000170 3.181910 0.000020 
#    z 0.052810 0.000020 3.961640 
# 
# 
# High freq. dielectric constant tensor:
#      x y z
#    x 1.840220 0.000000 -0.005040 
#    y 0.000000 1.846020 0.000000 
#    z -0.005040 0.000000 1.850170 
# 
# From -- ./inp_files/217677.got.cif
#   From: 2010.06.25/outbox.cif.g09.slc.cpg/sg12_109_cif.got.tgz:217677.got - 2010.06.28 00:19:55.
