data_PCOD8115377
_publ_section_title
;
Structure prediction by ZEFSAII (Michael W. Deem and Ramdas Pophale) SiO2 
 PCOD8115377
Probable space group: C 2/M
;
_chemical_formula_sum "Si O2"
_cell_formula_units_Z 40
_cell_length_a 25.442451
_cell_length_b 10.844343
_cell_length_c 9.021744
_cell_angle_alpha 90.000000
_cell_angle_beta 134.915572
_cell_angle_gamma 90.000000
_cell_volume 1762.693102
_symmetry_space_group_name_H-M "C 2/M"
_symmetry_group_IT_number 12
_symmetry_cell_setting 'monoclinic'
loop_
_space_group_symop_operation_xyz
x,y,z
-x,y,-z
-x,-y,-z
x,-y,z
1/2+x,1/2+y,z
1/2-x,1/2+y,-z
1/2-x,1/2-y,-z
1/2+x,1/2-y,z
loop_
_atom_site_type_symbol
_atom_site_label
_atom_site_fract_x
_atom_site_fract_y
_atom_site_fract_z
Si Si1 0.777119 0.859272 0.851245
Si Si2 0.078998 0.500000 0.730835
Si Si3 0.465476 0.356915 0.716358
Si Si4 0.889520 0.231818 0.847553
Si Si5 0.359669 0.246639 0.275812
Si Si6 0.078108 0.500000 0.076026
O O1 0.815186 0.819736 0.773139
O O2 0.705077 0.773777 0.731670
O O3 0.752084 0.000000 0.789321
O O4 0.833646 0.844744 0.101446
O O5 0.125671 0.618723 0.777270
O O6 0.066161 0.500000 0.878405
O O7 0.000000 0.500000 0.500000
O O8 0.484553 0.500000 0.731597
O O9 0.406347 0.343513 0.731808
O O10 0.432471 0.300018 0.500333
O O11 0.540658 0.282641 0.901094
O O12 0.877854 0.376862 0.787161
O O13 0.000000 0.500000 0.000000
#
# Coordination Sequence:
#
# PCOD8115377 Si02
#       6
#     8   4   8   8   8   4
#     4  11  23  44  64  93 134 179 223 271 336 394
#     4  12  24  42  68 102 134 165 223 280 329 402
#     4  11  23  42  65  99 132 170 223 273 328 391
#     4  11  23  41  70  95 131 175 220 276 333 392
#     4  11  25  41  67  96 133 176 218 275 334 396
#     4  12  22  42  66 100 130 167 214 277 335 388
#
# _framework density 22.692549
#
# number of rings (size 3 to 8) (size 9 to 14) (size 15 to 20)
#    0.000    0.800    5.000    4.200    0.000    0.800 
#    1.800    2.000    0.000    0.000    0.000    0.000 
#    0.000    0.000    0.000    0.000    0.000    0.000 
#
# Total GULP energy -248130.204809 kJ/mol
# GULP energy per Si atom -12406.510240 kJ/mol
# Density = 2.264090 g / cm^3
# Si number density = 22.692549 Si / 1000 Ang^3
#
#
#
# Elastic Constant Matrix: (Units=GPa)
#
#
# Indices 1 2 3 4 5 6 
#
# 1 109.7654 7.7200 -20.4474 0.0000 -9.6892 0.0000
# 2 7.7200 129.5149 0.9034 0.0000 -3.0333 0.0000
# 3 -20.4474 0.9034 40.3003 0.0000 3.3276 0.0000
# 4 0.0000 0.0000 0.0000 24.0655 0.0000 -5.2478
# 5 -9.6892 -3.0333 3.3276 0.0000 19.9057 0.0000
# 6 0.0000 0.0000 0.0000 -5.2478 0.0000 33.0712
#
#
#
# Elastic Compliance Matrix: (Units=1/GPa)
#
#
# Indices 1 2 3 4 5 6 
#
# 1 0.010443 -0.000559 0.004967 0.000000 0.004168 0.000000
# 2 -0.000559 0.007782 -0.000541 0.000000 0.001004 0.000000
# 3 0.004967 -0.000541 0.027533 0.000000 -0.002267 0.000000
# 4 0.000000 0.000000 0.000000 0.043043 0.000000 0.006830
# 5 0.004168 0.001004 -0.002267 0.000000 0.052798 0.000000
# 6 0.000000 0.000000 0.000000 0.006830 0.000000 0.031322
#
#
# Mechanical properties :
#
#
# Convention : Reuss Voigt Hill
#
# Bulk Modulus (GPa) = 18.69508 28.43694 23.56601
# Shear Modulus (GPa) = 27.31982 34.83545 31.07763
#
# Velocity S-wave (km/s) = 3.47351 3.92229 3.70470
# Velocity P-wave (km/s) = 4.93389 5.75075 5.35791
#
# Compressibility (1/GPa) = 0.05349001
#
# Stress axis : x y z
#
# Youngs Moduli (GPa) = 95.75971 128.50566 36.31986
#
# Poissons Ratio (x) = 0.07190 -0.18040
# Poissons Ratio (y) = 0.05358 0.01966
# Poissons Ratio (z) = -0.47562 0.06955
#
# Static dielectric constant tensor:
#      x y z
#    x 4.232580 0.000000 -0.094980 
#    y 0.000000 3.852270 0.000000 
#    z -0.094980 0.000000 3.789160 
# 
# 
# High freq. dielectric constant tensor:
#      x y z
#    x 1.908980 0.000000 -0.009830 
#    y 0.000000 1.905420 0.000000 
#    z -0.009830 0.000000 1.872310 
# 
# From -- ./inp_files/102370.got.cif
#   From: 2010.06.25/outbox.cif.g09.slc.cpg/sg12_52_cif.got.tgz:102370.got - 2010.06.28 00:19:55.
