data_PCOD8115191
_publ_section_title
;
Structure prediction by ZEFSAII (Michael W. Deem and Ramdas Pophale) SiO2 
 PCOD8115191
Probable space group: C 2/M
;
_chemical_formula_sum "Si O2"
_cell_formula_units_Z 56
_cell_length_a 9.142648
_cell_length_b 18.706097
_cell_length_c 23.897370
_cell_angle_alpha 90.000000
_cell_angle_beta 45.443167
_cell_angle_gamma 90.000000
_cell_volume 2912.216042
_symmetry_space_group_name_H-M "C 2/M"
_symmetry_group_IT_number 12
_symmetry_cell_setting 'monoclinic'
loop_
_space_group_symop_operation_xyz
x,y,z
-x,y,-z
-x,-y,-z
x,-y,z
1/2+x,1/2+y,z
1/2-x,1/2+y,-z
1/2-x,1/2-y,-z
1/2+x,1/2-y,z
loop_
_atom_site_type_symbol
_atom_site_label
_atom_site_fract_x
_atom_site_fract_y
_atom_site_fract_z
Si Si1 0.831144 0.332153 0.207216
Si Si2 0.312834 0.189147 0.799606
Si Si3 0.896500 0.817187 0.970129
Si Si4 0.541927 0.916710 0.053620
Si Si5 0.464157 0.918028 0.339069
Si Si6 0.354757 0.914874 0.489839
Si Si7 0.910836 0.918568 0.638027
O O1 0.685837 0.265704 0.230790
O O2 0.684946 0.381705 0.282512
O O3 0.037982 0.311286 0.186087
O O4 0.888088 0.372479 0.134418
O O5 0.376330 0.128604 0.738657
O O6 0.075559 0.174231 0.876892
O O7 0.750000 0.750000 0.000000
O O8 0.772892 0.891419 0.004258
O O9 0.000000 0.800508 0.000000
O O10 0.521431 0.000000 0.073529
O O11 0.500000 0.900068 0.000000
O O12 0.449235 0.887470 0.406006
O O13 0.236458 0.911628 0.375523
O O14 0.541795 0.000000 0.316198
O O15 0.500000 0.886641 0.500000
O O16 0.127706 0.883516 0.562126
O O17 0.343448 0.000000 0.490133
O O18 0.945023 0.000000 0.646817
#
# Coordination Sequence:
#
# PCOD8115191 Si02
#       7
#     8   8   8   8   8   8   8
#     4  11  23  40  59  87 118 154 198 244 292 353
#     4  11  23  38  61  86 114 156 197 241 295 350
#     4  12  22  40  63  87 116 161 200 242 295 353
#     4  11  25  42  61  87 119 154 198 248 298 351
#     4   9  19  36  58  85 115 148 195 242 285 345
#     4   9  17  32  55  86 119 151 186 231 291 349
#     4   9  18  35  60  84 113 154 193 236 288 344
#
# _framework density 19.229341999999999
#
# number of rings (size 3 to 8) (size 9 to 14) (size 15 to 20)
#    0.000    1.714    2.857    1.286    2.000    4.286 
#    0.000    0.714    0.000    0.000    0.000    0.000 
#    0.000    0.000    0.000    0.000    0.000    0.000 
#
# Total GULP energy -347186.408914 kJ/mol
# GULP energy per Si atom -12399.514604 kJ/mol
# Density = 1.918558 g / cm^3
# Si number density = 19.229342 Si / 1000 Ang^3
#
#
#
# Elastic Constant Matrix: (Units=GPa)
#
#
# Indices 1 2 3 4 5 6 
#
# 1 104.5732 53.7448 71.3273 0.0079 9.2718 0.0019
# 2 53.7448 93.4453 57.8133 0.0074 4.6697 -0.0012
# 3 71.3273 57.8133 150.2340 0.0064 4.8677 -0.0048
# 4 0.0079 0.0074 0.0064 18.1759 -0.0041 -2.0950
# 5 9.2718 4.6697 4.8677 -0.0041 37.6097 0.0003
# 6 0.0019 -0.0012 -0.0048 -2.0950 0.0003 27.8065
#
#
#
# Elastic Compliance Matrix: (Units=1/GPa)
#
#
# Indices 1 2 3 4 5 6 
#
# 1 0.016651 -0.006046 -0.005493 -0.000004 -0.002643 -0.000003
# 2 -0.006046 0.016282 -0.003392 -0.000003 -0.000092 0.000000
# 3 -0.005493 -0.003392 0.010556 0.000000 0.000409 0.000002
# 4 -0.000004 -0.000003 0.000000 0.055500 0.000007 0.004182
# 5 -0.002643 -0.000092 0.000409 0.000007 0.027199 0.000000
# 6 -0.000003 0.000000 0.000002 0.004182 0.000000 0.036278
#
#
# Mechanical properties :
#
#
# Convention : Reuss Voigt Hill
#
# Bulk Modulus (GPa) = 73.38556 79.33592 76.36074
# Shear Modulus (GPa) = 25.39716 27.74288 26.57002
#
# Velocity S-wave (km/s) = 3.63816 3.80246 3.72121
# Velocity P-wave (km/s) = 7.47626 7.78624 7.63282
#
# Compressibility (1/GPa) = 0.01362666
#
# Stress axis : x y z
#
# Youngs Moduli (GPa) = 60.05521 61.41671 94.72877
#
# Poissons Ratio (x) = 0.37134 0.52037
# Poissons Ratio (y) = 0.36311 0.32133
# Poissons Ratio (z) = 0.32990 0.20833
#
# Static dielectric constant tensor:
#      x y z
#    x 3.624310 0.000000 0.037880 
#    y 0.000000 3.430250 0.000010 
#    z 0.037880 0.000010 3.657810 
# 
# 
# High freq. dielectric constant tensor:
#      x y z
#    x 1.752220 0.000000 0.005310 
#    y 0.000000 1.729980 0.000000 
#    z 0.005310 0.000000 1.763480 
# 
# From -- ./inp_files/333308.got.cif
#   From: 2010.06.25/outbox.cif.g09.slc.cpg/sg12_167_cif.got.tgz:333308.got - 2010.06.28 00:19:55.
