data_PCOD8115006
_publ_section_title
;
Structure prediction by ZEFSAII (Michael W. Deem and Ramdas Pophale) SiO2 
 PCOD8115006
Probable space group: C 2/M
;
_chemical_formula_sum "Si O2"
_cell_formula_units_Z 32
_cell_length_a 24.439144
_cell_length_b 12.794267
_cell_length_c 13.237647
_cell_angle_alpha 90.000000
_cell_angle_beta 160.222009
_cell_angle_gamma 90.000000
_cell_volume 1400.594311
_symmetry_space_group_name_H-M "C 2/M"
_symmetry_group_IT_number 12
_symmetry_cell_setting 'monoclinic'
loop_
_space_group_symop_operation_xyz
x,y,z
-x,y,-z
-x,-y,-z
x,-y,z
1/2+x,1/2+y,z
1/2-x,1/2+y,-z
1/2-x,1/2-y,-z
1/2+x,1/2-y,z
loop_
_atom_site_type_symbol
_atom_site_label
_atom_site_fract_x
_atom_site_fract_y
_atom_site_fract_z
Si Si1 0.908387 0.813587 0.746242
Si Si2 0.411252 0.381093 0.451152
Si Si3 0.255751 0.000000 0.608944
Si Si4 0.563027 0.000000 0.285670
Si Si5 0.054497 0.697777 0.835946
O O1 0.750000 0.750000 0.500000
O O2 0.854917 0.897963 0.569052
O O3 0.046331 0.741062 0.936388
O O4 0.000000 0.865654 0.000000
O O5 0.500000 0.391143 0.500000
O O6 0.410372 0.500000 0.499322
O O7 0.500870 0.289566 0.668089
O O8 0.229863 0.343960 0.112704
O O9 0.304916 0.000000 0.574182
O O10 0.392755 0.000000 0.929995
O O11 0.571676 0.099537 0.376635
#
# Coordination Sequence:
#
# PCOD8115006 Si02
#       5
#     8   8   4   4   8
#     4  12  24  39  62  98 141 182 230 274 332 407
#     4  11  26  50  75 101 134 177 231 295 353 410
#     4  11  23  40  60  96 143 192 228 270 324 405
#     4  11  22  40  68  96 142 188 222 278 345 393
#     4  12  24  44  72 101 138 183 230 282 349 407
#
# _framework density 22.847443999999999
#
# number of rings (size 3 to 8) (size 9 to 14) (size 15 to 20)
#    0.000    0.500    3.750    5.625    1.750    0.000 
#    2.250    0.625    0.000    0.000    0.000    0.000 
#    0.000    0.000    0.000    0.000    0.000    0.000 
#
# Total GULP energy -198243.719800 kJ/mol
# GULP energy per Si atom -12390.232487 kJ/mol
# Density = 2.279544 g / cm^3
# Si number density = 22.847444 Si / 1000 Ang^3
#
#
#
# Elastic Constant Matrix: (Units=GPa)
#
#
# Indices 1 2 3 4 5 6 
#
# 1 58.9299 40.2597 17.0721 0.0000 15.3095 0.0000
# 2 40.2597 186.3002 36.9498 0.0000 -6.0131 0.0000
# 3 17.0721 36.9498 65.5849 0.0000 5.1235 0.0000
# 4 0.0000 0.0000 0.0000 39.5001 0.0000 -5.9680
# 5 15.3095 -6.0131 5.1235 0.0000 39.3770 0.0000
# 6 0.0000 0.0000 0.0000 -5.9680 0.0000 40.9735
#
#
#
# Elastic Compliance Matrix: (Units=1/GPa)
#
#
# Indices 1 2 3 4 5 6 
#
# 1 0.023545 -0.004874 -0.002637 0.000000 -0.009555 0.000000
# 2 -0.004874 0.007127 -0.003010 0.000000 0.003375 0.000000
# 3 -0.002637 -0.003010 0.017766 0.000000 -0.001746 0.000000
# 4 0.000000 0.000000 0.000000 0.025886 0.000000 0.003770
# 5 -0.009555 0.003375 -0.001746 0.000000 0.029853 0.000000
# 6 0.000000 0.000000 0.000000 0.003770 0.000000 0.024955
#
#
# Mechanical properties :
#
#
# Convention : Reuss Voigt Hill
#
# Bulk Modulus (GPa) = 36.50031 55.48647 45.99339
# Shear Modulus (GPa) = 31.38618 38.40568 34.89593
#
# Velocity S-wave (km/s) = 3.71041 4.10440 3.91237
# Velocity P-wave (km/s) = 5.86229 6.84104 6.37049
#
# Compressibility (1/GPa) = 0.02739703
#
# Stress axis : x y z
#
# Youngs Moduli (GPa) = 42.47165 140.31500 56.28699
#
# Poissons Ratio (x) = 0.68384 0.14841
# Poissons Ratio (y) = 0.20699 0.16943
# Poissons Ratio (z) = 0.11199 0.42238
#
# Static dielectric constant tensor:
#      x y z
#    x 4.297770 0.000000 0.304220 
#    y 0.000000 4.891520 0.000000 
#    z 0.304220 0.000000 3.830000 
# 
# 
# High freq. dielectric constant tensor:
#      x y z
#    x 1.908640 0.000000 0.025230 
#    y 0.000000 1.934140 0.000000 
#    z 0.025230 0.000000 1.878960 
# 
# From -- ./inp_files/245800.got.cif
#   From: 2010.06.25/outbox.cif.g09.slc.cpg/sg12_123_cif.got.tgz:245800.got - 2010.06.28 00:19:55.
