data_PCOD8115513
_publ_section_title
;
Structure prediction by ZEFSAII (Michael W. Deem and Ramdas Pophale) SiO2 
 PCOD8115513
Probable space group: C 2/M
;
_chemical_formula_sum "Si O2"
_cell_formula_units_Z 44
_cell_length_a 11.888710
_cell_length_b 29.171817
_cell_length_c 8.406589
_cell_angle_alpha 90.000000
_cell_angle_beta 44.999979
_cell_angle_gamma 90.000000
_cell_volume 2061.592721
_symmetry_space_group_name_H-M "C 2/M"
_symmetry_group_IT_number 12
_symmetry_cell_setting 'monoclinic'
loop_
_space_group_symop_operation_xyz
x,y,z
-x,y,-z
-x,-y,-z
x,-y,z
1/2+x,1/2+y,z
1/2-x,1/2+y,-z
1/2-x,1/2-y,-z
1/2+x,1/2-y,z
loop_
_atom_site_type_symbol
_atom_site_label
_atom_site_fract_x
_atom_site_fract_y
_atom_site_fract_z
Si Si1 0.753844 0.578384 0.333431
Si Si2 0.500000 0.750000 0.500000
Si Si3 0.250247 0.000000 0.831598
Si Si4 0.087276 0.421616 0.158880
Si Si5 0.081845 0.000000 0.667909
Si Si6 0.748294 0.817839 0.673589
Si Si7 0.078117 0.317839 0.170177
O O1 0.613369 0.544859 0.529006
O O2 0.690591 0.630329 0.413185
O O3 0.905830 0.568984 0.292805
O O4 0.801366 0.568983 0.104465
O O5 0.609704 0.717721 0.502234
O O6 0.611938 0.782279 0.278358
O O7 0.357625 0.044859 0.755745
O O8 0.198487 0.000000 0.701847
O O9 0.099666 0.000000 0.098820
O O10 0.103778 0.369671 0.205630
O O11 0.603424 0.809193 0.700191
O O12 0.696382 0.809193 0.907040
#
# Coordination Sequence:
#
# PCOD8115513 Si02
#       7
#     8   4   4   8   4   8   8
#     4   9  19  37  59  80 106 144 187 223 260 317
#     4  12  20  32  60  86 108 144 184 224 284 326
#     4  11  24  37  52  82 118 143 172 221 274 322
#     4   9  19  37  59  80 106 144 187 223 260 317
#     4  11  24  37  52  82 118 143 172 221 274 322
#     4   9  20  37  55  81 114 144 182 228 267 318
#     4   9  20  37  55  81 114 144 182 228 267 318
#
# _framework density 21.342721000000001
#
# number of rings (size 3 to 8) (size 9 to 14) (size 15 to 20)
#    0.000    2.364    0.000    4.364    0.000   10.182 
#    0.000    0.000    0.000    4.364    0.000    0.000 
#    0.000    0.000    0.000    0.000    0.000    0.000 
#
# Total GULP energy -272807.995662 kJ/mol
# GULP energy per Si atom -12400.363439 kJ/mol
# Density = 2.129414 g / cm^3
# Si number density = 21.342721 Si / 1000 Ang^3
#
#
#
# Elastic Constant Matrix: (Units=GPa)
#
#
# Indices 1 2 3 4 5 6 
#
# 1 61.6420 44.9202 3.2357 0.0000 0.2385 0.0000
# 2 44.9202 155.5045 44.9200 0.0000 0.0007 0.0000
# 3 3.2357 44.9200 61.6417 0.0000 -0.2379 0.0000
# 4 0.0000 0.0000 0.0000 26.2535 0.0000 0.0001
# 5 0.2385 0.0007 -0.2379 0.0000 19.7274 0.0000
# 6 0.0000 0.0000 0.0000 0.0001 0.0000 26.2534
#
#
#
# Elastic Compliance Matrix: (Units=1/GPa)
#
#
# Indices 1 2 3 4 5 6 
#
# 1 0.021407 -0.007421 0.004283 0.000000 -0.000207 0.000000
# 2 -0.007421 0.010718 -0.007421 0.000000 0.000000 0.000000
# 3 0.004283 -0.007421 0.021407 0.000000 0.000207 0.000000
# 4 0.000000 0.000000 0.000000 0.038090 0.000000 0.000000
# 5 -0.000207 0.000000 0.000207 0.000000 0.050696 0.000000
# 6 0.000000 0.000000 0.000000 0.000000 0.000000 0.038090
#
#
# Mechanical properties :
#
#
# Convention : Reuss Voigt Hill
#
# Bulk Modulus (GPa) = 30.85086 51.65999 41.25543
# Shear Modulus (GPa) = 23.54832 26.82767 25.18799
#
# Velocity S-wave (km/s) = 3.32526 3.54926 3.43908
# Velocity P-wave (km/s) = 5.40643 6.40733 5.92804
#
# Compressibility (1/GPa) = 0.03241401
#
# Stress axis : x y z
#
# Youngs Moduli (GPa) = 46.71471 93.30084 46.71464
#
# Poissons Ratio (x) = 0.69238 -0.20010
# Poissons Ratio (y) = 0.34667 0.34667
# Poissons Ratio (z) = -0.20010 0.69238
#
# Static dielectric constant tensor:
#      x y z
#    x 3.583630 0.000000 0.000000 
#    y 0.000000 3.921450 0.000000 
#    z 0.000000 0.000000 3.583630 
# 
# 
# High freq. dielectric constant tensor:
#      x y z
#    x 1.822390 0.000000 0.000000 
#    y 0.000000 1.850350 0.000000 
#    z 0.000000 0.000000 1.822390 
# 
# From -- ./inp_files/53045.got.cif
#   From: 2010.06.25/outbox.cif.g09.slc.cpg/sg12_27_cif.got.tgz:53045.got - 2010.06.28 00:19:55.
