data_PCOD8115222
_publ_section_title
;
Structure prediction by ZEFSAII (Michael W. Deem and Ramdas Pophale) SiO2 
 PCOD8115222
Probable space group: C 2/M
;
_chemical_formula_sum "Si O2"
_cell_formula_units_Z 64
_cell_length_a 14.654063
_cell_length_b 8.388725
_cell_length_c 30.113726
_cell_angle_alpha 90.000000
_cell_angle_beta 60.022979
_cell_angle_gamma 90.000000
_cell_volume 3206.635920
_symmetry_space_group_name_H-M "C 2/M"
_symmetry_group_IT_number 12
_symmetry_cell_setting 'monoclinic'
loop_
_space_group_symop_operation_xyz
x,y,z
-x,y,-z
-x,-y,-z
x,-y,z
1/2+x,1/2+y,z
1/2-x,1/2+y,-z
1/2-x,1/2-y,-z
1/2+x,1/2-y,z
loop_
_atom_site_type_symbol
_atom_site_label
_atom_site_fract_x
_atom_site_fract_y
_atom_site_fract_z
Si Si1 0.168790 0.188080 0.576165
Si Si2 0.400054 0.811784 0.497172
Si Si3 0.479902 0.315014 0.873133
Si Si4 0.435761 0.815087 0.059071
Si Si5 0.671922 0.815828 0.238152
Si Si6 0.288868 0.815836 0.871893
Si Si7 0.636534 0.815659 0.761196
Si Si8 0.947244 0.814904 0.306866
O O1 0.289221 0.252755 0.544255
O O2 0.095193 0.261840 0.555566
O O3 0.122034 0.241392 0.634595
O O4 0.167579 0.000000 0.570436
O O5 0.500000 0.738793 0.500000
O O6 0.404663 0.000000 0.499836
O O7 0.505425 0.500000 0.874039
O O8 0.492443 0.221984 0.916035
O O9 0.360405 0.291294 0.886490
O O10 0.558658 0.244025 0.818003
O O11 0.331478 0.708893 0.085641
O O12 0.404178 0.000000 0.066188
O O13 0.500000 0.765658 0.000000
O O14 0.691083 0.758766 0.183207
O O15 0.743831 0.709278 0.252610
O O16 0.551859 0.790441 0.280888
O O17 0.703257 0.000000 0.236088
O O18 0.320247 0.000000 0.869969
O O19 0.620154 0.714883 0.720754
O O20 0.613978 0.000000 0.756830
O O21 0.977732 0.000000 0.302640
#
# Coordination Sequence:
#
# PCOD8115222 Si02
#       8
#     8   8   8   8   8   8   8   8
#     4   9  20  37  56  85 121 155 197 249 299 351
#     4   9  18  35  60  86 115 157 203 245 297 355
#     4  12  24  40  65  92 121 159 200 246 300 358
#     4  11  25  44  66  93 124 158 199 250 304 361
#     4  11  23  39  61  89 118 157 204 249 298 359
#     4  11  23  40  65  92 120 157 201 248 299 359
#     4  12  24  39  61  89 121 159 202 247 299 363
#     4  11  23  39  59  87 126 164 202 252 303 357
#
# _framework density 19.958613
#
# number of rings (size 3 to 8) (size 9 to 14) (size 15 to 20)
#    0.000    1.250    2.500    3.750    0.000    4.750 
#    0.000    1.250    0.000    0.000    0.000    0.000 
#    0.000    0.000    0.000    0.000    0.000    0.000 
#
# Total GULP energy -396998.149237 kJ/mol
# GULP energy per Si atom -12406.192164 kJ/mol
# Density = 1.991319 g / cm^3
# Si number density = 19.958613 Si / 1000 Ang^3
#
#
#
# Elastic Constant Matrix: (Units=GPa)
#
#
# Indices 1 2 3 4 5 6 
#
# 1 143.4006 7.9292 63.9537 0.0000 5.9568 0.0000
# 2 7.9292 43.4833 18.0194 0.0001 -1.0918 0.0000
# 3 63.9537 18.0194 159.4705 0.0000 16.8839 0.0000
# 4 0.0000 0.0001 0.0000 15.2806 0.0000 0.7053
# 5 5.9568 -1.0918 16.8839 0.0000 31.6544 0.0000
# 6 0.0000 0.0000 0.0000 0.7053 0.0000 33.8748
#
#
#
# Elastic Compliance Matrix: (Units=1/GPa)
#
#
# Indices 1 2 3 4 5 6 
#
# 1 0.008495 -0.000128 -0.003415 0.000000 0.000219 0.000000
# 2 -0.000128 0.024306 -0.002953 0.000000 0.002438 0.000000
# 3 -0.003415 -0.002953 0.008391 0.000000 -0.003935 0.000000
# 4 0.000000 0.000000 0.000000 0.065505 0.000000 -0.001364
# 5 0.000219 0.002438 -0.003935 0.000000 0.033733 0.000000
# 6 0.000000 0.000000 0.000000 -0.001364 0.000000 0.029549
#
#
# Mechanical properties :
#
#
# Convention : Reuss Voigt Hill
#
# Bulk Modulus (GPa) = 35.46384 58.46210 46.96297
# Shear Modulus (GPa) = 25.99151 33.25876 29.62513
#
# Velocity S-wave (km/s) = 3.61261 4.08657 3.85688
# Velocity P-wave (km/s) = 5.93368 7.18484 6.58903
#
# Compressibility (1/GPa) = 0.02819774
#
# Stress axis : x y z
#
# Youngs Moduli (GPa) = 117.72117 41.14269 119.17966
#
# Poissons Ratio (x) = 0.00527 0.40704
# Poissons Ratio (y) = 0.01509 0.35195
# Poissons Ratio (z) = 0.40206 0.12150
#
# Static dielectric constant tensor:
#      x y z
#    x 3.755080 0.000000 0.042990 
#    y 0.000000 3.633300 0.000000 
#    z 0.042990 0.000000 3.715650 
# 
# 
# High freq. dielectric constant tensor:
#      x y z
#    x 1.790000 0.000000 0.000850 
#    y 0.000000 1.780350 0.000000 
#    z 0.000850 0.000000 1.774740 
# 
# From -- ./inp_files/375093.got.cif
#   From: 2010.06.25/outbox.cif.g09.slc.cpg/sg12_188_cif.got.tgz:375093.got - 2010.06.28 00:19:55.
