data_PCOD8115479
_publ_section_title
;
Structure prediction by ZEFSAII (Michael W. Deem and Ramdas Pophale) SiO2 
 PCOD8115479
Probable space group: C 2/M
;
_chemical_formula_sum "Si O2"
_cell_formula_units_Z 48
_cell_length_a 11.099184
_cell_length_b 21.781752
_cell_length_c 12.062442
_cell_angle_alpha 90.000000
_cell_angle_beta 132.431665
_cell_angle_gamma 90.000000
_cell_volume 2152.405272
_symmetry_space_group_name_H-M "C 2/M"
_symmetry_group_IT_number 12
_symmetry_cell_setting 'monoclinic'
loop_
_space_group_symop_operation_xyz
x,y,z
-x,y,-z
-x,-y,-z
x,-y,z
1/2+x,1/2+y,z
1/2-x,1/2+y,-z
1/2-x,1/2-y,-z
1/2+x,1/2-y,z
loop_
_atom_site_type_symbol
_atom_site_label
_atom_site_fract_x
_atom_site_fract_y
_atom_site_fract_z
Si Si1 0.170026 0.069996 0.798811
Si Si2 0.500000 0.261084 0.500000
Si Si3 0.000000 0.246266 0.000000
Si Si4 0.220571 0.329871 0.754401
Si Si5 0.766654 0.867362 0.380510
Si Si6 0.188374 0.070490 0.361745
Si Si7 0.603044 0.149953 0.918733
O O1 0.131417 0.101993 0.656621
O O2 0.006857 0.077463 0.771266
O O3 0.211183 0.000000 0.799095
O O4 0.325277 0.096838 0.959113
O O5 0.429041 0.216510 0.361244
O O6 0.354265 0.302258 0.462049
O O7 0.892000 0.205381 0.849575
O O8 0.121220 0.286665 0.998417
O O9 0.219595 0.387887 0.671577
O O10 0.206937 0.351936 0.871726
O O11 0.754675 0.909474 0.480937
O O12 0.586164 0.859620 0.221889
O O13 0.241827 0.000000 0.375725
#
# Coordination Sequence:
#
# PCOD8115479 Si02
#       7
#     8   4   4   8   8   8   8
#     4  11  23  44  72 101 136 184 238 285 336 403
#     4  12  24  44  68 106 138 178 232 284 346 406
#     4  12  24  44  68 100 138 180 228 286 346 408
#     4  12  27  43  70 102 141 185 223 285 347 421
#     4  12  23  44  72 104 137 178 231 292 343 402
#     4  11  26  47  71 101 141 188 232 278 345 416
#     4  12  25  44  66 106 138 178 228 287 348 410
#
# _framework density 22.300633000000001
#
# number of rings (size 3 to 8) (size 9 to 14) (size 15 to 20)
#    0.000    0.333    5.000    3.000    2.333    5.333 
#    0.000    5.000    0.000    0.000    0.000    0.000 
#    0.000    0.000    0.000    0.000    0.000    0.000 
#
# Total GULP energy -297706.905981 kJ/mol
# GULP energy per Si atom -12404.454416 kJ/mol
# Density = 2.224988 g / cm^3
# Si number density = 22.300633 Si / 1000 Ang^3
#
#
#
# Elastic Constant Matrix: (Units=GPa)
#
#
# Indices 1 2 3 4 5 6 
#
# 1 88.7365 52.1220 31.9167 0.0000 -25.4381 0.0000
# 2 52.1220 156.0632 66.9207 0.0000 -11.1836 0.0000
# 3 31.9167 66.9207 126.8484 0.0000 -1.7529 0.0000
# 4 0.0000 0.0000 0.0000 31.6664 0.0000 4.0684
# 5 -25.4381 -11.1836 -1.7529 0.0000 42.2338 0.0000
# 6 0.0000 0.0000 0.0000 4.0684 0.0000 26.8348
#
#
#
# Elastic Compliance Matrix: (Units=1/GPa)
#
#
# Indices 1 2 3 4 5 6 
#
# 1 0.017039 -0.004208 -0.001942 0.000000 0.009068 0.000000
# 2 -0.004208 0.009495 -0.003953 0.000000 -0.000184 0.000000
# 3 -0.001942 -0.003953 0.010433 0.000000 -0.001783 0.000000
# 4 0.000000 0.000000 0.000000 0.032207 0.000000 -0.004883
# 5 0.009068 -0.000184 -0.001783 0.000000 0.029017 0.000000
# 6 0.000000 0.000000 0.000000 -0.004883 0.000000 0.038005
#
#
# Mechanical properties :
#
#
# Convention : Reuss Voigt Hill
#
# Bulk Modulus (GPa) = 59.66271 74.84078 67.25174
# Shear Modulus (GPa) = 30.86645 34.85957 32.86301
#
# Velocity S-wave (km/s) = 3.72439 3.95798 3.84296
# Velocity P-wave (km/s) = 6.73103 7.38378 7.06495
#
# Compressibility (1/GPa) = 0.01676089
#
# Stress axis : x y z
#
# Youngs Moduli (GPa) = 58.68853 105.31940 95.85176
#
# Poissons Ratio (x) = 0.44321 0.18613
# Poissons Ratio (y) = 0.24698 0.37889
# Poissons Ratio (z) = 0.11396 0.41632
#
# Static dielectric constant tensor:
#      x y z
#    x 3.846700 0.000000 0.079330 
#    y 0.000000 4.106180 0.000000 
#    z 0.079330 0.000000 4.075160 
# 
# 
# High freq. dielectric constant tensor:
#      x y z
#    x 1.869520 0.000000 0.007660 
#    y 0.000000 1.879010 0.000000 
#    z 0.007660 0.000000 1.894640 
# 
# From -- ./inp_files/134107.got.cif
#   From: 2010.06.25/outbox.cif.g09.slc.cpg/sg12_68_cif.got.tgz:134107.got - 2010.06.28 00:19:55.
