data_PCOD8115780
_publ_section_title
;
Structure prediction by ZEFSAII (Michael W. Deem and Ramdas Pophale) SiO2 
 PCOD8115780
Probable space group: C 2/M
;
_chemical_formula_sum "Si O2"
_cell_formula_units_Z 32
_cell_length_a 11.736255
_cell_length_b 15.563785
_cell_length_c 8.751142
_cell_angle_alpha 90.000000
_cell_angle_beta 124.501498
_cell_angle_gamma 90.000000
_cell_volume 1317.332486
_symmetry_space_group_name_H-M "C 2/M"
_symmetry_group_IT_number 12
_symmetry_cell_setting 'monoclinic'
loop_
_space_group_symop_operation_xyz
x,y,z
-x,y,-z
-x,-y,-z
x,-y,z
1/2+x,1/2+y,z
1/2-x,1/2+y,-z
1/2-x,1/2-y,-z
1/2+x,1/2-y,z
loop_
_atom_site_type_symbol
_atom_site_label
_atom_site_fract_x
_atom_site_fract_y
_atom_site_fract_z
Si Si1 0.946130 0.095357 0.292608
Si Si2 0.363481 0.143430 0.958058
Si Si3 0.127801 0.400631 0.703298
Si Si4 0.660500 0.706112 0.297696
O O1 0.779938 0.094070 0.170896
O O2 0.000000 0.116984 0.500000
O O3 0.011244 0.169540 0.236200
O O4 0.993519 0.000000 0.276545
O O5 0.361742 0.230943 0.860652
O O6 0.500000 0.091521 0.000000
O O7 0.385940 0.158966 0.156416
O O8 0.134235 0.500000 0.758119
O O9 0.261676 0.377439 0.707143
O O10 0.000000 0.378819 0.500000
O O11 0.750000 0.750000 0.500000
#
# Coordination Sequence:
#
# PCOD8115780 Si02
#       4
#     8   8   8   8
#     4  11  26  48  76 112 156 202 251 310 382 458
#     4  12  28  47  78 113 151 198 256 313 381 452
#     4  11  27  49  73 106 153 204 257 314 379 449
#     4  12  26  46  77 112 154 197 253 315 381 457
#
# _framework density 24.291513999999999
#
# number of rings (size 3 to 8) (size 9 to 14) (size 15 to 20)
#    0.000    0.500    2.500    3.750   10.500    2.000 
#    0.000    2.500    0.000    0.000    0.000    0.000 
#    0.000    0.000    0.000    0.000    0.000    0.000 
#
# Total GULP energy -198341.788195 kJ/mol
# GULP energy per Si atom -12396.361762 kJ/mol
# Density = 2.423622 g / cm^3
# Si number density = 24.291514 Si / 1000 Ang^3
#
#
#
# Elastic Constant Matrix: (Units=GPa)
#
#
# Indices 1 2 3 4 5 6 
#
# 1 174.6543 53.6254 67.6656 0.0000 9.0856 0.0000
# 2 53.6254 113.4393 56.7312 0.0000 -19.1144 0.0000
# 3 67.6656 56.7312 186.3980 0.0000 -5.8956 0.0000
# 4 0.0000 0.0000 0.0000 23.8204 0.0000 -7.1952
# 5 9.0856 -19.1144 -5.8956 0.0000 35.7010 0.0000
# 6 0.0000 0.0000 0.0000 -7.1952 0.0000 46.9885
#
#
#
# Elastic Compliance Matrix: (Units=1/GPa)
#
#
# Indices 1 2 3 4 5 6 
#
# 1 0.007714 -0.003386 -0.001899 0.000000 -0.004089 0.000000
# 2 -0.003386 0.012885 -0.002460 0.000000 0.007354 0.000000
# 3 -0.001899 -0.002460 0.006812 0.000000 0.000291 0.000000
# 4 0.000000 0.000000 0.000000 0.044017 0.000000 0.006740
# 5 -0.004089 0.007354 0.000291 0.000000 0.033037 0.000000
# 6 0.000000 0.000000 0.000000 0.006740 0.000000 0.022314
#
#
# Mechanical properties :
#
#
# Convention : Reuss Voigt Hill
#
# Bulk Modulus (GPa) = 83.88255 92.28182 88.08218
# Shear Modulus (GPa) = 34.18994 41.06660 37.62827
#
# Velocity S-wave (km/s) = 3.75572 4.11612 3.94004
# Velocity P-wave (km/s) = 7.30847 7.78856 7.55233
#
# Compressibility (1/GPa) = 0.01192143
#
# Stress axis : x y z
#
# Youngs Moduli (GPa) = 129.64079 77.60819 146.79607
#
# Poissons Ratio (x) = 0.26276 0.27877
# Poissons Ratio (y) = 0.43893 0.36112
# Poissons Ratio (z) = 0.24619 0.19092
#
# Static dielectric constant tensor:
#      x y z
#    x 4.622500 0.000000 0.325530 
#    y 0.000000 4.089930 0.000000 
#    z 0.325530 0.000000 4.659390 
# 
# 
# High freq. dielectric constant tensor:
#      x y z
#    x 1.979990 0.000000 0.005710 
#    y 0.000000 1.957950 0.000000 
#    z 0.005710 0.000000 1.984870 
# 
# From -- ./inp_files/46741.got.cif
#   From: 2010.06.25/outbox.cif.g09.slc.cpg/sg12_24_cif.got.tgz:46741.got - 2010.06.28 00:19:55.
