data_PCOD8115361
_publ_section_title
;
Structure prediction by ZEFSAII (Michael W. Deem and Ramdas Pophale) SiO2 
 PCOD8115361
Probable space group: C 2/M
;
_chemical_formula_sum "Si O2"
_cell_formula_units_Z 64
_cell_length_a 9.576035
_cell_length_b 17.263898
_cell_length_c 30.571450
_cell_angle_alpha 90.000000
_cell_angle_beta 38.072965
_cell_angle_gamma 90.000000
_cell_volume 3116.660993
_symmetry_space_group_name_H-M "C 2/M"
_symmetry_group_IT_number 12
_symmetry_cell_setting 'monoclinic'
loop_
_space_group_symop_operation_xyz
x,y,z
-x,y,-z
-x,-y,-z
x,-y,z
1/2+x,1/2+y,z
1/2-x,1/2+y,-z
1/2-x,1/2-y,-z
1/2+x,1/2-y,z
loop_
_atom_site_type_symbol
_atom_site_label
_atom_site_fract_x
_atom_site_fract_y
_atom_site_fract_z
Si Si1 0.243564 0.589186 0.066608
Si Si2 0.613074 0.827020 0.789555
Si Si3 0.552539 0.328881 0.211750
Si Si4 0.150852 0.681737 0.421930
Si Si5 0.839129 0.864229 0.580217
Si Si6 0.390813 0.911179 0.650389
Si Si7 0.421474 0.089261 0.066317
Si Si8 0.069140 0.912160 0.347162
O O1 0.232401 0.500000 0.084548
O O2 0.119419 0.641132 0.133147
O O3 0.130976 0.600069 0.047198
O O4 0.500000 0.618817 0.000000
O O5 0.566093 0.748689 0.775244
O O6 0.799356 0.813677 0.781463
O O7 0.692722 0.889717 0.733796
O O8 0.355266 0.390250 0.270326
O O9 0.705302 0.362539 0.135259
O O10 0.169042 0.772739 0.410598
O O11 0.036358 0.644325 0.407617
O O12 0.397200 0.646488 0.366799
O O13 0.000000 0.658458 0.500000
O O14 0.587106 0.898012 0.637465
O O15 0.938272 0.903296 0.598999
O O16 0.000000 0.887280 0.500000
O O17 0.384455 0.000000 0.636680
O O18 0.346651 0.000000 0.081518
O O19 0.500000 0.121383 0.000000
O O20 0.006278 0.000000 0.350447
#
# Coordination Sequence:
#
# PCOD8115361 Si02
#       8
#     8   8   8   8   8   8   8   8
#     4   9  19  38  63  91 125 164 207 257 312 370
#     4  11  24  41  64  91 126 167 210 262 316 374
#     4  11  24  41  64  91 126 167 210 262 316 374
#     4  11  23  41  67  93 122 163 210 255 309 379
#     4  11  25  45  65  91 128 167 204 257 323 381
#     4  12  25  41  64  93 126 164 210 262 315 374
#     4   9  19  38  63  91 125 164 207 257 312 370
#     4  12  25  41  64  93 126 164 210 262 315 374
#
# _framework density 20.534794999999999
#
# number of rings (size 3 to 8) (size 9 to 14) (size 15 to 20)
#    0.000    1.250    1.250    4.500    1.750    7.500 
#    0.000    2.500    0.000    0.000    0.000    0.000 
#    0.000    0.000    0.000    0.000    0.000    0.000 
#
# Total GULP energy -396967.478491 kJ/mol
# GULP energy per Si atom -12405.233703 kJ/mol
# Density = 2.048806 g / cm^3
# Si number density = 20.534795 Si / 1000 Ang^3
#
#
#
# Elastic Constant Matrix: (Units=GPa)
#
#
# Indices 1 2 3 4 5 6 
#
# 1 57.3804 19.3710 21.0865 -0.0045 0.3608 -0.0058
# 2 19.3710 85.9326 37.6833 0.0021 2.5112 -0.0035
# 3 21.0865 37.6833 110.9394 -0.0011 5.5744 -0.0158
# 4 -0.0045 0.0021 -0.0011 32.9322 0.0037 -1.9715
# 5 0.3608 2.5112 5.5744 0.0037 40.3569 0.0066
# 6 -0.0058 -0.0035 -0.0158 -1.9715 0.0066 16.1472
#
#
#
# Elastic Compliance Matrix: (Units=1/GPa)
#
#
# Indices 1 2 3 4 5 6 
#
# 1 0.019486 -0.003256 -0.002617 0.000003 0.000390 0.000004
# 2 -0.003256 0.014220 -0.004197 -0.000002 -0.000276 -0.000002
# 3 -0.002617 -0.004197 0.010999 0.000001 -0.001235 0.000010
# 4 0.000003 -0.000002 0.000001 0.030589 -0.000003 0.003735
# 5 0.000390 -0.000276 -0.001235 -0.000003 0.024963 -0.000012
# 6 0.000004 -0.000002 0.000010 0.003735 -0.000012 0.062386
#
#
# Mechanical properties :
#
#
# Convention : Reuss Voigt Hill
#
# Bulk Modulus (GPa) = 40.71102 45.61490 43.16296
# Shear Modulus (GPa) = 26.18173 29.62805 27.90489
#
# Velocity S-wave (km/s) = 3.57458 3.80257 3.69034
# Velocity P-wave (km/s) = 6.07497 6.44524 6.26284
#
# Compressibility (1/GPa) = 0.02456337
#
# Stress axis : x y z
#
# Youngs Moduli (GPa) = 51.31838 70.32491 90.91601
#
# Poissons Ratio (x) = 0.22900 0.23796
# Poissons Ratio (y) = 0.16711 0.38160
# Poissons Ratio (z) = 0.13432 0.29517
#
# Static dielectric constant tensor:
#      x y z
#    x 3.792430 -0.000010 0.036020 
#    y -0.000010 3.648050 0.000010 
#    z 0.036020 0.000010 3.877580 
# 
# 
# High freq. dielectric constant tensor:
#      x y z
#    x 1.806180 0.000000 0.001810 
#    y 0.000000 1.805390 0.000000 
#    z 0.001810 0.000000 1.814770 
# 
# From -- ./inp_files/372919.got.cif
#   From: 2010.06.25/outbox.cif.g09.slc.cpg/sg12_187_cif.got.tgz:372919.got - 2010.06.28 00:19:55.
