data_PCOD8115724
_publ_section_title
;
Structure prediction by ZEFSAII (Michael W. Deem and Ramdas Pophale) SiO2 
 PCOD8115724
Probable space group: C 2/M
;
_chemical_formula_sum "Si O2"
_cell_formula_units_Z 44
_cell_length_a 12.680677
_cell_length_b 26.367208
_cell_length_c 12.562219
_cell_angle_alpha 90.000000
_cell_angle_beta 32.196470
_cell_angle_gamma 90.000000
_cell_volume 2237.983289
_symmetry_space_group_name_H-M "C 2/M"
_symmetry_group_IT_number 12
_symmetry_cell_setting 'monoclinic'
loop_
_space_group_symop_operation_xyz
x,y,z
-x,y,-z
-x,-y,-z
x,-y,z
1/2+x,1/2+y,z
1/2-x,1/2+y,-z
1/2-x,1/2-y,-z
1/2+x,1/2-y,z
loop_
_atom_site_type_symbol
_atom_site_label
_atom_site_fract_x
_atom_site_fract_y
_atom_site_fract_z
Si Si1 0.500000 0.621573 0.500000
Si Si2 0.466872 0.140268 0.780123
Si Si3 0.230993 0.804135 0.813095
Si Si4 0.793150 0.801418 0.403705
Si Si5 0.185669 0.805824 0.165472
Si Si6 0.112294 0.558517 0.792748
O O1 0.402128 0.658053 0.670171
O O2 0.325807 0.585277 0.607109
O O3 0.328437 0.148986 0.794847
O O4 0.692046 0.155053 0.561000
O O5 0.474463 0.082533 0.816483
O O6 0.394097 0.174683 0.942237
O O7 0.309018 0.802381 0.624806
O O8 0.288589 0.751502 0.818898
O O9 0.000000 0.813437 0.000000
O O10 0.750000 0.750000 0.500000
O O11 0.030991 0.808210 0.198074
O O12 0.142897 0.500000 0.739095
O O13 0.000000 0.566030 0.000000
#
# Coordination Sequence:
#
# PCOD8115724 Si02
#       6
#     4   8   8   8   8   8
#     4  12  23  40  68  96 130 158 207 260 322 382
#     4  12  24  42  61  88 127 169 211 258 312 372
#     4  12  25  38  60  92 137 174 212 250 301 376
#     4  12  23  39  58  89 128 175 210 249 302 369
#     4  12  24  38  58  95 129 169 207 251 305 382
#     4  11  25  44  68  94 121 159 212 273 327 372
#
# _framework density 19.660557000000001
#
# number of rings (size 3 to 8) (size 9 to 14) (size 15 to 20)
#    0.000    0.182    7.273    3.545    2.545    0.000 
#    0.000    0.000    0.000    2.727    0.000    0.000 
#    0.000    0.000    0.000    0.000    0.000    0.000 
#
# Total GULP energy -272721.878167 kJ/mol
# GULP energy per Si atom -12396.449008 kJ/mol
# Density = 1.961581 g / cm^3
# Si number density = 19.660557 Si / 1000 Ang^3
#
#
#
# Elastic Constant Matrix: (Units=GPa)
#
#
# Indices 1 2 3 4 5 6 
#
# 1 131.1608 70.7318 29.4772 0.0001 3.7079 0.0000
# 2 70.7318 102.4104 16.5367 0.0000 -1.6555 0.0000
# 3 29.4772 16.5367 66.8464 0.0006 -3.4166 0.0000
# 4 0.0001 0.0000 0.0006 24.3483 -0.0001 3.1850
# 5 3.7079 -1.6555 -3.4166 -0.0001 37.3486 0.0001
# 6 0.0000 0.0000 0.0000 3.1850 0.0001 28.4227
#
#
#
# Elastic Compliance Matrix: (Units=1/GPa)
#
#
# Indices 1 2 3 4 5 6 
#
# 1 0.013099 -0.008469 -0.003785 0.000000 -0.002022 0.000000
# 2 -0.008469 0.015648 -0.000058 0.000000 0.001529 0.000000
# 3 -0.003785 -0.000058 0.016740 0.000000 0.001905 0.000000
# 4 0.000000 0.000000 0.000000 0.041682 0.000000 -0.004671
# 5 -0.002022 0.001529 0.001905 0.000000 0.027217 0.000000
# 6 0.000000 0.000000 0.000000 -0.004671 0.000000 0.035707
#
#
# Mechanical properties :
#
#
# Convention : Reuss Voigt Hill
#
# Bulk Modulus (GPa) = 47.92995 59.32323 53.62659
# Shear Modulus (GPa) = 27.52239 30.26871 28.89555
#
# Velocity S-wave (km/s) = 3.74555 3.92799 3.83785
# Velocity P-wave (km/s) = 6.56789 7.12821 6.85378
#
# Compressibility (1/GPa) = 0.02086378
#
# Stress axis : x y z
#
# Youngs Moduli (GPa) = 76.34290 63.90698 59.73593
#
# Poissons Ratio (x) = 0.54120 0.22607
# Poissons Ratio (y) = 0.64651 0.00349
# Poissons Ratio (z) = 0.28892 0.00374
#
# Static dielectric constant tensor:
#      x y z
#    x 4.154870 0.000000 -0.250170 
#    y 0.000000 3.411920 0.000000 
#    z -0.250170 0.000000 4.089460 
# 
# 
# High freq. dielectric constant tensor:
#      x y z
#    x 1.775230 0.000000 -0.004160 
#    y 0.000000 1.725270 0.000000 
#    z -0.004160 0.000000 1.796430 
# 
# From -- ./inp_files/135743.got.cif
#   From: 2010.06.25/outbox.cif.g09.slc.cpg/sg12_68_cif.got.tgz:135743.got - 2010.06.28 00:19:55.
