data_PCOD8115507
_publ_section_title
;
Structure prediction by ZEFSAII (Michael W. Deem and Ramdas Pophale) SiO2 
 PCOD8115507
Probable space group: C 2/M
;
_chemical_formula_sum "Si O2"
_cell_formula_units_Z 40
_cell_length_a 12.206315
_cell_length_b 16.228516
_cell_length_c 18.265125
_cell_angle_alpha 90.000000
_cell_angle_beta 151.258203
_cell_angle_gamma 90.000000
_cell_volume 1739.833191
_symmetry_space_group_name_H-M "C 2/M"
_symmetry_group_IT_number 12
_symmetry_cell_setting 'monoclinic'
loop_
_space_group_symop_operation_xyz
x,y,z
-x,y,-z
-x,-y,-z
x,-y,z
1/2+x,1/2+y,z
1/2-x,1/2+y,-z
1/2-x,1/2-y,-z
1/2+x,1/2-y,z
loop_
_atom_site_type_symbol
_atom_site_label
_atom_site_fract_x
_atom_site_fract_y
_atom_site_fract_z
Si Si1 0.100203 0.593384 0.236508
Si Si2 0.140996 0.093875 0.755888
Si Si3 0.185640 0.658299 0.439992
Si Si4 0.830815 0.839061 0.072488
Si Si5 0.326546 0.903405 0.333225
O O1 0.173258 0.500000 0.297638
O O2 0.226528 0.626473 0.237826
O O3 0.180346 0.652311 0.349089
O O4 0.828925 0.596536 0.064395
O O5 0.208519 0.151376 0.863471
O O6 0.871270 0.096662 0.582991
O O7 0.208822 0.000000 0.814572
O O8 0.250000 0.750000 0.500000
O O9 0.939040 0.630056 0.324596
O O10 0.092775 0.854615 0.207103
O O11 0.750000 0.750000 0.000000
O O12 0.500000 0.882510 0.500000
O O13 0.272940 0.000000 0.296837
#
# Coordination Sequence:
#
# PCOD8115507 Si02
#       5
#     8   8   8   8   8
#     4  11  25  45  72 105 144 188 242 304 367 435
#     4  11  23  46  76 102 142 195 247 296 362 446
#     4  12  26  43  72 107 150 190 244 307 363 432
#     4  12  26  45  71 109 150 188 241 307 370 437
#     4  11  24  46  78 105 141 197 252 297 362 451
#
# _framework density 22.99071
#
# number of rings (size 3 to 8) (size 9 to 14) (size 15 to 20)
#    0.000    0.600    2.000    6.000    2.800    4.000 
#    3.600    2.000    0.000    0.000    0.000    0.000 
#    0.000    0.000    0.000    0.000    0.000    0.000 
#
# Total GULP energy -248124.830416 kJ/mol
# GULP energy per Si atom -12406.241521 kJ/mol
# Density = 2.293838 g / cm^3
# Si number density = 22.990710 Si / 1000 Ang^3
#
#
#
# Elastic Constant Matrix: (Units=GPa)
#
#
# Indices 1 2 3 4 5 6 
#
# 1 160.0163 90.1550 67.7942 0.0016 -19.9819 -0.0011
# 2 90.1550 120.7249 66.5688 0.0094 0.6795 0.0016
# 3 67.7942 66.5688 142.4716 0.0155 -6.8009 0.0050
# 4 0.0016 0.0094 0.0155 42.9935 0.0023 -2.3291
# 5 -19.9819 0.6795 -6.8009 0.0023 45.9122 -0.0007
# 6 -0.0011 0.0016 0.0050 -2.3291 -0.0007 33.9347
#
#
#
# Elastic Compliance Matrix: (Units=1/GPa)
#
#
# Indices 1 2 3 4 5 6 
#
# 1 0.012280 -0.008237 -0.001746 0.000002 0.005208 0.000001
# 2 -0.008237 0.016724 -0.004107 -0.000002 -0.004441 -0.000001
# 3 -0.001746 -0.004107 0.009805 -0.000003 0.000753 -0.000001
# 4 0.000002 -0.000002 -0.000003 0.023346 -0.000001 0.001602
# 5 0.005208 -0.004441 0.000753 -0.000001 0.024225 0.000001
# 6 0.000001 -0.000001 -0.000001 0.001602 0.000001 0.029578
#
#
# Mechanical properties :
#
#
# Convention : Reuss Voigt Hill
#
# Bulk Modulus (GPa) = 94.08094 96.91653 95.49874
# Shear Modulus (GPa) = 33.85667 37.81438 35.83552
#
# Velocity S-wave (km/s) = 3.84164 4.05997 3.95232
# Velocity P-wave (km/s) = 7.79023 8.01399 7.90290
#
# Compressibility (1/GPa) = 0.01062915
#
# Stress axis : x y z
#
# Youngs Moduli (GPa) = 81.42993 59.79382 101.99341
#
# Poissons Ratio (x) = 0.49254 0.17810
# Poissons Ratio (y) = 0.67076 0.41884
# Poissons Ratio (z) = 0.14219 0.24555
#
# Static dielectric constant tensor:
#      x y z
#    x 4.329740 0.000000 0.076270 
#    y 0.000000 3.950530 0.000000 
#    z 0.076270 0.000000 4.347040 
# 
# 
# High freq. dielectric constant tensor:
#      x y z
#    x 1.917190 0.000000 0.001230 
#    y 0.000000 1.905460 0.000000 
#    z 0.001230 0.000000 1.919040 
# 
# From -- ./inp_files/264442.got.cif
#   From: 2010.06.25/outbox.cif.g09.slc.cpg/sg12_133_cif.got.tgz:264442.got - 2010.06.28 00:19:55.
