data_PCOD8115209
_publ_section_title
;
Structure prediction by ZEFSAII (Michael W. Deem and Ramdas Pophale) SiO2 
 PCOD8115209
Probable space group: C 2/M
;
_chemical_formula_sum "Si O2"
_cell_formula_units_Z 40
_cell_length_a 14.577245
_cell_length_b 9.327895
_cell_length_c 16.490670
_cell_angle_alpha 90.000000
_cell_angle_beta 117.855582
_cell_angle_gamma 90.000000
_cell_volume 1982.497315
_symmetry_space_group_name_H-M "C 2/M"
_symmetry_group_IT_number 12
_symmetry_cell_setting 'monoclinic'
loop_
_space_group_symop_operation_xyz
x,y,z
-x,y,-z
-x,-y,-z
x,-y,z
1/2+x,1/2+y,z
1/2-x,1/2+y,-z
1/2-x,1/2-y,-z
1/2+x,1/2-y,z
loop_
_atom_site_type_symbol
_atom_site_label
_atom_site_fract_x
_atom_site_fract_y
_atom_site_fract_z
Si Si1 0.755011 0.669351 0.237821
Si Si2 0.531396 0.329895 0.198632
Si Si3 0.162474 0.658864 0.564568
Si Si4 0.103664 0.842030 0.401094
Si Si5 0.828707 0.671284 0.091279
O O1 0.754957 0.500000 0.249995
O O2 0.636047 0.720528 0.196517
O O3 0.826914 0.731100 0.341120
O O4 0.798970 0.717239 0.170049
O O5 0.510804 0.500000 0.179048
O O6 0.538026 0.287494 0.296565
O O7 0.441687 0.236088 0.119941
O O8 0.115525 0.500000 0.550968
O O9 0.085138 0.744651 0.472941
O O10 0.276460 0.654596 0.573621
O O11 0.066081 0.000000 0.409547
O O12 0.826362 0.500000 0.077353
O O13 0.750000 0.750000 0.000000
#
# Coordination Sequence:
#
# PCOD8115209 Si02
#       5
#     8   8   8   8   8
#     4   8  17  35  57  77 103 142 178 207 251 314
#     4   9  18  36  58  78 104 140 177 210 252 309
#     4   8  13  25  47  73 100 134 174 206 237 292
#     4   8  14  25  45  74 105 134 165 205 251 294
#     4  11  23  39  57  78 103 132 172 221 269 313
#
# _framework density 20.176570999999999
#
# number of rings (size 3 to 8) (size 9 to 14) (size 15 to 20)
#    0.000    3.200    0.000    3.000    0.000    1.600 
#    0.000   12.000    0.000    6.000    0.000    0.000 
#    0.000    0.000    0.000    0.000    0.000    0.000 
#
# Total GULP energy -247870.364524 kJ/mol
# GULP energy per Si atom -12393.518226 kJ/mol
# Density = 2.013065 g / cm^3
# Si number density = 20.176571 Si / 1000 Ang^3
#
#
#
# Elastic Constant Matrix: (Units=GPa)
#
#
# Indices 1 2 3 4 5 6 
#
# 1 32.8874 6.8811 4.7709 0.0000 -1.8491 0.0000
# 2 6.8811 60.7049 26.1161 0.0000 1.6571 0.0000
# 3 4.7709 26.1161 66.9986 0.0000 5.5808 0.0000
# 4 0.0000 0.0000 0.0000 38.0270 0.0000 2.0777
# 5 -1.8491 1.6571 5.5808 0.0000 32.8180 0.0000
# 6 0.0000 0.0000 0.0000 2.0777 0.0000 19.3285
#
#
#
# Elastic Compliance Matrix: (Units=1/GPa)
#
#
# Indices 1 2 3 4 5 6 
#
# 1 0.031348 -0.003094 -0.001204 0.000000 0.002127 0.000000
# 2 -0.003094 0.020101 -0.007624 0.000000 0.000107 0.000000
# 3 -0.001204 -0.007624 0.018215 0.000000 -0.002780 0.000000
# 4 0.000000 0.000000 0.000000 0.026452 0.000000 -0.002843
# 5 0.002127 0.000107 -0.002780 0.000000 0.031058 0.000000
# 6 0.000000 0.000000 0.000000 -0.002843 0.000000 0.052043
#
#
# Mechanical properties :
#
#
# Convention : Reuss Voigt Hill
#
# Bulk Modulus (GPa) = 21.82382 26.23635 24.03009
# Shear Modulus (GPa) = 22.90074 26.22289 24.56182
#
# Velocity S-wave (km/s) = 3.37266 3.60901 3.49283
# Velocity P-wave (km/s) = 5.09964 5.51345 5.31058
#
# Compressibility (1/GPa) = 0.04582149
#
# Stress axis : x y z
#
# Youngs Moduli (GPa) = 31.89971 49.74917 54.90046
#
# Poissons Ratio (x) = 0.15391 0.06607
# Poissons Ratio (y) = 0.09869 0.41856
# Poissons Ratio (z) = 0.03839 0.37928
#
# Static dielectric constant tensor:
#      x y z
#    x 3.438110 0.000000 -0.148320 
#    y 0.000000 3.552800 0.000000 
#    z -0.148320 0.000000 3.923740 
# 
# 
# High freq. dielectric constant tensor:
#      x y z
#    x 1.773380 0.000000 0.001330 
#    y 0.000000 1.759510 0.000000 
#    z 0.001330 0.000000 1.795330 
# 
# From -- ./inp_files/211833.got.cif
#   From: 2010.06.25/outbox.cif.g09.slc.cpg/sg12_106_cif.got.tgz:211833.got - 2010.06.28 00:19:55.
