data_PCOD8115095
_publ_section_title
;
Structure prediction by ZEFSAII (Michael W. Deem and Ramdas Pophale) SiO2 
 PCOD8115095
Probable space group: C 2/M
;
_chemical_formula_sum "Si O2"
_cell_formula_units_Z 40
_cell_length_a 13.479137
_cell_length_b 12.622395
_cell_length_c 12.074421
_cell_angle_alpha 90.000000
_cell_angle_beta 108.956707
_cell_angle_gamma 90.000000
_cell_volume 1942.911810
_symmetry_space_group_name_H-M "C 2/M"
_symmetry_group_IT_number 12
_symmetry_cell_setting 'monoclinic'
loop_
_space_group_symop_operation_xyz
x,y,z
-x,y,-z
-x,-y,-z
x,-y,z
1/2+x,1/2+y,z
1/2-x,1/2+y,-z
1/2-x,1/2-y,-z
1/2+x,1/2-y,z
loop_
_atom_site_type_symbol
_atom_site_label
_atom_site_fract_x
_atom_site_fract_y
_atom_site_fract_z
Si Si1 0.058675 0.000000 0.862776
Si Si2 0.780387 0.828243 0.606223
Si Si3 0.948273 0.000000 0.602334
Si Si4 0.029281 0.500000 0.823227
Si Si5 0.786519 0.500000 0.930495
Si Si6 0.610149 0.000000 0.605974
Si Si7 0.000000 0.175220 0.000000
Si Si8 0.133599 0.678260 0.174328
O O1 0.176759 0.000000 0.953734
O O2 0.043821 0.000000 0.725296
O O3 0.006280 0.105247 0.891853
O O4 0.750000 0.750000 0.500000
O O5 0.876978 0.897527 0.596864
O O6 0.813706 0.755338 0.719547
O O7 0.678634 0.897099 0.601178
O O8 0.000000 0.000000 0.500000
O O9 0.088853 0.500000 0.728830
O O10 0.959945 0.606680 0.807017
O O11 0.113465 0.500000 0.953282
O O12 0.781215 0.600867 0.847535
O O13 0.500000 0.000000 0.500000
O O14 0.901939 0.251053 0.942801
#
# Coordination Sequence:
#
# PCOD8115095 Si02
#       8
#     4   8   4   4   4   4   4   8
#     4  11  26  40  64  99 134 166 214 275 325 384
#     4  11  26  45  69  93 125 175 221 264 330 388
#     4  11  26  45  65  96 132 168 220 274 321 384
#     4  11  23  41  67  97 135 170 214 270 324 385
#     4  11  25  39  63 103 132 170 214 266 326 386
#     4  11  26  47  67  96 132 165 218 279 323 390
#     4  11  22  43  68  90 134 173 206 267 330 384
#     4  11  22  44  66  94 132 171 217 264 323 391
#
# _framework density 20.587655999999999
#
# number of rings (size 3 to 8) (size 9 to 14) (size 15 to 20)
#    0.000    1.000    4.000    1.800    5.600    6.400 
#    0.000    0.000    0.000    0.000    0.000    0.000 
#    0.000    0.000    0.000    0.000    0.000    0.000 
#
# Total GULP energy -247921.123444 kJ/mol
# GULP energy per Si atom -12396.056172 kJ/mol
# Density = 2.054080 g / cm^3
# Si number density = 20.587656 Si / 1000 Ang^3
#
#
#
# Elastic Constant Matrix: (Units=GPa)
#
#
# Indices 1 2 3 4 5 6 
#
# 1 106.9028 46.2099 36.9519 0.0000 3.3071 0.0000
# 2 46.2099 150.1978 64.0647 0.0000 6.8673 0.0000
# 3 36.9519 64.0647 136.7517 0.0000 4.2730 0.0000
# 4 0.0000 0.0000 0.0000 -23.7882 0.0000 47.8479
# 5 3.3071 6.8673 4.2730 0.0000 41.1792 0.0000
# 6 0.0000 0.0000 0.0000 47.8479 0.0000 -11.8110
#
#
#
# Elastic Compliance Matrix: (Units=1/GPa)
#
#
# Indices 1 2 3 4 5 6 
#
# 1 0.011118 -0.002662 -0.001749 0.000000 -0.000267 0.000000
# 2 -0.002662 0.008998 -0.003467 0.000000 -0.000927 0.000000
# 3 -0.001749 -0.003467 0.009417 0.000000 -0.000259 0.000000
# 4 0.000000 0.000000 0.000000 0.005881 0.000000 0.023823
# 5 -0.000267 -0.000927 -0.000259 0.000000 0.024487 0.000000
# 6 0.000000 0.000000 0.000000 0.023823 0.000000 0.011844
#
#
# Mechanical properties :
#
#
# Convention : Reuss Voigt Hill
#
# Bulk Modulus (GPa) = 72.58323 76.47838 74.53081
# Shear Modulus (GPa) = 54.29262 17.55772 35.92517
#
# Velocity S-wave (km/s) = 5.14088 2.92349 4.18183
# Velocity P-wave (km/s) = 8.40063 6.97309 7.71993
#
# Compressibility (1/GPa) = 0.01377729
#
# Stress axis : x y z
#
# Youngs Moduli (GPa) = 89.94546 111.13296 106.18768
#
# Poissons Ratio (x) = 0.29589 0.18567
# Poissons Ratio (y) = 0.23948 0.36816
# Poissons Ratio (z) = 0.15727 0.38530
#
# Static dielectric constant tensor:
#      x y z
#    x 3.632670 0.000000 -0.064180 
#    y 0.000000 4.039200 0.000000 
#    z -0.064180 0.000000 3.575610 
# 
# 
# High freq. dielectric constant tensor:
#      x y z
#    x 1.798240 0.000000 0.006330 
#    y 0.000000 1.831400 0.000000 
#    z 0.006330 0.000000 1.816850 
# 
# From -- ./inp_files/141182.got.cif
#   From: 2010.06.25/outbox.cif.g09.slc.cpg/sg12_71_cif.got.tgz:141182.got - 2010.06.28 00:19:55.
