data_PCOD8115442
_publ_section_title
;
Structure prediction by ZEFSAII (Michael W. Deem and Ramdas Pophale) SiO2 
 PCOD8115442
Probable space group: C 2/M
;
_chemical_formula_sum "Si O2"
_cell_formula_units_Z 40
_cell_length_a 8.093194
_cell_length_b 17.142299
_cell_length_c 20.823705
_cell_angle_alpha 90.000000
_cell_angle_beta 146.146396
_cell_angle_gamma 90.000000
_cell_volume 1609.381421
_symmetry_space_group_name_H-M "C 2/M"
_symmetry_group_IT_number 12
_symmetry_cell_setting 'monoclinic'
loop_
_space_group_symop_operation_xyz
x,y,z
-x,y,-z
-x,-y,-z
x,-y,z
1/2+x,1/2+y,z
1/2-x,1/2+y,-z
1/2-x,1/2-y,-z
1/2+x,1/2-y,z
loop_
_atom_site_type_symbol
_atom_site_label
_atom_site_fract_x
_atom_site_fract_y
_atom_site_fract_z
Si Si1 0.559335 0.855556 0.830333
Si Si2 0.351687 0.409568 0.045065
Si Si3 0.426875 0.677127 0.768116
Si Si4 0.559818 0.412521 0.357744
Si Si5 0.222979 0.331686 0.456574
O O1 0.541329 0.765120 0.806273
O O2 0.824652 0.898776 0.880457
O O3 0.263456 0.901094 0.714681
O O4 0.609809 0.863772 0.923878
O O5 0.265098 0.500000 0.020471
O O6 0.353200 0.374721 0.117483
O O7 0.421872 0.650020 0.693128
O O8 0.085249 0.667614 0.683017
O O9 0.608215 0.500000 0.347815
O O10 0.792001 0.395640 0.490445
O O11 0.500000 0.348051 0.500000
O O12 0.250000 0.250000 0.500000
#
# Coordination Sequence:
#
# PCOD8115442 Si02
#       5
#     8   8   8   8   8
#     4  11  23  43  68  98 135 185 236 283 345 413
#     4  11  24  44  68  98 140 183 233 289 348 408
#     4  12  25  43  71 102 138 184 233 284 347 414
#     4  12  26  44  71 106 143 181 232 292 346 405
#     4  12  26  46  73 102 140 183 230 282 346 418
#
# _framework density 24.854271000000001
#
# number of rings (size 3 to 8) (size 9 to 14) (size 15 to 20)
#    0.000    0.400    2.000    7.800    0.000    5.200 
#    0.000    2.000    0.000    0.000    0.000    0.000 
#    0.000    0.000    0.000    0.000    0.000    0.000 
#
# Total GULP energy -248100.974249 kJ/mol
# GULP energy per Si atom -12405.048712 kJ/mol
# Density = 2.479770 g / cm^3
# Si number density = 24.854271 Si / 1000 Ang^3
#
#
#
# Elastic Constant Matrix: (Units=GPa)
#
#
# Indices 1 2 3 4 5 6 
#
# 1 60.1414 19.1102 -17.2926 0.0005 -25.3876 0.0058
# 2 19.1102 170.5606 35.6567 -0.0017 -19.8042 -0.0032
# 3 -17.2926 35.6567 87.4657 -0.0045 -27.0431 -0.0084
# 4 0.0005 -0.0017 -0.0045 38.2315 -0.0028 -10.4348
# 5 -25.3876 -19.8042 -27.0431 -0.0028 40.4135 -0.0036
# 6 0.0058 -0.0032 -0.0084 -10.4348 -0.0036 20.1833
#
#
#
# Elastic Compliance Matrix: (Units=1/GPa)
#
#
# Indices 1 2 3 4 5 6 
#
# 1 0.039678 -0.004582 0.021088 0.000006 0.036791 0.000006
# 2 -0.004582 0.007039 -0.004538 0.000000 -0.002466 0.000000
# 3 0.021088 -0.004538 0.026302 0.000008 0.028624 0.000014
# 4 0.000006 0.000000 0.000008 0.030454 0.000013 0.015745
# 5 0.036791 -0.002466 0.028624 0.000013 0.065802 0.000019
# 6 0.000006 0.000000 0.000014 0.015745 0.000019 0.057686
#
#
# Mechanical properties :
#
#
# Convention : Reuss Voigt Hill
#
# Bulk Modulus (GPa) = 10.31417 43.67960 26.99689
# Shear Modulus (GPa) = 21.24564 38.47857 29.86210
#
# Velocity S-wave (km/s) = 2.92688 3.93894 3.47001
# Velocity P-wave (km/s) = 3.94728 6.18866 5.19040
#
# Compressibility (1/GPa) = 0.09695395
#
# Stress axis : x y z
#
# Youngs Moduli (GPa) = 25.20315 142.07011 38.01957
#
# Poissons Ratio (x) = 0.65100 -0.80175
# Poissons Ratio (y) = 0.11549 0.17253
# Poissons Ratio (z) = -0.53148 0.64469
#
# Static dielectric constant tensor:
#      x y z
#    x 4.483800 -0.000010 -0.004410 
#    y -0.000010 4.265970 -0.000030 
#    z -0.004410 -0.000030 5.313500 
# 
# 
# High freq. dielectric constant tensor:
#      x y z
#    x 1.992430 0.000000 -0.000540 
#    y 0.000000 1.979440 0.000000 
#    z -0.000540 0.000000 2.013040 
# 
# From -- ./inp_files/333477.got.cif
#   From: 2010.06.25/outbox.cif.g09.slc.cpg/sg12_167_cif.got.tgz:333477.got - 2010.06.28 00:19:55.
