data_PCOD8115648
_publ_section_title
;
Structure prediction by ZEFSAII (Michael W. Deem and Ramdas Pophale) SiO2 
 PCOD8115648
Probable space group: C 2/M
;
_chemical_formula_sum "Si O2"
_cell_formula_units_Z 48
_cell_length_a 8.209927
_cell_length_b 30.569739
_cell_length_c 15.628397
_cell_angle_alpha 90.000000
_cell_angle_beta 33.293304
_cell_angle_gamma 90.000000
_cell_volume 2153.072129
_symmetry_space_group_name_H-M "C 2/M"
_symmetry_group_IT_number 12
_symmetry_cell_setting 'monoclinic'
loop_
_space_group_symop_operation_xyz
x,y,z
-x,y,-z
-x,-y,-z
x,-y,z
1/2+x,1/2+y,z
1/2-x,1/2+y,-z
1/2-x,1/2-y,-z
1/2+x,1/2-y,z
loop_
_atom_site_type_symbol
_atom_site_label
_atom_site_fract_x
_atom_site_fract_y
_atom_site_fract_z
Si Si1 0.500000 0.353132 0.000000
Si Si2 0.819289 0.798131 0.936813
Si Si3 0.837623 0.086832 0.319591
Si Si4 0.206462 0.000000 0.184201
Si Si5 0.943185 0.406839 0.729536
Si Si6 0.321074 0.331316 0.760678
Si Si7 0.667246 0.000000 0.677010
Si Si8 0.000000 0.848909 0.500000
O O1 0.441939 0.321040 0.106656
O O2 0.209111 0.384383 0.120694
O O3 0.935001 0.798098 0.786714
O O4 0.750000 0.750000 0.000000
O O5 0.532434 0.829260 0.075121
O O6 0.500000 0.083841 0.500000
O O7 0.806262 0.099853 0.234342
O O8 0.998100 0.041061 0.259624
O O9 0.043677 0.121129 0.279435
O O10 0.340370 0.000000 0.219047
O O11 0.500000 0.000000 0.000000
O O12 0.997478 0.458012 0.715859
O O13 0.244342 0.381108 0.578599
O O14 0.412447 0.319077 0.621858
O O15 0.000000 0.000000 0.500000
#
# Coordination Sequence:
#
# PCOD8115648 Si02
#       8
#     4   8   8   4   8   8   4   4
#     4  12  24  41  72 104 136 178 240 293 358 432
#     4  11  25  47  75 105 140 184 232 291 366 445
#     4  12  24  45  70 104 146 195 240 296 366 427
#     4  12  30  42  68 103 148 193 259 304 345 410
#     4  12  25  41  71  99 145 189 242 295 354 422
#     4  11  24  43  76 103 146 184 241 287 362 430
#     4  12  25  45  65  95 140 199 243 287 356 414
#     4  12  22  45  70 108 138 192 230 296 350 425
#
# _framework density 22.293725999999999
#
# number of rings (size 3 to 8) (size 9 to 14) (size 15 to 20)
#    0.000    0.333    5.833    3.750    4.667    0.333 
#    0.000    0.833    1.833    0.000    0.000    0.000 
#    0.000    0.000    0.000    0.000    0.000    0.000 
#
# Total GULP energy -297357.877464 kJ/mol
# GULP energy per Si atom -12389.911561 kJ/mol
# Density = 2.224298 g / cm^3
# Si number density = 22.293726 Si / 1000 Ang^3
#
#
#
# Elastic Constant Matrix: (Units=GPa)
#
#
# Indices 1 2 3 4 5 6 
#
# 1 116.2217 37.4265 35.8404 0.0000 29.4022 0.0000
# 2 37.4265 129.6345 61.0135 0.0000 6.5248 0.0000
# 3 35.8404 61.0135 111.1138 0.0000 11.6494 0.0000
# 4 0.0000 0.0000 0.0000 24.5336 0.0000 0.9926
# 5 29.4022 6.5248 11.6494 0.0000 53.2770 0.0000
# 6 0.0000 0.0000 0.0000 0.9926 0.0000 28.0813
#
#
#
# Elastic Compliance Matrix: (Units=1/GPa)
#
#
# Indices 1 2 3 4 5 6 
#
# 1 0.011264 -0.002072 -0.001914 0.000000 -0.005544 0.000000
# 2 -0.002072 0.010784 -0.005357 0.000000 0.000994 0.000000
# 3 -0.001914 -0.005357 0.012670 0.000000 -0.001058 0.000000
# 4 0.000000 0.000000 0.000000 0.040819 0.000000 -0.001443
# 5 -0.005544 0.000994 -0.001058 0.000000 0.021939 0.000000
# 6 0.000000 0.000000 0.000000 -0.001443 0.000000 0.035662
#
#
# Mechanical properties :
#
#
# Convention : Reuss Voigt Hill
#
# Bulk Modulus (GPa) = 62.38076 69.50341 65.94209
# Shear Modulus (GPa) = 31.81297 36.02434 33.91866
#
# Velocity S-wave (km/s) = 3.78165 4.02418 3.90480
# Velocity P-wave (km/s) = 6.86367 7.26883 7.06915
#
# Compressibility (1/GPa) = 0.01603058
#
# Stress axis : x y z
#
# Youngs Moduli (GPa) = 88.77493 92.73329 78.92733
#
# Poissons Ratio (x) = 0.19215 0.15109
# Poissons Ratio (y) = 0.18395 0.42283
# Poissons Ratio (z) = 0.16995 0.49680
#
# Static dielectric constant tensor:
#      x y z
#    x 4.685470 0.000000 0.228160 
#    y 0.000000 3.746820 0.000000 
#    z 0.228160 0.000000 4.113390 
# 
# 
# High freq. dielectric constant tensor:
#      x y z
#    x 1.905250 0.000000 0.007430 
#    y 0.000000 1.865220 0.000000 
#    z 0.007430 0.000000 1.874710 
# 
# From -- ./inp_files/260281.got.cif
#   From: 2010.06.25/outbox.cif.g09.slc.cpg/sg12_131_cif.got.tgz:260281.got - 2010.06.28 00:19:55.
