data_PCOD8115901
_publ_section_title
;
Structure prediction by ZEFSAII (Michael W. Deem and Ramdas Pophale) SiO2 
 PCOD8115901
Probable space group: C 2/M
;
_chemical_formula_sum "Si O2"
_cell_formula_units_Z 48
_cell_length_a 24.373440
_cell_length_b 9.016436
_cell_length_c 23.994961
_cell_angle_alpha 90.000000
_cell_angle_beta 146.980451
_cell_angle_gamma 90.000000
_cell_volume 2873.483027
_symmetry_space_group_name_H-M "C 2/M"
_symmetry_group_IT_number 12
_symmetry_cell_setting 'monoclinic'
loop_
_space_group_symop_operation_xyz
x,y,z
-x,y,-z
-x,-y,-z
x,-y,z
1/2+x,1/2+y,z
1/2-x,1/2+y,-z
1/2-x,1/2-y,-z
1/2+x,1/2-y,z
loop_
_atom_site_type_symbol
_atom_site_label
_atom_site_fract_x
_atom_site_fract_y
_atom_site_fract_z
Si Si1 0.169529 0.671073 0.969701
Si Si2 0.398753 0.824264 0.484738
Si Si3 0.157977 0.175515 0.452692
Si Si4 0.375809 0.824900 0.342379
Si Si5 0.470501 0.167686 0.244025
Si Si6 0.770739 0.329684 0.146314
O O1 0.198411 0.500000 0.997600
O O2 0.060274 0.692664 0.847379
O O3 0.250000 0.750000 0.000000
O O4 0.177992 0.740181 0.039064
O O5 0.341245 0.735726 0.483613
O O6 0.347383 0.781558 0.381537
O O7 0.513777 0.766310 0.580765
O O8 0.391894 0.000000 0.490411
O O9 0.250000 0.250000 0.500000
O O10 0.055676 0.216694 0.333390
O O11 0.171074 0.000000 0.464243
O O12 0.291612 0.767528 0.226781
O O13 0.383728 0.000000 0.344063
O O14 0.373183 0.192991 0.199277
O O15 0.511072 0.000000 0.287372
O O16 0.737465 0.500000 0.119101
#
# Coordination Sequence:
#
# PCOD8115901 Si02
#       6
#     8   8   8   8   8   8
#     4   9  17  27  41  63  92 125 155 187 230 278
#     4   9  16  31  50  68  93 125 161 192 228 278
#     4  12  24  35  49  68  92 124 162 201 240 279
#     4   8  14  26  49  72  94 128 157 184 228 282
#     4   9  17  31  47  63  91 125 159 195 230 275
#     4   9  15  26  45  70  97 125 155 185 225 277
#
# _framework density 16.704466
#
# number of rings (size 3 to 8) (size 9 to 14) (size 15 to 20)
#    0.000    2.667    1.667    4.000    0.000    3.333 
#    0.000    2.500    0.000    0.000    0.000    1.167 
#    0.000    9.333    0.000    0.000    0.000    0.000 
#
# Total GULP energy -297387.724470 kJ/mol
# GULP energy per Si atom -12391.155186 kJ/mol
# Density = 1.666645 g / cm^3
# Si number density = 16.704466 Si / 1000 Ang^3
#
#
#
# Elastic Constant Matrix: (Units=GPa)
#
#
# Indices 1 2 3 4 5 6 
#
# 1 90.4137 42.7774 48.8987 0.0000 -25.4360 0.0000
# 2 42.7774 91.3838 41.9469 0.0000 -14.5636 0.0000
# 3 48.8987 41.9469 90.4545 0.0000 -42.6215 0.0000
# 4 0.0000 0.0000 0.0000 27.8283 0.0000 -4.8148
# 5 -25.4360 -14.5636 -42.6215 0.0000 34.0670 0.0000
# 6 0.0000 0.0000 0.0000 -4.8148 0.0000 21.1330
#
#
#
# Elastic Compliance Matrix: (Units=1/GPa)
#
#
# Indices 1 2 3 4 5 6 
#
# 1 0.017460 -0.005236 -0.004684 0.000000 0.004938 0.000000
# 2 -0.005236 0.015857 -0.007724 0.000000 -0.006795 0.000000
# 3 -0.004684 -0.007724 0.034022 0.000000 0.035766 0.000000
# 4 0.000000 0.000000 0.000000 0.037409 0.000000 0.008523
# 5 0.004938 -0.006795 0.035766 0.000000 0.074883 0.000000
# 6 0.000000 0.000000 0.000000 0.008523 0.000000 0.049261
#
#
# Mechanical properties :
#
#
# Convention : Reuss Voigt Hill
#
# Bulk Modulus (GPa) = 31.20100 59.94422 45.57261
# Shear Modulus (GPa) = 18.19080 25.84761 22.01920
#
# Velocity S-wave (km/s) = 3.30355 3.93790 3.63459
# Velocity P-wave (km/s) = 5.76802 7.52590 6.70482
#
# Compressibility (1/GPa) = 0.03205026
#
# Stress axis : x y z
#
# Youngs Moduli (GPa) = 57.27361 63.06469 29.39289
#
# Poissons Ratio (x) = 0.33023 0.13766
# Poissons Ratio (y) = 0.29990 0.22704
# Poissons Ratio (z) = 0.26824 0.48713
#
# Static dielectric constant tensor:
#      x y z
#    x 1.181420 0.000000 4.333810 
#    y 0.000000 3.147140 0.000000 
#    z 4.333810 0.000000 -9.592000 
# 
# 
# High freq. dielectric constant tensor:
#      x y z
#    x 1.604590 0.000000 -0.043800 
#    y 0.000000 1.629130 0.000000 
#    z -0.043800 0.000000 1.641790 
# 
# From -- ./inp_files/348896.got.cif
#   From: 2010.06.25/outbox.cif.g09.slc.cpg/sg12_175_cif.got.tgz:348896.got - 2010.06.28 00:19:55.
