data_PCOD8115915
_publ_section_title
;
Structure prediction by ZEFSAII (Michael W. Deem and Ramdas Pophale) SiO2 
 PCOD8115915
Probable space group: C 2/M
;
_chemical_formula_sum "Si O2"
_cell_formula_units_Z 32
_cell_length_a 8.932236
_cell_length_b 19.449460
_cell_length_c 8.428775
_cell_angle_alpha 90.000000
_cell_angle_beta 90.020605
_cell_angle_gamma 90.000000
_cell_volume 1464.307106
_symmetry_space_group_name_H-M "C 2/M"
_symmetry_group_IT_number 12
_symmetry_cell_setting 'monoclinic'
loop_
_space_group_symop_operation_xyz
x,y,z
-x,y,-z
-x,-y,-z
x,-y,z
1/2+x,1/2+y,z
1/2-x,1/2+y,-z
1/2-x,1/2-y,-z
1/2+x,1/2-y,z
loop_
_atom_site_type_symbol
_atom_site_label
_atom_site_fract_x
_atom_site_fract_y
_atom_site_fract_z
Si Si1 0.732272 0.795404 0.155760
Si Si2 0.286760 0.422008 0.621228
Si Si3 0.387058 0.578421 0.266416
Si Si4 0.931980 0.696366 0.329206
O O1 0.810222 0.870635 0.138310
O O2 0.814942 0.757696 0.301257
O O3 0.557752 0.803893 0.193430
O O4 0.750000 0.750000 0.000000
O O5 0.246176 0.500000 0.663409
O O6 0.440096 0.400665 0.708934
O O7 0.300778 0.413364 0.432463
O O8 0.151714 0.376213 0.684526
O O9 0.374329 0.500000 0.204283
O O10 0.000000 0.709669 0.500000
#
# Coordination Sequence:
#
# PCOD8115915 Si02
#       4
#     8   8   8   8
#     4  12  26  42  62  95 137 175 218 269 329 389
#     4   9  19  37  66 102 130 163 217 274 321 381
#     4   9  19  39  67  96 131 171 214 265 326 390
#     4  12  24  40  65  94 128 175 223 273 319 383
#
# _framework density 21.853338999999998
#
# number of rings (size 3 to 8) (size 9 to 14) (size 15 to 20)
#    0.000    1.500    2.500    4.500    3.500    1.500 
#    0.000    1.250    0.000    9.000    0.000    0.000 
#    0.000    0.000    0.000    0.000    0.000    0.000 
#
# Total GULP energy -198461.862129 kJ/mol
# GULP energy per Si atom -12403.866383 kJ/mol
# Density = 2.180360 g / cm^3
# Si number density = 21.853339 Si / 1000 Ang^3
#
#
#
# Elastic Constant Matrix: (Units=GPa)
#
#
# Indices 1 2 3 4 5 6 
#
# 1 131.7601 72.7583 47.2539 0.0000 -21.1687 0.0000
# 2 72.7583 135.9843 48.7361 0.0000 0.4302 0.0000
# 3 47.2539 48.7361 72.3040 0.0000 -14.0353 0.0000
# 4 0.0000 0.0000 0.0000 37.8740 0.0000 2.4237
# 5 -21.1687 0.4302 -14.0353 0.0000 26.8599 0.0000
# 6 0.0000 0.0000 0.0000 2.4237 0.0000 56.4767
#
#
#
# Elastic Compliance Matrix: (Units=1/GPa)
#
#
# Indices 1 2 3 4 5 6 
#
# 1 0.013564 -0.006273 -0.002829 0.000000 0.009313 0.000000
# 2 -0.006273 0.012994 -0.006298 0.000000 -0.008443 0.000000
# 3 -0.002829 -0.006298 0.021713 0.000000 0.009217 0.000000
# 4 0.000000 0.000000 0.000000 0.026476 0.000000 -0.001136
# 5 0.009313 -0.008443 0.009217 0.000000 0.049521 0.000000
# 6 0.000000 0.000000 0.000000 -0.001136 0.000000 0.017755
#
#
# Mechanical properties :
#
#
# Convention : Reuss Voigt Hill
#
# Bulk Modulus (GPa) = 57.23271 75.28276 66.25774
# Shear Modulus (GPa) = 27.98811 35.66214 31.82512
#
# Velocity S-wave (km/s) = 3.58260 4.04404 3.82030
# Velocity P-wave (km/s) = 6.58481 7.50530 7.06007
#
# Compressibility (1/GPa) = 0.01747252
#
# Stress axis : x y z
#
# Youngs Moduli (GPa) = 73.72300 76.95866 46.05474
#
# Poissons Ratio (x) = 0.48278 0.13028
# Poissons Ratio (y) = 0.46248 0.29003
# Poissons Ratio (z) = 0.20854 0.48465
#
# Static dielectric constant tensor:
#      x y z
#    x 4.166150 0.000000 0.042230 
#    y 0.000000 4.133160 0.000000 
#    z 0.042230 0.000000 3.515950 
# 
# 
# High freq. dielectric constant tensor:
#      x y z
#    x 1.868520 0.000000 0.000560 
#    y 0.000000 1.873270 0.000000 
#    z 0.000560 0.000000 1.827960 
# 
# From -- ./inp_files/37490.got.cif
#   From: 2010.06.25/outbox.cif.g09.slc.cpg/sg12_19_cif.got.tgz:37490.got - 2010.06.28 00:19:55.
