data_PCOD8115529
_publ_section_title
;
Structure prediction by ZEFSAII (Michael W. Deem and Ramdas Pophale) SiO2 
 PCOD8115529
Probable space group: C 2/M
;
_chemical_formula_sum "Si O2"
_cell_formula_units_Z 48
_cell_length_a 20.266725
_cell_length_b 8.960665
_cell_length_c 14.756048
_cell_angle_alpha 90.000000
_cell_angle_beta 99.244540
_cell_angle_gamma 90.000000
_cell_volume 2644.942086
_symmetry_space_group_name_H-M "C 2/M"
_symmetry_group_IT_number 12
_symmetry_cell_setting 'monoclinic'
loop_
_space_group_symop_operation_xyz
x,y,z
-x,y,-z
-x,-y,-z
x,-y,z
1/2+x,1/2+y,z
1/2-x,1/2+y,-z
1/2-x,1/2-y,-z
1/2+x,1/2-y,z
loop_
_atom_site_type_symbol
_atom_site_label
_atom_site_fract_x
_atom_site_fract_y
_atom_site_fract_z
Si Si1 0.792904 0.824588 0.432354
Si Si2 0.565652 0.828410 0.955589
Si Si3 0.196401 0.175832 0.053359
Si Si4 0.082007 0.828247 0.778879
Si Si5 0.736162 0.329630 0.775911
Si Si6 0.560601 0.677856 0.573241
O O1 0.750000 0.750000 0.500000
O O2 0.761043 0.783224 0.328506
O O3 0.869251 0.764388 0.452690
O O4 0.792267 0.000000 0.447370
O O5 0.550172 0.772706 0.850354
O O6 0.588731 0.000000 0.957542
O O7 0.500000 0.806813 0.000000
O O8 0.622598 0.728825 0.013167
O O9 0.213105 0.222027 0.160072
O O10 0.200383 0.000000 0.042506
O O11 0.250000 0.250000 0.000000
O O12 0.161835 0.810403 0.798709
O O13 0.053211 0.770419 0.676079
O O14 0.061944 0.000000 0.790731
O O15 0.759663 0.500000 0.793902
O O16 0.500000 0.744000 0.500000
O O17 0.561018 0.500000 0.571954
#
# Coordination Sequence:
#
# PCOD8115529 Si02
#       6
#     8   8   8   8   8   8
#     4   9  18  33  54  79 111 145 177 220 275 321
#     4  11  24  40  56  78 113 151 181 223 281 329
#     4  12  23  36  59  86 110 141 185 231 272 329
#     4   9  17  32  57  81 104 142 186 227 269 320
#     4   9  18  34  55  80 109 146 186 225 270 322
#     4   8  15  31  55  80 105 137 180 225 267 314
#
# _framework density 18.147845
#
# number of rings (size 3 to 8) (size 9 to 14) (size 15 to 20)
#    0.000    2.333    1.667    4.000    0.000    2.000 
#    3.000    2.500    0.000    1.000    0.000    0.000 
#    0.000    0.000    0.000    0.000    0.000    0.000 
#
# Total GULP energy -297597.381896 kJ/mol
# GULP energy per Si atom -12399.890912 kJ/mol
# Density = 1.810654 g / cm^3
# Si number density = 18.147845 Si / 1000 Ang^3
#
#
#
# Elastic Constant Matrix: (Units=GPa)
#
#
# Indices 1 2 3 4 5 6 
#
# 1 91.9719 50.3327 77.2113 0.0000 5.8221 0.0000
# 2 50.3327 92.8781 59.6556 0.0000 -0.0760 0.0000
# 3 77.2113 59.6556 151.6730 0.0000 0.3387 0.0000
# 4 0.0000 0.0000 0.0000 32.8088 0.0000 -3.6149
# 5 5.8221 -0.0760 0.3387 0.0000 37.1620 0.0000
# 6 0.0000 0.0000 0.0000 -3.6149 0.0000 24.1329
#
#
#
# Elastic Compliance Matrix: (Units=1/GPa)
#
#
# Indices 1 2 3 4 5 6 
#
# 1 0.021717 -0.006256 -0.008587 0.000000 -0.003337 0.000000
# 2 -0.006256 0.016209 -0.003193 0.000000 0.001042 0.000000
# 3 -0.008587 -0.003193 0.012218 0.000000 0.001227 0.000000
# 4 0.000000 0.000000 0.000000 0.030991 0.000000 0.004642
# 5 -0.003337 0.001042 0.001227 0.000000 0.027423 0.000000
# 6 0.000000 0.000000 0.000000 0.004642 0.000000 0.042133
#
#
# Mechanical properties :
#
#
# Convention : Reuss Voigt Hill
#
# Bulk Modulus (GPa) = 71.06752 78.99135 75.02944
# Shear Modulus (GPa) = 26.11620 28.77564 27.44592
#
# Velocity S-wave (km/s) = 3.79764 3.98631 3.89312
# Velocity P-wave (km/s) = 7.64688 8.05038 7.85122
#
# Compressibility (1/GPa) = 0.01407113
#
# Stress axis : x y z
#
# Youngs Moduli (GPa) = 46.04715 61.69563 81.84900
#
# Poissons Ratio (x) = 0.38597 0.70286
# Poissons Ratio (y) = 0.28807 0.26132
# Poissons Ratio (z) = 0.39542 0.19698
#
# Static dielectric constant tensor:
#      x y z
#    x 3.750900 0.000000 0.162790 
#    y 0.000000 3.208550 0.000000 
#    z 0.162790 0.000000 3.645770 
# 
# 
# High freq. dielectric constant tensor:
#      x y z
#    x 1.687230 0.000000 0.005890 
#    y 0.000000 1.685430 0.000000 
#    z 0.005890 0.000000 1.716830 
# 
# From -- ./inp_files/221641.got.cif
#   From: 2010.06.25/outbox.cif.g09.slc.cpg/sg12_111_cif.got.tgz:221641.got - 2010.06.28 00:19:55.
