data_PCOD8115269
_publ_section_title
;
Structure prediction by ZEFSAII (Michael W. Deem and Ramdas Pophale) SiO2 
 PCOD8115269
Probable space group: C 2/M
;
_chemical_formula_sum "Si O2"
_cell_formula_units_Z 48
_cell_length_a 12.189577
_cell_length_b 20.728073
_cell_length_c 11.073984
_cell_angle_alpha 90.000000
_cell_angle_beta 58.297132
_cell_angle_gamma 90.000000
_cell_volume 2380.516419
_symmetry_space_group_name_H-M "C 2/M"
_symmetry_group_IT_number 12
_symmetry_cell_setting 'monoclinic'
loop_
_space_group_symop_operation_xyz
x,y,z
-x,y,-z
-x,-y,-z
x,-y,z
1/2+x,1/2+y,z
1/2-x,1/2+y,-z
1/2-x,1/2-y,-z
1/2+x,1/2-y,z
loop_
_atom_site_type_symbol
_atom_site_label
_atom_site_fract_x
_atom_site_fract_y
_atom_site_fract_z
Si Si1 0.288472 0.573616 0.254811
Si Si2 0.140521 0.221605 0.416543
Si Si3 0.328496 0.151928 0.462425
Si Si4 0.800023 0.754394 0.103784
Si Si5 0.000000 0.134495 0.000000
Si Si6 0.000000 0.352899 0.000000
Si Si7 0.554957 0.075107 0.214495
O O1 0.274302 0.500000 0.304652
O O2 0.253165 0.618674 0.386000
O O3 0.440009 0.587639 0.137295
O O4 0.195752 0.586712 0.191894
O O5 0.237789 0.164411 0.398722
O O6 0.125149 0.277673 0.524512
O O7 0.181837 0.256008 0.266683
O O8 0.000000 0.188576 0.500000
O O9 0.450325 0.108155 0.361219
O O10 0.882836 0.693906 0.102767
O O11 0.750000 0.750000 0.000000
O O12 0.878017 0.820459 0.046003
O O13 0.953855 0.396061 0.914648
O O14 0.521673 0.000000 0.225435
#
# Coordination Sequence:
#
# PCOD8115269 Si02
#       7
#     8   8   8   8   4   4   8
#     4  11  23  40  65  92 121 166 211 254 305 368
#     4  11  24  39  65  94 125 160 202 259 315 370
#     4  11  23  41  62  92 127 158 207 259 310 362
#     4  11  24  39  64  92 123 162 202 251 316 373
#     4  11  23  40  58  92 127 155 198 262 306 363
#     4  11  23  40  62  92 127 159 204 258 310 367
#     4  11  23  42  65  91 122 165 213 256 303 365
#
# _framework density 20.163692000000001
#
# number of rings (size 3 to 8) (size 9 to 14) (size 15 to 20)
#    0.000    1.000    3.333    3.500    4.667    1.333 
#    0.000    0.000    0.000    4.000    0.000    0.000 
#    0.000    0.000    0.000    0.000    0.000    0.000 
#
# Total GULP energy -297435.298576 kJ/mol
# GULP energy per Si atom -12393.137441 kJ/mol
# Density = 2.011780 g / cm^3
# Si number density = 20.163692 Si / 1000 Ang^3
#
#
#
# Elastic Constant Matrix: (Units=GPa)
#
#
# Indices 1 2 3 4 5 6 
#
# 1 72.3227 24.0864 37.0720 0.0000 -1.9318 0.0000
# 2 24.0864 92.1639 17.7853 0.0000 -3.7074 0.0000
# 3 37.0720 17.7853 105.6684 0.0000 -9.2124 0.0000
# 4 0.0000 0.0000 0.0000 27.0543 0.0000 6.3310
# 5 -1.9318 -3.7074 -9.2124 0.0000 38.4881 0.0000
# 6 0.0000 0.0000 0.0000 6.3310 0.0000 18.2887
#
#
#
# Elastic Compliance Matrix: (Units=1/GPa)
#
#
# Indices 1 2 3 4 5 6 
#
# 1 0.017965 -0.003615 -0.005766 0.000000 -0.000827 0.000000
# 2 -0.003615 0.011958 -0.000674 0.000000 0.000809 0.000000
# 3 -0.005766 -0.000674 0.011816 0.000000 0.002474 0.000000
# 4 0.000000 0.000000 0.000000 0.040221 0.000000 -0.013923
# 5 -0.000827 0.000809 0.002474 0.000000 0.026611 0.000000
# 6 0.000000 0.000000 0.000000 -0.013923 0.000000 0.059498
#
#
# Mechanical properties :
#
#
# Convention : Reuss Voigt Hill
#
# Bulk Modulus (GPa) = 46.23780 47.56028 46.89904
# Shear Modulus (GPa) = 25.59020 29.51365 27.55192
#
# Velocity S-wave (km/s) = 3.56634 3.82999 3.70051
# Velocity P-wave (km/s) = 6.31976 6.57242 6.44733
#
# Compressibility (1/GPa) = 0.02162733
#
# Stress axis : x y z
#
# Youngs Moduli (GPa) = 55.66499 83.62841 84.63404
#
# Poissons Ratio (x) = 0.30236 0.48801
# Poissons Ratio (y) = 0.20126 0.05701
# Poissons Ratio (z) = 0.32097 0.05634
#
# Static dielectric constant tensor:
#      x y z
#    x 3.738790 0.000000 -0.122740 
#    y 0.000000 3.710650 0.000000 
#    z -0.122740 0.000000 3.707090 
# 
# 
# High freq. dielectric constant tensor:
#      x y z
#    x 1.781130 0.000000 -0.010450 
#    y 0.000000 1.791740 0.000000 
#    z -0.010450 0.000000 1.795220 
# 
# From -- ./inp_files/133027.got.cif
#   From: 2010.06.25/outbox.cif.g09.slc.cpg/sg12_67_cif.got.tgz:133027.got - 2010.06.28 00:19:55.
