data_PCOD8115196
_publ_section_title
;
Structure prediction by ZEFSAII (Michael W. Deem and Ramdas Pophale) SiO2 
 PCOD8115196
Probable space group: C 2/M
;
_chemical_formula_sum "Si O2"
_cell_formula_units_Z 36
_cell_length_a 10.356422
_cell_length_b 16.391159
_cell_length_c 10.888760
_cell_angle_alpha 90.000000
_cell_angle_beta 107.250021
_cell_angle_gamma 90.000000
_cell_volume 1765.266255
_symmetry_space_group_name_H-M "C 2/M"
_symmetry_group_IT_number 12
_symmetry_cell_setting 'monoclinic'
loop_
_space_group_symop_operation_xyz
x,y,z
-x,y,-z
-x,-y,-z
x,-y,z
1/2+x,1/2+y,z
1/2-x,1/2+y,-z
1/2-x,1/2-y,-z
1/2+x,1/2-y,z
loop_
_atom_site_type_symbol
_atom_site_label
_atom_site_fract_x
_atom_site_fract_y
_atom_site_fract_z
Si Si1 0.646278 0.243956 0.081487
Si Si2 0.230993 0.908949 0.497971
Si Si3 0.578132 0.906127 0.217522
Si Si4 0.500000 0.290878 0.500000
Si Si5 0.655101 0.164787 0.702831
O O1 0.631364 0.149935 0.121394
O O2 0.703191 0.300391 0.206647
O O3 0.500000 0.278420 0.000000
O O4 0.750000 0.250000 0.000000
O O5 0.329020 0.891239 0.638422
O O6 0.109637 0.845685 0.462545
O O7 0.316170 0.899012 0.397429
O O8 0.171835 0.000000 0.487410
O O9 0.425768 0.880292 0.210918
O O10 0.581245 0.000000 0.174355
O O11 0.565392 0.238778 0.626694
#
# Coordination Sequence:
#
# PCOD8115196 Si02
#       5
#     8   8   8   4   8
#     4  12  26  45  67  94 128 180 229 265 310 384
#     4  11  23  38  62  99 136 163 202 270 341 393
#     4  11  23  42  67  97 130 170 215 271 331 388
#     4  12  21  36  63  96 128 170 204 268 331 382
#     4  12  22  40  68  96 128 167 221 267 321 389
#
# _framework density 20.393522999999998
#
# number of rings (size 3 to 8) (size 9 to 14) (size 15 to 20)
#    0.000    0.444    6.667    3.000    0.000    2.222 
#    0.000    0.000    0.000    3.333    0.000    0.000 
#    0.000    0.000    0.000    0.000    0.000    0.000 
#
# Total GULP energy -223295.225093 kJ/mol
# GULP energy per Si atom -12405.290283 kJ/mol
# Density = 2.034711 g / cm^3
# Si number density = 20.393523 Si / 1000 Ang^3
#
#
#
# Elastic Constant Matrix: (Units=GPa)
#
#
# Indices 1 2 3 4 5 6 
#
# 1 121.8188 46.9772 43.8687 0.0000 -3.7579 0.0000
# 2 46.9772 99.4065 50.1689 0.0000 2.1165 0.0000
# 3 43.8687 50.1689 96.7898 0.0000 11.3419 0.0000
# 4 0.0000 0.0000 0.0000 10.9000 0.0000 -5.6371
# 5 -3.7579 2.1165 11.3419 0.0000 50.9619 0.0000
# 6 0.0000 0.0000 0.0000 -5.6371 0.0000 34.0927
#
#
#
# Elastic Compliance Matrix: (Units=1/GPa)
#
#
# Indices 1 2 3 4 5 6 
#
# 1 0.010782 -0.003475 -0.003281 0.000000 0.001670 0.000000
# 2 -0.003475 0.014797 -0.006153 0.000000 0.000499 0.000000
# 3 -0.003281 -0.006153 0.015408 0.000000 -0.003416 0.000000
# 4 0.000000 0.000000 0.000000 0.100322 0.000000 0.016588
# 5 0.001670 0.000499 -0.003416 0.000000 0.020485 0.000000
# 6 0.000000 0.000000 0.000000 0.016588 0.000000 0.032075
#
#
# Mechanical properties :
#
#
# Convention : Reuss Voigt Hill
#
# Bulk Modulus (GPa) = 65.92543 66.67162 66.29852
# Shear Modulus (GPa) = 22.24766 30.99095 26.61930
#
# Velocity S-wave (km/s) = 3.30649 3.90249 3.61679
# Velocity P-wave (km/s) = 6.85376 7.28488 7.07260
#
# Compressibility (1/GPa) = 0.01516865
#
# Stress axis : x y z
#
# Youngs Moduli (GPa) = 92.74624 67.58346 64.89961
#
# Poissons Ratio (x) = 0.23484 0.21296
# Poissons Ratio (y) = 0.32228 0.39932
# Poissons Ratio (z) = 0.30434 0.41584
#
# Static dielectric constant tensor:
#      x y z
#    x 4.056730 0.000000 0.408910 
#    y 0.000000 3.762300 0.000000 
#    z 0.408910 0.000000 4.028590 
# 
# 
# High freq. dielectric constant tensor:
#      x y z
#    x 1.802010 0.000000 0.001170 
#    y 0.000000 1.794650 0.000000 
#    z 0.001170 0.000000 1.802390 
# 
# From -- ./inp_files/118752.got.cif
#   From: 2010.06.25/outbox.cif.g09.slc.cpg/sg12_60_cif.got.tgz:118752.got - 2010.06.28 00:19:55.
