data_PCOD8115168
_publ_section_title
;
Structure prediction by ZEFSAII (Michael W. Deem and Ramdas Pophale) SiO2 
 PCOD8115168
Probable space group: C 2/M
;
_chemical_formula_sum "Si O2"
_cell_formula_units_Z 56
_cell_length_a 18.532854
_cell_length_b 8.624059
_cell_length_c 25.053070
_cell_angle_alpha 90.000000
_cell_angle_beta 133.708573
_cell_angle_gamma 90.000000
_cell_volume 2894.485842
_symmetry_space_group_name_H-M "C 2/M"
_symmetry_group_IT_number 12
_symmetry_cell_setting 'monoclinic'
loop_
_space_group_symop_operation_xyz
x,y,z
-x,y,-z
-x,-y,-z
x,-y,z
1/2+x,1/2+y,z
1/2-x,1/2+y,-z
1/2-x,1/2-y,-z
1/2+x,1/2-y,z
loop_
_atom_site_type_symbol
_atom_site_label
_atom_site_fract_x
_atom_site_fract_y
_atom_site_fract_z
Si Si1 0.799651 0.830246 0.686332
Si Si2 0.915736 0.315650 0.416570
Si Si3 0.993367 0.681479 0.233399
Si Si4 0.775466 0.829610 0.797072
Si Si5 0.513886 0.684969 0.065889
Si Si6 0.076651 0.819698 0.696558
Si Si7 0.142606 0.815520 0.928089
O O1 0.691638 0.763471 0.611473
O O2 0.771384 0.856419 0.732761
O O3 0.894061 0.718324 0.728542
O O4 0.825324 0.000000 0.674221
O O5 0.917618 0.500000 0.411193
O O6 0.941878 0.244407 0.372146
O O7 0.000000 0.255279 0.500000
O O8 0.975781 0.500000 0.220982
O O9 0.991724 0.737275 0.293920
O O10 0.905505 0.759399 0.152642
O O11 0.879518 0.747725 0.863233
O O12 0.689796 0.714256 0.773039
O O13 0.763243 0.000000 0.818823
O O14 0.514674 0.500000 0.068846
O O15 0.429743 0.747814 0.062441
O O16 0.500000 0.750519 0.000000
O O17 0.053305 0.000000 0.685544
O O18 0.149071 0.000000 0.929170
O O19 0.250000 0.750000 0.000000
#
# Coordination Sequence:
#
# PCOD8115168 Si02
#       7
#     8   8   8   8   8   8   8
#     4   9  17  34  59  86 115 149 187 235 288 340
#     4   9  19  39  66  93 122 155 190 229 282 352
#     4  12  24  39  59  82 114 159 205 247 292 348
#     4   9  17  34  57  80 110 149 191 235 287 349
#     4   9  18  33  55  80 108 145 189 233 285 348
#     4  11  23  37  57  87 120 151 191 244 293 342
#     4  11  23  40  58  83 117 155 197 246 301 351
#
# _framework density 19.347131999999998
#
# number of rings (size 3 to 8) (size 9 to 14) (size 15 to 20)
#    0.000    2.000    1.429    3.857    2.000    2.571 
#    0.000    0.714    0.000    2.143    0.000    0.000 
#    0.000    0.000    0.000    0.000    0.000    0.000 
#
# Total GULP energy -346919.344936 kJ/mol
# GULP energy per Si atom -12389.976605 kJ/mol
# Density = 1.930310 g / cm^3
# Si number density = 19.347132 Si / 1000 Ang^3
#
#
#
# Elastic Constant Matrix: (Units=GPa)
#
#
# Indices 1 2 3 4 5 6 
#
# 1 79.1500 29.6252 42.5109 0.0000 -0.4439 0.0000
# 2 29.6252 84.0362 32.7393 0.0000 -0.7215 0.0000
# 3 42.5109 32.7393 120.1223 0.0000 19.8585 0.0000
# 4 0.0000 0.0000 0.0000 24.7335 0.0000 -0.0135
# 5 -0.4439 -0.7215 19.8585 0.0000 32.6165 0.0000
# 6 0.0000 0.0000 0.0000 -0.0135 0.0000 31.8542
#
#
#
# Elastic Compliance Matrix: (Units=1/GPa)
#
#
# Indices 1 2 3 4 5 6 
#
# 1 0.017087 -0.003813 -0.005595 0.000000 0.003555 0.000000
# 2 -0.003813 0.014396 -0.002911 0.000000 0.002039 0.000000
# 3 -0.005595 -0.002911 0.012366 0.000000 -0.007670 0.000000
# 4 0.000000 0.000000 0.000000 0.040431 0.000000 0.000017
# 5 0.003555 0.002039 -0.007670 0.000000 0.035422 0.000000
# 6 0.000000 0.000000 0.000000 0.000017 0.000000 0.031393
#
#
# Mechanical properties :
#
#
# Convention : Reuss Voigt Hill
#
# Bulk Modulus (GPa) = 52.05794 54.78437 53.42115
# Shear Modulus (GPa) = 27.45181 29.73639 28.59410
#
# Velocity S-wave (km/s) = 3.77093 3.92470 3.84858
# Velocity P-wave (km/s) = 6.77684 6.99398 6.88627
#
# Compressibility (1/GPa) = 0.01920937
#
# Stress axis : x y z
#
# Youngs Moduli (GPa) = 58.52537 69.46609 80.86438
#
# Poissons Ratio (x) = 0.26489 0.45246
# Poissons Ratio (y) = 0.22317 0.23540
# Poissons Ratio (z) = 0.32747 0.20222
#
# Static dielectric constant tensor:
#      x y z
#    x 3.521070 0.000000 -0.214440 
#    y 0.000000 3.330750 0.000000 
#    z -0.214440 0.000000 2.425810 
# 
# 
# High freq. dielectric constant tensor:
#      x y z
#    x 1.754750 0.000000 0.011220 
#    y 0.000000 1.733560 0.000000 
#    z 0.011220 0.000000 1.750800 
# 
# From -- ./inp_files/342597.got.cif
#   From: 2010.06.25/outbox.cif.g09.slc.cpg/sg12_172_cif.got.tgz:342597.got - 2010.06.28 00:19:55.
