data_PCOD8115871
_publ_section_title
;
Structure prediction by ZEFSAII (Michael W. Deem and Ramdas Pophale) SiO2 
 PCOD8115871
Probable space group: C 2/M
;
_chemical_formula_sum "Si O2"
_cell_formula_units_Z 64
_cell_length_a 27.061686
_cell_length_b 19.287565
_cell_length_c 8.732843
_cell_angle_alpha 90.000000
_cell_angle_beta 130.195461
_cell_angle_gamma 90.000000
_cell_volume 3481.724261
_symmetry_space_group_name_H-M "C 2/M"
_symmetry_group_IT_number 12
_symmetry_cell_setting 'monoclinic'
loop_
_space_group_symop_operation_xyz
x,y,z
-x,y,-z
-x,-y,-z
x,-y,z
1/2+x,1/2+y,z
1/2-x,1/2+y,-z
1/2-x,1/2-y,-z
1/2+x,1/2-y,z
loop_
_atom_site_type_symbol
_atom_site_label
_atom_site_fract_x
_atom_site_fract_y
_atom_site_fract_z
Si Si1 0.768377 0.921763 0.463789
Si Si2 0.688418 0.712248 0.947159
Si Si3 0.811581 0.212247 0.693484
Si Si4 0.117354 0.421544 0.807991
Si Si5 0.067274 0.288774 0.564344
Si Si6 0.117353 0.421543 0.161419
Si Si7 0.768380 0.921763 0.109727
Si Si8 0.567274 0.211227 0.204750
O O1 0.809362 0.869383 0.649885
O O2 0.692853 0.909544 0.343557
O O3 0.784402 0.907771 0.318803
O O4 0.787906 0.000000 0.548443
O O5 0.623323 0.743381 0.750043
O O6 0.690635 0.630618 0.912427
O O7 0.750000 0.750000 0.000000
O O8 0.689193 0.724386 0.128386
O O9 0.750000 0.250000 0.500000
O O10 0.876677 0.243379 0.756748
O O11 0.097721 0.500000 0.726096
O O12 0.076845 0.370079 0.620635
O O13 0.101243 0.405788 0.952486
O O14 0.192856 0.409547 0.927858
O O15 0.066869 0.277235 0.383738
O O16 0.000000 0.262526 0.500000
O O17 0.097722 0.500000 0.164786
O O18 0.076842 0.370078 0.186732
O O19 0.787909 0.000000 0.103193
O O20 0.500000 0.237476 0.000000
#
# Coordination Sequence:
#
# PCOD8115871 Si02
#       8
#     8   8   8   8   8   8   8   8
#     4   9  18  34  58  87 118 150 187 234 285 336
#     4  12  23  37  59  87 117 151 193 239 285 339
#     4  12  23  37  59  87 117 151 193 239 285 339
#     4   9  18  34  56  82 115 153 192 234 280 335
#     4  12  25  40  58  82 114 154 195 240 289 343
#     4   9  18  34  56  82 115 153 192 234 280 335
#     4   9  18  34  58  87 118 150 187 234 285 336
#     4  12  25  40  58  82 114 154 195 240 289 343
#
# _framework density 18.381696000000002
#
# number of rings (size 3 to 8) (size 9 to 14) (size 15 to 20)
#    0.000    1.500    2.500    6.000    0.000    1.500 
#    0.000    2.500    0.000    0.750    0.000    0.000 
#    0.000    0.000    0.000    0.000    0.000    0.000 
#
# Total GULP energy -396908.292317 kJ/mol
# GULP energy per Si atom -12403.384135 kJ/mol
# Density = 1.833986 g / cm^3
# Si number density = 18.381696 Si / 1000 Ang^3
#
#
#
# Elastic Constant Matrix: (Units=GPa)
#
#
# Indices 1 2 3 4 5 6 
#
# 1 127.4385 57.6628 71.6905 0.0000 -6.5601 0.0000
# 2 57.6628 105.3245 57.5185 0.0000 1.6044 0.0000
# 3 71.6905 57.5185 128.6726 0.0000 -7.0543 0.0000
# 4 0.0000 0.0000 0.0000 29.7301 0.0000 -6.5220
# 5 -6.5601 1.6044 -7.0543 0.0000 33.6433 0.0000
# 6 0.0000 0.0000 0.0000 -6.5220 0.0000 29.1414
#
#
#
# Elastic Compliance Matrix: (Units=1/GPa)
#
#
# Indices 1 2 3 4 5 6 
#
# 1 0.012702 -0.004183 -0.005119 0.000000 0.001603 0.000000
# 2 -0.004183 0.014046 -0.004077 0.000000 -0.002340 0.000000
# 3 -0.005119 -0.004077 0.012546 0.000000 0.001827 0.000000
# 4 0.000000 0.000000 0.000000 0.035373 0.000000 0.007917
# 5 0.001603 -0.002340 0.001827 0.000000 0.030531 0.000000
# 6 0.000000 0.000000 0.000000 0.007917 0.000000 0.036087
#
#
# Mechanical properties :
#
#
# Convention : Reuss Voigt Hill
#
# Bulk Modulus (GPa) = 79.76345 81.68656 80.72501
# Shear Modulus (GPa) = 29.03228 30.14056 29.58642
#
# Velocity S-wave (km/s) = 3.97849 4.05372 4.01628
# Velocity P-wave (km/s) = 8.03689 8.15143 8.09436
#
# Compressibility (1/GPa) = 0.01253707
#
# Stress axis : x y z
#
# Youngs Moduli (GPa) = 78.72861 71.19235 79.70375
#
# Poissons Ratio (x) = 0.29778 0.40803
# Poissons Ratio (y) = 0.32930 0.32494
# Poissons Ratio (z) = 0.40303 0.29024
#
# Static dielectric constant tensor:
#      x y z
#    x 3.334940 0.000000 -0.070080 
#    y 0.000000 3.593910 0.000000 
#    z -0.070080 0.000000 3.341290 
# 
# 
# High freq. dielectric constant tensor:
#      x y z
#    x 1.703630 0.000000 -0.011630 
#    y 0.000000 1.718590 0.000000 
#    z -0.011630 0.000000 1.704680 
# 
# From -- ./inp_files/99098.got.cif
#   From: 2010.06.25/outbox.cif.g09.slc.cpg/sg12_50_cif.got.tgz:99098.got - 2010.06.28 00:19:55.
