data_PCOD8115146
_publ_section_title
;
Structure prediction by ZEFSAII (Michael W. Deem and Ramdas Pophale) SiO2 
 PCOD8115146
Probable space group: C 2/M
;
_chemical_formula_sum "Si O2"
_cell_formula_units_Z 48
_cell_length_a 24.527080
_cell_length_b 8.961554
_cell_length_c 24.789875
_cell_angle_alpha 90.000000
_cell_angle_beta 28.490099
_cell_angle_gamma 90.000000
_cell_volume 2599.130957
_symmetry_space_group_name_H-M "C 2/M"
_symmetry_group_IT_number 12
_symmetry_cell_setting 'monoclinic'
loop_
_space_group_symop_operation_xyz
x,y,z
-x,y,-z
-x,-y,-z
x,-y,z
1/2+x,1/2+y,z
1/2-x,1/2+y,-z
1/2-x,1/2-y,-z
1/2+x,1/2-y,z
loop_
_atom_site_type_symbol
_atom_site_label
_atom_site_fract_x
_atom_site_fract_y
_atom_site_fract_z
Si Si1 0.685337 0.675087 0.481372
Si Si2 0.660557 0.823695 0.824834
Si Si3 0.078636 0.323536 0.011690
Si Si4 0.406710 0.675371 0.324810
Si Si5 0.641298 0.676892 0.067162
Si Si6 0.114316 0.822637 0.427047
O O1 0.707557 0.500000 0.462237
O O2 0.610110 0.725212 0.598253
O O3 0.809641 0.749981 0.372660
O O4 0.617634 0.725115 0.486785
O O5 0.551081 0.767779 0.885916
O O6 0.775851 0.754584 0.699460
O O7 0.660838 0.000000 0.819613
O O8 0.652345 0.780112 0.894799
O O9 0.084686 0.500000 0.018277
O O10 0.132305 0.233084 0.014016
O O11 0.393456 0.500000 0.329804
O O12 0.530151 0.729559 0.197421
O O13 0.654857 0.500000 0.056104
O O14 0.750000 0.750000 0.000000
O O15 0.000000 0.754478 0.500000
O O16 0.114471 0.000000 0.420839
#
# Coordination Sequence:
#
# PCOD8115146 Si02
#       6
#     8   8   8   8   8   8
#     4   9  17  31  53  77  98 125 163 203 243 290
#     4   8  15  28  48  73  97 125 162 202 244 288
#     4   9  17  32  53  73  95 126 166 208 246 288
#     4   9  19  34  51  73  99 127 161 204 250 291
#     4  11  23  36  50  72 103 136 169 206 251 299
#     4   9  16  25  42  71 101 125 153 192 237 287
#
# _framework density 18.467711000000001
#
# number of rings (size 3 to 8) (size 9 to 14) (size 15 to 20)
#    0.000    2.833    0.000    2.500    0.000    4.000 
#    0.000    6.667    0.000    1.500    0.000    0.000 
#    0.000    0.000    0.000    0.000    0.000    0.000 
#
# Total GULP energy -297553.672269 kJ/mol
# GULP energy per Si atom -12398.069678 kJ/mol
# Density = 1.842568 g / cm^3
# Si number density = 18.467711 Si / 1000 Ang^3
#
#
#
# Elastic Constant Matrix: (Units=GPa)
#
#
# Indices 1 2 3 4 5 6 
#
# 1 164.8467 29.1676 68.0820 -0.0009 -4.7856 0.0014
# 2 29.1676 25.9065 15.3957 -0.0046 -0.7867 0.0043
# 3 68.0820 15.3957 84.7897 -0.0030 -2.0369 0.0049
# 4 -0.0009 -0.0046 -0.0030 18.9437 0.0062 0.5143
# 5 -4.7856 -0.7867 -2.0369 0.0062 25.1213 -0.0055
# 6 0.0014 0.0043 0.0049 0.5143 -0.0055 27.8844
#
#
#
# Elastic Compliance Matrix: (Units=1/GPa)
#
#
# Indices 1 2 3 4 5 6 
#
# 1 0.010242 -0.007427 -0.006847 -0.000003 0.001163 0.000002
# 2 -0.007427 0.048668 -0.002877 0.000011 -0.000124 -0.000007
# 3 -0.006847 -0.002877 0.017816 0.000002 0.000050 -0.000002
# 4 -0.000003 0.000011 0.000002 0.052814 -0.000013 -0.000974
# 5 0.001163 -0.000124 0.000050 -0.000013 0.040029 0.000008
# 6 0.000002 -0.000007 -0.000002 -0.000974 0.000008 0.035880
#
#
# Mechanical properties :
#
#
# Convention : Reuss Voigt Hill
#
# Bulk Modulus (GPa) = 23.57161 55.64818 39.60989
# Shear Modulus (GPa) = 19.69347 25.24974 22.47160
#
# Velocity S-wave (km/s) = 3.26908 3.70163 3.49206
# Velocity P-wave (km/s) = 5.20005 6.96186 6.14443
#
# Compressibility (1/GPa) = 0.04242392
#
# Stress axis : x y z
#
# Youngs Moduli (GPa) = 97.63630 20.54751 56.13072
#
# Poissons Ratio (x) = 0.15260 0.38435
# Poissons Ratio (y) = 0.72512 0.16146
# Poissons Ratio (z) = 0.66856 0.05911
#
# Static dielectric constant tensor:
#      x y z
#    x 3.536710 0.000000 0.053620 
#    y 0.000000 2.993350 0.000030 
#    z 0.053620 0.000030 3.846740 
# 
# 
# High freq. dielectric constant tensor:
#      x y z
#    x 1.723010 0.000000 0.007670 
#    y 0.000000 1.674040 0.000000 
#    z 0.007670 0.000000 1.724400 
# 
# From -- ./inp_files/172281.got.cif
#   From: 2010.06.25/outbox.cif.g09.slc.cpg/sg12_87_cif.got.tgz:172281.got - 2010.06.28 00:19:55.
