data_PCOD8115870
_publ_section_title
;
Structure prediction by ZEFSAII (Michael W. Deem and Ramdas Pophale) SiO2 
 PCOD8115870
Probable space group: C 2/M
;
_chemical_formula_sum "Si O2"
_cell_formula_units_Z 56
_cell_length_a 10.103509
_cell_length_b 27.698406
_cell_length_c 18.040387
_cell_angle_alpha 90.000000
_cell_angle_beta 36.677316
_cell_angle_gamma 90.000000
_cell_volume 3015.580663
_symmetry_space_group_name_H-M "C 2/M"
_symmetry_group_IT_number 12
_symmetry_cell_setting 'monoclinic'
loop_
_space_group_symop_operation_xyz
x,y,z
-x,y,-z
-x,-y,-z
x,-y,z
1/2+x,1/2+y,z
1/2-x,1/2+y,-z
1/2-x,1/2-y,-z
1/2+x,1/2-y,z
loop_
_atom_site_type_symbol
_atom_site_label
_atom_site_fract_x
_atom_site_fract_y
_atom_site_fract_z
Si Si1 0.340572 0.691354 0.760542
Si Si2 0.423274 0.200902 0.717561
Si Si3 0.501082 0.349659 0.839883
Si Si4 0.141693 0.300012 0.077902
Si Si5 0.363735 0.352164 0.490355
Si Si6 0.318879 0.946517 0.477157
Si Si7 0.312244 0.445989 0.295872
O O1 0.402624 0.744006 0.701981
O O2 0.411624 0.683525 0.813090
O O3 0.478463 0.652877 0.651311
O O4 0.076530 0.686049 0.870559
O O5 0.412855 0.199457 0.810985
O O6 0.651785 0.182160 0.581089
O O7 0.235338 0.169532 0.762699
O O8 0.516725 0.406153 0.811654
O O9 0.319356 0.342996 0.986013
O O10 0.250000 0.250000 0.000000
O O11 0.500000 0.336718 0.500000
O O12 0.287592 0.407857 0.530492
O O13 0.583617 0.942237 0.353568
O O14 0.236071 0.935422 0.596922
O O15 0.244169 0.000000 0.485733
O O16 0.413211 0.500000 0.240252
#
# Coordination Sequence:
#
# PCOD8115870 Si02
#       7
#     8   8   8   8   8   8   8
#     4  12  24  41  59  88 123 164 201 246 300 357
#     4  12  24  41  59  88 123 164 201 246 300 357
#     4  12  23  36  68  90 116 160 209 251 290 350
#     4  12  24  42  61  83 123 168 208 240 290 356
#     4  12  24  39  58  87 127 156 192 252 319 362
#     4   9  18  36  61  86 115 151 199 251 304 364
#     4   9  18  36  62  91 115 149 201 259 305 349
#
# _framework density 18.570219999999999
#
# number of rings (size 3 to 8) (size 9 to 14) (size 15 to 20)
#    0.000    0.857    7.143    2.143    0.000    0.857 
#    0.000    0.000    0.000    5.143    0.000    0.000 
#    0.000    0.000    0.000    0.000    0.000    0.000 
#
# Total GULP energy -347202.100215 kJ/mol
# GULP energy per Si atom -12400.075008 kJ/mol
# Density = 1.852795 g / cm^3
# Si number density = 18.570220 Si / 1000 Ang^3
#
#
#
# Elastic Constant Matrix: (Units=GPa)
#
#
# Indices 1 2 3 4 5 6 
#
# 1 78.3698 2.0250 12.1134 0.0000 -18.1437 0.0000
# 2 2.0250 107.9267 26.3068 0.0000 -16.0851 0.0000
# 3 12.1134 26.3068 82.2346 0.0001 -17.2880 0.0000
# 4 0.0000 0.0000 0.0001 30.3390 -0.0001 0.1849
# 5 -18.1437 -16.0851 -17.2880 -0.0001 31.4104 0.0000
# 6 0.0000 0.0000 0.0000 0.1849 0.0000 23.2103
#
#
#
# Elastic Compliance Matrix: (Units=1/GPa)
#
#
# Indices 1 2 3 4 5 6 
#
# 1 0.014882 0.001212 -0.000726 0.000000 0.008817 0.000000
# 2 0.001212 0.010570 -0.002572 0.000000 0.004697 0.000000
# 3 -0.000726 -0.002572 0.014390 0.000000 0.006183 0.000000
# 4 0.000000 0.000000 0.000000 0.032962 0.000000 -0.000263
# 5 0.008817 0.004697 0.006183 0.000000 0.042738 0.000000
# 6 0.000000 0.000000 0.000000 -0.000263 0.000000 0.043086
#
#
# Mechanical properties :
#
#
# Convention : Reuss Voigt Hill
#
# Bulk Modulus (GPa) = 28.03562 38.82460 33.43011
# Shear Modulus (GPa) = 28.62170 32.19767 30.40968
#
# Velocity S-wave (km/s) = 3.93016 4.16845 4.05106
# Velocity P-wave (km/s) = 5.97702 6.64231 6.31843
#
# Compressibility (1/GPa) = 0.03566891
#
# Stress axis : x y z
#
# Youngs Moduli (GPa) = 67.19377 94.60881 69.49216
#
# Poissons Ratio (x) = -0.11466 0.05047
# Poissons Ratio (y) = -0.08143 0.17876
# Poissons Ratio (z) = 0.04880 0.24337
#
# Static dielectric constant tensor:
#      x y z
#    x 3.356890 0.000000 -0.056340 
#    y 0.000000 3.557630 0.000000 
#    z -0.056340 0.000000 3.484820 
# 
# 
# High freq. dielectric constant tensor:
#      x y z
#    x 1.720190 0.000000 -0.006660 
#    y 0.000000 1.718380 0.000000 
#    z -0.006660 0.000000 1.712730 
# 
# From -- ./inp_files/124225.got.cif
#   From: 2010.06.25/outbox.cif.g09.slc.cpg/sg12_63_cif.got.tgz:124225.got - 2010.06.28 00:19:55.
