data_PCOD8115576
_publ_section_title
;
Structure prediction by ZEFSAII (Michael W. Deem and Ramdas Pophale) SiO2 
 PCOD8115576
Probable space group: C 2/M
;
_chemical_formula_sum "Si O2"
_cell_formula_units_Z 48
_cell_length_a 13.847239
_cell_length_b 22.774004
_cell_length_c 10.874229
_cell_angle_alpha 90.000000
_cell_angle_beta 38.251642
_cell_angle_gamma 90.000000
_cell_volume 2123.114430
_symmetry_space_group_name_H-M "C 2/M"
_symmetry_group_IT_number 12
_symmetry_cell_setting 'monoclinic'
loop_
_space_group_symop_operation_xyz
x,y,z
-x,y,-z
-x,-y,-z
x,-y,z
1/2+x,1/2+y,z
1/2-x,1/2+y,-z
1/2-x,1/2-y,-z
1/2+x,1/2-y,z
loop_
_atom_site_type_symbol
_atom_site_label
_atom_site_fract_x
_atom_site_fract_y
_atom_site_fract_z
Si Si1 0.639369 0.096719 0.947480
Si Si2 0.520720 0.000000 0.742408
Si Si3 0.824685 0.226895 0.302543
Si Si4 0.675315 0.226895 0.951912
Si Si5 0.192065 0.500000 0.247187
Si Si6 0.307935 0.500000 0.631317
Si Si7 0.360631 0.403281 0.226218
Si Si8 0.479280 0.500000 0.783848
O O1 0.706753 0.157094 0.931510
O O2 0.770273 0.058504 0.746138
O O3 0.500000 0.116426 0.000000
O O4 0.566922 0.058462 0.128089
O O5 0.489294 0.000000 0.623672
O O6 0.696944 0.000000 0.617112
O O7 0.750000 0.250000 0.500000
O O8 0.744694 0.250000 0.255306
O O9 0.793247 0.157094 0.345017
O O10 1.000000 0.250000 0.126731
O O11 0.750000 0.250000 0.000000
O O12 0.229727 0.441496 0.286683
O O13 0.303056 0.500000 0.011000
O O14 0.489294 0.500000 0.397740
O O15 0.433077 0.441538 0.261934
O O16 0.500000 0.383574 0.000000
#
# Coordination Sequence:
#
# PCOD8115576 Si02
#       8
#     8   4   8   8   4   4   8   4
#     4   9  18  37  57  83 116 161 204 241 308 379
#     4   9  19  31  60  82 112 153 196 252 296 364
#     4  11  24  41  66  91 125 169 211 258 317 372
#     4  11  24  41  66  91 125 169 211 258 317 372
#     4   9  19  35  60  86 116 155 204 250 314 361
#     4   9  19  35  60  86 116 155 204 250 314 361
#     4   9  18  37  57  83 116 161 204 241 308 379
#     4   9  19  31  60  82 112 153 196 252 296 364
#
# _framework density 22.608294999999998
#
# number of rings (size 3 to 8) (size 9 to 14) (size 15 to 20)
#    0.000    2.333    3.333    2.000    4.667    0.667 
#    0.000    3.333    7.333    0.000    0.000    0.000 
#    0.000    0.000    0.000    0.000    0.000    0.000 
#
# Total GULP energy -297350.191053 kJ/mol
# GULP energy per Si atom -12389.591294 kJ/mol
# Density = 2.255684 g / cm^3
# Si number density = 22.608295 Si / 1000 Ang^3
#
#
#
# Elastic Constant Matrix: (Units=GPa)
#
#
# Indices 1 2 3 4 5 6 
#
# 1 95.3136 45.5828 17.0860 -0.0001 15.6514 0.0000
# 2 45.5828 206.0263 40.7112 0.0001 10.5042 -0.0001
# 3 17.0860 40.7112 81.0487 0.0002 15.1039 -0.0003
# 4 -0.0001 0.0001 0.0002 26.5914 -0.0001 5.0282
# 5 15.6514 10.5042 15.1039 -0.0001 36.6657 0.0001
# 6 0.0000 -0.0001 -0.0003 5.0282 0.0001 28.9230
#
#
#
# Elastic Compliance Matrix: (Units=1/GPa)
#
#
# Indices 1 2 3 4 5 6 
#
# 1 0.012476 -0.002418 -0.000598 0.000000 -0.004386 0.000000
# 2 -0.002418 0.005865 -0.002508 0.000000 0.000385 0.000000
# 3 -0.000598 -0.002508 0.014669 0.000000 -0.005069 0.000000
# 4 0.000000 0.000000 0.000000 0.038884 0.000000 -0.006760
# 5 -0.004386 0.000385 -0.005069 0.000000 0.031123 0.000000
# 6 0.000000 0.000000 0.000000 -0.006760 0.000000 0.035750
#
#
# Mechanical properties :
#
#
# Convention : Reuss Voigt Hill
#
# Bulk Modulus (GPa) = 45.53554 65.46095 55.49824
# Shear Modulus (GPa) = 31.81972 37.03660 34.42816
#
# Velocity S-wave (km/s) = 3.75565 4.05184 3.90655
# Velocity P-wave (km/s) = 6.24430 7.13492 6.70442
#
# Compressibility (1/GPa) = 0.02196087
#
# Stress axis : x y z
#
# Youngs Moduli (GPa) = 80.15559 170.51052 68.17278
#
# Poissons Ratio (x) = 0.41237 0.04075
# Poissons Ratio (y) = 0.19385 0.17097
# Poissons Ratio (z) = 0.04792 0.42762
#
# Static dielectric constant tensor:
#      x y z
#    x 4.900050 0.000000 0.807250 
#    y 0.000000 4.211240 0.000000 
#    z 0.807250 0.000000 4.525700 
# 
# 
# High freq. dielectric constant tensor:
#      x y z
#    x 1.896990 0.000000 0.020730 
#    y 0.000000 1.898460 0.000000 
#    z 0.020730 0.000000 1.887380 
# 
# From -- ./inp_files/147987.got.cif
#   From: 2010.06.25/outbox.cif.g09.slc.cpg/sg12_74_cif.got.tgz:147987.got - 2010.06.28 00:19:55.
