data_PCOD8115077
_publ_section_title
;
Structure prediction by ZEFSAII (Michael W. Deem and Ramdas Pophale) SiO2 
 PCOD8115077
Probable space group: C 2/M
;
_chemical_formula_sum "Si O2"
_cell_formula_units_Z 32
_cell_length_a 8.222045
_cell_length_b 26.603769
_cell_length_c 12.535175
_cell_angle_alpha 90.000000
_cell_angle_beta 31.279983
_cell_angle_gamma 90.000000
_cell_volume 1423.656790
_symmetry_space_group_name_H-M "C 2/M"
_symmetry_group_IT_number 12
_symmetry_cell_setting 'monoclinic'
loop_
_space_group_symop_operation_xyz
x,y,z
-x,y,-z
-x,-y,-z
x,-y,z
1/2+x,1/2+y,z
1/2-x,1/2+y,-z
1/2-x,1/2-y,-z
1/2+x,1/2-y,z
loop_
_atom_site_type_symbol
_atom_site_label
_atom_site_fract_x
_atom_site_fract_y
_atom_site_fract_z
Si Si1 0.760013 0.135924 0.044475
Si Si2 0.202892 0.300267 0.593834
Si Si3 0.201637 0.889098 0.608095
Si Si4 0.814770 0.555338 0.212866
O O1 0.607739 0.191566 0.156578
O O2 0.478303 0.095000 0.200615
O O3 0.000000 0.118275 0.000000
O O4 0.937805 0.135855 0.832305
O O5 0.500000 0.309219 0.500000
O O6 0.250000 0.250000 0.500000
O O7 0.147501 0.343275 0.539051
O O8 0.500000 0.915193 0.500000
O O9 0.040361 0.927947 0.616569
O O10 0.804060 0.500000 0.272747
O O11 0.000000 0.551930 0.000000
#
# Coordination Sequence:
#
# PCOD8115077 Si02
#       4
#     8   8   8   8
#     4  11  23  42  68  94 134 176 217 272 329 387
#     4  12  26  45  66  97 128 170 224 276 330 397
#     4  11  22  42  67  95 136 177 217 273 324 391
#     4   9  20  40  66  98 135 176 220 272 328 387
#
# _framework density 22.477329000000001
#
# number of rings (size 3 to 8) (size 9 to 14) (size 15 to 20)
#    0.000    1.250    5.000    0.750    0.000    2.000 
#    0.000    2.500    0.000    0.000    0.000    0.000 
#    0.000    0.000    0.000    0.000    0.000    0.000 
#
# Total GULP energy -198260.389843 kJ/mol
# GULP energy per Si atom -12391.274365 kJ/mol
# Density = 2.242617 g / cm^3
# Si number density = 22.477329 Si / 1000 Ang^3
#
#
#
# Elastic Constant Matrix: (Units=GPa)
#
#
# Indices 1 2 3 4 5 6 
#
# 1 111.8084 30.2773 16.5254 0.0000 -51.1365 0.0000
# 2 30.2773 110.2676 23.6560 0.0000 -18.7125 0.0000
# 3 16.5254 23.6560 101.6165 0.0000 -17.5967 0.0000
# 4 0.0000 0.0000 0.0000 11.7719 0.0000 -4.9886
# 5 -51.1365 -18.7125 -17.5967 0.0000 50.3488 0.0000
# 6 0.0000 0.0000 0.0000 -4.9886 0.0000 17.3210
#
#
#
# Elastic Compliance Matrix: (Units=1/GPa)
#
#
# Indices 1 2 3 4 5 6 
#
# 1 0.017085 -0.001962 0.000593 0.000000 0.016830 0.000000
# 2 -0.001962 0.010201 -0.001857 0.000000 0.001149 0.000000
# 3 0.000593 -0.001857 0.010816 0.000000 0.003692 0.000000
# 4 0.000000 0.000000 0.000000 0.096757 0.000000 0.027867
# 5 0.016830 0.001149 0.003692 0.000000 0.038673 0.000000
# 6 0.000000 0.000000 0.000000 0.027867 0.000000 0.065759
#
#
# Mechanical properties :
#
#
# Convention : Reuss Voigt Hill
#
# Bulk Modulus (GPa) = 31.59551 51.62331 41.60941
# Shear Modulus (GPa) = 19.50885 32.77058 26.13972
#
# Velocity S-wave (km/s) = 2.94927 3.82244 3.41389
# Velocity P-wave (km/s) = 5.06801 6.51906 5.83878
#
# Compressibility (1/GPa) = 0.03165007
#
# Stress axis : x y z
#
# Youngs Moduli (GPa) = 58.53048 98.02941 92.45468
#
# Poissons Ratio (x) = 0.19236 -0.05481
# Poissons Ratio (y) = 0.11485 0.17165
# Poissons Ratio (z) = -0.03470 0.18200
#
# Static dielectric constant tensor:
#      x y z
#    x 4.282320 0.000000 0.030280 
#    y 0.000000 4.100160 0.000000 
#    z 0.030280 0.000000 4.444050 
# 
# 
# High freq. dielectric constant tensor:
#      x y z
#    x 1.900090 0.000000 -0.000470 
#    y 0.000000 1.853030 0.000000 
#    z -0.000470 0.000000 1.906210 
# 
# From -- ./inp_files/38705.got.cif
#   From: 2010.06.25/outbox.cif.g09.slc.cpg/sg12_20_cif.got.tgz:38705.got - 2010.06.28 00:19:55.
