data_PCOD8115905
_publ_section_title
;
Structure prediction by ZEFSAII (Michael W. Deem and Ramdas Pophale) SiO2 
 PCOD8115905
Probable space group: C 2/M
;
_chemical_formula_sum "Si O2"
_cell_formula_units_Z 52
_cell_length_a 15.464560
_cell_length_b 13.864261
_cell_length_c 15.664776
_cell_angle_alpha 90.000000
_cell_angle_beta 61.046726
_cell_angle_gamma 90.000000
_cell_volume 2938.826017
_symmetry_space_group_name_H-M "C 2/M"
_symmetry_group_IT_number 12
_symmetry_cell_setting 'monoclinic'
loop_
_space_group_symop_operation_xyz
x,y,z
-x,y,-z
-x,-y,-z
x,-y,z
1/2+x,1/2+y,z
1/2-x,1/2+y,-z
1/2-x,1/2-y,-z
1/2+x,1/2-y,z
loop_
_atom_site_type_symbol
_atom_site_label
_atom_site_fract_x
_atom_site_fract_y
_atom_site_fract_z
Si Si1 0.690224 0.711702 0.109563
Si Si2 0.455823 0.111267 0.388138
Si Si3 0.615471 0.500000 0.925265
Si Si4 0.154403 0.389064 0.393487
Si Si5 0.482005 0.192153 0.197150
Si Si6 0.042653 0.500000 0.074079
Si Si7 0.274786 0.500000 0.949008
Si Si8 0.190345 0.809754 0.798762
O O1 0.576205 0.738669 0.154305
O O2 0.694239 0.595826 0.117186
O O3 0.735878 0.759137 0.171164
O O4 0.750000 0.750000 0.000000
O O5 0.382127 0.149971 0.497137
O O6 0.568370 0.121588 0.364813
O O7 0.439961 0.175753 0.312202
O O8 0.432528 0.000000 0.378787
O O9 0.645469 0.407129 0.857391
O O10 0.500000 0.500000 0.000000
O O11 0.675107 0.500000 0.983555
O O12 0.184659 0.500000 0.387954
O O13 0.249367 0.329931 0.316922
O O14 0.507476 0.091763 0.142425
O O15 0.399198 0.239451 0.178326
O O16 0.159084 0.500000 0.017237
O O17 0.000000 0.500000 0.000000
#
# Coordination Sequence:
#
# PCOD8115905 Si02
#       8
#     8   8   4   8   8   4   4   8
#     4  12  24  40  59  85 117 157 199 235 290 355
#     4   9  18  36  63  90 115 146 192 251 304 350
#     4  12  24  38  57  82 121 156 202 244 281 340
#     4   9  18  36  63  90 115 146 192 251 304 350
#     4  12  24  37  60  88 117 157 201 240 296 354
#     4  12  24  38  57  82 121 156 202 244 281 340
#     4  12  24  40  60  78 116 166 186 246 286 336
#     4  12  24  37  60  88 117 157 201 240 296 354
#
# _framework density 17.694140000000001
#
# number of rings (size 3 to 8) (size 9 to 14) (size 15 to 20)
#    0.000    0.923    6.154    2.769    0.000    0.615 
#    0.000    0.000    0.000    0.000    0.000    1.077 
#    0.000    0.000    0.000    0.000    0.000    0.000 
#
# Total GULP energy -322464.893178 kJ/mol
# GULP energy per Si atom -12402.495891 kJ/mol
# Density = 1.765387 g / cm^3
# Si number density = 17.694140 Si / 1000 Ang^3
#
#
#
# Elastic Constant Matrix: (Units=GPa)
#
#
# Indices 1 2 3 4 5 6 
#
# 1 83.0944 18.2512 29.2922 0.0000 -14.4624 0.0000
# 2 18.2512 107.0856 36.8892 0.0000 -12.5052 0.0000
# 3 29.2922 36.8892 104.4861 0.0000 -8.6187 0.0000
# 4 0.0000 0.0000 0.0000 31.4787 0.0000 -0.3379
# 5 -14.4624 -12.5052 -8.6187 0.0000 29.4995 0.0000
# 6 0.0000 0.0000 0.0000 -0.3379 0.0000 29.5459
#
#
#
# Elastic Compliance Matrix: (Units=1/GPa)
#
#
# Indices 1 2 3 4 5 6 
#
# 1 0.014353 -0.000623 -0.003325 0.000000 0.005801 0.000000
# 2 -0.000623 0.011022 -0.003439 0.000000 0.003362 0.000000
# 3 -0.003325 -0.003439 0.011745 0.000000 0.000343 0.000000
# 4 0.000000 0.000000 0.000000 0.031771 0.000000 0.000363
# 5 0.005801 0.003362 0.000343 0.000000 0.038268 0.000000
# 6 0.000000 0.000000 0.000000 0.000363 0.000000 0.033850
#
#
# Mechanical properties :
#
#
# Convention : Reuss Voigt Hill
#
# Bulk Modulus (GPa) = 44.75308 51.50347 48.12827
# Shear Modulus (GPa) = 30.63080 32.12039 31.37560
#
# Velocity S-wave (km/s) = 4.16520 4.26527 4.21553
# Velocity P-wave (km/s) = 6.96271 7.30941 7.13817
#
# Compressibility (1/GPa) = 0.02234483
#
# Stress axis : x y z
#
# Youngs Moduli (GPa) = 69.67038 90.72820 85.13936
#
# Poissons Ratio (x) = 0.05656 0.28311
# Poissons Ratio (y) = 0.04343 0.29282
# Poissons Ratio (z) = 0.23167 0.31204
#
# Static dielectric constant tensor:
#      x y z
#    x 3.286240 0.000000 -0.007480 
#    y 0.000000 3.887240 0.000000 
#    z -0.007480 0.000000 3.454820 
# 
# 
# High freq. dielectric constant tensor:
#      x y z
#    x 1.683850 0.000000 -0.001920 
#    y 0.000000 1.683890 0.000000 
#    z -0.001920 0.000000 1.690890 
# 
# From -- ./inp_files/214753.got.cif
#   From: 2010.06.25/outbox.cif.g09.slc.cpg/sg12_108_cif.got.tgz:214753.got - 2010.06.28 00:19:55.
