data_PCOD8115330
_publ_section_title
;
Structure prediction by ZEFSAII (Michael W. Deem and Ramdas Pophale) SiO2 
 PCOD8115330
Probable space group: C 2/M
;
_chemical_formula_sum "Si O2"
_cell_formula_units_Z 64
_cell_length_a 14.950401
_cell_length_b 14.630567
_cell_length_c 17.713287
_cell_angle_alpha 90.000000
_cell_angle_beta 129.992535
_cell_angle_gamma 90.000000
_cell_volume 2968.346516
_symmetry_space_group_name_H-M "C 2/M"
_symmetry_group_IT_number 12
_symmetry_cell_setting 'monoclinic'
loop_
_space_group_symop_operation_xyz
x,y,z
-x,y,-z
-x,-y,-z
x,-y,z
1/2+x,1/2+y,z
1/2-x,1/2+y,-z
1/2-x,1/2-y,-z
1/2+x,1/2-y,z
loop_
_atom_site_type_symbol
_atom_site_label
_atom_site_fract_x
_atom_site_fract_y
_atom_site_fract_z
Si Si1 0.546443 0.828502 0.949000
Si Si2 0.318101 0.897480 0.222614
Si Si3 0.795470 0.901875 0.086291
Si Si4 0.683286 0.740962 0.386712
Si Si5 0.104982 0.743818 0.613503
Si Si6 0.961775 0.600201 0.752187
Si Si7 0.023782 0.110938 0.689560
Si Si8 0.100632 0.131370 0.011081
O O1 0.684995 0.838311 0.013977
O O2 0.531494 0.720457 0.944137
O O3 0.500000 0.876320 0.000000
O O4 0.463496 0.867460 0.839361
O O5 0.381014 0.838981 0.321052
O O6 0.404551 0.906056 0.199271
O O7 0.203623 0.848650 0.127215
O O8 0.289173 0.000000 0.237336
O O9 0.885316 0.860516 0.195705
O O10 0.752177 0.000000 0.093114
O O11 0.855950 0.920853 0.038806
O O12 0.750000 0.750000 0.500000
O O13 0.772587 0.745264 0.365032
O O14 0.604481 0.830622 0.337986
O O15 0.601469 0.650353 0.349416
O O16 0.070854 0.838827 0.638603
O O17 0.000000 0.719945 0.500000
O O18 0.901845 0.500000 0.714405
O O19 0.014565 0.000000 0.672641
O O20 0.000000 0.073532 0.000000
#
# Coordination Sequence:
#
# PCOD8115330 Si02
#       8
#     8   8   8   8   8   8   8   8
#     4  11  24  39  63  97 135 183 229 280 340 410
#     4  11  24  43  69 100 136 181 235 288 347 417
#     4  11  23  41  63  92 137 178 219 279 339 408
#     4  12  26  49  74 101 139 182 235 298 366 429
#     4  12  26  49  76 101 139 182 235 299 367 429
#     4  11  24  43  69 100 137 181 233 290 351 419
#     4  11  26  47  74 109 144 187 239 296 361 434
#     4  11  24  39  63  95 135 184 229 280 337 408
#
# _framework density 21.560825000000001
#
# number of rings (size 3 to 8) (size 9 to 14) (size 15 to 20)
#    0.000    0.750    3.750    2.625    7.000    4.000 
#    0.000    0.000    0.000    0.000    0.000    0.000 
#    0.000    0.000    0.000    0.000    0.000    0.000 
#
# Total GULP energy -396577.123557 kJ/mol
# GULP energy per Si atom -12393.035111 kJ/mol
# Density = 2.151175 g / cm^3
# Si number density = 21.560825 Si / 1000 Ang^3
#
#
#
# Elastic Constant Matrix: (Units=GPa)
#
#
# Indices 1 2 3 4 5 6 
#
# 1 127.2803 31.8321 22.7699 0.0000 -6.6500 0.0000
# 2 31.8321 121.5293 41.1473 0.0000 -6.6219 0.0000
# 3 22.7699 41.1473 144.1559 0.0000 -9.6375 0.0000
# 4 0.0000 0.0000 0.0000 18.5597 0.0000 16.0738
# 5 -6.6500 -6.6219 -9.6375 0.0000 31.6628 0.0000
# 6 0.0000 0.0000 0.0000 16.0738 0.0000 98.7620
#
#
#
# Elastic Compliance Matrix: (Units=1/GPa)
#
#
# Indices 1 2 3 4 5 6 
#
# 1 0.008528 -0.001927 -0.000719 0.000000 0.001169 0.000000
# 2 -0.001927 0.009584 -0.002373 0.000000 0.000878 0.000000
# 3 -0.000719 -0.002373 0.007844 0.000000 0.001740 0.000000
# 4 0.000000 0.000000 0.000000 0.062721 0.000000 -0.010208
# 5 0.001169 0.000878 0.001740 0.000000 0.032542 0.000000
# 6 0.000000 0.000000 0.000000 -0.010208 0.000000 0.011787
#
#
# Mechanical properties :
#
#
# Convention : Reuss Voigt Hill
#
# Bulk Modulus (GPa) = 62.81406 64.94044 63.87725
# Shear Modulus (GPa) = 33.70428 49.61131 41.65780
#
# Velocity S-wave (km/s) = 3.95805 4.80207 4.40034
# Velocity P-wave (km/s) = 7.07706 7.80587 7.45038
#
# Compressibility (1/GPa) = 0.01592000
#
# Stress axis : x y z
#
# Youngs Moduli (GPa) = 117.25754 104.33744 127.48426
#
# Poissons Ratio (x) = 0.20102 0.09165
# Poissons Ratio (y) = 0.22592 0.30248
# Poissons Ratio (z) = 0.08430 0.24756
#
# Static dielectric constant tensor:
#      x y z
#    x 4.404050 0.000000 0.000570 
#    y 0.000000 3.903920 0.000000 
#    z 0.000570 0.000000 3.809990 
# 
# 
# High freq. dielectric constant tensor:
#      x y z
#    x 1.857450 0.000000 -0.001170 
#    y 0.000000 1.850860 0.000000 
#    z -0.001170 0.000000 1.848620 
# 
# From -- ./inp_files/270695.got.cif
#   From: 2010.06.25/outbox.cif.g09.slc.cpg/sg12_136_cif.got.tgz:270695.got - 2010.06.28 00:19:55.
