data_PCOD8115251
_publ_section_title
;
Structure prediction by ZEFSAII (Michael W. Deem and Ramdas Pophale) SiO2 
 PCOD8115251
Probable space group: C 2/M
;
_chemical_formula_sum "Si O2"
_cell_formula_units_Z 56
_cell_length_a 14.740937
_cell_length_b 23.419204
_cell_length_c 9.350447
_cell_angle_alpha 90.000000
_cell_angle_beta 123.953313
_cell_angle_gamma 90.000000
_cell_volume 2677.578995
_symmetry_space_group_name_H-M "C 2/M"
_symmetry_group_IT_number 12
_symmetry_cell_setting 'monoclinic'
loop_
_space_group_symop_operation_xyz
x,y,z
-x,y,-z
-x,-y,-z
x,-y,z
1/2+x,1/2+y,z
1/2-x,1/2+y,-z
1/2-x,1/2-y,-z
1/2+x,1/2-y,z
loop_
_atom_site_type_symbol
_atom_site_label
_atom_site_fract_x
_atom_site_fract_y
_atom_site_fract_z
Si Si1 0.952814 0.186390 0.810042
Si Si2 0.918430 0.883429 0.296183
Si Si3 0.753367 0.378350 0.320810
Si Si4 0.324276 0.500000 0.754650
Si Si5 0.140496 0.696323 0.795311
Si Si6 0.764294 0.302734 0.815913
Si Si7 0.939776 0.000000 0.161189
Si Si8 0.892613 0.699244 0.651823
O O1 0.875312 0.135089 0.790917
O O2 0.886249 0.231215 0.650247
O O3 0.049497 0.160894 0.800377
O O4 0.000000 0.213894 0.000000
O O5 0.801621 0.861776 0.247734
O O6 0.000000 0.883402 0.500000
O O7 0.904468 0.946021 0.222191
O O8 0.756464 0.446373 0.347611
O O9 0.806035 0.362551 0.214029
O O10 0.810287 0.338874 0.488945
O O11 0.429064 0.500000 0.742844
O O12 0.370189 0.500000 0.955306
O O13 0.181102 0.747661 0.722201
O O14 0.011188 0.685343 0.691197
O O15 0.176158 0.710871 0.984810
O O16 0.861523 0.312927 0.788848
#
# Coordination Sequence:
#
# PCOD8115251 Si02
#       8
#     8   8   8   4   8   8   4   8
#     4  12  22  39  67  98 137 176 217 261 327 410
#     4  12  25  39  64 103 140 170 212 272 338 396
#     4  12  25  42  66  99 130 170 221 275 334 383
#     4  11  24  44  73  95 125 174 226 277 327 393
#     4  11  23  40  65  92 131 178 223 262 318 397
#     4  11  23  39  63  95 134 178 215 261 329 391
#     4  11  23  44  70  97 132 171 219 274 336 397
#     4  12  25  41  62  98 138 173 215 274 325 387
#
# _framework density 20.914417
#
# number of rings (size 3 to 8) (size 9 to 14) (size 15 to 20)
#    0.000    0.429    4.286    5.786    2.000    0.000 
#    0.000    1.429    0.000    0.000    0.000    6.500 
#    0.000    0.000    0.000    0.000    0.000    0.000 
#
# Total GULP energy -346940.148364 kJ/mol
# GULP energy per Si atom -12390.719584 kJ/mol
# Density = 2.086681 g / cm^3
# Si number density = 20.914417 Si / 1000 Ang^3
#
#
#
# Elastic Constant Matrix: (Units=GPa)
#
#
# Indices 1 2 3 4 5 6 
#
# 1 110.7328 35.2164 1.1573 0.0000 -6.7648 0.0000
# 2 35.2164 144.3608 25.2878 0.0000 -3.0785 0.0000
# 3 1.1573 25.2878 62.2501 0.0000 -4.2807 0.0000
# 4 0.0000 0.0000 0.0000 6.5540 0.0000 2.2033
# 5 -6.7648 -3.0785 -4.2807 0.0000 24.4666 0.0000
# 6 0.0000 0.0000 0.0000 2.2033 0.0000 38.9146
#
#
#
# Elastic Compliance Matrix: (Units=1/GPa)
#
#
# Indices 1 2 3 4 5 6 
#
# 1 0.009996 -0.002564 0.001036 0.000000 0.002622 0.000000
# 2 -0.002564 0.008120 -0.003269 0.000000 -0.000259 0.000000
# 3 0.001036 -0.003269 0.017576 0.000000 0.002950 0.000000
# 4 0.000000 0.000000 0.000000 0.155540 0.000000 -0.008806
# 5 0.002622 -0.000259 0.002950 0.000000 0.042081 0.000000
# 6 0.000000 0.000000 0.000000 -0.008806 0.000000 0.026196
#
#
# Mechanical properties :
#
#
# Convention : Reuss Voigt Hill
#
# Bulk Modulus (GPa) = 38.31734 48.96296 43.64015
# Shear Modulus (GPa) = 17.99860 31.03251 24.51556
#
# Velocity S-wave (km/s) = 2.93675 3.85617 3.42743
# Velocity P-wave (km/s) = 5.46444 6.57941 6.04768
#
# Compressibility (1/GPa) = 0.02609784
#
# Stress axis : x y z
#
# Youngs Moduli (GPa) = 100.04467 123.15898 56.89696
#
# Poissons Ratio (x) = 0.31577 -0.05895
# Poissons Ratio (y) = 0.25651 0.18597
# Poissons Ratio (z) = -0.10365 0.40255
#
# Static dielectric constant tensor:
#      x y z
#    x 4.290240 0.000000 -0.064990 
#    y 0.000000 3.786540 0.000000 
#    z -0.064990 0.000000 3.751880 
# 
# 
# High freq. dielectric constant tensor:
#      x y z
#    x 1.833320 0.000000 -0.014120 
#    y 0.000000 1.801750 0.000000 
#    z -0.014120 0.000000 1.816160 
# 
# From -- ./inp_files/66023.got.cif
#   From: 2010.06.25/outbox.cif.g09.slc.cpg/sg12_34_cif.got.tgz:66023.got - 2010.06.28 00:19:55.
