data_PCOD8115994
_publ_section_title
;
Structure prediction by ZEFSAII (Michael W. Deem and Ramdas Pophale) SiO2 
 PCOD8115994
Probable space group: C 2/M
;
_chemical_formula_sum "Si O2"
_cell_formula_units_Z 48
_cell_length_a 19.807662
_cell_length_b 9.778315
_cell_length_c 15.211372
_cell_angle_alpha 90.000000
_cell_angle_beta 86.714721
_cell_angle_gamma 90.000000
_cell_volume 2941.381180
_symmetry_space_group_name_H-M "C 2/M"
_symmetry_group_IT_number 12
_symmetry_cell_setting 'monoclinic'
loop_
_space_group_symop_operation_xyz
x,y,z
-x,y,-z
-x,-y,-z
x,-y,z
1/2+x,1/2+y,z
1/2-x,1/2+y,-z
1/2-x,1/2-y,-z
1/2+x,1/2-y,z
loop_
_atom_site_type_symbol
_atom_site_label
_atom_site_fract_x
_atom_site_fract_y
_atom_site_fract_z
Si Si1 0.165985 0.652224 0.438652
Si Si2 0.088127 0.661862 0.907825
Si Si3 0.062982 0.661355 0.106565
Si Si4 0.337877 0.162880 0.753890
Si Si5 0.815084 0.838968 0.216779
Si Si6 0.173471 0.849295 0.586634
O O1 0.136654 0.500000 0.455935
O O2 0.142418 0.713468 0.345977
O O3 0.138653 0.746183 0.520121
O O4 0.246581 0.646904 0.432624
O O5 0.100980 0.500000 0.894514
O O6 0.144451 0.748689 0.855029
O O7 0.014826 0.705608 0.875405
O O8 0.091558 0.705536 0.009694
O O9 0.067146 0.500000 0.112164
O O10 0.109021 0.726427 0.180350
O O11 0.262613 0.209148 0.786098
O O12 0.339387 0.000000 0.751871
O O13 0.842763 0.804925 0.312338
O O14 0.823131 0.000000 0.195429
O O15 0.143655 0.000000 0.570716
#
# Coordination Sequence:
#
# PCOD8115994 Si02
#       6
#     8   8   8   8   8   8
#     4   8  13  22  39  61  80 103 138 172 200 237
#     4   9  17  29  46  65  83 109 144 176 207 246
#     4   8  15  29  46  62  83 112 143 173 208 250
#     4   8  14  26  44  64  86 112 140 171 209 250
#     4   9  17  28  43  64  88 113 139 169 210 254
#     4   8  14  24  37  56  84 112 133 160 205 252
#
# _framework density 16.318863
#
# number of rings (size 3 to 8) (size 9 to 14) (size 15 to 20)
#    0.000    3.667    0.000    3.000    0.000    1.333 
#    0.000    4.167    0.000    4.000    0.000    7.000 
#    0.000    0.000    0.000    0.000    0.000    0.000 
#
# Total GULP energy -297390.532013 kJ/mol
# GULP energy per Si atom -12391.272167 kJ/mol
# Density = 1.628172 g / cm^3
# Si number density = 16.318863 Si / 1000 Ang^3
#
#
#
# Elastic Constant Matrix: (Units=GPa)
#
#
# Indices 1 2 3 4 5 6 
#
# 1 49.8238 16.6130 41.1872 0.0000 21.3123 0.0000
# 2 16.6130 38.3269 30.9309 0.0000 10.3979 0.0000
# 3 41.1872 30.9309 99.6517 0.0000 33.0001 0.0000
# 4 0.0000 0.0000 0.0000 28.3533 0.0000 -8.5480
# 5 21.3123 10.3979 33.0001 0.0000 16.8942 0.0000
# 6 0.0000 0.0000 0.0000 -8.5480 0.0000 15.3772
#
#
#
# Elastic Compliance Matrix: (Units=1/GPa)
#
#
# Indices 1 2 3 4 5 6 
#
# 1 0.044496 -0.005623 0.002257 0.000000 -0.057081 0.000000
# 2 -0.005623 0.035527 -0.010792 0.000000 0.006309 0.000000
# 3 0.002257 -0.010792 0.031701 0.000000 -0.058128 0.000000
# 4 0.000000 0.000000 0.000000 0.042370 0.000000 0.023553
# 5 -0.057081 0.006309 -0.058128 0.000000 0.240861 0.000000
# 6 0.000000 0.000000 0.000000 0.023553 0.000000 0.078124
#
#
# Mechanical properties :
#
#
# Convention : Reuss Voigt Hill
#
# Bulk Modulus (GPa) = 11.98924 40.58494 26.28709
# Shear Modulus (GPa) = 9.44825 18.72971 14.08898
#
# Velocity S-wave (km/s) = 2.40880 3.39150 2.94148
# Velocity P-wave (km/s) = 3.88578 6.34510 5.26116
#
# Compressibility (1/GPa) = 0.08340810
#
# Stress axis : x y z
#
# Youngs Moduli (GPa) = 22.47377 28.14776 31.54435
#
# Poissons Ratio (x) = 0.15827 -0.07119
# Poissons Ratio (y) = 0.12637 0.34043
# Poissons Ratio (z) = -0.05072 0.30378
#
# Static dielectric constant tensor:
#      x y z
#    x 2.959160 0.000000 0.353330 
#    y 0.000000 2.912100 0.000000 
#    z 0.353330 0.000000 3.492820 
# 
# 
# High freq. dielectric constant tensor:
#      x y z
#    x 1.591770 0.000000 0.007320 
#    y 0.000000 1.594790 0.000000 
#    z 0.007320 0.000000 1.639790 
# 
# From -- ./inp_files/164160.got.cif
#   From: 2010.06.25/outbox.cif.g09.slc.cpg/sg12_83_cif.got.tgz:164160.got - 2010.06.28 00:19:55.
