data_PCOD8115053
_publ_section_title
;
Structure prediction by ZEFSAII (Michael W. Deem and Ramdas Pophale) SiO2 
 PCOD8115053
Probable space group: C 2/M
;
_chemical_formula_sum "Si O2"
_cell_formula_units_Z 40
_cell_length_a 18.986864
_cell_length_b 8.464867
_cell_length_c 13.568106
_cell_angle_alpha 90.000000
_cell_angle_beta 120.112224
_cell_angle_gamma 90.000000
_cell_volume 1886.387923
_symmetry_space_group_name_H-M "C 2/M"
_symmetry_group_IT_number 12
_symmetry_cell_setting 'monoclinic'
loop_
_space_group_symop_operation_xyz
x,y,z
-x,y,-z
-x,-y,-z
x,-y,z
1/2+x,1/2+y,z
1/2-x,1/2+y,-z
1/2-x,1/2-y,-z
1/2+x,1/2-y,z
loop_
_atom_site_type_symbol
_atom_site_label
_atom_site_fract_x
_atom_site_fract_y
_atom_site_fract_z
Si Si1 0.381239 0.813901 0.660129
Si Si2 0.410339 0.685098 0.466792
Si Si3 0.747731 0.684031 0.287484
Si Si4 0.195993 0.319161 0.046988
Si Si5 0.987451 0.318975 0.097233
O O1 0.388323 0.721807 0.563577
O O2 0.296097 0.777495 0.654421
O O3 0.454849 0.744372 0.779006
O O4 0.388036 0.000000 0.643812
O O5 0.500000 0.750231 0.500000
O O6 0.406202 0.500000 0.444126
O O7 0.342759 0.767865 0.350183
O O8 0.739307 0.500000 0.303127
O O9 0.705397 0.722963 0.154154
O O10 0.218467 0.500000 0.085237
O O11 0.250000 0.250000 0.000000
O O12 0.106043 0.302878 0.938704
O O13 0.016478 0.500000 0.107306
O O14 0.000000 0.234805 0.000000
#
# Coordination Sequence:
#
# PCOD8115053 Si02
#       5
#     8   8   8   8   8
#     4  11  22  41  69  96 127 168 212 263 316 379
#     4  11  26  46  66  93 127 164 210 269 326 379
#     4  12  25  43  66  94 127 170 217 262 316 381
#     4  11  23  41  64  95 132 171 211 261 319 376
#     4   9  18  37  64  93 125 164 206 250 309 375
#
# _framework density 21.204547999999999
#
# number of rings (size 3 to 8) (size 9 to 14) (size 15 to 20)
#    0.000    1.200    2.000    4.200    2.800    1.600 
#    0.000    4.000    0.000    0.000    0.000    0.000 
#    0.000    0.000    0.000    0.000    0.000    0.000 
#
# Total GULP energy -248061.274184 kJ/mol
# GULP energy per Si atom -12403.063709 kJ/mol
# Density = 2.115629 g / cm^3
# Si number density = 21.204548 Si / 1000 Ang^3
#
#
#
# Elastic Constant Matrix: (Units=GPa)
#
#
# Indices 1 2 3 4 5 6 
#
# 1 111.6120 15.3363 18.3704 0.0000 3.5668 0.0000
# 2 15.3363 59.6574 18.0514 0.0000 8.6483 0.0000
# 3 18.3704 18.0514 84.3134 0.0000 14.0717 0.0000
# 4 0.0000 0.0000 0.0000 31.7105 0.0000 -1.4585
# 5 3.5668 8.6483 14.0717 0.0000 41.9212 0.0000
# 6 0.0000 0.0000 0.0000 -1.4585 0.0000 28.7598
#
#
#
# Elastic Compliance Matrix: (Units=1/GPa)
#
#
# Indices 1 2 3 4 5 6 
#
# 1 0.009500 -0.001958 -0.001677 0.000000 0.000159 0.000000
# 2 -0.001958 0.018589 -0.003116 0.000000 -0.002622 0.000000
# 3 -0.001677 -0.003116 0.013519 0.000000 -0.003753 0.000000
# 4 0.000000 0.000000 0.000000 0.031609 0.000000 0.001603
# 5 0.000159 -0.002622 -0.003753 0.000000 0.025641 0.000000
# 6 0.000000 0.000000 0.000000 0.001603 0.000000 0.034852
#
#
# Mechanical properties :
#
#
# Convention : Reuss Voigt Hill
#
# Bulk Modulus (GPa) = 35.57867 39.89991 37.73929
# Shear Modulus (GPa) = 31.93268 34.06661 32.99965
#
# Velocity S-wave (km/s) = 3.88485 4.01255 3.94922
# Velocity P-wave (km/s) = 6.07766 6.35019 6.21542
#
# Compressibility (1/GPa) = 0.02810673
#
# Stress axis : x y z
#
# Youngs Moduli (GPa) = 105.26786 53.79669 73.96851
#
# Poissons Ratio (x) = 0.10531 0.12406
# Poissons Ratio (y) = 0.20607 0.23045
# Poissons Ratio (z) = 0.17655 0.16761
#
# Static dielectric constant tensor:
#      x y z
#    x 3.902050 0.000000 0.103190 
#    y 0.000000 3.665730 0.000000 
#    z 0.103190 0.000000 4.285610 
# 
# 
# High freq. dielectric constant tensor:
#      x y z
#    x 1.839100 0.000000 0.008900 
#    y 0.000000 1.816040 0.000000 
#    z 0.008900 0.000000 1.845120 
# 
# From -- ./inp_files/221243.got.cif
#   From: 2010.06.25/outbox.cif.g09.slc.cpg/sg12_111_cif.got.tgz:221243.got - 2010.06.28 00:19:55.
