data_PCOD8115810
_publ_section_title
;
Structure prediction by ZEFSAII (Michael W. Deem and Ramdas Pophale) SiO2 
 PCOD8115810
Probable space group: C 2/M
;
_chemical_formula_sum "Si O2"
_cell_formula_units_Z 36
_cell_length_a 9.288812
_cell_length_b 21.558747
_cell_length_c 9.628066
_cell_angle_alpha 90.000000
_cell_angle_beta 120.564623
_cell_angle_gamma 90.000000
_cell_volume 1660.176377
_symmetry_space_group_name_H-M "C 2/M"
_symmetry_group_IT_number 12
_symmetry_cell_setting 'monoclinic'
loop_
_space_group_symop_operation_xyz
x,y,z
-x,y,-z
-x,-y,-z
x,-y,z
1/2+x,1/2+y,z
1/2-x,1/2+y,-z
1/2-x,1/2-y,-z
1/2+x,1/2-y,z
loop_
_atom_site_type_symbol
_atom_site_label
_atom_site_fract_x
_atom_site_fract_y
_atom_site_fract_z
Si Si1 0.500000 0.642128 0.500000
Si Si2 0.358408 0.799254 0.139266
Si Si3 0.103517 0.570701 0.765656
Si Si4 0.244227 0.568882 0.538092
Si Si5 0.734003 0.763697 0.330305
O O1 0.410966 0.604995 0.579175
O O2 0.640142 0.681298 0.649691
O O3 0.337710 0.874128 0.098518
O O4 0.547369 0.780867 0.197828
O O5 0.301849 0.794133 0.273192
O O6 0.250000 0.750000 0.000000
O O7 0.102123 0.500000 0.829908
O O8 0.226466 0.569931 0.694708
O O9 0.920974 0.593231 0.622691
O O10 0.271543 0.500000 0.497521
O O11 0.750000 0.750000 0.500000
#
# Coordination Sequence:
#
# PCOD8115810 Si02
#       5
#     4   8   8   8   8
#     4  12  19  32  60  92 133 160 216 268 326 370
#     4  12  25  42  64  96 136 169 216 271 332 390
#     4   9  19  37  63  90 125 175 222 265 321 394
#     4   9  18  32  58  96 131 165 216 275 324 378
#     4  12  24  40  63  95 126 175 217 271 324 386
#
# _framework density 21.684443000000002
#
# number of rings (size 3 to 8) (size 9 to 14) (size 15 to 20)
#    0.000    1.333    4.444    3.667    3.111    0.000 
#    0.000    0.000    0.000    8.000    0.000    0.000 
#    0.000    0.000    0.000    0.000    0.000    0.000 
#
# Total GULP energy -222990.634175 kJ/mol
# GULP energy per Si atom -12388.368565 kJ/mol
# Density = 2.163509 g / cm^3
# Si number density = 21.684443 Si / 1000 Ang^3
#
#
#
# Elastic Constant Matrix: (Units=GPa)
#
#
# Indices 1 2 3 4 5 6 
#
# 1 152.7246 53.4937 20.1581 0.0000 13.7897 0.0000
# 2 53.4937 158.9193 37.8544 0.0000 16.2735 0.0000
# 3 20.1581 37.8544 50.7141 0.0000 12.3685 0.0000
# 4 0.0000 0.0000 0.0000 31.6514 0.0000 3.1237
# 5 13.7897 16.2735 12.3685 0.0000 28.4579 0.0000
# 6 0.0000 0.0000 0.0000 3.1237 0.0000 46.0832
#
#
#
# Elastic Compliance Matrix: (Units=1/GPa)
#
#
# Indices 1 2 3 4 5 6 
#
# 1 0.007601 -0.002126 -0.000932 0.000000 -0.002063 0.000000
# 2 -0.002126 0.008363 -0.005014 0.000000 -0.001573 0.000000
# 3 -0.000932 -0.005014 0.025752 0.000000 -0.007873 0.000000
# 4 0.000000 0.000000 0.000000 0.031807 0.000000 -0.002156
# 5 -0.002063 -0.001573 -0.007873 0.000000 0.040461 0.000000
# 6 0.000000 0.000000 0.000000 -0.002156 0.000000 0.021846
#
#
# Mechanical properties :
#
#
# Convention : Reuss Voigt Hill
#
# Bulk Modulus (GPa) = 39.10269 65.04117 52.07193
# Shear Modulus (GPa) = 31.15305 37.96196 34.55751
#
# Velocity S-wave (km/s) = 3.79443 4.18862 3.99639
# Velocity P-wave (km/s) = 6.10481 7.31110 6.73502
#
# Compressibility (1/GPa) = 0.02557369
#
# Stress axis : x y z
#
# Youngs Moduli (GPa) = 131.55331 119.56794 38.83250
#
# Poissons Ratio (x) = 0.25414 0.03618
# Poissons Ratio (y) = 0.27962 0.19471
# Poissons Ratio (z) = 0.12258 0.59953
#
# Static dielectric constant tensor:
#      x y z
#    x 4.297420 0.000000 -0.004380 
#    y 0.000000 4.401640 0.000000 
#    z -0.004380 0.000000 3.352460 
# 
# 
# High freq. dielectric constant tensor:
#      x y z
#    x 1.870900 0.000000 -0.005870 
#    y 0.000000 1.873740 0.000000 
#    z -0.005870 0.000000 1.789520 
# 
# From -- ./inp_files/39507.got.cif
#   From: 2010.06.25/outbox.cif.g09.slc.cpg/sg12_20_cif.got.tgz:39507.got - 2010.06.28 00:19:55.
