data_PCOD8115699
_publ_section_title
;
Structure prediction by ZEFSAII (Michael W. Deem and Ramdas Pophale) SiO2 
 PCOD8115699
Probable space group: C 2/M
;
_chemical_formula_sum "Si O2"
_cell_formula_units_Z 48
_cell_length_a 23.893146
_cell_length_b 17.081922
_cell_length_c 18.707244
_cell_angle_alpha 90.000000
_cell_angle_beta 19.575096
_cell_angle_gamma 90.000000
_cell_volume 2558.110031
_symmetry_space_group_name_H-M "C 2/M"
_symmetry_group_IT_number 12
_symmetry_cell_setting 'monoclinic'
loop_
_space_group_symop_operation_xyz
x,y,z
-x,y,-z
-x,-y,-z
x,-y,z
1/2+x,1/2+y,z
1/2-x,1/2+y,-z
1/2-x,1/2-y,-z
1/2+x,1/2-y,z
loop_
_atom_site_type_symbol
_atom_site_label
_atom_site_fract_x
_atom_site_fract_y
_atom_site_fract_z
Si Si1 0.186532 0.409936 0.302602
Si Si2 0.237641 0.000000 0.344395
Si Si3 0.039570 0.819891 0.113007
Si Si4 0.489839 0.148438 0.199772
Si Si5 0.350486 0.349105 0.477167
Si Si6 0.915584 0.500000 0.988003
Si Si7 0.300116 0.822723 0.564900
O O1 0.242447 0.500000 0.240463
O O2 0.202563 0.372079 0.360540
O O3 0.000000 0.401278 0.500000
O O4 0.303648 0.366312 0.105396
O O5 0.131637 0.922372 0.490904
O O6 0.408872 0.000000 0.182371
O O7 0.267575 0.000000 0.223672
O O8 0.087688 0.728413 0.063857
O O9 0.999124 0.853316 0.240503
O O10 0.882946 0.829332 0.248893
O O11 0.320806 0.147395 0.359069
O O12 0.440536 0.142332 0.342559
O O13 0.604314 0.075639 0.038803
O O14 0.349564 0.267543 0.522107
#
# Coordination Sequence:
#
# PCOD8115699 Si02
#       7
#     8   4   8   8   8   4   8
#     4  11  25  39  51  74 107 140 180 223 265 313
#     4   9  16  24  42  75 114 141 155 194 264 318
#     4   9  18  34  56  79 104 135 175 219 260 306
#     4   8  16  30  49  80 112 135 166 212 261 311
#     4   8  16  30  49  80 112 135 166 212 261 311
#     4   9  16  24  42  75 114 141 155 194 264 318
#     4   9  18  34  56  79 104 135 175 219 260 306
#
# _framework density 18.763853999999998
#
# number of rings (size 3 to 8) (size 9 to 14) (size 15 to 20)
#    0.000    3.000    0.000    2.500    4.667    1.333 
#    0.000    3.333    0.000    0.000    0.000    1.167 
#    0.000    0.000    0.000    0.000    0.000    0.000 
#
# Total GULP energy -297511.565604 kJ/mol
# GULP energy per Si atom -12396.315234 kJ/mol
# Density = 1.872115 g / cm^3
# Si number density = 18.763854 Si / 1000 Ang^3
#
#
#
# Elastic Constant Matrix: (Units=GPa)
#
#
# Indices 1 2 3 4 5 6 
#
# 1 21.5851 39.3951 43.0488 0.0070 16.6476 -0.0114
# 2 39.3951 175.6713 93.8432 0.0016 37.0749 -0.0078
# 3 43.0488 93.8432 109.8551 -0.0023 37.9551 0.0020
# 4 0.0070 0.0016 -0.0023 31.2592 -0.0008 11.7682
# 5 16.6476 37.0749 37.9551 -0.0008 27.5688 -0.0005
# 6 -0.0114 -0.0078 0.0020 11.7682 -0.0005 22.0708
#
#
#
# Elastic Compliance Matrix: (Units=1/GPa)
#
#
# Indices 1 2 3 4 5 6 
#
# 1 0.224560 -0.004897 -0.074837 -0.000127 -0.025986 0.000188
# 2 -0.004897 0.010744 -0.006272 -0.000001 -0.002857 0.000002
# 3 -0.074837 -0.006272 0.048174 0.000047 -0.012698 -0.000071
# 4 -0.000127 -0.000001 0.000047 0.040025 0.000014 -0.021342
# 5 -0.025986 -0.002857 -0.012698 0.000014 0.073288 -0.000019
# 6 0.000188 0.000002 -0.000071 -0.021342 -0.000019 0.056688
#
#
# Mechanical properties :
#
#
# Convention : Reuss Voigt Hill
#
# Bulk Modulus (GPa) = 8.97129 73.29839 41.13484
# Shear Modulus (GPa) = 7.54551 24.90138 16.22344
#
# Velocity S-wave (km/s) = 2.00749 3.64688 2.94362
# Velocity P-wave (km/s) = 3.18825 7.54198 5.78992
#
# Compressibility (1/GPa) = 0.11146667
#
# Stress axis : x y z
#
# Youngs Moduli (GPa) = 4.45316 93.07488 20.75802
#
# Poissons Ratio (x) = 0.45575 1.55347
# Poissons Ratio (y) = 0.02181 0.13020
# Poissons Ratio (z) = 0.33326 0.58379
#
# Static dielectric constant tensor:
#      x y z
#    x 3.122750 0.000010 0.385810 
#    y 0.000010 3.953940 0.000010 
#    z 0.385810 0.000010 3.356970 
# 
# 
# High freq. dielectric constant tensor:
#      x y z
#    x 1.692220 0.000000 0.035790 
#    y 0.000000 1.743400 0.000000 
#    z 0.035790 0.000000 1.713790 
# 
# From -- ./inp_files/271638.got.cif
#   From: 2010.06.25/outbox.cif.g09.slc.cpg/sg12_136_cif.got.tgz:271638.got - 2010.06.28 00:19:55.
