data_PCOD8115795
_publ_section_title
;
Structure prediction by ZEFSAII (Michael W. Deem and Ramdas Pophale) SiO2 
 PCOD8115795
Probable space group: C 2/M
;
_chemical_formula_sum "Si O2"
_cell_formula_units_Z 32
_cell_length_a 7.391255
_cell_length_b 21.120214
_cell_length_c 13.906406
_cell_angle_alpha 90.000000
_cell_angle_beta 38.739649
_cell_angle_gamma 90.000000
_cell_volume 1358.485059
_symmetry_space_group_name_H-M "C 2/M"
_symmetry_group_IT_number 12
_symmetry_cell_setting 'monoclinic'
loop_
_space_group_symop_operation_xyz
x,y,z
-x,y,-z
-x,-y,-z
x,-y,z
1/2+x,1/2+y,z
1/2-x,1/2+y,-z
1/2-x,1/2-y,-z
1/2+x,1/2-y,z
loop_
_atom_site_type_symbol
_atom_site_label
_atom_site_fract_x
_atom_site_fract_y
_atom_site_fract_z
Si Si1 0.995976 0.162462 0.271898
Si Si2 0.731632 0.429729 0.483356
Si Si3 0.183554 0.892750 0.840413
Si Si4 0.473902 0.784627 0.837345
O O1 0.304588 0.171864 0.195143
O O2 0.775572 0.123873 0.431548
O O3 0.032290 0.121242 0.159283
O O4 0.866341 0.231073 0.294821
O O5 0.500000 0.409499 0.500000
O O6 0.659331 0.500000 0.554655
O O7 0.047592 0.434356 0.305549
O O8 0.296315 0.826586 0.836357
O O9 0.000000 0.928590 0.000000
O O10 0.250000 0.750000 0.000000
#
# Coordination Sequence:
#
# PCOD8115795 Si02
#       4
#     8   8   8   8
#     4  12  24  43  74 106 146 192 229 294 365 423
#     4  11  27  52  74 101 144 192 251 305 351 426
#     4  12  25  43  73 109 143 191 235 296 360 430
#     4  12  23  41  69 111 154 181 231 291 362 435
#
# _framework density 23.55565
#
# number of rings (size 3 to 8) (size 9 to 14) (size 15 to 20)
#    0.000    0.250    7.500    1.500    0.000    3.500 
#    4.500    0.000    0.000    6.000    0.000    0.000 
#    0.000    0.000    0.000    0.000    0.000    0.000 
#
# Total GULP energy -198332.042164 kJ/mol
# GULP energy per Si atom -12395.752635 kJ/mol
# Density = 2.350204 g / cm^3
# Si number density = 23.555650 Si / 1000 Ang^3
#
#
#
# Elastic Constant Matrix: (Units=GPa)
#
#
# Indices 1 2 3 4 5 6 
#
# 1 151.7582 38.1824 58.1135 0.0000 5.8549 0.0000
# 2 38.1824 90.3097 40.1914 0.0000 13.0111 0.0000
# 3 58.1135 40.1914 132.3908 0.0000 6.9971 0.0000
# 4 0.0000 0.0000 0.0000 26.9745 0.0000 -0.1529
# 5 5.8549 13.0111 6.9971 0.0000 35.1858 0.0000
# 6 0.0000 0.0000 0.0000 -0.1529 0.0000 4.2454
#
#
#
# Elastic Compliance Matrix: (Units=1/GPa)
#
#
# Indices 1 2 3 4 5 6 
#
# 1 0.008275 -0.002179 -0.002972 0.000000 0.000020 0.000000
# 2 -0.002179 0.013960 -0.003060 0.000000 -0.004191 0.000000
# 3 -0.002972 -0.003060 0.009804 0.000000 -0.000324 0.000000
# 4 0.000000 0.000000 0.000000 0.037080 0.000000 0.001336
# 5 0.000020 -0.004191 -0.000324 0.000000 0.030031 0.000000
# 6 0.000000 0.000000 0.000000 0.001336 0.000000 0.235598
#
#
# Mechanical properties :
#
#
# Convention : Reuss Voigt Hill
#
# Bulk Modulus (GPa) = 64.03186 71.93706 67.98446
# Shear Modulus (GPa) = 14.03018 29.14591 21.58805
#
# Velocity S-wave (km/s) = 2.44318 3.52137 3.03061
# Velocity P-wave (km/s) = 5.93305 6.86578 6.41638
#
# Compressibility (1/GPa) = 0.01561722
#
# Stress axis : x y z
#
# Youngs Moduli (GPa) = 120.84737 71.63398 101.99919
#
# Poissons Ratio (x) = 0.15608 0.30313
# Poissons Ratio (y) = 0.26330 0.31212
# Poissons Ratio (z) = 0.35915 0.21920
#
# Static dielectric constant tensor:
#      x y z
#    x 4.517120 0.000000 0.256660 
#    y 0.000000 4.176870 0.000000 
#    z 0.256660 0.000000 4.306000 
# 
# 
# High freq. dielectric constant tensor:
#      x y z
#    x 1.956850 0.000000 0.012100 
#    y 0.000000 1.915910 0.000000 
#    z 0.012100 0.000000 1.917010 
# 
# From -- ./inp_files/38339.got.cif
#   From: 2010.06.25/outbox.cif.g09.slc.cpg/sg12_20_cif.got.tgz:38339.got - 2010.06.28 00:19:55.
