data_PCOD8115660
_publ_section_title
;
Structure prediction by ZEFSAII (Michael W. Deem and Ramdas Pophale) SiO2 
 PCOD8115660
Probable space group: C 2/M
;
_chemical_formula_sum "Si O2"
_cell_formula_units_Z 40
_cell_length_a 9.811823
_cell_length_b 23.719693
_cell_length_c 8.439459
_cell_angle_alpha 90.000000
_cell_angle_beta 62.922057
_cell_angle_gamma 90.000000
_cell_volume 1748.850670
_symmetry_space_group_name_H-M "C 2/M"
_symmetry_group_IT_number 12
_symmetry_cell_setting 'monoclinic'
loop_
_space_group_symop_operation_xyz
x,y,z
-x,y,-z
-x,-y,-z
x,-y,z
1/2+x,1/2+y,z
1/2-x,1/2+y,-z
1/2-x,1/2-y,-z
1/2+x,1/2-y,z
loop_
_atom_site_type_symbol
_atom_site_label
_atom_site_fract_x
_atom_site_fract_y
_atom_site_fract_z
Si Si1 0.675805 0.500000 0.196519
Si Si2 0.674733 0.500000 0.540966
Si Si3 0.179730 0.783678 0.176471
Si Si4 0.338667 0.898298 0.598206
Si Si5 0.843403 0.106159 0.998824
Si Si6 0.120717 0.711838 0.633211
O O1 0.759790 0.500000 0.323632
O O2 0.506017 0.500000 0.353649
O O3 0.720643 0.554249 0.069674
O O4 0.712587 0.442180 0.609989
O O5 0.323555 0.797050 0.215500
O O6 0.039400 0.744921 0.313798
O O7 0.250000 0.750000 0.000000
O O8 0.116931 0.842685 0.140833
O O9 0.500000 0.931485 0.500000
O O10 0.286473 0.877220 0.801630
O O11 0.371611 0.846563 0.462998
O O12 0.000000 0.087572 0.000000
O O13 0.250000 0.750000 0.500000
#
# Coordination Sequence:
#
# PCOD8115660 Si02
#       6
#     4   4   8   8   8   8
#     4  11  24  44  72 102 132 172 231 290 324 405
#     4  11  24  45  70 101 134 175 226 276 350 400
#     4  12  25  43  68  98 136 181 229 281 336 401
#     4  12  25  44  68 100 140 179 220 281 344 410
#     4  12  23  43  70 101 134 177 233 280 334 398
#     4  12  25  43  65  97 136 178 227 276 341 401
#
# _framework density 22.872167000000001
#
# number of rings (size 3 to 8) (size 9 to 14) (size 15 to 20)
#    0.000    0.200    2.000    9.600    0.000    0.000 
#    0.000    4.000    0.000    0.000    0.000    0.000 
#    0.000    0.000    0.000    0.000    0.000    0.000 
#
# Total GULP energy -247829.206115 kJ/mol
# GULP energy per Si atom -12391.460306 kJ/mol
# Density = 2.282011 g / cm^3
# Si number density = 22.872167 Si / 1000 Ang^3
#
#
#
# Elastic Constant Matrix: (Units=GPa)
#
#
# Indices 1 2 3 4 5 6 
#
# 1 61.7982 7.6943 18.7321 0.0000 2.5077 0.0000
# 2 7.6943 149.6038 43.1488 0.0000 10.1835 0.0000
# 3 18.7321 43.1488 122.2707 0.0000 2.8210 0.0000
# 4 0.0000 0.0000 0.0000 47.7433 0.0000 3.1059
# 5 2.5077 10.1835 2.8210 0.0000 47.8466 0.0000
# 6 0.0000 0.0000 0.0000 3.1059 0.0000 31.7186
#
#
#
# Elastic Compliance Matrix: (Units=1/GPa)
#
#
# Indices 1 2 3 4 5 6 
#
# 1 0.016997 -0.000088 -0.002556 0.000000 -0.000721 0.000000
# 2 -0.000088 0.007541 -0.002614 0.000000 -0.001446 0.000000
# 3 -0.002556 -0.002614 0.009490 0.000000 0.000131 0.000000
# 4 0.000000 0.000000 0.000000 0.021080 0.000000 -0.002064
# 5 -0.000721 -0.001446 0.000131 0.000000 0.021238 0.000000
# 6 0.000000 0.000000 0.000000 -0.002064 0.000000 0.031729
#
#
# Mechanical properties :
#
#
# Convention : Reuss Voigt Hill
#
# Bulk Modulus (GPa) = 42.53366 52.53590 47.53478
# Shear Modulus (GPa) = 39.54787 43.06820 41.30803
#
# Velocity S-wave (km/s) = 4.16274 4.34406 4.25436
# Velocity P-wave (km/s) = 6.46074 6.94121 6.70528
#
# Compressibility (1/GPa) = 0.02351079
#
# Stress axis : x y z
#
# Youngs Moduli (GPa) = 58.83474 132.60204 105.37591
#
# Poissons Ratio (x) = 0.01164 0.26937
# Poissons Ratio (y) = 0.00516 0.27551
# Poissons Ratio (z) = 0.15040 0.34669
#
# Static dielectric constant tensor:
#      x y z
#    x 2.333950 0.000000 -0.354930 
#    y 0.000000 3.547410 0.000000 
#    z -0.354930 0.000000 4.428100 
# 
# 
# High freq. dielectric constant tensor:
#      x y z
#    x 1.901790 0.000000 0.007060 
#    y 0.000000 1.910870 0.000000 
#    z 0.007060 0.000000 1.923020 
# 
# From -- ./inp_files/50458.got.cif
#   From: 2010.06.25/outbox.cif.g09.slc.cpg/sg12_26_cif.got.tgz:50458.got - 2010.06.28 00:19:55.
