data_PCOD8115737
_publ_section_title
;
Structure prediction by ZEFSAII (Michael W. Deem and Ramdas Pophale) SiO2 
 PCOD8115737
Probable space group: C 2/M
;
_chemical_formula_sum "Si O2"
_cell_formula_units_Z 32
_cell_length_a 8.877560
_cell_length_b 12.213071
_cell_length_c 12.456572
_cell_angle_alpha 90.000000
_cell_angle_beta 110.933017
_cell_angle_gamma 90.000000
_cell_volume 1261.430520
_symmetry_space_group_name_H-M "C 2/M"
_symmetry_group_IT_number 12
_symmetry_cell_setting 'monoclinic'
loop_
_space_group_symop_operation_xyz
x,y,z
-x,y,-z
-x,-y,-z
x,-y,z
1/2+x,1/2+y,z
1/2-x,1/2+y,-z
1/2-x,1/2-y,-z
1/2+x,1/2-y,z
loop_
_atom_site_type_symbol
_atom_site_label
_atom_site_fract_x
_atom_site_fract_y
_atom_site_fract_z
Si Si1 0.469783 0.625422 0.153505
Si Si2 0.260486 0.869578 0.081777
Si Si3 0.904563 0.183567 0.375005
Si Si4 0.466321 0.872195 0.698947
O O1 0.458028 0.500000 0.115913
O O2 0.636758 0.667450 0.144211
O O3 0.471113 0.632191 0.282003
O O4 0.308188 0.676190 0.051569
O O5 0.439006 0.826233 0.168529
O O6 0.284458 0.000000 0.082019
O O7 0.717507 0.161680 0.340675
O O8 0.000000 0.130825 0.500000
O O9 0.948806 0.313044 0.380918
O O10 0.488701 0.000000 0.688554
#
# Coordination Sequence:
#
# PCOD8115737 Si02
#       4
#     8   8   8   8
#     4   9  18  37  67 100 137 175 218 278 333 392
#     4   8  17  37  66 100 132 170 221 274 338 397
#     4  12  26  44  66  98 136 178 228 269 324 405
#     4  11  25  45  69  98 134 175 222 279 334 389
#
# _framework density 25.368023999999998
#
# number of rings (size 3 to 8) (size 9 to 14) (size 15 to 20)
#    0.000    2.000    0.000    4.500    0.000    4.500 
#    0.000    7.500    0.000    0.000    0.000    0.000 
#    0.000    0.000    0.000    0.000    0.000    0.000 
#
# Total GULP energy -198281.283649 kJ/mol
# GULP energy per Si atom -12392.580228 kJ/mol
# Density = 2.531029 g / cm^3
# Si number density = 25.368024 Si / 1000 Ang^3
#
#
#
# Elastic Constant Matrix: (Units=GPa)
#
#
# Indices 1 2 3 4 5 6 
#
# 1 115.7590 15.3718 91.8662 0.0000 48.1576 0.0000
# 2 15.3718 32.9447 25.4515 0.0000 14.7431 0.0000
# 3 91.8662 25.4515 221.8872 0.0000 28.6662 0.0000
# 4 0.0000 0.0000 0.0000 23.5166 0.0000 -0.0217
# 5 48.1576 14.7431 28.6662 0.0000 43.9950 0.0000
# 6 0.0000 0.0000 0.0000 -0.0217 0.0000 12.3102
#
#
#
# Elastic Compliance Matrix: (Units=1/GPa)
#
#
# Indices 1 2 3 4 5 6 
#
# 1 0.022770 0.004664 -0.007141 0.000000 -0.021834 0.000000
# 2 0.004664 0.038312 -0.004376 0.000000 -0.015093 0.000000
# 3 -0.007141 -0.004376 0.007388 0.000000 0.004470 0.000000
# 4 0.000000 0.000000 0.000000 0.042523 0.000000 0.000075
# 5 -0.021834 -0.015093 0.004470 0.000000 0.048775 0.000000
# 6 0.000000 0.000000 0.000000 0.000075 0.000000 0.081233
#
#
# Mechanical properties :
#
#
# Convention : Reuss Voigt Hill
#
# Bulk Modulus (GPa) = 18.26026 70.66334 44.46180
# Shear Modulus (GPa) = 18.31744 31.82445 25.07095
#
# Velocity S-wave (km/s) = 2.69005 3.54575 3.14712
# Velocity P-wave (km/s) = 4.10637 6.68423 5.54712
#
# Compressibility (1/GPa) = 0.05476373
#
# Stress axis : x y z
#
# Youngs Moduli (GPa) = 43.91705 26.10126 135.35476
#
# Poissons Ratio (x) = -0.12173 0.96664
# Poissons Ratio (y) = -0.20482 0.59226
# Poissons Ratio (z) = 0.31363 0.11421
#
# Static dielectric constant tensor:
#      x y z
#    x 4.403840 0.000000 0.407700 
#    y 0.000000 5.202430 0.000000 
#    z 0.407700 0.000000 4.890860 
# 
# 
# High freq. dielectric constant tensor:
#      x y z
#    x 1.999930 0.000000 0.029270 
#    y 0.000000 2.052450 0.000000 
#    z 0.029270 0.000000 2.025480 
# 
# From -- ./inp_files/117656.got.cif
#   From: 2010.06.25/outbox.cif.g09.slc.cpg/sg12_59_cif.got.tgz:117656.got - 2010.06.28 00:19:55.
