data_PCOD8115367
_publ_section_title
;
Structure prediction by ZEFSAII (Michael W. Deem and Ramdas Pophale) SiO2 
 PCOD8115367
Probable space group: C 2/M
;
_chemical_formula_sum "Si O2"
_cell_formula_units_Z 56
_cell_length_a 14.786163
_cell_length_b 8.585613
_cell_length_c 24.277193
_cell_angle_alpha 90.000000
_cell_angle_beta 117.564649
_cell_angle_gamma 90.000000
_cell_volume 2732.113564
_symmetry_space_group_name_H-M "C 2/M"
_symmetry_group_IT_number 12
_symmetry_cell_setting 'monoclinic'
loop_
_space_group_symop_operation_xyz
x,y,z
-x,y,-z
-x,-y,-z
x,-y,z
1/2+x,1/2+y,z
1/2-x,1/2+y,-z
1/2-x,1/2-y,-z
1/2+x,1/2-y,z
loop_
_atom_site_type_symbol
_atom_site_label
_atom_site_fract_x
_atom_site_fract_y
_atom_site_fract_z
Si Si1 0.211411 0.683169 0.118598
Si Si2 0.351598 0.319661 0.004449
Si Si3 0.530122 0.318473 0.570720
Si Si4 0.356887 0.182557 0.780925
Si Si5 0.745536 0.180613 0.647392
Si Si6 0.333419 0.182753 0.564611
Si Si7 0.566701 0.681644 0.859507
O O1 0.205975 0.500000 0.114410
O O2 0.128855 0.745117 0.050194
O O3 0.180409 0.743371 0.170019
O O4 0.326216 0.740019 0.136386
O O5 0.336028 0.500000 0.990292
O O6 0.250000 0.250000 0.000000
O O7 0.437538 0.288709 0.075260
O O8 0.500000 0.277513 0.500000
O O9 0.556185 0.500000 0.584825
O O10 0.625971 0.216315 0.615413
O O11 0.438962 0.271865 0.585323
O O12 0.292384 0.280231 0.719437
O O13 0.476587 0.218823 0.806783
O O14 0.336797 0.000000 0.766972
O O15 0.799494 0.288315 0.617337
O O16 0.762738 0.000000 0.637973
O O17 0.250000 0.250000 0.500000
O O18 0.346491 0.000000 0.557417
O O19 0.550330 0.500000 0.841554
#
# Coordination Sequence:
#
# PCOD8115367 Si02
#       7
#     8   8   8   8   8   8   8
#     4   9  20  38  59  83 117 158 199 248 305 363
#     4   9  17  31  55  85 117 152 195 249 303 359
#     4  11  23  41  68  98 129 163 199 247 304 362
#     4  11  24  41  60  85 119 160 206 255 304 364
#     4  12  26  44  65  91 127 167 209 257 306 366
#     4  12  24  41  67  98 129 162 202 249 304 362
#     4   9  19  37  58  83 117 157 200 248 306 366
#
# _framework density 20.496950999999999
#
# number of rings (size 3 to 8) (size 9 to 14) (size 15 to 20)
#    0.000    1.571    1.429    4.714    0.000    6.286 
#    0.000    7.143    0.000    0.000    0.000    0.000 
#    0.000    0.000    0.000    0.000    0.000    0.000 
#
# Total GULP energy -347237.686714 kJ/mol
# GULP energy per Si atom -12401.345954 kJ/mol
# Density = 2.045030 g / cm^3
# Si number density = 20.496951 Si / 1000 Ang^3
#
#
#
# Elastic Constant Matrix: (Units=GPa)
#
#
# Indices 1 2 3 4 5 6 
#
# 1 77.8505 4.3611 22.2981 0.0000 0.9274 0.0000
# 2 4.3611 59.9179 28.0977 0.0000 4.7256 0.0000
# 3 22.2981 28.0977 100.3371 0.0000 1.9485 0.0000
# 4 0.0000 0.0000 0.0000 36.2488 0.0000 2.0210
# 5 0.9274 4.7256 1.9485 0.0000 32.6139 0.0000
# 6 0.0000 0.0000 0.0000 2.0210 0.0000 29.7146
#
#
#
# Elastic Compliance Matrix: (Units=1/GPa)
#
#
# Indices 1 2 3 4 5 6 
#
# 1 0.013734 0.000519 -0.003192 0.000000 -0.000275 0.000000
# 2 0.000519 0.019432 -0.005508 0.000000 -0.002501 0.000000
# 3 -0.003192 -0.005508 0.012215 0.000000 0.000159 0.000000
# 4 0.000000 0.000000 0.000000 0.027692 0.000000 -0.001883
# 5 -0.000275 -0.002501 0.000159 0.000000 0.031023 0.000000
# 6 0.000000 0.000000 0.000000 -0.001883 0.000000 0.033782
#
#
# Mechanical properties :
#
#
# Convention : Reuss Voigt Hill
#
# Bulk Modulus (GPa) = 34.46138 38.62437 36.54288
# Shear Modulus (GPa) = 30.50402 31.93868 31.22135
#
# Velocity S-wave (km/s) = 3.86193 3.95171 3.90708
# Velocity P-wave (km/s) = 6.06098 6.30128 6.18230
#
# Compressibility (1/GPa) = 0.02901799
#
# Stress axis : x y z
#
# Youngs Moduli (GPa) = 72.81412 51.46130 81.86511
#
# Poissons Ratio (x) = -0.02671 0.26132
# Poissons Ratio (y) = -0.03779 0.45094
# Poissons Ratio (z) = 0.23243 0.28347
#
# Static dielectric constant tensor:
#      x y z
#    x 3.762130 0.000000 -0.138190 
#    y 0.000000 3.863890 0.000000 
#    z -0.138190 0.000000 3.992810 
# 
# 
# High freq. dielectric constant tensor:
#      x y z
#    x 1.800210 0.000000 -0.001210 
#    y 0.000000 1.804410 0.000000 
#    z -0.001210 0.000000 1.804000 
# 
# From -- ./inp_files/339077.got.cif
#   From: 2010.06.25/outbox.cif.g09.slc.cpg/sg12_170_cif.got.tgz:339077.got - 2010.06.28 00:19:55.
