data_PCOD8115371
_publ_section_title
;
Structure prediction by ZEFSAII (Michael W. Deem and Ramdas Pophale) SiO2 
 PCOD8115371
Probable space group: C 2/M
;
_chemical_formula_sum "Si O2"
_cell_formula_units_Z 56
_cell_length_a 8.649746
_cell_length_b 19.065546
_cell_length_c 17.066901
_cell_angle_alpha 90.000000
_cell_angle_beta 112.756059
_cell_angle_gamma 90.000000
_cell_volume 2595.455488
_symmetry_space_group_name_H-M "C 2/M"
_symmetry_group_IT_number 12
_symmetry_cell_setting 'monoclinic'
loop_
_space_group_symop_operation_xyz
x,y,z
-x,y,-z
-x,-y,-z
x,-y,z
1/2+x,1/2+y,z
1/2-x,1/2+y,-z
1/2-x,1/2-y,-z
1/2+x,1/2-y,z
loop_
_atom_site_type_symbol
_atom_site_label
_atom_site_fract_x
_atom_site_fract_y
_atom_site_fract_z
Si Si1 0.019293 0.328719 0.833451
Si Si2 0.928683 0.766871 0.563403
Si Si3 0.703058 0.000000 0.431577
Si Si4 0.409885 0.373103 0.697832
Si Si5 0.534861 0.870674 0.658516
Si Si6 0.969753 0.000000 0.608704
Si Si7 0.321502 0.320275 0.136550
Si Si8 0.169518 0.578354 0.985665
O O1 0.988687 0.344927 0.736476
O O2 0.837270 0.320196 0.836802
O O3 0.129503 0.259669 0.872451
O O4 0.123479 0.393443 0.890288
O O5 0.750000 0.750000 0.500000
O O6 0.920467 0.807316 0.642586
O O7 0.026593 0.694504 0.597613
O O8 0.000000 0.807767 0.500000
O O9 0.592076 0.068600 0.393630
O O10 0.779832 0.000000 0.534799
O O11 0.874534 0.000000 0.418191
O O12 0.497921 0.434393 0.668929
O O13 0.517471 0.357071 0.794968
O O14 0.226008 0.396260 0.690681
O O15 0.289028 0.364923 0.051368
O O16 0.251173 0.500000 0.995284
O O17 0.000000 0.572093 0.000000
#
# Coordination Sequence:
#
# PCOD8115371 Si02
#       8
#     8   8   4   8   8   4   8   8
#     4  11  23  41  69  99 136 174 223 274 338 399
#     4  12  26  42  68  95 130 176 229 276 328 390
#     4  11  27  45  69  92 134 178 232 275 339 401
#     4  12  26  44  68  98 137 175 226 278 338 399
#     4  12  26  45  66 100 136 180 219 280 340 399
#     4  11  27  45  67  96 129 181 229 280 332 404
#     4  11  23  41  69 100 134 175 223 277 332 402
#     4   9  21  42  69  99 131 174 223 274 334 402
#
# _framework density 21.576173000000001
#
# number of rings (size 3 to 8) (size 9 to 14) (size 15 to 20)
#    0.000    0.857    2.857    3.429    8.000    0.571 
#    0.000    2.143    0.000    3.429    0.000    0.000 
#    0.000    0.000    0.000    0.000    0.000    0.000 
#
# Total GULP energy -347083.169346 kJ/mol
# GULP energy per Si atom -12395.827477 kJ/mol
# Density = 2.152706 g / cm^3
# Si number density = 21.576173 Si / 1000 Ang^3
#
#
#
# Elastic Constant Matrix: (Units=GPa)
#
#
# Indices 1 2 3 4 5 6 
#
# 1 98.6741 13.8492 18.1335 0.0000 8.5612 0.0000
# 2 13.8492 124.7779 29.9537 0.0000 6.7503 0.0000
# 3 18.1335 29.9537 92.5129 0.0000 7.9183 0.0000
# 4 0.0000 0.0000 0.0000 35.6126 0.0000 6.8538
# 5 8.5612 6.7503 7.9183 0.0000 26.8048 0.0000
# 6 0.0000 0.0000 0.0000 6.8538 0.0000 31.0831
#
#
#
# Elastic Compliance Matrix: (Units=1/GPa)
#
#
# Indices 1 2 3 4 5 6 
#
# 1 0.010773 -0.000645 -0.001664 0.000000 -0.002787 0.000000
# 2 -0.000645 0.008779 -0.002610 0.000000 -0.001234 0.000000
# 3 -0.001664 -0.002610 0.012187 0.000000 -0.002411 0.000000
# 4 0.000000 0.000000 0.000000 0.029324 0.000000 -0.006466
# 5 -0.002787 -0.001234 -0.002411 0.000000 0.039220 0.000000
# 6 0.000000 0.000000 0.000000 -0.006466 0.000000 0.033598
#
#
# Mechanical properties :
#
#
# Convention : Reuss Voigt Hill
#
# Bulk Modulus (GPa) = 45.66416 48.87085 47.26751
# Shear Modulus (GPa) = 33.10820 35.63534 34.37177
#
# Velocity S-wave (km/s) = 3.92149 4.06840 3.99562
# Velocity P-wave (km/s) = 6.45866 6.69095 6.57583
#
# Compressibility (1/GPa) = 0.02189901
#
# Stress axis : x y z
#
# Youngs Moduli (GPa) = 92.82870 113.90469 82.05416
#
# Poissons Ratio (x) = 0.07352 0.13654
# Poissons Ratio (y) = 0.05992 0.21420
# Poissons Ratio (z) = 0.15447 0.29734
#
# Static dielectric constant tensor:
#      x y z
#    x 3.986590 0.000000 0.094210 
#    y 0.000000 3.790400 0.000000 
#    z 0.094210 0.000000 3.957630 
# 
# 
# High freq. dielectric constant tensor:
#      x y z
#    x 1.848460 0.000000 0.005270 
#    y 0.000000 1.853410 0.000000 
#    z 0.005270 0.000000 1.858330 
# 
# From -- ./inp_files/257225.got.cif
#   From: 2010.06.25/outbox.cif.g09.slc.cpg/sg12_129_cif.got.tgz:257225.got - 2010.06.28 00:19:55.
