data_PCOD8115817
_publ_section_title
;
Structure prediction by ZEFSAII (Michael W. Deem and Ramdas Pophale) SiO2 
 PCOD8115817
Probable space group: C 2/M
;
_chemical_formula_sum "Si O2"
_cell_formula_units_Z 44
_cell_length_a 22.811683
_cell_length_b 15.097755
_cell_length_c 17.596849
_cell_angle_alpha 90.000000
_cell_angle_beta 20.126670
_cell_angle_gamma 90.000000
_cell_volume 2085.380102
_symmetry_space_group_name_H-M "C 2/M"
_symmetry_group_IT_number 12
_symmetry_cell_setting 'monoclinic'
loop_
_space_group_symop_operation_xyz
x,y,z
-x,y,-z
-x,-y,-z
x,-y,z
1/2+x,1/2+y,z
1/2-x,1/2+y,-z
1/2-x,1/2-y,-z
1/2+x,1/2-y,z
loop_
_atom_site_type_symbol
_atom_site_label
_atom_site_fract_x
_atom_site_fract_y
_atom_site_fract_z
Si Si1 0.348924 0.707461 0.576956
Si Si2 0.350065 0.595708 0.023051
Si Si3 0.672656 0.654338 0.111798
Si Si4 0.112962 0.253123 0.733444
Si Si5 0.657306 0.102194 0.940516
Si Si6 0.000000 0.658477 0.500000
O O1 0.468589 0.653373 0.373832
O O2 0.198114 0.753824 0.712816
O O3 0.278376 0.646124 0.730102
O O4 0.477199 0.780887 0.453573
O O5 0.431526 0.500000 0.944846
O O6 0.171089 0.601730 0.284897
O O7 0.303170 0.594716 0.991466
O O8 0.475347 0.674822 0.894108
O O9 0.761384 0.609118 0.075535
O O10 0.750000 0.750000 0.000000
O O11 0.250000 0.250000 0.500000
O O12 0.023054 0.348394 0.838300
O O13 0.626758 0.000000 0.956227
#
# Coordination Sequence:
#
# PCOD8115817 Si02
#       6
#     8   8   8   8   8   4
#     4  12  22  42  73  96 137 183 222 276 349 411
#     4  12  26  45  70 102 136 181 235 284 336 402
#     4  12  20  44  72  97 136 181 225 281 338 402
#     4  12  25  45  69  95 142 183 223 278 348 410
#     4  12  26  43  69 105 138 176 228 284 345 413
#     4  12  23  46  73  96 134 184 231 288 335 398
#
# _framework density 21.099271000000002
#
# number of rings (size 3 to 8) (size 9 to 14) (size 15 to 20)
#    0.000    0.000    9.091    1.364    0.000    4.364 
#    0.000    2.727    0.000    0.000    0.000    0.000 
#    0.000    0.000    0.000    0.000    0.000    0.000 
#
# Total GULP energy -272815.343807 kJ/mol
# GULP energy per Si atom -12400.697446 kJ/mol
# Density = 2.105125 g / cm^3
# Si number density = 21.099271 Si / 1000 Ang^3
#
#
#
# Elastic Constant Matrix: (Units=GPa)
#
#
# Indices 1 2 3 4 5 6 
#
# 1 113.7303 27.0643 12.3197 0.0116 -14.8690 -0.0090
# 2 27.0643 129.8609 29.8317 0.0086 -6.0339 -0.0095
# 3 12.3197 29.8317 120.9080 0.0052 1.6842 -0.0065
# 4 0.0116 0.0086 0.0052 17.1223 -0.0035 0.9771
# 5 -14.8690 -6.0339 1.6842 -0.0035 37.1503 0.0052
# 6 -0.0090 -0.0095 -0.0065 0.9771 0.0052 15.0380
#
#
#
# Elastic Compliance Matrix: (Units=1/GPa)
#
#
# Indices 1 2 3 4 5 6 
#
# 1 0.009746 -0.001719 -0.000620 -0.000005 0.003650 0.000004
# 2 -0.001719 0.008542 -0.001943 -0.000003 0.000787 0.000003
# 3 -0.000620 -0.001943 0.008827 -0.000002 -0.000964 0.000003
# 4 -0.000005 -0.000003 -0.000002 0.058621 0.000004 -0.003809
# 5 0.003650 0.000787 -0.000964 0.000004 0.028550 -0.000008
# 6 0.000004 0.000003 0.000003 -0.003809 -0.000008 0.066746
#
#
# Mechanical properties :
#
#
# Convention : Reuss Voigt Hill
#
# Bulk Modulus (GPa) = 53.90773 55.88119 54.89446
# Shear Modulus (GPa) = 25.53896 33.54768 29.54332
#
# Velocity S-wave (km/s) = 3.48288 3.99180 3.74599
# Velocity P-wave (km/s) = 6.46367 6.91291 6.69206
#
# Compressibility (1/GPa) = 0.01855022
#
# Stress axis : x y z
#
# Youngs Moduli (GPa) = 102.60468 117.07043 113.29133
#
# Poissons Ratio (x) = 0.20127 0.07021
# Poissons Ratio (y) = 0.17640 0.22016
# Poissons Ratio (z) = 0.06359 0.22751
#
# Static dielectric constant tensor:
#      x y z
#    x 4.084960 0.000000 0.085650 
#    y 0.000000 3.746220 0.000000 
#    z 0.085650 0.000000 3.958260 
# 
# 
# High freq. dielectric constant tensor:
#      x y z
#    x 1.836450 0.000000 0.008840 
#    y 0.000000 1.812340 0.000000 
#    z 0.008840 0.000000 1.844560 
# 
# From -- ./inp_files/290008.got.cif
#   From: 2010.06.25/outbox.cif.g09.slc.cpg/sg12_146_cif.got.tgz:290008.got - 2010.06.28 00:19:55.
