data_PCOD8115899
_publ_section_title
;
Structure prediction by ZEFSAII (Michael W. Deem and Ramdas Pophale) SiO2 
 PCOD8115899
Probable space group: C 2/M
;
_chemical_formula_sum "Si O2"
_cell_formula_units_Z 64
_cell_length_a 22.996443
_cell_length_b 14.606324
_cell_length_c 14.507273
_cell_angle_alpha 90.000000
_cell_angle_beta 41.824025
_cell_angle_gamma 90.000000
_cell_volume 3249.468116
_symmetry_space_group_name_H-M "C 2/M"
_symmetry_group_IT_number 12
_symmetry_cell_setting 'monoclinic'
loop_
_space_group_symop_operation_xyz
x,y,z
-x,y,-z
-x,-y,-z
x,-y,z
1/2+x,1/2+y,z
1/2-x,1/2+y,-z
1/2-x,1/2-y,-z
1/2+x,1/2-y,z
loop_
_atom_site_type_symbol
_atom_site_label
_atom_site_fract_x
_atom_site_fract_y
_atom_site_fract_z
Si Si1 0.420237 0.396529 0.715267
Si Si2 0.078667 0.391307 0.036433
Si Si3 0.720077 0.339634 0.484187
Si Si4 0.377783 0.603106 0.565478
Si Si5 0.663168 0.734786 0.046331
Si Si6 0.606169 0.897785 0.801439
Si Si7 0.082011 0.103705 0.794839
Si Si8 0.887746 0.891792 0.040770
O O1 0.398113 0.500000 0.776667
O O2 0.520968 0.390411 0.573539
O O3 0.362769 0.375323 0.691196
O O4 0.403310 0.319844 0.810207
O O5 0.088637 0.500000 0.047786
O O6 0.122891 0.362135 0.885994
O O7 0.125286 0.333668 0.061930
O O8 0.977925 0.354200 0.150390
O O9 0.750000 0.250000 0.500000
O O10 0.675496 0.326079 0.436472
O O11 0.809422 0.394606 0.363357
O O12 0.648846 0.389347 0.631701
O O13 0.343874 0.500000 0.582954
O O14 0.750000 0.750000 0.000000
O O15 0.680255 0.668295 0.938223
O O16 0.574245 0.000000 0.854159
O O17 0.121341 0.145502 0.842924
O O18 0.066434 0.000000 0.840524
O O19 0.984283 0.138685 0.888648
O O20 0.867587 0.000000 0.053116
#
# Coordination Sequence:
#
# PCOD8115899 Si02
#       8
#     8   8   8   8   8   8   8   8
#     4   9  20  39  62  85 112 151 191 234 291 341
#     4   9  22  42  61  79 110 153 199 239 286 339
#     4  12  24  29  53  92 121 145 185 232 283 341
#     4   9  19  38  60  83 116 150 183 232 291 346
#     4  12  25  34  57  85 115 148 194 235 277 330
#     4   9  20  40  60  79 108 154 195 238 288 334
#     4   9  19  37  58  85 114 147 179 221 286 353
#     4   9  20  38  61  83 116 151 179 223 288 351
#
# _framework density 19.695530999999999
#
# number of rings (size 3 to 8) (size 9 to 14) (size 15 to 20)
#    0.000    2.250    0.000    4.500    7.000    4.000 
#    0.000    0.000    0.000    0.000    0.000    1.750 
#    0.000    0.000    0.000    0.000    0.000    0.000 
#
# Total GULP energy -396429.293450 kJ/mol
# GULP energy per Si atom -12388.415420 kJ/mol
# Density = 1.965070 g / cm^3
# Si number density = 19.695531 Si / 1000 Ang^3
#
#
#
# Elastic Constant Matrix: (Units=GPa)
#
#
# Indices 1 2 3 4 5 6 
#
# 1 147.2863 56.6443 22.5811 0.0000 8.7487 0.0000
# 2 56.6443 83.3057 9.8118 0.0000 9.4940 0.0000
# 3 22.5811 9.8118 89.4290 0.0000 4.0252 0.0000
# 4 0.0000 0.0000 0.0000 7.0266 0.0000 8.4782
# 5 8.7487 9.4940 4.0252 0.0000 23.3572 0.0000
# 6 0.0000 0.0000 0.0000 8.4782 0.0000 39.0493
#
#
#
# Elastic Compliance Matrix: (Units=1/GPa)
#
#
# Indices 1 2 3 4 5 6 
#
# 1 0.009455 -0.006145 -0.001679 0.000000 -0.000754 0.000000
# 2 -0.006145 0.016702 -0.000079 0.000000 -0.004473 0.000000
# 3 -0.001679 -0.000079 0.011676 0.000000 -0.001351 0.000000
# 4 0.000000 0.000000 0.000000 0.192832 0.000000 -0.041867
# 5 -0.000754 -0.004473 -0.001351 0.000000 0.045147 0.000000
# 6 0.000000 0.000000 0.000000 -0.041867 0.000000 0.034699
#
#
# Mechanical properties :
#
#
# Convention : Reuss Voigt Hill
#
# Bulk Modulus (GPa) = 45.40413 55.34396 50.37405
# Shear Modulus (GPa) = 14.98533 29.28554 22.13544
#
# Velocity S-wave (km/s) = 2.76134 3.86023 3.35607
# Velocity P-wave (km/s) = 5.76799 6.93032 6.37570
#
# Compressibility (1/GPa) = 0.02202443
#
# Stress axis : x y z
#
# Youngs Moduli (GPa) = 105.76208 59.87407 85.64875
#
# Poissons Ratio (x) = 0.36795 0.14383
# Poissons Ratio (y) = 0.64995 0.00680
# Poissons Ratio (z) = 0.17760 0.00475
#
# Static dielectric constant tensor:
#      x y z
#    x 3.886020 0.000000 0.001110 
#    y 0.000000 3.525450 0.000000 
#    z 0.001110 0.000000 5.225380 
# 
# 
# High freq. dielectric constant tensor:
#      x y z
#    x 1.773060 0.000000 0.007440 
#    y 0.000000 1.753390 0.000000 
#    z 0.007440 0.000000 1.756590 
# 
# From -- ./inp_files/240694.got.cif
#   From: 2010.06.25/outbox.cif.g09.slc.cpg/sg12_121_cif.got.tgz:240694.got - 2010.06.28 00:19:55.
