data_PCOD8115425
_publ_section_title
;
Structure prediction by ZEFSAII (Michael W. Deem and Ramdas Pophale) SiO2 
 PCOD8115425
Probable space group: C 2/M
;
_chemical_formula_sum "Si O2"
_cell_formula_units_Z 24
_cell_length_a 7.745467
_cell_length_b 17.286591
_cell_length_c 7.492900
_cell_angle_alpha 90.000000
_cell_angle_beta 115.488490
_cell_angle_gamma 90.000000
_cell_volume 905.600706
_symmetry_space_group_name_H-M "C 2/M"
_symmetry_group_IT_number 12
_symmetry_cell_setting 'monoclinic'
loop_
_space_group_symop_operation_xyz
x,y,z
-x,y,-z
-x,-y,-z
x,-y,z
1/2+x,1/2+y,z
1/2-x,1/2+y,-z
1/2-x,1/2-y,-z
1/2+x,1/2-y,z
loop_
_atom_site_type_symbol
_atom_site_label
_atom_site_fract_x
_atom_site_fract_y
_atom_site_fract_z
Si Si1 0.527929 0.409097 0.741952
Si Si2 0.302707 0.190071 0.675501
Si Si3 0.763769 0.665201 0.162357
O O1 0.511111 0.500000 0.718214
O O2 0.641381 0.377312 0.616224
O O3 0.319100 0.371387 0.687042
O O4 0.667541 0.384234 0.965013
O O5 0.250000 0.250000 0.500000
O O6 0.290996 0.242321 0.855458
O O7 0.509408 0.152661 0.741032
#
# Coordination Sequence:
#
# PCOD8115425 Si02
#       3
#     8   8   8
#     4  11  26  45  71 109 145 180 237 304 357 414
#     4  12  25  42  72 106 141 192 242 287 352 432
#     4  11  23  42  73 102 137 189 241 288 347 425
#
# _framework density 26.501747999999999
#
# number of rings (size 3 to 8) (size 9 to 14) (size 15 to 20)
#    0.000    0.667    3.333    5.000    4.667    4.000 
#    0.000    5.000    0.000   10.000    0.000    0.000 
#    0.000    0.000    0.000    0.000    0.000    0.000 
#
# Total GULP energy -148812.681126 kJ/mol
# GULP energy per Si atom -12401.056761 kJ/mol
# Density = 2.644143 g / cm^3
# Si number density = 26.501748 Si / 1000 Ang^3
#
#
#
# Elastic Constant Matrix: (Units=GPa)
#
#
# Indices 1 2 3 4 5 6 
#
# 1 309.0663 98.0007 50.0555 0.0000 10.8745 0.0000
# 2 98.0007 208.9010 -4.1340 0.0000 6.0018 0.0000
# 3 50.0555 -4.1340 35.6851 0.0000 2.6114 0.0000
# 4 0.0000 0.0000 0.0000 34.4257 0.0000 -4.1259
# 5 10.8745 6.0018 2.6114 0.0000 44.7554 0.0000
# 6 0.0000 0.0000 0.0000 -4.1259 0.0000 42.2945
#
#
#
# Elastic Compliance Matrix: (Units=1/GPa)
#
#
# Indices 1 2 3 4 5 6 
#
# 1 0.005354 -0.002651 -0.007781 0.000000 -0.000491 0.000000
# 2 -0.002651 0.006132 0.004462 0.000000 -0.000438 0.000000
# 3 -0.007781 0.004462 0.039528 0.000000 -0.001014 0.000000
# 4 0.000000 0.000000 0.000000 0.029392 0.000000 0.002867
# 5 -0.000491 -0.000438 -0.001014 0.000000 0.022581 0.000000
# 6 0.000000 0.000000 0.000000 0.002867 0.000000 0.023923
#
#
# Mechanical properties :
#
#
# Convention : Reuss Voigt Hill
#
# Bulk Modulus (GPa) = 25.59368 93.49967 59.54667
# Shear Modulus (GPa) = 32.92171 51.61045 42.26608
#
# Velocity S-wave (km/s) = 3.52838 4.41776 3.99788
# Velocity P-wave (km/s) = 5.12617 7.83450 6.62031
#
# Compressibility (1/GPa) = 0.03907215
#
# Stress axis : x y z
#
# Youngs Moduli (GPa) = 186.78507 163.08694 25.29837
#
# Poissons Ratio (x) = 0.43242 0.19684
# Poissons Ratio (y) = 0.49525 -0.11287
# Poissons Ratio (z) = 1.45336 -0.72763
#
# Static dielectric constant tensor:
#      x y z
#    x 7.068860 0.000000 -0.966830 
#    y 0.000000 4.624450 0.000000 
#    z -0.966830 0.000000 5.980270 
# 
# 
# High freq. dielectric constant tensor:
#      x y z
#    x 2.089330 0.000000 -0.021500 
#    y 0.000000 2.034850 0.000000 
#    z -0.021500 0.000000 2.119940 
# 
# From -- ./inp_files/35895.got.cif
#   From: 2010.06.25/outbox.cif.g09.slc.cpg/sg12_18_cif.got.tgz:35895.got - 2010.06.28 00:19:55.
