data_PCOD8115373
_publ_section_title
;
Structure prediction by ZEFSAII (Michael W. Deem and Ramdas Pophale) SiO2 
 PCOD8115373
Probable space group: C 2/M
;
_chemical_formula_sum "Si O2"
_cell_formula_units_Z 40
_cell_length_a 11.309262
_cell_length_b 16.779216
_cell_length_c 9.811520
_cell_angle_alpha 90.000000
_cell_angle_beta 90.578928
_cell_angle_gamma 90.000000
_cell_volume 1861.744389
_symmetry_space_group_name_H-M "C 2/M"
_symmetry_group_IT_number 12
_symmetry_cell_setting 'monoclinic'
loop_
_space_group_symop_operation_xyz
x,y,z
-x,y,-z
-x,-y,-z
x,-y,z
1/2+x,1/2+y,z
1/2-x,1/2+y,-z
1/2-x,1/2-y,-z
1/2+x,1/2-y,z
loop_
_atom_site_type_symbol
_atom_site_label
_atom_site_fract_x
_atom_site_fract_y
_atom_site_fract_z
Si Si1 0.247799 0.160814 0.771260
Si Si2 0.510907 0.592943 0.658354
Si Si3 0.133288 0.593237 0.974581
Si Si4 0.367617 0.092272 0.524303
Si Si5 0.735485 0.344958 0.276924
O O1 0.112327 0.144298 0.731801
O O2 0.273421 0.137716 0.927161
O O3 0.335278 0.107608 0.680385
O O4 0.278698 0.252669 0.754006
O O5 0.500000 0.617885 0.500000
O O6 0.542641 0.500000 0.671664
O O7 0.391099 0.612263 0.738057
O O8 0.141473 0.500000 0.002193
O O9 0.169898 0.613287 0.820938
O O10 0.000000 0.624096 0.000000
O O11 0.500000 0.121044 0.500000
O O12 0.280381 0.144434 0.431464
O O13 0.350461 0.000000 0.486880
#
# Coordination Sequence:
#
# PCOD8115373 Si02
#       5
#     8   8   8   8   8
#     4  12  26  42  68 100 138 173 224 281 335 395
#     4  11  24  43  69  99 138 179 221 271 335 407
#     4  11  25  47  71  93 131 177 223 277 339 405
#     4  11  23  41  69  99 133 177 229 275 329 401
#     4  12  26  42  68 100 138 173 224 281 335 395
#
# _framework density 21.485226999999998
#
# number of rings (size 3 to 8) (size 9 to 14) (size 15 to 20)
#    0.000    0.600    2.000    6.000    5.600    4.000 
#    0.000    2.000    0.000    0.000    0.000    0.000 
#    0.000    0.000    0.000    0.000    0.000    0.000 
#
# Total GULP energy -248194.980705 kJ/mol
# GULP energy per Si atom -12409.749035 kJ/mol
# Density = 2.143633 g / cm^3
# Si number density = 21.485227 Si / 1000 Ang^3
#
#
#
# Elastic Constant Matrix: (Units=GPa)
#
#
# Indices 1 2 3 4 5 6 
#
# 1 127.3155 15.1257 21.0204 0.0000 -14.3905 0.0000
# 2 15.1257 73.6516 12.3410 0.0000 9.3033 0.0000
# 3 21.0204 12.3410 68.5472 0.0000 -1.0025 0.0000
# 4 0.0000 0.0000 0.0000 30.8434 0.0000 -1.8810
# 5 -14.3905 9.3033 -1.0025 0.0000 43.6025 0.0000
# 6 0.0000 0.0000 0.0000 -1.8810 0.0000 26.6694
#
#
#
# Elastic Compliance Matrix: (Units=1/GPa)
#
#
# Indices 1 2 3 4 5 6 
#
# 1 0.008824 -0.001832 -0.002328 0.000000 0.003250 0.000000
# 2 -0.001832 0.014797 -0.002158 0.000000 -0.003812 0.000000
# 3 -0.002328 -0.002158 0.015692 0.000000 0.000053 0.000000
# 4 0.000000 0.000000 0.000000 0.032562 0.000000 0.002297
# 5 0.003250 -0.003812 0.000053 0.000000 0.024821 0.000000
# 6 0.000000 0.000000 0.000000 0.002297 0.000000 0.037658
#
#
# Mechanical properties :
#
#
# Convention : Reuss Voigt Hill
#
# Bulk Modulus (GPa) = 37.48819 40.72094 39.10457
# Shear Modulus (GPa) = 32.07532 34.95821 33.51677
#
# Velocity S-wave (km/s) = 3.86800 4.03809 3.95396
# Velocity P-wave (km/s) = 6.11840 6.38245 6.25182
#
# Compressibility (1/GPa) = 0.02667506
#
# Stress axis : x y z
#
# Youngs Moduli (GPa) = 113.32764 67.58226 63.72768
#
# Poissons Ratio (x) = 0.12384 0.14839
# Poissons Ratio (y) = 0.20767 0.13751
# Poissons Ratio (z) = 0.26388 0.14583
#
# Static dielectric constant tensor:
#      x y z
#    x 3.987510 0.000000 -0.100780 
#    y 0.000000 3.767360 0.000000 
#    z -0.100780 0.000000 3.866680 
# 
# 
# High freq. dielectric constant tensor:
#      x y z
#    x 1.856290 0.000000 -0.003140 
#    y 0.000000 1.847900 0.000000 
#    z -0.003140 0.000000 1.844020 
# 
# From -- ./inp_files/46922.got.cif
#   From: 2010.06.25/outbox.cif.g09.slc.cpg/sg12_24_cif.got.tgz:46922.got - 2010.06.28 00:19:55.
