data_PCOD8115573
_publ_section_title
;
Structure prediction by ZEFSAII (Michael W. Deem and Ramdas Pophale) SiO2 
 PCOD8115573
Probable space group: C 2/M
;
_chemical_formula_sum "Si O2"
_cell_formula_units_Z 40
_cell_length_a 31.360166
_cell_length_b 8.697872
_cell_length_c 24.441237
_cell_angle_alpha 90.000000
_cell_angle_beta 15.902617
_cell_angle_gamma 90.000000
_cell_volume 1826.712064
_symmetry_space_group_name_H-M "C 2/M"
_symmetry_group_IT_number 12
_symmetry_cell_setting 'monoclinic'
loop_
_space_group_symop_operation_xyz
x,y,z
-x,y,-z
-x,-y,-z
x,-y,z
1/2+x,1/2+y,z
1/2-x,1/2+y,-z
1/2-x,1/2-y,-z
1/2+x,1/2-y,z
loop_
_atom_site_type_symbol
_atom_site_label
_atom_site_fract_x
_atom_site_fract_y
_atom_site_fract_z
Si Si1 0.019880 0.324184 0.889000
Si Si2 0.697175 0.181400 0.007921
Si Si3 0.243236 0.175212 0.312859
Si Si4 0.919202 0.821647 0.294277
Si Si5 0.457041 0.820445 0.614257
O O1 0.013791 0.500000 0.875187
O O2 0.185136 0.296111 0.715446
O O3 0.000872 0.206059 0.863005
O O4 0.877844 0.289061 0.103779
O O5 0.805680 0.233581 0.823477
O O6 0.700002 0.000000 0.008764
O O7 0.750000 0.250000 0.000000
O O8 0.521836 0.239359 0.213986
O O9 0.099642 0.287836 0.479454
O O10 0.184582 0.000000 0.379637
O O11 0.750000 0.750000 0.500000
O O12 0.909100 0.000000 0.320866
O O13 0.500000 0.761901 0.500000
O O14 0.419323 0.000000 0.660561
#
# Coordination Sequence:
#
# PCOD8115573 Si02
#       5
#     8   8   8   8   8
#     4   9  19  38  62  92 129 167 215 270 326 387
#     4  12  27  48  72  99 135 178 225 281 341 405
#     4   9  19  36  62  93 127 169 214 267 326 388
#     4  12  26  44  67  95 130 174 221 272 328 392
#     4  11  24  41  64  96 135 176 222 275 332 397
#
# _framework density 21.897266999999999
#
# number of rings (size 3 to 8) (size 9 to 14) (size 15 to 20)
#    0.000    1.400    0.000    6.600    2.800    6.400 
#    0.000    2.000    0.000    0.000    0.000    0.000 
#    0.000    0.000    0.000    0.000    0.000    0.000 
#
# Total GULP energy -248081.510353 kJ/mol
# GULP energy per Si atom -12404.075518 kJ/mol
# Density = 2.184743 g / cm^3
# Si number density = 21.897267 Si / 1000 Ang^3
#
#
#
# Elastic Constant Matrix: (Units=GPa)
#
#
# Indices 1 2 3 4 5 6 
#
# 1 114.6940 52.5597 41.7112 -0.0004 -13.8088 -0.0003
# 2 52.5597 145.3656 51.4923 0.0095 -6.4446 0.0020
# 3 41.7112 51.4923 101.8916 0.0024 -23.0216 0.0033
# 4 -0.0004 0.0095 0.0024 39.1862 0.0021 -1.4522
# 5 -13.8088 -6.4446 -23.0216 0.0021 38.6570 -0.0012
# 6 -0.0003 0.0020 0.0033 -1.4522 -0.0012 41.1654
#
#
#
# Elastic Compliance Matrix: (Units=1/GPa)
#
#
# Indices 1 2 3 4 5 6 
#
# 1 0.011323 -0.003072 -0.002640 0.000001 0.001960 0.000001
# 2 -0.003072 0.009270 -0.003843 -0.000002 -0.001841 0.000000
# 3 -0.002640 -0.003843 0.014419 0.000000 0.007004 -0.000001
# 4 0.000001 -0.000002 0.000000 0.025553 -0.000002 0.000901
# 5 0.001960 -0.001841 0.007004 -0.000002 0.030433 0.000000
# 6 0.000001 0.000000 -0.000001 0.000901 0.000000 0.024324
#
#
# Mechanical properties :
#
#
# Convention : Reuss Voigt Hill
#
# Bulk Modulus (GPa) = 62.88259 72.60860 67.74560
# Shear Modulus (GPa) = 35.78308 38.21428 36.99868
#
# Velocity S-wave (km/s) = 4.04683 4.18205 4.11499
# Velocity P-wave (km/s) = 7.11444 7.51998 7.32002
#
# Compressibility (1/GPa) = 0.01590265
#
# Stress axis : x y z
#
# Youngs Moduli (GPa) = 88.31877 107.88025 69.35102
#
# Poissons Ratio (x) = 0.33140 0.18307
# Poissons Ratio (y) = 0.27131 0.26650
# Poissons Ratio (z) = 0.23314 0.41456
#
# Static dielectric constant tensor:
#      x y z
#    x 4.250230 0.000010 -0.102690 
#    y 0.000010 3.909420 -0.000010 
#    z -0.102690 -0.000010 4.059250 
# 
# 
# High freq. dielectric constant tensor:
#      x y z
#    x 1.872390 0.000000 -0.007180 
#    y 0.000000 1.853830 0.000000 
#    z -0.007180 0.000000 1.868400 
# 
# From -- ./inp_files/352952.got.cif
#   From: 2010.06.25/outbox.cif.g09.slc.cpg/sg12_177_cif.got.tgz:352952.got - 2010.06.28 00:19:55.
