data_PCOD8115722
_publ_section_title
;
Structure prediction by ZEFSAII (Michael W. Deem and Ramdas Pophale) SiO2 
 PCOD8115722
Probable space group: C 2/M
;
_chemical_formula_sum "Si O2"
_cell_formula_units_Z 40
_cell_length_a 20.390615
_cell_length_b 8.778562
_cell_length_c 22.328578
_cell_angle_alpha 90.000000
_cell_angle_beta 30.712355
_cell_angle_gamma 90.000000
_cell_volume 2041.290019
_symmetry_space_group_name_H-M "C 2/M"
_symmetry_group_IT_number 12
_symmetry_cell_setting 'monoclinic'
loop_
_space_group_symop_operation_xyz
x,y,z
-x,y,-z
-x,-y,-z
x,-y,z
1/2+x,1/2+y,z
1/2-x,1/2+y,-z
1/2-x,1/2-y,-z
1/2+x,1/2-y,z
loop_
_atom_site_type_symbol
_atom_site_label
_atom_site_fract_x
_atom_site_fract_y
_atom_site_fract_z
Si Si1 0.880132 0.179456 0.785569
Si Si2 0.846783 0.179730 0.377082
Si Si3 0.363906 0.179622 0.237709
Si Si4 0.372394 0.327918 0.004957
Si Si5 0.735306 0.827809 0.228887
O O1 0.881230 0.248565 0.716792
O O2 0.009031 0.226947 0.718153
O O3 0.862546 0.000000 0.795127
O O4 0.759481 0.251981 0.916908
O O5 0.750000 0.250000 0.500000
O O6 0.815093 0.247578 0.337404
O O7 0.829253 0.000000 0.389622
O O8 0.507379 0.230967 0.110163
O O9 0.264974 0.232900 0.264711
O O10 0.359752 0.000000 0.246260
O O11 0.386775 0.500000 0.968510
O O12 0.361057 0.328924 0.086564
O O13 0.696857 0.000000 0.276727
#
# Coordination Sequence:
#
# PCOD8115722 Si02
#       5
#     8   8   8   8   8
#     4   9  19  37  60  86 116 151 188 234 288 342
#     4  11  25  44  63  82 113 151 195 244 289 340
#     4  12  23  35  59  89 119 155 195 235 282 341
#     4   9  19  34  58  88 122 155 186 231 286 344
#     4   9  19  35  58  88 122 154 186 232 287 343
#
# _framework density 19.595452999999999
#
# number of rings (size 3 to 8) (size 9 to 14) (size 15 to 20)
#    1.200    0.800    0.000    4.200    0.000    6.400 
#    0.000    1.000    0.000    6.000    0.000    0.000 
#    0.000    0.000    0.000    0.000    0.000    0.000 
#
# Total GULP energy -247895.129349 kJ/mol
# GULP energy per Si atom -12394.756467 kJ/mol
# Density = 1.955085 g / cm^3
# Si number density = 19.595453 Si / 1000 Ang^3
#
#
#
# Elastic Constant Matrix: (Units=GPa)
#
#
# Indices 1 2 3 4 5 6 
#
# 1 57.6601 47.8813 35.7053 0.0000 14.9547 0.0000
# 2 47.8813 115.2040 17.0292 0.0000 3.0073 0.0001
# 3 35.7053 17.0292 7.0111 0.0002 20.1203 -0.0001
# 4 0.0000 0.0000 0.0002 30.6395 -0.0001 2.0161
# 5 14.9547 3.0073 20.1203 -0.0001 24.0781 0.0000
# 6 0.0000 0.0001 -0.0001 2.0161 0.0000 33.1054
#
#
#
# Elastic Compliance Matrix: (Units=1/GPa)
#
#
# Indices 1 2 3 4 5 6 
#
# 1 0.017881 -0.010543 0.026723 0.000000 -0.032119 0.000000
# 2 -0.010543 0.013552 -0.004894 0.000000 0.008945 0.000000
# 3 0.026723 -0.004894 -0.045994 0.000000 0.022447 0.000000
# 4 0.000000 0.000000 0.000000 0.032769 0.000000 -0.001996
# 5 -0.032119 0.008945 0.022447 0.000000 0.041606 0.000000
# 6 0.000000 0.000000 0.000000 -0.001996 0.000000 0.030328
#
#
# Mechanical properties :
#
#
# Convention : Reuss Voigt Hill
#
# Bulk Modulus (GPa) = 124.83120 42.34521 83.58820
# Shear Modulus (GPa) = 71.18415 22.84856 47.01635
#
# Velocity S-wave (km/s) = 6.03372 3.41840 4.90363
# Velocity P-wave (km/s) = 10.60111 6.10223 8.64930
#
# Compressibility (1/GPa) = 0.00801082
#
# Stress axis : x y z
#
# Youngs Moduli (GPa) = 55.92623 73.78874 -21.74200
#
# Poissons Ratio (x) = 0.77798 0.58102
# Poissons Ratio (y) = 0.58965 -0.10641
# Poissons Ratio (z) = -1.49453 0.36112
#
# Static dielectric constant tensor:
#      x y z
#    x 3.585980 0.000000 -0.039040 
#    y 0.000000 3.631090 0.000000 
#    z -0.039040 0.000000 3.270160 
# 
# 
# High freq. dielectric constant tensor:
#      x y z
#    x 1.763600 0.000000 -0.000410 
#    y 0.000000 1.780970 0.000000 
#    z -0.000410 0.000000 1.731870 
# 
# From -- ./inp_files/345807.got.cif
#   From: 2010.06.25/outbox.cif.g09.slc.cpg/sg12_173_cif.got.tgz:345807.got - 2010.06.28 00:19:55.
