data_PCOD8115186
_publ_section_title
;
Structure prediction by ZEFSAII (Michael W. Deem and Ramdas Pophale) SiO2 
 PCOD8115186
Probable space group: C 2/M
;
_chemical_formula_sum "Si O2"
_cell_formula_units_Z 48
_cell_length_a 28.727823
_cell_length_b 8.539409
_cell_length_c 9.897853
_cell_angle_alpha 90.000000
_cell_angle_beta 100.412686
_cell_angle_gamma 90.000000
_cell_volume 2388.140064
_symmetry_space_group_name_H-M "C 2/M"
_symmetry_group_IT_number 12
_symmetry_cell_setting 'monoclinic'
loop_
_space_group_symop_operation_xyz
x,y,z
-x,y,-z
-x,-y,-z
x,-y,z
1/2+x,1/2+y,z
1/2-x,1/2+y,-z
1/2-x,1/2-y,-z
1/2+x,1/2-y,z
loop_
_atom_site_type_symbol
_atom_site_label
_atom_site_fract_x
_atom_site_fract_y
_atom_site_fract_z
Si Si1 0.488442 0.317479 0.841925
Si Si2 0.795397 0.815627 0.181819
Si Si3 0.189836 0.684748 0.089744
Si Si4 0.958963 0.681397 0.373983
Si Si5 0.367139 0.318042 0.445922
Si Si6 0.386673 0.816493 0.737656
O O1 0.497608 0.500000 0.821807
O O2 0.523845 0.218621 0.767582
O O3 0.434625 0.279349 0.778158
O O4 0.500000 0.267133 0.000000
O O5 0.741574 0.751608 0.161726
O O6 0.822109 0.767233 0.332422
O O7 0.796710 0.000000 0.160295
O O8 0.822190 0.739855 0.067822
O O9 0.189533 0.500000 0.096364
O O10 0.150234 0.749338 0.171235
O O11 0.944887 0.500000 0.378544
O O12 0.914092 0.787232 0.384142
O O13 0.000000 0.725944 0.500000
O O14 0.364940 0.500000 0.484059
O O15 0.365124 0.213368 0.578700
O O16 0.397179 0.000000 0.760950
#
# Coordination Sequence:
#
# PCOD8115186 Si02
#       6
#     8   8   8   8   8   8
#     4  11  25  42  61  87 118 154 195 239 290 346
#     4   9  20  39  61  87 117 151 194 238 288 348
#     4   9  20  39  61  86 118 153 191 239 290 344
#     4  11  23  40  62  87 117 155 195 238 288 345
#     4  11  23  38  60  88 118 155 196 241 290 343
#     4  11  23  39  59  87 119 154 195 241 290 344
#
# _framework density 20.099322000000001
#
# number of rings (size 3 to 8) (size 9 to 14) (size 15 to 20)
#    0.000    1.667    1.667    2.000    2.333    5.333 
#    0.000    0.000    0.000    0.000    0.000    0.000 
#    0.000    0.000    0.000    0.000    0.000    0.000 
#
# Total GULP energy -297725.402837 kJ/mol
# GULP energy per Si atom -12405.225118 kJ/mol
# Density = 2.005358 g / cm^3
# Si number density = 20.099322 Si / 1000 Ang^3
#
#
#
# Elastic Constant Matrix: (Units=GPa)
#
#
# Indices 1 2 3 4 5 6 
#
# 1 50.4217 3.2903 18.8706 0.0000 -11.9331 0.0000
# 2 3.2903 23.4950 7.2843 0.0000 3.2396 0.0000
# 3 18.8706 7.2843 103.6922 0.0000 -6.8008 0.0000
# 4 0.0000 0.0000 0.0000 32.6500 0.0000 -0.1138
# 5 -11.9331 3.2396 -6.8008 0.0000 40.7650 0.0000
# 6 0.0000 0.0000 0.0000 -0.1138 0.0000 24.6056
#
#
#
# Elastic Compliance Matrix: (Units=1/GPa)
#
#
# Indices 1 2 3 4 5 6 
#
# 1 0.022849 -0.002978 -0.003533 0.000000 0.006336 0.000000
# 2 -0.002978 0.044557 -0.002909 0.000000 -0.004898 0.000000
# 3 -0.003533 -0.002909 0.010554 0.000000 0.000958 0.000000
# 4 0.000000 0.000000 0.000000 0.030628 0.000000 0.000142
# 5 0.006336 -0.004898 0.000958 0.000000 0.026934 0.000000
# 6 0.000000 0.000000 0.000000 0.000142 0.000000 0.040642
#
#
# Mechanical properties :
#
#
# Convention : Reuss Voigt Hill
#
# Bulk Modulus (GPa) = 16.91526 26.27770 21.59648
# Shear Modulus (GPa) = 23.28701 29.48170 26.38436
#
# Velocity S-wave (km/s) = 3.40751 3.83404 3.62705
# Velocity P-wave (km/s) = 4.89036 5.71858 5.32061
#
# Compressibility (1/GPa) = 0.05911822
#
# Stress axis : x y z
#
# Youngs Moduli (GPa) = 43.76572 22.44335 94.74936
#
# Poissons Ratio (x) = 0.06683 0.33479
# Poissons Ratio (y) = 0.13033 0.27566
# Poissons Ratio (z) = 0.15465 0.06530
#
# Static dielectric constant tensor:
#      x y z
#    x 3.847050 0.000000 -0.018140 
#    y 0.000000 3.504890 0.000000 
#    z -0.018140 0.000000 3.797320 
# 
# 
# High freq. dielectric constant tensor:
#      x y z
#    x 1.786750 0.000000 -0.000870 
#    y 0.000000 1.781950 0.000000 
#    z -0.000870 0.000000 1.793930 
# 
# From -- ./inp_files/108751.got.cif
#   From: 2010.06.25/outbox.cif.g09.slc.cpg/sg12_55_cif.got.tgz:108751.got - 2010.06.28 00:19:55.
