data_PCOD8115835
_publ_section_title
;
Structure prediction by ZEFSAII (Michael W. Deem and Ramdas Pophale) SiO2 
 PCOD8115835
Probable space group: C 2/M
;
_chemical_formula_sum "Si O2"
_cell_formula_units_Z 36
_cell_length_a 19.408704
_cell_length_b 17.978370
_cell_length_c 7.241286
_cell_angle_alpha 90.000000
_cell_angle_beta 41.738456
_cell_angle_gamma 90.000000
_cell_volume 1682.137727
_symmetry_space_group_name_H-M "C 2/M"
_symmetry_group_IT_number 12
_symmetry_cell_setting 'monoclinic'
loop_
_space_group_symop_operation_xyz
x,y,z
-x,y,-z
-x,-y,-z
x,-y,z
1/2+x,1/2+y,z
1/2-x,1/2+y,-z
1/2-x,1/2-y,-z
1/2+x,1/2-y,z
loop_
_atom_site_type_symbol
_atom_site_label
_atom_site_fract_x
_atom_site_fract_y
_atom_site_fract_z
Si Si1 0.627486 0.000000 0.071656
Si Si2 0.372732 0.000000 0.339355
Si Si3 0.627483 0.500000 0.418406
Si Si4 0.128049 0.380541 0.366861
Si Si5 0.128047 0.119459 0.120947
Si Si6 0.000000 0.749999 0.500000
Si Si7 0.127265 0.000000 0.830289
O O1 0.593849 0.073970 0.250346
O O2 0.575537 0.000000 0.969772
O O3 0.750001 0.000000 0.807872
O O4 0.406447 0.926903 0.384826
O O5 0.249998 0.000000 0.563772
O O6 0.593846 0.573970 0.374265
O O7 0.575534 0.500000 0.728088
O O8 0.071942 0.301111 0.485503
O O9 0.250001 0.366877 0.121916
O O10 0.071941 0.198889 0.226730
O O11 0.093550 0.073097 0.010622
#
# Coordination Sequence:
#
# PCOD8115835 Si02
#       7
#     4   4   4   8   8   4   4
#     4   8  15  33  59  78  95 128 174 218 253 288
#     4   8  15  33  59  78  95 128 174 218 253 288
#     4   8  15  33  59  78  95 128 174 218 253 288
#     4   9  19  35  54  76 102 133 169 209 252 298
#     4   9  19  35  54  76 102 133 169 209 252 298
#     4  12  22  34  50  74 112 144 162 196 254 312
#     4   8  15  33  59  78  95 128 174 218 253 288
#
# _framework density 21.401340000000001
#
# number of rings (size 3 to 8) (size 9 to 14) (size 15 to 20)
#    0.000    3.111    0.000    3.333    0.000    3.556 
#    0.000    8.889    0.000   10.667    0.000    0.000 
#    0.000    0.000    0.000    0.000    0.000    0.000 
#
# Total GULP energy -223199.046213 kJ/mol
# GULP energy per Si atom -12399.947012 kJ/mol
# Density = 2.135263 g / cm^3
# Si number density = 21.401340 Si / 1000 Ang^3
#
#
#
# Elastic Constant Matrix: (Units=GPa)
#
#
# Indices 1 2 3 4 5 6 
#
# 1 132.6878 69.3239 59.6983 0.0000 25.5697 0.0000
# 2 69.3239 177.5772 69.2400 0.0000 0.2665 0.0000
# 3 59.6983 69.2400 117.5454 0.0000 24.4970 0.0000
# 4 0.0000 0.0000 0.0000 34.8489 0.0000 -19.0790
# 5 25.5697 0.2665 24.4970 0.0000 36.1714 0.0000
# 6 0.0000 0.0000 0.0000 -19.0790 0.0000 29.0804
#
#
#
# Elastic Compliance Matrix: (Units=1/GPa)
#
#
# Indices 1 2 3 4 5 6 
#
# 1 0.011840 -0.003647 -0.002476 0.000000 -0.006666 0.000000
# 2 -0.003647 0.008796 -0.004486 0.000000 0.005551 0.000000
# 3 -0.002476 -0.004486 0.014013 0.000000 -0.007707 0.000000
# 4 0.000000 0.000000 0.000000 0.044780 0.000000 0.029379
# 5 -0.006666 0.005551 -0.007707 0.000000 0.037538 0.000000
# 6 0.000000 0.000000 0.000000 0.029379 0.000000 0.053662
#
#
# Mechanical properties :
#
#
# Convention : Reuss Voigt Hill
#
# Bulk Modulus (GPa) = 74.44796 91.59277 83.02036
# Shear Modulus (GPa) = 25.46807 35.32334 30.39571
#
# Velocity S-wave (km/s) = 3.45341 4.06707 3.77274
# Velocity P-wave (km/s) = 7.12485 8.05886 7.60621
#
# Compressibility (1/GPa) = 0.01343220
#
# Stress axis : x y z
#
# Youngs Moduli (GPa) = 84.45592 113.68944 71.35991
#
# Poissons Ratio (x) = 0.41462 0.17668
# Poissons Ratio (y) = 0.30801 0.32012
# Poissons Ratio (z) = 0.20911 0.51000
#
# Static dielectric constant tensor:
#      x y z
#    x 4.231310 0.000000 0.100740 
#    y 0.000000 3.652420 0.000000 
#    z 0.100740 0.000000 4.200830 
# 
# 
# High freq. dielectric constant tensor:
#      x y z
#    x 1.852170 0.000000 -0.033360 
#    y 0.000000 1.813100 0.000000 
#    z -0.033360 0.000000 1.862260 
# 
# From -- ./inp_files/86978.got.cif
#   From: 2010.06.25/outbox.cif.g09.slc.cpg/sg12_44_cif.got.tgz:86978.got - 2010.06.28 00:19:55.
