data_PCOD8115098
_publ_section_title
;
Structure prediction by ZEFSAII (Michael W. Deem and Ramdas Pophale) SiO2 
 PCOD8115098
Probable space group: C 2/M
;
_chemical_formula_sum "Si O2"
_cell_formula_units_Z 64
_cell_length_a 14.250306
_cell_length_b 16.941876
_cell_length_c 16.199132
_cell_angle_alpha 90.000000
_cell_angle_beta 48.940138
_cell_angle_gamma 90.000000
_cell_volume 2948.916288
_symmetry_space_group_name_H-M "C 2/M"
_symmetry_group_IT_number 12
_symmetry_cell_setting 'monoclinic'
loop_
_space_group_symop_operation_xyz
x,y,z
-x,y,-z
-x,-y,-z
x,-y,z
1/2+x,1/2+y,z
1/2-x,1/2+y,-z
1/2-x,1/2-y,-z
1/2+x,1/2-y,z
loop_
_atom_site_type_symbol
_atom_site_label
_atom_site_fract_x
_atom_site_fract_y
_atom_site_fract_z
Si Si1 0.677835 0.910422 0.515875
Si Si2 0.155717 0.412143 0.722086
Si Si3 0.273898 0.248462 0.249082
Si Si4 0.657789 0.411663 0.090182
Si Si5 0.580390 0.664559 0.691363
Si Si6 0.112604 0.206655 0.981512
Si Si7 0.431132 0.125030 0.955814
Si Si8 0.999706 0.727118 0.588166
O O1 0.669192 0.893955 0.618028
O O2 0.817254 0.896718 0.400858
O O3 0.580658 0.851972 0.528289
O O4 0.639905 0.000000 0.517098
O O5 0.209590 0.500000 0.710306
O O6 0.234803 0.344687 0.723751
O O7 0.009733 0.410452 0.833737
O O8 0.369236 0.292132 0.255664
O O9 0.306338 0.251321 0.134485
O O10 0.144124 0.294256 0.319080
O O11 0.618257 0.500000 0.088485
O O12 0.550161 0.377490 0.211523
O O13 0.680730 0.358519 0.995890
O O14 0.795108 0.412277 0.049216
O O15 0.557139 0.724710 0.630353
O O16 0.067667 0.280521 0.063594
O O17 0.000000 0.162377 0.000000
O O18 0.500000 0.103743 0.000000
O O19 0.000000 0.774464 0.500000
#
# Coordination Sequence:
#
# PCOD8115098 Si02
#       8
#     8   8   8   8   8   8   8   8
#     4  11  25  46  69 101 140 179 228 292 350 396
#     4  11  23  41  68  99 138 179 223 292 349 394
#     4  12  23  45  69 104 136 183 232 281 341 413
#     4  12  27  44  69 105 141 182 229 284 349 407
#     4  12  24  48  72  95 142 184 234 279 338 421
#     4  11  22  43  68  99 134 181 231 279 335 407
#     4  11  23  45  71  99 139 186 231 278 339 414
#     4  12  25  42  73 105 131 181 238 281 341 416
#
# _framework density 21.702888000000002
#
# number of rings (size 3 to 8) (size 9 to 14) (size 15 to 20)
#    0.000    0.500    6.250    3.000    1.750    1.500 
#    0.000    0.625    0.000    2.625    0.000    0.000 
#    0.000    0.000    0.000    0.000    0.000    0.000 
#
# Total GULP energy -396571.699616 kJ/mol
# GULP energy per Si atom -12392.865613 kJ/mol
# Density = 2.165349 g / cm^3
# Si number density = 21.702888 Si / 1000 Ang^3
#
#
#
# Elastic Constant Matrix: (Units=GPa)
#
#
# Indices 1 2 3 4 5 6 
#
# 1 94.4049 42.9753 37.6279 0.0000 -14.2418 0.0000
# 2 42.9753 123.7136 43.2787 0.0000 8.9882 0.0000
# 3 37.6279 43.2787 118.5782 0.0000 -4.9102 0.0000
# 4 0.0000 0.0000 0.0000 13.2359 0.0000 -4.3685
# 5 -14.2418 8.9882 -4.9102 0.0000 42.2993 0.0000
# 6 0.0000 0.0000 0.0000 -4.3685 0.0000 15.8371
#
#
#
# Elastic Compliance Matrix: (Units=1/GPa)
#
#
# Indices 1 2 3 4 5 6 
#
# 1 0.014576 -0.004504 -0.002752 0.000000 0.005545 0.000000
# 2 -0.004504 0.010901 -0.002721 0.000000 -0.004149 0.000000
# 3 -0.002752 -0.002721 0.010335 0.000000 0.000851 0.000000
# 4 0.000000 0.000000 0.000000 0.083119 0.000000 0.022928
# 5 0.005545 -0.004149 0.000851 0.000000 0.026488 0.000000
# 6 0.000000 0.000000 0.000000 0.022928 0.000000 0.069467
#
#
# Mechanical properties :
#
#
# Convention : Reuss Voigt Hill
#
# Bulk Modulus (GPa) = 63.05832 64.94004 63.99918
# Shear Modulus (GPa) = 20.82228 28.46212 24.64220
#
# Velocity S-wave (km/s) = 3.10082 3.62532 3.37328
# Velocity P-wave (km/s) = 6.47599 6.89283 6.68766
#
# Compressibility (1/GPa) = 0.01585834
#
# Stress axis : x y z
#
# Youngs Moduli (GPa) = 68.60462 91.73427 96.75810
#
# Poissons Ratio (x) = 0.41313 0.26629
# Poissons Ratio (y) = 0.30897 0.26331
# Poissons Ratio (z) = 0.18881 0.24964
#
# Static dielectric constant tensor:
#      x y z
#    x 3.913020 0.000000 -0.154180 
#    y 0.000000 3.879590 0.000000 
#    z -0.154180 0.000000 4.459590 
# 
# 
# High freq. dielectric constant tensor:
#      x y z
#    x 1.846420 0.000000 -0.002510 
#    y 0.000000 1.842030 0.000000 
#    z -0.002510 0.000000 1.875150 
# 
# From -- ./inp_files/216770.got.cif
#   From: 2010.06.25/outbox.cif.g09.slc.cpg/sg12_109_cif.got.tgz:216770.got - 2010.06.28 00:19:55.
