data_PCOD8115208
_publ_section_title
;
Structure prediction by ZEFSAII (Michael W. Deem and Ramdas Pophale) SiO2 
 PCOD8115208
Probable space group: C 2/M
;
_chemical_formula_sum "Si O2"
_cell_formula_units_Z 56
_cell_length_a 13.862766
_cell_length_b 28.212342
_cell_length_c 14.398905
_cell_angle_alpha 90.000000
_cell_angle_beta 30.683265
_cell_angle_gamma 90.000000
_cell_volume 2873.671002
_symmetry_space_group_name_H-M "C 2/M"
_symmetry_group_IT_number 12
_symmetry_cell_setting 'monoclinic'
loop_
_space_group_symop_operation_xyz
x,y,z
-x,y,-z
-x,-y,-z
x,-y,z
1/2+x,1/2+y,z
1/2-x,1/2+y,-z
1/2-x,1/2-y,-z
1/2+x,1/2-y,z
loop_
_atom_site_type_symbol
_atom_site_label
_atom_site_fract_x
_atom_site_fract_y
_atom_site_fract_z
Si Si1 0.682796 0.680622 0.283140
Si Si2 0.406423 0.125366 0.237015
Si Si3 0.162505 0.114071 0.135092
Si Si4 0.158428 0.299699 0.555235
Si Si5 0.083152 0.054935 0.532142
Si Si6 0.753033 0.285006 0.817135
Si Si7 0.459703 0.330135 0.166399
O O1 0.500000 0.681393 0.500000
O O2 0.836665 0.643339 0.194312
O O3 0.626379 0.661745 0.227504
O O4 0.775481 0.732815 0.202039
O O5 0.397944 0.172221 0.306664
O O6 0.275869 0.083959 0.386550
O O7 0.615400 0.103886 0.058991
O O8 0.067723 0.069162 0.263982
O O9 0.073108 0.122228 0.105227
O O10 0.250000 0.250000 0.500000
O O11 0.317805 0.326753 0.368457
O O12 0.973374 0.293164 0.646386
O O13 0.000000 0.067109 0.500000
O O14 0.131117 0.000000 0.503077
O O15 0.669498 0.327252 0.819688
O O16 0.626137 0.290026 0.016260
#
# Coordination Sequence:
#
# PCOD8115208 Si02
#       7
#     8   8   8   8   8   8   8
#     4  12  22  38  57  83 129 169 210 252 300 359
#     4  12  23  39  60  92 124 165 203 251 310 373
#     4  12  23  39  62  88 120 162 206 254 315 370
#     4  12  23  37  59  86 125 169 214 252 298 358
#     4  11  24  45  68  92 121 154 200 261 323 385
#     4  11  25  38  54  88 124 169 219 253 289 348
#     4  11  23  39  56  82 124 163 213 252 298 347
#
# _framework density 19.487269000000001
#
# number of rings (size 3 to 8) (size 9 to 14) (size 15 to 20)
#    0.000    0.429    5.714    4.286    6.000    1.714 
#    0.000    1.429    0.000    0.000    0.000    4.000 
#    0.000    0.000    0.000    0.000    0.000    0.000 
#
# Total GULP energy -346985.854963 kJ/mol
# GULP energy per Si atom -12392.351963 kJ/mol
# Density = 1.944292 g / cm^3
# Si number density = 19.487269 Si / 1000 Ang^3
#
#
#
# Elastic Constant Matrix: (Units=GPa)
#
#
# Indices 1 2 3 4 5 6 
#
# 1 93.8421 36.1631 26.4536 0.0006 -21.9213 -0.0006
# 2 36.1631 85.4940 31.1834 0.0000 -8.5460 0.0000
# 3 26.4536 31.1834 126.8764 0.0004 -21.5511 -0.0001
# 4 0.0006 0.0000 0.0004 25.1083 -0.0002 5.3133
# 5 -21.9213 -8.5460 -21.5511 -0.0002 32.4394 0.0001
# 6 -0.0006 0.0000 -0.0001 5.3133 0.0001 19.4113
#
#
#
# Elastic Compliance Matrix: (Units=1/GPa)
#
#
# Indices 1 2 3 4 5 6 
#
# 1 0.014734 -0.005267 -0.000363 0.000000 0.008328 0.000001
# 2 -0.005267 0.014793 -0.002796 0.000000 -0.001520 0.000000
# 3 -0.000363 -0.002796 0.009556 0.000000 0.005367 0.000000
# 4 0.000000 0.000000 0.000000 0.042276 0.000000 -0.011572
# 5 0.008328 -0.001520 0.005367 0.000000 0.039619 0.000000
# 6 0.000001 0.000000 0.000000 -0.011572 0.000000 0.054684
#
#
# Mechanical properties :
#
#
# Convention : Reuss Voigt Hill
#
# Bulk Modulus (GPa) = 44.98291 54.86808 49.92550
# Shear Modulus (GPa) = 25.00955 29.55263 27.28109
#
# Velocity S-wave (km/s) = 3.58631 3.89846 3.74564
# Velocity P-wave (km/s) = 6.34683 6.96283 6.66195
#
# Compressibility (1/GPa) = 0.02223066
#
# Stress axis : x y z
#
# Youngs Moduli (GPa) = 67.87174 67.60154 104.64596
#
# Poissons Ratio (x) = 0.35609 0.03797
# Poissons Ratio (y) = 0.35751 0.29255
# Poissons Ratio (z) = 0.02462 0.18898
#
# Static dielectric constant tensor:
#      x y z
#    x 3.608460 0.000000 -0.172990 
#    y 0.000000 3.208470 0.000000 
#    z -0.172990 0.000000 3.716460 
# 
# 
# High freq. dielectric constant tensor:
#      x y z
#    x 1.757250 0.000000 -0.011480 
#    y 0.000000 1.706990 0.000000 
#    z -0.011480 0.000000 1.790010 
# 
# From -- ./inp_files/219087.got.cif
#   From: 2010.06.25/outbox.cif.g09.slc.cpg/sg12_110_cif.got.tgz:219087.got - 2010.06.28 00:19:55.
