data_PCOD8115588
_publ_section_title
;
Structure prediction by ZEFSAII (Michael W. Deem and Ramdas Pophale) SiO2 
 PCOD8115588
Probable space group: C 2/M
;
_chemical_formula_sum "Si O2"
_cell_formula_units_Z 52
_cell_length_a 20.593348
_cell_length_b 18.941012
_cell_length_c 6.592255
_cell_angle_alpha 90.000000
_cell_angle_beta 82.491796
_cell_angle_gamma 90.000000
_cell_volume 2549.320926
_symmetry_space_group_name_H-M "C 2/M"
_symmetry_group_IT_number 12
_symmetry_cell_setting 'monoclinic'
loop_
_space_group_symop_operation_xyz
x,y,z
-x,y,-z
-x,-y,-z
x,-y,z
1/2+x,1/2+y,z
1/2-x,1/2+y,-z
1/2-x,1/2-y,-z
1/2+x,1/2-y,z
loop_
_atom_site_type_symbol
_atom_site_label
_atom_site_fract_x
_atom_site_fract_y
_atom_site_fract_z
Si Si1 0.000000 0.766855 0.000000
Si Si2 0.447289 0.162586 0.362475
Si Si3 0.367587 0.081095 0.079454
Si Si4 0.850278 0.318242 0.742028
Si Si5 0.221730 0.821268 0.605804
Si Si6 0.783214 0.917789 0.760106
Si Si7 0.861822 0.182378 0.986382
O O1 0.059244 0.817110 0.047310
O O2 0.979558 0.719563 0.200407
O O3 0.500000 0.131076 0.500000
O O4 0.414659 0.099114 0.248711
O O5 0.391317 0.198891 0.522977
O O6 0.292510 0.098491 0.161983
O O7 0.377854 0.000000 0.016470
O O8 0.388922 0.129275 0.879159
O O9 0.781297 0.354978 0.712533
O O10 0.834002 0.244761 0.857672
O O11 0.250000 0.750000 0.500000
O O12 0.197121 0.877627 0.452744
O O13 0.160538 0.803850 0.774354
O O14 0.831613 0.890940 0.918036
O O15 0.796102 0.000000 0.724192
#
# Coordination Sequence:
#
# PCOD8115588 Si02
#       7
#     4   8   8   8   8   8   8
#     4  12  26  42  66 100 128 170 220 274 324 390
#     4  12  23  42  65  93 137 170 220 268 323 389
#     4  11  24  42  63  96 138 175 217 267 321 391
#     4  12  22  39  68  99 125 168 224 272 321 379
#     4  12  22  37  69 103 127 164 220 274 330 380
#     4  11  25  43  65 100 138 169 213 271 332 392
#     4  12  24  41  68  96 131 168 216 277 327 384
#
# _framework density 20.397587999999999
#
# number of rings (size 3 to 8) (size 9 to 14) (size 15 to 20)
#    0.000    0.308    7.692    2.308    0.000    2.154 
#    0.000    3.077    0.000    0.923    0.000    0.000 
#    0.000    0.000    0.000    0.000    0.000    0.000 
#
# Total GULP energy -322471.711726 kJ/mol
# GULP energy per Si atom -12402.758143 kJ/mol
# Density = 2.035116 g / cm^3
# Si number density = 20.397588 Si / 1000 Ang^3
#
#
#
# Elastic Constant Matrix: (Units=GPa)
#
#
# Indices 1 2 3 4 5 6 
#
# 1 127.5349 35.4506 41.7763 0.0000 8.7962 0.0000
# 2 35.4506 109.6384 50.1736 0.0000 3.4062 0.0000
# 3 41.7763 50.1736 129.2135 0.0000 -9.5390 0.0000
# 4 0.0000 0.0000 0.0000 29.4069 0.0000 7.4458
# 5 8.7962 3.4062 -9.5390 0.0000 44.5360 0.0000
# 6 0.0000 0.0000 0.0000 7.4458 0.0000 24.5795
#
#
#
# Elastic Compliance Matrix: (Units=1/GPa)
#
#
# Indices 1 2 3 4 5 6 
#
# 1 0.009307 -0.001809 -0.002471 0.000000 -0.002229 0.000000
# 2 -0.001809 0.011587 -0.004017 0.000000 -0.001389 0.000000
# 3 -0.002471 -0.004017 0.010320 0.000000 0.003006 0.000000
# 4 0.000000 0.000000 0.000000 0.036831 0.000000 -0.011157
# 5 -0.002229 -0.001389 0.003006 0.000000 0.023644 0.000000
# 6 0.000000 0.000000 0.000000 -0.011157 0.000000 0.044064
#
#
# Mechanical properties :
#
#
# Convention : Reuss Voigt Hill
#
# Bulk Modulus (GPa) = 68.40185 69.02087 68.71136
# Shear Modulus (GPa) = 31.80243 35.63691 33.71967
#
# Velocity S-wave (km/s) = 3.95286 4.18438 4.07027
# Velocity P-wave (km/s) = 7.37839 7.56681 7.47319
#
# Compressibility (1/GPa) = 0.01461949
#
# Stress axis : x y z
#
# Youngs Moduli (GPa) = 107.44475 86.30113 96.90158
#
# Poissons Ratio (x) = 0.15614 0.23946
# Poissons Ratio (y) = 0.19439 0.38925
# Poissons Ratio (z) = 0.26551 0.34667
#
# Static dielectric constant tensor:
#      x y z
#    x 4.001510 0.000000 0.139020 
#    y 0.000000 3.350670 0.000000 
#    z 0.139020 0.000000 3.970610 
# 
# 
# High freq. dielectric constant tensor:
#      x y z
#    x 1.803280 0.000000 0.007970 
#    y 0.000000 1.761910 0.000000 
#    z 0.007970 0.000000 1.818750 
# 
# From -- ./inp_files/21170.got.cif
#   From: 2010.06.25/outbox.cif.g09.slc.cpg/sg12_11_cif.got.tgz:21170.got - 2010.06.28 00:19:55.
