data_PCOD8115510
_publ_section_title
;
Structure prediction by ZEFSAII (Michael W. Deem and Ramdas Pophale) SiO2 
 PCOD8115510
Probable space group: C 2/M
;
_chemical_formula_sum "Si O2"
_cell_formula_units_Z 40
_cell_length_a 8.887929
_cell_length_b 14.507755
_cell_length_c 14.938432
_cell_angle_alpha 90.000000
_cell_angle_beta 90.841049
_cell_angle_gamma 90.000000
_cell_volume 1926.012105
_symmetry_space_group_name_H-M "C 2/M"
_symmetry_group_IT_number 12
_symmetry_cell_setting 'monoclinic'
loop_
_space_group_symop_operation_xyz
x,y,z
-x,y,-z
-x,-y,-z
x,-y,z
1/2+x,1/2+y,z
1/2-x,1/2+y,-z
1/2-x,1/2-y,-z
1/2+x,1/2-y,z
loop_
_atom_site_type_symbol
_atom_site_label
_atom_site_fract_x
_atom_site_fract_y
_atom_site_fract_z
Si Si1 0.234120 0.500000 0.351934
Si Si2 0.678678 0.649305 0.505709
Si Si3 0.932517 0.349197 0.091324
Si Si4 0.538643 0.000000 0.765445
Si Si5 0.791395 0.000000 0.635025
Si Si6 0.926359 0.848525 0.909073
Si Si7 0.976584 0.000000 0.225614
O O1 0.273234 0.594217 0.404769
O O2 0.300969 0.500000 0.250320
O O3 0.057987 0.500000 0.326617
O O4 0.500000 0.657753 0.500000
O O5 0.750000 0.750000 0.500000
O O6 0.741355 0.591419 0.422361
O O7 0.985326 0.410327 0.174493
O O8 0.752660 0.343597 0.081359
O O9 0.004430 0.250533 0.109657
O O10 0.000000 0.390961 0.000000
O O11 0.706730 0.000000 0.728960
O O12 0.962648 0.000000 0.670940
O O13 0.973315 0.909758 0.826132
O O14 0.000000 0.890276 0.000000
#
# Coordination Sequence:
#
# PCOD8115510 Si02
#       7
#     4   8   8   4   4   8   4
#     4  11  27  44  66  98 128 167 212 260 321 383
#     4  11  25  46  71  94 129 170 205 257 324 384
#     4  11  24  43  62  93 133 171 216 263 314 375
#     4  12  27  41  67  98 129 167 213 271 313 367
#     4  11  23  48  64  94 136 160 212 264 315 385
#     4  11  24  41  65  93 128 176 215 261 317 373
#     4  12  23  43  67  92 131 168 213 265 316 376
#
# _framework density 20.768301999999998
#
# number of rings (size 3 to 8) (size 9 to 14) (size 15 to 20)
#    0.000    0.800    4.000    3.600    8.400    4.000 
#    0.000    0.000    0.000    0.000    0.000    0.000 
#    0.000    0.000    0.000    0.000    0.000    0.000 
#
# Total GULP energy -247988.208471 kJ/mol
# GULP energy per Si atom -12399.410424 kJ/mol
# Density = 2.072103 g / cm^3
# Si number density = 20.768302 Si / 1000 Ang^3
#
#
#
# Elastic Constant Matrix: (Units=GPa)
#
#
# Indices 1 2 3 4 5 6 
#
# 1 97.5521 45.9233 42.3375 0.0000 11.0097 0.0000
# 2 45.9233 146.7800 71.1793 0.0000 0.5484 0.0000
# 3 42.3375 71.1793 128.5456 0.0000 -2.4129 0.0000
# 4 0.0000 0.0000 0.0000 -46.5585 0.0000 -2.0549
# 5 11.0097 0.5484 -2.4129 0.0000 47.4671 0.0000
# 6 0.0000 0.0000 0.0000 -2.0549 0.0000 31.0019
#
#
#
# Elastic Compliance Matrix: (Units=1/GPa)
#
#
# Indices 1 2 3 4 5 6 
#
# 1 0.013131 -0.002694 -0.002893 0.000000 -0.003162 0.000000
# 2 -0.002694 0.009873 -0.004575 0.000000 0.000278 0.000000
# 3 -0.002893 -0.004575 0.011289 0.000000 0.001298 0.000000
# 4 0.000000 0.000000 0.000000 -0.021416 0.000000 -0.001419
# 5 -0.003162 0.000278 0.001298 0.000000 0.021863 0.000000
# 6 0.000000 0.000000 0.000000 -0.001419 0.000000 0.032162
#
#
# Mechanical properties :
#
#
# Convention : Reuss Voigt Hill
#
# Bulk Modulus (GPa) = 71.57243 76.86197 74.21720
# Shear Modulus (GPa) = 54.41723 20.61126 37.51424
#
# Velocity S-wave (km/s) = 5.12435 3.15372 4.25470
# Velocity P-wave (km/s) = 8.33961 7.09583 7.74274
#
# Compressibility (1/GPa) = 0.01397186
#
# Stress axis : x y z
#
# Youngs Moduli (GPa) = 76.15403 101.28544 88.57840
#
# Poissons Ratio (x) = 0.27285 0.25622
# Poissons Ratio (y) = 0.20515 0.40520
# Poissons Ratio (z) = 0.22028 0.46333
#
# Static dielectric constant tensor:
#      x y z
#    x 3.863840 0.000000 0.003950 
#    y 0.000000 10.689100 0.000000 
#    z 0.003950 0.000000 3.808820 
# 
# 
# High freq. dielectric constant tensor:
#      x y z
#    x 1.831390 0.000000 -0.002350 
#    y 0.000000 1.815740 0.000000 
#    z -0.002350 0.000000 1.823690 
# 
# From -- ./inp_files/194655.got.cif
#   From: 2010.06.25/outbox.cif.g09.slc.cpg/sg12_98_cif.got.tgz:194655.got - 2010.06.28 00:19:55.
