data_PCOD8115450
_publ_section_title
;
Structure prediction by ZEFSAII (Michael W. Deem and Ramdas Pophale) SiO2 
 PCOD8115450
Probable space group: C 2/M
;
_chemical_formula_sum "Si O2"
_cell_formula_units_Z 56
_cell_length_a 15.025088
_cell_length_b 20.958021
_cell_length_c 8.849422
_cell_angle_alpha 90.000000
_cell_angle_beta 66.228593
_cell_angle_gamma 90.000000
_cell_volume 2550.231917
_symmetry_space_group_name_H-M "C 2/M"
_symmetry_group_IT_number 12
_symmetry_cell_setting 'monoclinic'
loop_
_space_group_symop_operation_xyz
x,y,z
-x,y,-z
-x,-y,-z
x,-y,z
1/2+x,1/2+y,z
1/2-x,1/2+y,-z
1/2-x,1/2-y,-z
1/2+x,1/2-y,z
loop_
_atom_site_type_symbol
_atom_site_label
_atom_site_fract_x
_atom_site_fract_y
_atom_site_fract_z
Si Si1 0.758908 0.072307 0.574757
Si Si2 0.732059 0.761267 0.836053
Si Si3 0.403079 0.646866 0.647099
Si Si4 0.759048 0.620047 0.744103
Si Si5 0.411544 0.133240 0.164696
Si Si6 0.963083 0.572032 0.690014
Si Si7 0.585595 0.572676 0.051531
O O1 0.864894 0.090732 0.563689
O O2 0.731654 0.106864 0.439012
O O3 0.682301 0.086888 0.763163
O O4 0.757711 0.000000 0.531020
O O5 0.824194 0.796924 0.701540
O O6 0.724574 0.692751 0.767098
O O7 0.630503 0.798115 0.862349
O O8 0.750000 0.750000 0.000000
O O9 0.500000 0.673402 0.500000
O O10 0.418269 0.620707 0.805104
O O11 0.858496 0.606080 0.765023
O O12 0.682986 0.576997 0.886775
O O13 0.462532 0.124936 0.292592
O O14 0.500000 0.108635 0.000000
O O15 0.960652 0.500000 0.768198
O O16 0.000000 0.559217 0.500000
O O17 0.573258 0.500000 0.117513
O O18 0.500000 0.593900 0.000000
#
# Coordination Sequence:
#
# PCOD8115450 Si02
#       7
#     8   8   8   8   8   8   8
#     4  11  24  44  70 104 143 179 232 297 359 428
#     4  11  25  50  71 100 144 183 246 292 347 422
#     4  11  25  46  70 102 134 186 231 293 357 416
#     4  12  24  45  71 101 142 191 232 292 356 427
#     4  11  25  44  69 103 141 192 239 291 359 423
#     4  11  23  43  70 106 147 184 232 294 363 431
#     4  11  24  43  71 104 135 179 234 288 357 423
#
# _framework density 21.958787999999998
#
# number of rings (size 3 to 8) (size 9 to 14) (size 15 to 20)
#    0.000    0.857    2.857    3.857    2.000    6.857 
#   10.286    0.000    0.000    0.000    0.000    0.000 
#    0.000    0.000    0.000    0.000    0.000    0.000 
#
# Total GULP energy -346985.607288 kJ/mol
# GULP energy per Si atom -12392.343117 kJ/mol
# Density = 2.190881 g / cm^3
# Si number density = 21.958788 Si / 1000 Ang^3
#
#
#
# Elastic Constant Matrix: (Units=GPa)
#
#
# Indices 1 2 3 4 5 6 
#
# 1 132.4047 39.8277 26.7488 0.0000 -2.2561 0.0000
# 2 39.8277 103.9033 28.9820 0.0000 19.8948 0.0000
# 3 26.7488 28.9820 96.6366 0.0000 -13.5201 0.0000
# 4 0.0000 0.0000 0.0000 23.4465 0.0000 3.8493
# 5 -2.2561 19.8948 -13.5201 0.0000 40.4430 0.0000
# 6 0.0000 0.0000 0.0000 3.8493 0.0000 40.1094
#
#
#
# Elastic Compliance Matrix: (Units=1/GPa)
#
#
# Indices 1 2 3 4 5 6 
#
# 1 0.008844 -0.003400 -0.001181 0.000000 0.001771 0.000000
# 2 -0.003400 0.013755 -0.004361 0.000000 -0.008414 0.000000
# 3 -0.001181 -0.004361 0.012876 0.000000 0.006384 0.000000
# 4 0.000000 0.000000 0.000000 0.043333 0.000000 -0.004159
# 5 0.001771 -0.008414 0.006384 0.000000 0.031098 0.000000
# 6 0.000000 0.000000 0.000000 -0.004159 0.000000 0.025331
#
#
# Mechanical properties :
#
#
# Convention : Reuss Voigt Hill
#
# Bulk Modulus (GPa) = 56.84551 58.22905 57.53728
# Shear Modulus (GPa) = 31.44955 36.62552 34.03754
#
# Velocity S-wave (km/s) = 3.78856 4.08845 3.94136
# Velocity P-wave (km/s) = 6.71425 6.99015 6.85359
#
# Compressibility (1/GPa) = 0.01759154
#
# Stress axis : x y z
#
# Youngs Moduli (GPa) = 113.07138 72.69983 77.66381
#
# Poissons Ratio (x) = 0.24717 0.09169
# Poissons Ratio (y) = 0.38443 0.33872
# Poissons Ratio (z) = 0.13349 0.31707
#
# Static dielectric constant tensor:
#      x y z
#    x 3.896550 0.000000 -0.457430 
#    y 0.000000 4.006230 0.000000 
#    z -0.457430 0.000000 3.725050 
# 
# 
# High freq. dielectric constant tensor:
#      x y z
#    x 1.879130 0.000000 -0.004680 
#    y 0.000000 1.855910 0.000000 
#    z -0.004680 0.000000 1.871020 
# 
# From -- ./inp_files/65745.got.cif
#   From: 2010.06.25/outbox.cif.g09.slc.cpg/sg12_33_cif.got.tgz:65745.got - 2010.06.28 00:19:55.
