data_PCOD8115761
_publ_section_title
;
Structure prediction by ZEFSAII (Michael W. Deem and Ramdas Pophale) SiO2 
 PCOD8115761
Probable space group: C 2/M
;
_chemical_formula_sum "Si O2"
_cell_formula_units_Z 64
_cell_length_a 9.502030
_cell_length_b 27.196859
_cell_length_c 24.528186
_cell_angle_alpha 90.000000
_cell_angle_beta 151.721473
_cell_angle_gamma 90.000000
_cell_volume 3003.013700
_symmetry_space_group_name_H-M "C 2/M"
_symmetry_group_IT_number 12
_symmetry_cell_setting 'monoclinic'
loop_
_space_group_symop_operation_xyz
x,y,z
-x,y,-z
-x,-y,-z
x,-y,z
1/2+x,1/2+y,z
1/2-x,1/2+y,-z
1/2-x,1/2-y,-z
1/2+x,1/2-y,z
loop_
_atom_site_type_symbol
_atom_site_label
_atom_site_fract_x
_atom_site_fract_y
_atom_site_fract_z
Si Si1 0.815032 0.900595 0.082645
Si Si2 0.799676 0.597786 0.484355
Si Si3 0.041874 0.199972 0.210756
Si Si4 0.449862 0.226632 0.876116
Si Si5 0.840880 0.557305 0.721432
Si Si6 0.699898 0.873667 0.924499
Si Si7 0.919383 0.555978 0.313567
Si Si8 0.912343 0.295317 0.528721
O O1 0.912966 0.846570 0.135057
O O2 0.064561 0.939307 0.185808
O O3 0.500000 0.916219 0.000000
O O4 0.785649 0.903156 0.007863
O O5 0.503036 0.565654 0.381800
O O6 0.710350 0.655736 0.453297
O O7 0.000000 0.584354 0.500000
O O8 0.977866 0.588053 0.600545
O O9 0.180976 0.238862 0.215854
O O10 0.299476 0.185757 0.340341
O O11 0.775827 0.226817 0.151051
O O12 0.485614 0.171597 0.865520
O O13 0.750000 0.250000 0.000000
O O14 0.918900 0.500000 0.755720
O O15 0.040031 0.588652 0.829992
O O16 0.911360 0.574062 0.683436
O O17 0.000000 0.852795 0.000000
O O18 0.002543 0.500000 0.354336
O O19 0.750000 0.250000 0.500000
O O20 0.000000 0.274851 0.500000
#
# Coordination Sequence:
#
# PCOD8115761 Si02
#       8
#     8   8   8   8   8   8   8   8
#     4  12  24  44  68 102 140 182 225 286 347 410
#     4  11  26  47  74 103 138 179 233 290 349 408
#     4  12  24  43  67  94 140 177 224 283 338 413
#     4  12  24  41  66 100 132 180 226 274 334 408
#     4  11  27  47  72 103 136 183 233 287 348 417
#     4  12  25  43  70 101 140 181 230 280 346 417
#     4  11  25  48  73 100 138 181 230 290 349 414
#     4  11  26  45  66 100 136 178 222 278 341 404
#
# _framework density 21.311924000000001
#
# number of rings (size 3 to 8) (size 9 to 14) (size 15 to 20)
#    0.000    0.500    5.000    2.625    7.000    4.000 
#    0.000    0.000    0.000    0.000    0.000    0.000 
#    0.000    0.000    0.000    0.000    0.000    0.000 
#
# Total GULP energy -396962.354543 kJ/mol
# GULP energy per Si atom -12405.073579 kJ/mol
# Density = 2.126342 g / cm^3
# Si number density = 21.311924 Si / 1000 Ang^3
#
#
#
# Elastic Constant Matrix: (Units=GPa)
#
#
# Indices 1 2 3 4 5 6 
#
# 1 145.4218 45.7513 43.1471 -0.0305 -12.4400 -0.0151
# 2 45.7513 88.8485 22.3833 -0.0085 -7.3240 -0.0048
# 3 43.1471 22.3833 91.2058 -0.0724 -7.1139 -0.0372
# 4 -0.0305 -0.0085 -0.0724 127.9370 -0.0300 45.7040
# 5 -12.4400 -7.3240 -7.1139 -0.0300 41.5781 -0.0194
# 6 -0.0151 -0.0048 -0.0372 45.7040 -0.0194 58.5905
#
#
#
# Elastic Compliance Matrix: (Units=1/GPa)
#
#
# Indices 1 2 3 4 5 6 
#
# 1 0.009169 -0.003766 -0.003295 0.000000 0.001516 0.000000
# 2 -0.003766 0.013654 -0.001489 -0.000001 0.001024 0.000000
# 3 -0.003295 -0.001489 0.012964 0.000005 0.000970 0.000003
# 4 0.000000 -0.000001 0.000005 0.010836 0.000005 -0.008453
# 5 0.001516 0.001024 0.000970 0.000005 0.024851 0.000006
# 6 0.000000 0.000000 0.000003 -0.008453 0.000006 0.023661
#
#
# Mechanical properties :
#
#
# Convention : Reuss Voigt Hill
#
# Bulk Modulus (GPa) = 53.51653 60.89327 57.20490
# Shear Modulus (GPa) = 42.20659 59.90076 51.05368
#
# Velocity S-wave (km/s) = 4.45502 5.30733 4.89974
# Velocity P-wave (km/s) = 7.18530 8.13581 7.67528
#
# Compressibility (1/GPa) = 0.01868582
#
# Stress axis : x y z
#
# Youngs Moduli (GPa) = 109.06586 73.23819 77.13582
#
# Poissons Ratio (x) = 0.27583 0.25416
# Poissons Ratio (y) = 0.41077 0.11488
# Poissons Ratio (z) = 0.35937 0.10908
#
# Static dielectric constant tensor:
#      x y z
#    x 4.195760 -0.000020 -0.053150 
#    y -0.000020 3.812700 -0.000020 
#    z -0.053150 -0.000020 3.982520 
# 
# 
# High freq. dielectric constant tensor:
#      x y z
#    x 1.852320 0.000000 -0.008900 
#    y 0.000000 1.834630 0.000000 
#    z -0.008900 0.000000 1.842950 
# 
# From -- ./inp_files/201305.got.cif
#   From: 2010.06.25/outbox.cif.g09.slc.cpg/sg12_101_cif.got.tgz:201305.got - 2010.06.28 00:19:55.
