data_PCOD8115018
_publ_section_title
;
Structure prediction by ZEFSAII (Michael W. Deem and Ramdas Pophale) SiO2 
 PCOD8115018
Probable space group: C 2/M
;
_chemical_formula_sum "Si O2"
_cell_formula_units_Z 44
_cell_length_a 21.809457
_cell_length_b 20.823111
_cell_length_c 5.043510
_cell_angle_alpha 90.000000
_cell_angle_beta 71.032546
_cell_angle_gamma 90.000000
_cell_volume 2166.098911
_symmetry_space_group_name_H-M "C 2/M"
_symmetry_group_IT_number 12
_symmetry_cell_setting 'monoclinic'
loop_
_space_group_symop_operation_xyz
x,y,z
-x,y,-z
-x,-y,-z
x,-y,z
1/2+x,1/2+y,z
1/2-x,1/2+y,-z
1/2-x,1/2-y,-z
1/2+x,1/2-y,z
loop_
_atom_site_type_symbol
_atom_site_label
_atom_site_fract_x
_atom_site_fract_y
_atom_site_fract_z
Si Si1 0.858662 0.883666 0.432590
Si Si2 0.215059 0.924713 0.964676
Si Si3 0.043700 0.227557 0.699184
Si Si4 0.044856 0.000000 0.686384
Si Si5 0.570312 0.128200 0.807885
Si Si6 0.364047 0.926431 0.790014
O O1 0.802612 0.896422 0.724653
O O2 0.892903 0.815604 0.434150
O O3 0.912894 0.936917 0.381082
O O4 0.825760 0.885129 0.191988
O O5 0.197102 0.000000 0.970860
O O6 0.290555 0.912865 0.806284
O O7 0.070218 0.297254 0.735902
O O8 0.000000 0.230818 0.500000
O O9 0.000000 0.199425 0.000000
O O10 0.000000 0.000000 0.500000
O O11 0.000000 0.000000 0.000000
O O12 0.590119 0.087935 0.523019
O O13 0.500000 0.103799 0.000000
O O14 0.619604 0.117773 0.981290
O O15 0.373190 0.000000 0.864664
#
# Coordination Sequence:
#
# PCOD8115018 Si02
#       6
#     8   8   8   4   8   8
#     4  12  22  39  62  88 122 170 212 247 308 355
#     4  11  22  41  60  88 125 168 203 253 309 360
#     4  11  23  42  63  88 125 167 204 249 312 371
#     4  12  22  34  56  90 122 150 207 268 289 334
#     4  11  23  42  65  92 124 159 198 252 315 375
#     4  11  24  41  66  94 124 157 203 253 309 372
#
# _framework density 20.313016000000001
#
# number of rings (size 3 to 8) (size 9 to 14) (size 15 to 20)
#    0.000    0.727    1.818    7.636    0.000    5.091 
#    0.000    5.455    0.000    0.000    0.000    0.000 
#    0.000    0.000    0.000    0.000    0.000    0.000 
#
# Total GULP energy -272957.124146 kJ/mol
# GULP energy per Si atom -12407.142007 kJ/mol
# Density = 2.026678 g / cm^3
# Si number density = 20.313016 Si / 1000 Ang^3
#
#
#
# Elastic Constant Matrix: (Units=GPa)
#
#
# Indices 1 2 3 4 5 6 
#
# 1 107.9640 68.0156 37.6599 0.0000 16.1337 0.0000
# 2 68.0156 85.6205 37.5618 0.0000 -4.5455 0.0000
# 3 37.6599 37.5618 128.2755 0.0000 4.7235 0.0000
# 4 0.0000 0.0000 0.0000 28.5900 0.0000 -1.2706
# 5 16.1337 -4.5455 4.7235 0.0000 46.7040 0.0000
# 6 0.0000 0.0000 0.0000 -1.2706 0.0000 28.0208
#
#
#
# Elastic Compliance Matrix: (Units=1/GPa)
#
#
# Indices 1 2 3 4 5 6 
#
# 1 0.022065 -0.017585 -0.000989 0.000000 -0.009234 0.000000
# 2 -0.017585 0.027552 -0.003240 0.000000 0.009084 0.000000
# 3 -0.000989 -0.003240 0.009067 0.000000 -0.000891 0.000000
# 4 0.000000 0.000000 0.000000 0.035048 0.000000 0.001589
# 5 -0.009234 0.009084 -0.000891 0.000000 0.025575 0.000000
# 6 0.000000 0.000000 0.000000 0.001589 0.000000 0.035760
#
#
# Mechanical properties :
#
#
# Convention : Reuss Voigt Hill
#
# Bulk Modulus (GPa) = 66.40883 67.59272 67.00078
# Shear Modulus (GPa) = 24.54432 32.57115 28.55774
#
# Velocity S-wave (km/s) = 3.47984 4.00867 3.75358
# Velocity P-wave (km/s) = 6.99353 7.40093 7.20011
#
# Compressibility (1/GPa) = 0.01505824
#
# Stress axis : x y z
#
# Youngs Moduli (GPa) = 45.32042 36.29521 110.28422
#
# Poissons Ratio (x) = 0.63824 0.10905
# Poissons Ratio (y) = 0.79694 0.35729
# Poissons Ratio (z) = 0.04482 0.11758
#
# Static dielectric constant tensor:
#      x y z
#    x 3.788920 0.000000 -0.002880 
#    y 0.000000 3.652700 0.000000 
#    z -0.002880 0.000000 3.966840 
# 
# 
# High freq. dielectric constant tensor:
#      x y z
#    x 1.804280 0.000000 0.003990 
#    y 0.000000 1.787120 0.000000 
#    z 0.003990 0.000000 1.813850 
# 
# From -- ./inp_files/20895.got.cif
#   From: 2010.06.25/outbox.cif.g09.slc.cpg/sg12_11_cif.got.tgz:20895.got - 2010.06.28 00:19:55.
