data_PCOD8115396
_publ_section_title
;
Structure prediction by ZEFSAII (Michael W. Deem and Ramdas Pophale) SiO2 
 PCOD8115396
Probable space group: C 2/M
;
_chemical_formula_sum "Si O2"
_cell_formula_units_Z 64
_cell_length_a 19.322269
_cell_length_b 8.730513
_cell_length_c 26.482100
_cell_angle_alpha 90.000000
_cell_angle_beta 133.518242
_cell_angle_gamma 90.000000
_cell_volume 3239.524423
_symmetry_space_group_name_H-M "C 2/M"
_symmetry_group_IT_number 12
_symmetry_cell_setting 'monoclinic'
loop_
_space_group_symop_operation_xyz
x,y,z
-x,y,-z
-x,-y,-z
x,-y,z
1/2+x,1/2+y,z
1/2-x,1/2+y,-z
1/2-x,1/2-y,-z
1/2+x,1/2-y,z
loop_
_atom_site_type_symbol
_atom_site_label
_atom_site_fract_x
_atom_site_fract_y
_atom_site_fract_z
Si Si1 0.893460 0.667564 0.583956
Si Si2 0.694300 0.318788 0.018737
Si Si3 0.195909 0.181303 0.833774
Si Si4 0.198455 0.167468 0.546261
Si Si5 0.003853 0.681135 0.267556
Si Si6 0.306627 0.818594 0.696207
Si Si7 0.999063 0.678760 0.058507
Si Si8 0.190984 0.180350 0.195888
O O1 0.933155 0.500000 0.592026
O O2 0.887628 0.749406 0.526596
O O3 0.789501 0.657461 0.556000
O O4 0.964261 0.743853 0.660830
O O5 0.709614 0.500000 0.029225
O O6 0.729767 0.239145 0.087467
O O7 0.750000 0.250000 0.000000
O O8 0.583277 0.277935 0.956218
O O9 0.089405 0.227482 0.796798
O O10 0.220375 0.263687 0.793387
O O11 0.205858 0.000000 0.833357
O O12 0.231282 0.241730 0.615947
O O13 0.158578 0.000000 0.537994
O O14 0.983630 0.500000 0.259531
O O15 0.085753 0.716418 0.267928
O O16 0.283794 0.721200 0.734097
O O17 0.294588 0.000000 0.699491
O O18 0.981109 0.500000 0.059927
O O19 0.097909 0.727049 0.132794
O O20 0.000000 0.716647 0.000000
O O21 0.174937 0.000000 0.181233
#
# Coordination Sequence:
#
# PCOD8115396 Si02
#       8
#     8   8   8   8   8   8   8   8
#     4   8  14  26  47  76 110 147 184 228 279 335
#     4  12  26  44  66  91 120 152 190 235 286 339
#     4  12  25  42  61  84 116 153 194 237 288 345
#     4   8  14  26  47  76 110 147 185 228 277 333
#     4   9  19  36  57  83 116 153 192 234 288 344
#     4   9  19  36  57  83 117 153 191 235 286 340
#     4  11  23  42  67  90 116 150 191 236 285 340
#     4  12  25  40  61  86 115 152 195 239 287 344
#
# _framework density 19.755984999999999
#
# number of rings (size 3 to 8) (size 9 to 14) (size 15 to 20)
#    0.000    1.875    1.250    5.250    1.750    2.000 
#    0.000    2.500    0.000    0.750    0.000    5.250 
#    0.000    0.000    0.000    0.000    0.000    0.000 
#
# Total GULP energy -396734.104526 kJ/mol
# GULP energy per Si atom -12397.940766 kJ/mol
# Density = 1.971102 g / cm^3
# Si number density = 19.755985 Si / 1000 Ang^3
#
#
#
# Elastic Constant Matrix: (Units=GPa)
#
#
# Indices 1 2 3 4 5 6 
#
# 1 66.4591 26.8160 10.8646 0.0000 -16.9653 0.0000
# 2 26.8160 79.7814 25.5085 0.0000 -13.4381 0.0000
# 3 10.8646 25.5085 65.2740 0.0000 -24.6242 0.0000
# 4 0.0000 0.0000 0.0000 36.9275 0.0000 -0.3152
# 5 -16.9653 -13.4381 -24.6242 0.0000 28.1883 0.0000
# 6 0.0000 0.0000 0.0000 -0.3152 0.0000 25.4705
#
#
#
# Elastic Compliance Matrix: (Units=1/GPa)
#
#
# Indices 1 2 3 4 5 6 
#
# 1 0.019955 -0.005773 0.003620 0.000000 0.012420 0.000000
# 2 -0.005773 0.016154 -0.005604 0.000000 -0.000669 0.000000
# 3 0.003620 -0.005604 0.024941 0.000000 0.021294 0.000000
# 4 0.000000 0.000000 0.000000 0.027083 0.000000 0.000335
# 5 0.012420 -0.000669 0.021294 0.000000 0.061234 0.000000
# 6 0.000000 0.000000 0.000000 0.000335 0.000000 0.039265
#
#
# Mechanical properties :
#
#
# Convention : Reuss Voigt Hill
#
# Bulk Modulus (GPa) = 21.96095 37.54363 29.75229
# Shear Modulus (GPa) = 22.79738 28.00562 25.40150
#
# Velocity S-wave (km/s) = 3.40067 3.76916 3.58964
# Velocity P-wave (km/s) = 5.15360 6.16336 5.68096
#
# Compressibility (1/GPa) = 0.04553538
#
# Stress axis : x y z
#
# Youngs Moduli (GPa) = 50.11320 61.90546 40.09511
#
# Poissons Ratio (x) = 0.35735 -0.14514
# Poissons Ratio (y) = 0.28928 0.22470
# Poissons Ratio (z) = -0.18140 0.34693
#
# Static dielectric constant tensor:
#      x y z
#    x 3.370970 0.000000 -0.068550 
#    y 0.000000 3.665220 0.000000 
#    z -0.068550 0.000000 3.845100 
# 
# 
# High freq. dielectric constant tensor:
#      x y z
#    x 1.743110 0.000000 -0.006180 
#    y 0.000000 1.766490 0.000000 
#    z -0.006180 0.000000 1.781630 
# 
# From -- ./inp_files/346127.got.cif
#   From: 2010.06.25/outbox.cif.g09.slc.cpg/sg12_174_cif.got.tgz:346127.got - 2010.06.28 00:19:55.
