data_PCOD8115402
_publ_section_title
;
Structure prediction by ZEFSAII (Michael W. Deem and Ramdas Pophale) SiO2 
 PCOD8115402
Probable space group: C 2/M
;
_chemical_formula_sum "Si O2"
_cell_formula_units_Z 64
_cell_length_a 14.564507
_cell_length_b 17.852363
_cell_length_c 21.639527
_cell_angle_alpha 90.000000
_cell_angle_beta 148.081018
_cell_angle_gamma 90.000000
_cell_volume 2974.847078
_symmetry_space_group_name_H-M "C 2/M"
_symmetry_group_IT_number 12
_symmetry_cell_setting 'monoclinic'
loop_
_space_group_symop_operation_xyz
x,y,z
-x,y,-z
-x,-y,-z
x,-y,z
1/2+x,1/2+y,z
1/2-x,1/2+y,-z
1/2-x,1/2-y,-z
1/2+x,1/2-y,z
loop_
_atom_site_type_symbol
_atom_site_label
_atom_site_fract_x
_atom_site_fract_y
_atom_site_fract_z
Si Si1 0.927327 0.080915 0.392535
Si Si2 0.056670 0.318683 0.843148
Si Si3 0.355111 0.640639 0.865310
Si Si4 0.695232 0.417293 0.439854
Si Si5 0.802789 0.694867 0.802795
Si Si6 0.405606 0.340638 0.199955
Si Si7 0.863286 0.083372 0.054971
Si Si8 0.490671 0.085913 0.695005
O O1 0.819735 0.154811 0.316109
O O2 0.000000 0.097178 0.500000
O O3 0.090101 0.073191 0.441871
O O4 0.824809 0.000000 0.330751
O O5 0.078637 0.235458 0.829618
O O6 0.939800 0.365381 0.727041
O O7 0.990120 0.318616 0.876870
O O8 0.244567 0.356430 0.952397
O O9 0.272483 0.716917 0.791282
O O10 0.441697 0.594395 0.859060
O O11 0.196359 0.592809 0.800738
O O12 0.500000 0.657861 0.000000
O O13 0.713042 0.500000 0.417926
O O14 0.593756 0.358253 0.338214
O O15 0.883594 0.387591 0.572161
O O16 0.756272 0.660078 0.843685
O O17 0.361439 0.407052 0.127734
O O18 0.796202 0.000000 0.001574
O O19 0.444250 0.000000 0.682699
#
# Coordination Sequence:
#
# PCOD8115402 Si02
#       8
#     8   8   8   8   8   8   8   8
#     4   9  18  37  63  92 131 173 214 267 324 383
#     4  12  24  40  67  97 130 169 220 276 321 383
#     4  12  24  43  69  94 132 176 217 273 327 384
#     4   9  20  39  64  92 130 174 215 263 325 393
#     4  11  24  40  65  98 131 169 217 266 328 395
#     4  11  23  44  66  93 135 176 212 261 332 397
#     4  12  26  44  68  97 131 175 223 269 331 390
#     4  11  23  42  68 101 131 167 224 281 325 380
#
# _framework density 21.51371
#
# number of rings (size 3 to 8) (size 9 to 14) (size 15 to 20)
#    0.000    1.125    3.750    2.250    1.750    3.500 
#    2.250    1.250    0.000    2.250    0.000    0.000 
#    0.000    0.000    0.000    0.000    0.000    0.000 
#
# Total GULP energy -396473.575331 kJ/mol
# GULP energy per Si atom -12389.799229 kJ/mol
# Density = 2.146474 g / cm^3
# Si number density = 21.513710 Si / 1000 Ang^3
#
#
#
# Elastic Constant Matrix: (Units=GPa)
#
#
# Indices 1 2 3 4 5 6 
#
# 1 123.1583 31.1272 24.6705 0.0173 -5.2947 -0.0218
# 2 31.1272 107.6035 44.8833 0.0523 -12.1849 -0.0651
# 3 24.6705 44.8833 87.4434 0.1210 -10.4708 -0.1506
# 4 0.0173 0.0523 0.1210 525.1994 0.0361 -640.7655
# 5 -5.2947 -12.1849 -10.4708 0.0361 29.3341 -0.0461
# 6 -0.0218 -0.0651 -0.1506 -640.7655 -0.0461 855.4983
#
#
#
# Elastic Compliance Matrix: (Units=1/GPa)
#
#
# Indices 1 2 3 4 5 6 
#
# 1 0.008917 -0.001925 -0.001495 0.000000 0.000276 0.000000
# 2 -0.001925 0.012476 -0.005518 0.000000 0.002865 0.000000
# 3 -0.001495 -0.005518 0.015025 -0.000002 0.002802 0.000001
# 4 0.000000 0.000000 -0.000002 0.022091 -0.000002 0.016546
# 5 0.000276 0.002865 0.002802 -0.000002 0.036330 0.000001
# 6 0.000000 0.000000 0.000001 0.016546 0.000001 0.013562
#
#
# Mechanical properties :
#
#
# Convention : Reuss Voigt Hill
#
# Bulk Modulus (GPa) = 53.92471 57.72970 55.82720
# Shear Modulus (GPa) = 37.74802 296.50799 167.12801
#
# Velocity S-wave (km/s) = 4.19334 11.75253 8.82344
# Velocity P-wave (km/s) = 6.96887 14.52773 11.39342
#
# Compressibility (1/GPa) = 0.01854437
#
# Stress axis : x y z
#
# Youngs Moduli (GPa) = 112.14002 80.15288 66.55440
#
# Poissons Ratio (x) = 0.15428 0.09949
# Poissons Ratio (y) = 0.21585 0.36722
# Poissons Ratio (z) = 0.16763 0.44226
#
# Static dielectric constant tensor:
#      x y z
#    x 4.109630 0.000000 0.002960 
#    y 0.000000 3.908650 -0.000010 
#    z 0.002960 -0.000010 3.830690 
# 
# 
# High freq. dielectric constant tensor:
#      x y z
#    x 1.852320 0.000000 -0.004710 
#    y 0.000000 1.846350 0.000000 
#    z -0.004710 0.000000 1.830300 
# 
# From -- ./inp_files/340858.got.cif
#   From: 2010.06.25/outbox.cif.g09.slc.cpg/sg12_171_cif.got.tgz:340858.got - 2010.06.28 00:19:55.
