data_PCOD8115375
_publ_section_title
;
Structure prediction by ZEFSAII (Michael W. Deem and Ramdas Pophale) SiO2 
 PCOD8115375
Probable space group: C 2/M
;
_chemical_formula_sum "Si O2"
_cell_formula_units_Z 56
_cell_length_a 16.585463
_cell_length_b 17.704333
_cell_length_c 11.593186
_cell_angle_alpha 90.000000
_cell_angle_beta 132.005016
_cell_angle_gamma 90.000000
_cell_volume 2529.584517
_symmetry_space_group_name_H-M "C 2/M"
_symmetry_group_IT_number 12
_symmetry_cell_setting 'monoclinic'
loop_
_space_group_symop_operation_xyz
x,y,z
-x,y,-z
-x,-y,-z
x,-y,z
1/2+x,1/2+y,z
1/2-x,1/2+y,-z
1/2-x,1/2-y,-z
1/2+x,1/2-y,z
loop_
_atom_site_type_symbol
_atom_site_label
_atom_site_fract_x
_atom_site_fract_y
_atom_site_fract_z
Si Si1 0.287361 0.657059 0.181307
Si Si2 0.363849 0.911918 0.151120
Si Si3 0.298952 0.183819 0.290622
Si Si4 0.907740 0.661121 0.625097
Si Si5 0.994550 0.086663 0.268816
Si Si6 0.933277 0.206004 0.828737
Si Si7 0.728158 0.586302 0.595358
O O1 0.310220 0.746437 0.211881
O O2 0.396515 0.612845 0.255512
O O3 0.241773 0.632557 0.261897
O O4 0.194804 0.639267 0.000469
O O5 0.316299 0.891348 0.231389
O O6 0.491370 0.895168 0.269265
O O7 0.342691 0.000000 0.106625
O O8 0.391165 0.188706 0.477739
O O9 0.183640 0.179631 0.241674
O O10 0.925820 0.733979 0.720122
O O11 0.800527 0.616321 0.560061
O O12 0.999928 0.134238 0.155952
O O13 0.103140 0.098668 0.445724
O O14 0.976850 0.000000 0.216826
O O15 0.000000 0.240342 0.000000
O O16 0.756013 0.500000 0.646031
#
# Coordination Sequence:
#
# PCOD8115375 Si02
#       7
#     8   8   8   8   8   8   8
#     4  12  24  46  70 103 142 183 236 289 351 414
#     4  12  28  46  71 107 146 187 230 289 359 422
#     4  12  25  46  72  99 140 188 239 285 341 418
#     4  12  25  46  69 103 140 185 237 283 342 422
#     4  11  24  42  67 100 136 180 232 287 347 411
#     4  12  24  43  70 102 136 179 232 291 350 411
#     4  11  23  41  70 101 139 184 230 286 346 413
#
# _framework density 22.138023
#
# number of rings (size 3 to 8) (size 9 to 14) (size 15 to 20)
#    0.000    0.286    2.857    6.857    0.000    4.857 
#    0.000    1.429    0.000    0.000    0.000    0.000 
#    0.000    0.000    0.000    0.000    0.000    0.000 
#
# Total GULP energy -347428.271361 kJ/mol
# GULP energy per Si atom -12408.152549 kJ/mol
# Density = 2.208764 g / cm^3
# Si number density = 22.138023 Si / 1000 Ang^3
#
#
#
# Elastic Constant Matrix: (Units=GPa)
#
#
# Indices 1 2 3 4 5 6 
#
# 1 83.3831 29.9279 37.3959 0.0000 0.5223 0.0000
# 2 29.9279 78.2849 25.7372 0.0000 7.0519 0.0000
# 3 37.3959 25.7372 138.1787 0.0000 -4.7590 0.0000
# 4 0.0000 0.0000 0.0000 27.7627 0.0000 -1.6088
# 5 0.5223 7.0519 -4.7590 0.0000 31.0570 0.0000
# 6 0.0000 0.0000 0.0000 -1.6088 0.0000 33.9789
#
#
#
# Elastic Compliance Matrix: (Units=1/GPa)
#
#
# Indices 1 2 3 4 5 6 
#
# 1 0.015135 -0.004765 -0.003197 0.000000 0.000338 0.000000
# 2 -0.004765 0.015496 -0.001724 0.000000 -0.003703 0.000000
# 3 -0.003197 -0.001724 0.008483 0.000000 0.001745 0.000000
# 4 0.000000 0.000000 0.000000 0.036119 0.000000 0.001710
# 5 0.000338 -0.003703 0.001745 0.000000 0.033301 0.000000
# 6 0.000000 0.000000 0.000000 0.001710 0.000000 0.029511
#
#
# Mechanical properties :
#
#
# Convention : Reuss Voigt Hill
#
# Bulk Modulus (GPa) = 50.65440 53.99654 52.32547
# Shear Modulus (GPa) = 30.48810 32.34542 31.41676
#
# Velocity S-wave (km/s) = 3.71507 3.82655 3.77122
# Velocity P-wave (km/s) = 6.42909 6.63077 6.53071
#
# Compressibility (1/GPa) = 0.01974162
#
# Stress axis : x y z
#
# Youngs Moduli (GPa) = 66.07282 64.53281 117.87719
#
# Poissons Ratio (x) = 0.30752 0.37683
# Poissons Ratio (y) = 0.31486 0.20324
# Poissons Ratio (z) = 0.21122 0.11126
#
# Static dielectric constant tensor:
#      x y z
#    x 4.118270 0.000000 -0.022460 
#    y 0.000000 4.032150 0.000000 
#    z -0.022460 0.000000 4.059940 
# 
# 
# High freq. dielectric constant tensor:
#      x y z
#    x 1.884860 0.000000 0.000110 
#    y 0.000000 1.874230 0.000000 
#    z 0.000110 0.000000 1.880780 
# 
# From -- ./inp_files/158329.got.cif
#   From: 2010.06.25/outbox.cif.g09.slc.cpg/sg12_80_cif.got.tgz:158329.got - 2010.06.28 00:19:55.
