data_PCOD8115637
_publ_section_title
;
Structure prediction by ZEFSAII (Michael W. Deem and Ramdas Pophale) SiO2 
 PCOD8115637
Probable space group: C 2/M
;
_chemical_formula_sum "Si O2"
_cell_formula_units_Z 40
_cell_length_a 23.709075
_cell_length_b 8.315803
_cell_length_c 9.536329
_cell_angle_alpha 90.000000
_cell_angle_beta 76.384323
_cell_angle_gamma 90.000000
_cell_volume 1827.343122
_symmetry_space_group_name_H-M "C 2/M"
_symmetry_group_IT_number 12
_symmetry_cell_setting 'monoclinic'
loop_
_space_group_symop_operation_xyz
x,y,z
-x,y,-z
-x,-y,-z
x,-y,z
1/2+x,1/2+y,z
1/2-x,1/2+y,-z
1/2-x,1/2-y,-z
1/2+x,1/2-y,z
loop_
_atom_site_type_symbol
_atom_site_label
_atom_site_fract_x
_atom_site_fract_y
_atom_site_fract_z
Si Si1 0.078801 0.315851 0.105198
Si Si2 0.762155 0.813696 0.340613
Si Si3 0.386849 0.814475 0.221440
Si Si4 0.017227 0.814329 0.643929
Si Si5 0.698835 0.314118 0.125032
O O1 0.059447 0.500000 0.138497
O O2 0.142856 0.292181 0.127302
O O3 0.035322 0.203531 0.216341
O O4 0.077319 0.271363 0.940770
O O5 0.750000 0.750000 0.500000
O O6 0.828943 0.791033 0.257812
O O7 0.718210 0.709817 0.272993
O O8 0.746246 0.000000 0.335662
O O9 0.426488 0.780068 0.333455
O O10 0.367918 0.000000 0.231731
O O11 0.000000 0.746724 0.500000
O O12 0.034357 0.000000 0.621504
O O13 0.685485 0.500000 0.101295
O O14 0.750000 0.250000 0.000000
#
# Coordination Sequence:
#
# PCOD8115637 Si02
#       5
#     8   8   8   8   8
#     4  11  24  43  69  98 131 172 221 273 329 391
#     4  12  26  44  68  98 136 178 220 272 332 392
#     4  11  24  44  69  97 131 171 222 274 328 393
#     4  11  26  45  66  95 132 172 220 274 332 393
#     4  12  24  42  68 100 136 174 221 271 326 392
#
# _framework density 21.889703999999998
#
# number of rings (size 3 to 8) (size 9 to 14) (size 15 to 20)
#    0.000    0.600    2.000    6.000    2.800    6.400 
#    0.000    0.000    0.000    0.000    0.000    0.000 
#    0.000    0.000    0.000    0.000    0.000    0.000 
#
# Total GULP energy -248151.971026 kJ/mol
# GULP energy per Si atom -12407.598551 kJ/mol
# Density = 2.183988 g / cm^3
# Si number density = 21.889704 Si / 1000 Ang^3
#
#
#
# Elastic Constant Matrix: (Units=GPa)
#
#
# Indices 1 2 3 4 5 6 
#
# 1 72.9359 4.1217 9.5045 0.0000 21.1024 0.0000
# 2 4.1217 77.6665 29.3985 0.0000 -0.1396 0.0000
# 3 9.5045 29.3985 113.0240 0.0000 22.9922 0.0000
# 4 0.0000 0.0000 0.0000 36.8127 0.0000 -0.3050
# 5 21.1024 -0.1396 22.9922 0.0000 43.5297 0.0000
# 6 0.0000 0.0000 0.0000 -0.3050 0.0000 36.7907
#
#
#
# Elastic Compliance Matrix: (Units=1/GPa)
#
#
# Indices 1 2 3 4 5 6 
#
# 1 0.016035 -0.001084 0.000578 0.000000 -0.008082 0.000000
# 2 -0.001084 0.014554 -0.004270 0.000000 0.002828 0.000000
# 3 0.000578 -0.004270 0.011170 0.000000 -0.006194 0.000000
# 4 0.000000 0.000000 0.000000 0.027166 0.000000 0.000225
# 5 -0.008082 0.002828 -0.006194 0.000000 0.030171 0.000000
# 6 0.000000 0.000000 0.000000 0.000225 0.000000 0.027183
#
#
# Mechanical properties :
#
#
# Convention : Reuss Voigt Hill
#
# Bulk Modulus (GPa) = 31.04954 38.85285 34.95119
# Shear Modulus (GPa) = 34.11401 38.13340 36.12370
#
# Velocity S-wave (km/s) = 3.95200 4.17834 4.06675
# Velocity P-wave (km/s) = 5.91944 6.40827 6.16870
#
# Compressibility (1/GPa) = 0.03220660
#
# Stress axis : x y z
#
# Youngs Moduli (GPa) = 62.36351 68.70782 89.52850
#
# Poissons Ratio (x) = 0.07449 -0.05172
# Poissons Ratio (y) = 0.06761 0.38226
# Poissons Ratio (z) = -0.03603 0.29337
#
# Static dielectric constant tensor:
#      x y z
#    x 6.109300 0.000000 2.077640 
#    y 0.000000 3.640480 0.000000 
#    z 2.077640 0.000000 5.979250 
# 
# 
# High freq. dielectric constant tensor:
#      x y z
#    x 1.867980 0.000000 0.009820 
#    y 0.000000 1.865560 0.000000 
#    z 0.009820 0.000000 1.872240 
# 
# From -- ./inp_files/92726.got.cif
#   From: 2010.06.25/outbox.cif.g09.slc.cpg/sg12_47_cif.got.tgz:92726.got - 2010.06.28 00:19:55.
