data_PCOD8115285
_publ_section_title
;
Structure prediction by ZEFSAII (Michael W. Deem and Ramdas Pophale) SiO2 
 PCOD8115285
Probable space group: C 2/M
;
_chemical_formula_sum "Si O2"
_cell_formula_units_Z 48
_cell_length_a 15.614778
_cell_length_b 8.544391
_cell_length_c 28.443021
_cell_angle_alpha 90.000000
_cell_angle_beta 144.018342
_cell_angle_gamma 90.000000
_cell_volume 2229.563842
_symmetry_space_group_name_H-M "C 2/M"
_symmetry_group_IT_number 12
_symmetry_cell_setting 'monoclinic'
loop_
_space_group_symop_operation_xyz
x,y,z
-x,y,-z
-x,-y,-z
x,-y,z
1/2+x,1/2+y,z
1/2-x,1/2+y,-z
1/2-x,1/2-y,-z
1/2+x,1/2-y,z
loop_
_atom_site_type_symbol
_atom_site_label
_atom_site_fract_x
_atom_site_fract_y
_atom_site_fract_z
Si Si1 0.368766 0.817771 0.814319
Si Si2 0.085645 0.179281 0.334036
Si Si3 0.387518 0.322227 0.491889
Si Si4 0.921385 0.681751 0.342549
Si Si5 0.065263 0.820038 0.827951
Si Si6 0.349750 0.317551 0.908940
O O1 0.235144 0.764137 0.721589
O O2 0.517915 0.779081 0.852748
O O3 0.359256 0.725116 0.858606
O O4 0.359806 0.000000 0.821498
O O5 0.252913 0.213099 0.419288
O O6 0.978822 0.293488 0.315207
O O7 0.054321 0.210863 0.265578
O O8 0.049729 0.000000 0.331490
O O9 0.500000 0.309984 0.500000
O O10 0.333902 0.500000 0.475840
O O11 0.460379 0.261591 0.571585
O O12 0.905110 0.500000 0.347524
O O13 0.224243 0.774050 0.880583
O O14 0.068491 0.000000 0.844610
O O15 0.316871 0.500000 0.899057
O O16 0.500000 0.268878 0.000000
#
# Coordination Sequence:
#
# PCOD8115285 Si02
#       6
#     8   8   8   8   8   8
#     4  12  25  43  69 100 136 177 222 273 330 397
#     4  11  23  40  63  92 127 169 219 271 328 390
#     4  11  24  40  59  87 125 169 219 272 327 388
#     4  12  24  40  64  91 127 171 219 274 329 389
#     4  11  24  43  70 101 135 177 223 273 330 394
#     4  11  25  46  72 102 136 173 217 271 331 397
#
# _framework density 21.528873999999998
#
# number of rings (size 3 to 8) (size 9 to 14) (size 15 to 20)
#    0.000    0.667    1.667    6.500    0.000    8.000 
#    0.000    0.000    0.000    0.000    0.000    0.000 
#    0.000    0.000    0.000    0.000    0.000    0.000 
#
# Total GULP energy -297783.935523 kJ/mol
# GULP energy per Si atom -12407.663980 kJ/mol
# Density = 2.147987 g / cm^3
# Si number density = 21.528874 Si / 1000 Ang^3
#
#
#
# Elastic Constant Matrix: (Units=GPa)
#
#
# Indices 1 2 3 4 5 6 
#
# 1 98.6864 11.2131 23.6034 0.0000 11.3694 0.0000
# 2 11.2131 55.9475 19.4728 0.0000 0.6976 0.0001
# 3 23.6034 19.4728 101.6152 0.0000 16.6825 0.0000
# 4 0.0000 0.0000 0.0000 28.8859 0.0000 4.0517
# 5 11.3694 0.6976 16.6825 0.0000 15.5698 0.0000
# 6 0.0000 0.0001 0.0000 4.0517 0.0000 39.8162
#
#
#
# Elastic Compliance Matrix: (Units=1/GPa)
#
#
# Indices 1 2 3 4 5 6 
#
# 1 0.011423 -0.001800 -0.001156 0.000000 -0.007023 0.000000
# 2 -0.001800 0.019615 -0.004141 0.000000 0.004872 0.000000
# 3 -0.001156 -0.004141 0.013025 0.000000 -0.012927 0.000000
# 4 0.000000 0.000000 0.000000 0.035120 0.000000 -0.003574
# 5 -0.007023 0.004872 -0.012927 0.000000 0.082987 0.000000
# 6 0.000000 0.000000 0.000000 -0.003574 0.000000 0.025479
#
#
# Mechanical properties :
#
#
# Convention : Reuss Voigt Hill
#
# Bulk Modulus (GPa) = 33.47685 40.53641 37.00663
# Shear Modulus (GPa) = 23.60736 30.31838 26.96287
#
# Velocity S-wave (km/s) = 3.31500 3.75676 3.54277
# Velocity P-wave (km/s) = 5.49871 6.13900 5.82766
#
# Compressibility (1/GPa) = 0.02987139
#
# Stress axis : x y z
#
# Youngs Moduli (GPa) = 87.54240 50.98135 76.77448
#
# Poissons Ratio (x) = 0.09175 0.08872
# Poissons Ratio (y) = 0.15755 0.31790
# Poissons Ratio (z) = 0.10116 0.21110
#
# Static dielectric constant tensor:
#      x y z
#    x 3.927330 0.000000 0.022880 
#    y 0.000000 3.927520 0.000000 
#    z 0.022880 0.000000 4.048100 
# 
# 
# High freq. dielectric constant tensor:
#      x y z
#    x 1.856710 0.000000 0.003070 
#    y 0.000000 1.855700 0.000000 
#    z 0.003070 0.000000 1.846340 
# 
# From -- ./inp_files/360318.got.cif
#   From: 2010.06.25/outbox.cif.g09.slc.cpg/sg12_181_cif.got.tgz:360318.got - 2010.06.28 00:19:55.
