data_PCOD8115145
_publ_section_title
;
Structure prediction by ZEFSAII (Michael W. Deem and Ramdas Pophale) SiO2 
 PCOD8115145
Probable space group: C 2/M
;
_chemical_formula_sum "Si O2"
_cell_formula_units_Z 40
_cell_length_a 28.260859
_cell_length_b 8.815326
_cell_length_c 19.090554
_cell_angle_alpha 90.000000
_cell_angle_beta 31.643499
_cell_angle_gamma 90.000000
_cell_volume 2495.154053
_symmetry_space_group_name_H-M "C 2/M"
_symmetry_group_IT_number 12
_symmetry_cell_setting 'monoclinic'
loop_
_space_group_symop_operation_xyz
x,y,z
-x,y,-z
-x,-y,-z
x,-y,z
1/2+x,1/2+y,z
1/2-x,1/2+y,-z
1/2-x,1/2-y,-z
1/2+x,1/2-y,z
loop_
_atom_site_type_symbol
_atom_site_label
_atom_site_fract_x
_atom_site_fract_y
_atom_site_fract_z
Si Si1 0.153302 0.178996 0.635797
Si Si2 0.591104 0.170138 0.581938
Si Si3 0.400234 0.825449 0.153943
Si Si4 0.431414 0.320534 0.526759
Si Si5 0.259104 0.169925 0.710333
O O1 0.250000 0.250000 0.500000
O O2 0.084777 0.236903 0.661811
O O3 0.110594 0.227504 0.762841
O O4 0.161417 0.000000 0.621697
O O5 0.534532 0.254061 0.591257
O O6 0.696183 0.163293 0.424023
O O7 0.553215 0.000000 0.640894
O O8 0.332935 0.764879 0.178401
O O9 0.377686 0.000000 0.198803
O O10 0.500000 0.803624 0.000000
O O11 0.500000 0.265897 0.500000
O O12 0.425333 0.500000 0.529771
O O13 0.331585 0.253020 0.670212
O O14 0.239296 0.000000 0.763108
#
# Coordination Sequence:
#
# PCOD8115145 Si02
#       5
#     8   8   8   8   8
#     4  12  21  31  49  70  96 129 164 204 245 290
#     4   9  18  29  44  68  95 123 157 196 239 283
#     4  11  23  36  50  70  99 134 169 204 244 292
#     4   9  16  27  45  70  99 127 157 199 248 291
#     4   9  18  30  46  68  96 127 160 199 239 284
#
# _framework density 16.031074
#
# number of rings (size 3 to 8) (size 9 to 14) (size 15 to 20)
#    1.200    0.800    2.000    3.600    0.000    3.200 
#    0.000    0.000    0.000    0.000    0.000    1.400 
#    0.000    0.000    0.000    0.000    0.000    0.000 
#
# Total GULP energy -247856.029758 kJ/mol
# GULP energy per Si atom -12392.801488 kJ/mol
# Density = 1.599459 g / cm^3
# Si number density = 16.031074 Si / 1000 Ang^3
#
#
#
# Elastic Constant Matrix: (Units=GPa)
#
#
# Indices 1 2 3 4 5 6 
#
# 1 124.7596 62.6350 36.6535 0.0013 -19.9901 -0.0003
# 2 62.6350 139.2205 33.0951 -0.0038 -9.4452 0.0008
# 3 36.6535 33.0951 45.7194 -0.0032 -10.0019 -0.0002
# 4 0.0013 -0.0038 -0.0032 19.1104 -0.0023 -0.4317
# 5 -19.9901 -9.4452 -10.0019 -0.0023 21.9174 -0.0002
# 6 -0.0003 0.0008 -0.0002 -0.4317 -0.0002 28.7198
#
#
#
# Elastic Compliance Matrix: (Units=1/GPa)
#
#
# Indices 1 2 3 4 5 6 
#
# 1 0.012886 -0.003895 -0.005896 -0.000002 0.007384 0.000000
# 2 -0.003895 0.009872 -0.004299 0.000001 -0.001260 0.000000
# 3 -0.005896 -0.004299 0.031249 0.000006 0.007030 0.000000
# 4 -0.000002 0.000001 0.000006 0.052345 0.000007 0.000787
# 5 0.007384 -0.001260 0.007030 0.000007 0.055025 0.000001
# 6 0.000000 0.000000 0.000000 0.000787 0.000001 0.034831
#
#
# Mechanical properties :
#
#
# Convention : Reuss Voigt Hill
#
# Bulk Modulus (GPa) = 38.71880 63.82961 51.27421
# Shear Modulus (GPa) = 21.45940 25.77057 23.61499
#
# Velocity S-wave (km/s) = 3.66268 4.01376 3.84223
# Velocity P-wave (km/s) = 6.48781 7.83473 7.19287
#
# Compressibility (1/GPa) = 0.02582724
#
# Stress axis : x y z
#
# Youngs Moduli (GPa) = 77.60240 101.30074 32.00062
#
# Poissons Ratio (x) = 0.39456 0.18868
# Poissons Ratio (y) = 0.30225 0.13757
# Poissons Ratio (z) = 0.45756 0.43548
#
# Static dielectric constant tensor:
#      x y z
#    x 3.025860 0.000000 -0.076750 
#    y 0.000000 3.165730 0.000010 
#    z -0.076750 0.000010 2.629680 
# 
# 
# High freq. dielectric constant tensor:
#      x y z
#    x 1.608750 0.000000 -0.010870 
#    y 0.000000 1.639540 0.000000 
#    z -0.010870 0.000000 1.561780 
# 
# From -- ./inp_files/326714.got.cif
#   From: 2010.06.25/outbox.cif.g09.slc.cpg/sg12_164_cif.got.tgz:326714.got - 2010.06.28 00:19:55.
