data_PCOD8115444
_publ_section_title
;
Structure prediction by ZEFSAII (Michael W. Deem and Ramdas Pophale) SiO2 
 PCOD8115444
Probable space group: C 2/M
;
_chemical_formula_sum "Si O2"
_cell_formula_units_Z 48
_cell_length_a 8.802807
_cell_length_b 27.379329
_cell_length_c 9.456787
_cell_angle_alpha 90.000000
_cell_angle_beta 89.276768
_cell_angle_gamma 90.000000
_cell_volume 2279.045459
_symmetry_space_group_name_H-M "C 2/M"
_symmetry_group_IT_number 12
_symmetry_cell_setting 'monoclinic'
loop_
_space_group_symop_operation_xyz
x,y,z
-x,y,-z
-x,-y,-z
x,-y,z
1/2+x,1/2+y,z
1/2-x,1/2+y,-z
1/2-x,1/2-y,-z
1/2+x,1/2-y,z
loop_
_atom_site_type_symbol
_atom_site_label
_atom_site_fract_x
_atom_site_fract_y
_atom_site_fract_z
Si Si1 0.154543 0.876364 0.232633
Si Si2 0.669489 0.900812 0.496707
Si Si3 0.363195 0.555309 0.263204
Si Si4 0.000257 0.217313 0.334482
Si Si5 0.837088 0.607977 0.949513
Si Si6 0.328355 0.813764 0.716289
O O1 0.277852 0.894970 0.343166
O O2 0.002115 0.907940 0.245075
O O3 0.115845 0.819897 0.258960
O O4 0.223809 0.880779 0.077732
O O5 0.500000 0.923333 0.500000
O O6 0.785327 0.937276 0.416892
O O7 0.667170 0.848568 0.419848
O O8 0.421640 0.500000 0.248509
O O9 0.237804 0.565909 0.144996
O O10 0.834804 0.211291 0.270186
O O11 0.000000 0.205422 0.500000
O O12 0.044831 0.272785 0.303437
O O13 0.863350 0.657001 0.858814
O O14 0.000000 0.588576 0.000000
#
# Coordination Sequence:
#
# PCOD8115444 Si02
#       6
#     8   8   8   8   8   8
#     4  12  23  43  69  97 137 175 221 279 329 393
#     4  11  23  43  69 100 138 174 216 274 334 392
#     4  11  25  47  72  99 130 172 224 276 337 402
#     4  12  23  40  65 101 132 177 229 273 324 388
#     4  11  26  46  65  97 136 176 220 274 339 399
#     4  11  25  41  64  96 136 182 225 269 324 394
#
# _framework density 21.061450000000001
#
# number of rings (size 3 to 8) (size 9 to 14) (size 15 to 20)
#    0.000    0.667    5.000    4.000    4.667    4.000 
#    0.000    1.667    0.000    0.000    0.000    0.000 
#    0.000    0.000    0.000    0.000    0.000    0.000 
#
# Total GULP energy -297756.060086 kJ/mol
# GULP energy per Si atom -12406.502504 kJ/mol
# Density = 2.101351 g / cm^3
# Si number density = 21.061450 Si / 1000 Ang^3
#
#
#
# Elastic Constant Matrix: (Units=GPa)
#
#
# Indices 1 2 3 4 5 6 
#
# 1 87.5389 1.8314 -0.0627 0.0000 8.1183 0.0000
# 2 1.8314 94.5137 14.9234 0.0000 -2.0875 0.0000
# 3 -0.0627 14.9234 80.6110 0.0000 -1.2836 0.0000
# 4 0.0000 0.0000 0.0000 13.1338 0.0000 0.9988
# 5 8.1183 -2.0875 -1.2836 0.0000 45.2491 0.0000
# 6 0.0000 0.0000 0.0000 0.9988 0.0000 22.1573
#
#
#
# Elastic Compliance Matrix: (Units=1/GPa)
#
#
# Indices 1 2 3 4 5 6 
#
# 1 0.011624 -0.000276 0.000027 0.000000 -0.002097 0.000000
# 2 -0.000276 0.010915 -0.002013 0.000000 0.000496 0.000000
# 3 0.000027 -0.002013 0.012782 0.000000 0.000265 0.000000
# 4 0.000000 0.000000 0.000000 0.076401 0.000000 -0.003444
# 5 -0.002097 0.000496 0.000265 0.000000 0.022507 0.000000
# 6 0.000000 0.000000 0.000000 -0.003444 0.000000 0.045287
#
#
# Mechanical properties :
#
#
# Convention : Reuss Voigt Hill
#
# Bulk Modulus (GPa) = 32.47117 32.89420 32.68269
# Shear Modulus (GPa) = 25.73276 32.50615 29.11946
#
# Velocity S-wave (km/s) = 3.49921 3.93287 3.72236
# Velocity P-wave (km/s) = 5.63709 6.02291 5.83319
#
# Compressibility (1/GPa) = 0.03079655
#
# Stress axis : x y z
#
# Youngs Moduli (GPa) = 86.03036 91.62037 78.23418
#
# Poissons Ratio (x) = 0.02527 -0.00209
# Poissons Ratio (y) = 0.02372 0.15748
# Poissons Ratio (z) = -0.00230 0.18442
#
# Static dielectric constant tensor:
#      x y z
#    x 4.007720 0.000000 -0.003450 
#    y 0.000000 3.648810 0.000000 
#    z -0.003450 0.000000 3.885890 
# 
# 
# High freq. dielectric constant tensor:
#      x y z
#    x 1.843660 0.000000 0.000310 
#    y 0.000000 1.811310 0.000000 
#    z 0.000310 0.000000 1.831420 
# 
# From -- ./inp_files/42247.got.cif
#   From: 2010.06.25/outbox.cif.g09.slc.cpg/sg12_22_cif.got.tgz:42247.got - 2010.06.28 00:19:55.
