data_PCOD8115663
_publ_section_title
;
Structure prediction by ZEFSAII (Michael W. Deem and Ramdas Pophale) SiO2 
 PCOD8115663
Probable space group: C 2/M
;
_chemical_formula_sum "Si O2"
_cell_formula_units_Z 40
_cell_length_a 14.721615
_cell_length_b 10.898925
_cell_length_c 11.757867
_cell_angle_alpha 90.000000
_cell_angle_beta 92.072387
_cell_angle_gamma 90.000000
_cell_volume 1885.313228
_symmetry_space_group_name_H-M "C 2/M"
_symmetry_group_IT_number 12
_symmetry_cell_setting 'monoclinic'
loop_
_space_group_symop_operation_xyz
x,y,z
-x,y,-z
-x,-y,-z
x,-y,z
1/2+x,1/2+y,z
1/2-x,1/2+y,-z
1/2-x,1/2-y,-z
1/2+x,1/2-y,z
loop_
_atom_site_type_symbol
_atom_site_label
_atom_site_fract_x
_atom_site_fract_y
_atom_site_fract_z
Si Si1 0.738700 0.219305 0.370116
Si Si2 0.908271 0.761323 0.239966
Si Si3 0.378727 0.000000 0.583879
Si Si4 0.327227 0.355224 0.008546
Si Si5 0.415689 0.000000 0.330586
Si Si6 0.401307 0.361466 0.767466
O O1 0.750000 0.250000 0.500000
O O2 0.836296 0.178583 0.324211
O O3 0.666212 0.112784 0.354223
O O4 0.693941 0.330567 0.297950
O O5 0.891187 0.819559 0.116325
O O6 0.892384 0.615142 0.249445
O O7 0.012642 0.786516 0.278141
O O8 0.357870 0.000000 0.446256
O O9 0.483024 0.000000 0.619182
O O10 0.293340 0.500000 0.016776
O O11 0.250000 0.250000 0.000000
O O12 0.389473 0.339879 0.900991
O O13 0.424797 0.500000 0.740165
#
# Coordination Sequence:
#
# PCOD8115663 Si02
#       6
#     8   8   4   8   4   8
#     4  12  26  42  70 101 136 180 232 285 343 411
#     4  12  25  45  71 103 138 188 228 287 353 415
#     4  11  24  46  65 100 143 183 237 292 343 406
#     4  11  25  46  75 105 141 183 233 289 352 420
#     4  11  24  44  72  96 144 186 231 294 357 408
#     4  11  26  48  69 100 139 181 230 284 350 420
#
# _framework density 21.216633000000002
#
# number of rings (size 3 to 8) (size 9 to 14) (size 15 to 20)
#    0.000    0.600    6.000    1.200    7.000    2.400 
#    1.800    2.000    0.000    0.000    0.000    0.000 
#    0.000    0.000    0.000    0.000    0.000    0.000 
#
# Total GULP energy -247911.036455 kJ/mol
# GULP energy per Si atom -12395.551823 kJ/mol
# Density = 2.116834 g / cm^3
# Si number density = 21.216633 Si / 1000 Ang^3
#
#
#
# Elastic Constant Matrix: (Units=GPa)
#
#
# Indices 1 2 3 4 5 6 
#
# 1 102.8551 31.1298 45.6608 0.0000 -17.7854 0.0000
# 2 31.1298 128.2028 35.6619 0.0000 -10.2274 0.0000
# 3 45.6608 35.6619 131.1218 0.0000 -2.3375 0.0000
# 4 0.0000 0.0000 0.0000 53.3380 0.0000 8.8758
# 5 -17.7854 -10.2274 -2.3375 0.0000 39.9009 0.0000
# 6 0.0000 0.0000 0.0000 8.8758 0.0000 35.8918
#
#
#
# Elastic Compliance Matrix: (Units=1/GPa)
#
#
# Indices 1 2 3 4 5 6 
#
# 1 0.012839 -0.001616 -0.003941 0.000000 0.005078 0.000000
# 2 -0.001616 0.008810 -0.001808 0.000000 0.001432 0.000000
# 3 -0.003941 -0.001808 0.009461 0.000000 -0.001666 0.000000
# 4 0.000000 0.000000 0.000000 0.019553 0.000000 -0.004835
# 5 0.005078 0.001432 -0.001666 0.000000 0.027595 0.000000
# 6 0.000000 0.000000 0.000000 -0.004835 0.000000 0.029057
#
#
# Mechanical properties :
#
#
# Convention : Reuss Voigt Hill
#
# Bulk Modulus (GPa) = 61.05021 65.23163 63.14092
# Shear Modulus (GPa) = 39.21441 42.47463 40.84452
#
# Velocity S-wave (km/s) = 4.30383 4.47917 4.39238
# Velocity P-wave (km/s) = 7.31673 7.58702 7.45310
#
# Compressibility (1/GPa) = 0.01637996
#
# Stress axis : x y z
#
# Youngs Moduli (GPa) = 77.88707 113.51198 105.69953
#
# Poissons Ratio (x) = 0.18346 0.41655
# Poissons Ratio (y) = 0.12588 0.19107
# Poissons Ratio (z) = 0.30694 0.20519
#
# Static dielectric constant tensor:
#      x y z
#    x 3.672470 0.000000 0.177230 
#    y 0.000000 4.042790 0.000000 
#    z 0.177230 0.000000 3.345850 
# 
# 
# High freq. dielectric constant tensor:
#      x y z
#    x 1.842560 0.000000 -0.005790 
#    y 0.000000 1.839680 0.000000 
#    z -0.005790 0.000000 1.832630 
# 
# From -- ./inp_files/140429.got.cif
#   From: 2010.06.25/outbox.cif.g09.slc.cpg/sg12_71_cif.got.tgz:140429.got - 2010.06.28 00:19:55.
