data_PCOD8115267
_publ_section_title
;
Structure prediction by ZEFSAII (Michael W. Deem and Ramdas Pophale) SiO2 
 PCOD8115267
Probable space group: C 2/M
;
_chemical_formula_sum "Si O2"
_cell_formula_units_Z 64
_cell_length_a 18.908506
_cell_length_b 18.610699
_cell_length_c 14.939701
_cell_angle_alpha 90.000000
_cell_angle_beta 37.947634
_cell_angle_gamma 90.000000
_cell_volume 3232.922266
_symmetry_space_group_name_H-M "C 2/M"
_symmetry_group_IT_number 12
_symmetry_cell_setting 'monoclinic'
loop_
_space_group_symop_operation_xyz
x,y,z
-x,y,-z
-x,-y,-z
x,-y,z
1/2+x,1/2+y,z
1/2-x,1/2+y,-z
1/2-x,1/2-y,-z
1/2+x,1/2-y,z
loop_
_atom_site_type_symbol
_atom_site_label
_atom_site_fract_x
_atom_site_fract_y
_atom_site_fract_z
Si Si1 0.501766 0.208928 0.394430
Si Si2 0.685852 0.826284 0.560342
Si Si3 0.495298 0.163456 0.107161
Si Si4 0.236960 0.680639 0.076869
Si Si5 0.538248 0.376929 0.364803
Si Si6 0.462214 0.326873 0.943642
Si Si7 0.906814 0.080444 0.328044
Si Si8 0.277668 0.916068 0.060418
O O1 0.500000 0.187102 0.500000
O O2 0.393375 0.177401 0.449069
O O3 0.611675 0.172626 0.241489
O O4 0.510880 0.294064 0.372705
O O5 0.750000 0.750000 0.500000
O O6 0.615493 0.853188 0.719496
O O7 0.779488 0.887770 0.454278
O O8 0.484563 0.248570 0.117136
O O9 0.500000 0.133321 0.000000
O O10 0.609945 0.132085 0.035965
O O11 0.250000 0.750000 0.000000
O O12 0.324998 0.682568 0.072028
O O13 0.264581 0.607129 0.995824
O O14 0.500000 0.401524 0.500000
O O15 0.464499 0.422473 0.368276
O O16 0.674371 0.394182 0.229325
O O17 0.508532 0.374302 0.817670
O O18 0.500000 0.362020 0.000000
O O19 0.897664 0.000000 0.299938
O O20 0.307395 0.000000 0.037075
#
# Coordination Sequence:
#
# PCOD8115267 Si02
#       8
#     8   8   8   8   8   8   8   8
#     4  11  23  39  70  99 124 164 218 272 322 373
#     4  12  23  43  66  93 131 171 215 267 318 385
#     4  11  24  42  68  97 127 172 220 264 320 388
#     4  12  20  42  68  93 127 168 215 269 316 381
#     4  11  23  41  66  99 131 166 214 268 329 392
#     4  11  23  40  71 100 125 163 219 277 324 380
#     4  12  26  43  64  94 134 175 211 269 335 389
#     4  12  25  41  65  96 134 175 215 265 328 390
#
# _framework density 19.796332
#
# number of rings (size 3 to 8) (size 9 to 14) (size 15 to 20)
#    0.000    0.500    7.500    0.375    3.500    2.000 
#    0.000    0.000    0.000    0.750    0.000    0.000 
#    0.000    0.000    0.000    0.000    0.000    0.000 
#
# Total GULP energy -396693.697186 kJ/mol
# GULP energy per Si atom -12396.678037 kJ/mol
# Density = 1.975127 g / cm^3
# Si number density = 19.796332 Si / 1000 Ang^3
#
#
#
# Elastic Constant Matrix: (Units=GPa)
#
#
# Indices 1 2 3 4 5 6 
#
# 1 133.2561 22.1839 54.1457 0.0001 -0.5441 0.0000
# 2 22.1839 66.2151 32.0808 0.0000 5.5037 0.0000
# 3 54.1457 32.0808 128.0725 0.0001 -6.2083 -0.0001
# 4 0.0001 0.0000 0.0001 12.8151 -0.0001 -4.1821
# 5 -0.5441 5.5037 -6.2083 -0.0001 38.4738 0.0001
# 6 0.0000 0.0000 -0.0001 -4.1821 0.0001 17.6224
#
#
#
# Elastic Compliance Matrix: (Units=1/GPa)
#
#
# Indices 1 2 3 4 5 6 
#
# 1 0.009169 -0.001328 -0.003556 0.000000 -0.000254 0.000000
# 2 -0.001328 0.017775 -0.004047 0.000000 -0.003215 0.000000
# 3 -0.003556 -0.004047 0.010433 0.000000 0.002212 0.000000
# 4 0.000000 0.000000 0.000000 0.084583 0.000000 0.020073
# 5 -0.000254 -0.003215 0.002212 0.000000 0.026805 0.000000
# 6 0.000000 0.000000 0.000000 0.020073 0.000000 0.061509
#
#
# Mechanical properties :
#
#
# Convention : Reuss Voigt Hill
#
# Bulk Modulus (GPa) = 51.24305 60.48496 55.86400
# Shear Modulus (GPa) = 21.30910 28.39116 24.85013
#
# Velocity S-wave (km/s) = 3.28444 3.79114 3.54685
# Velocity P-wave (km/s) = 6.35017 7.05575 6.71224
#
# Compressibility (1/GPa) = 0.01951484
#
# Stress axis : x y z
#
# Youngs Moduli (GPa) = 109.05860 56.25868 95.85420
#
# Poissons Ratio (x) = 0.07470 0.34088
# Poissons Ratio (y) = 0.14482 0.38791
# Poissons Ratio (z) = 0.38784 0.22767
#
# Static dielectric constant tensor:
#      x y z
#    x 3.956700 0.000000 0.144720 
#    y 0.000000 3.401810 0.000000 
#    z 0.144720 0.000000 4.002950 
# 
# 
# High freq. dielectric constant tensor:
#      x y z
#    x 1.781850 0.000000 -0.006390 
#    y 0.000000 1.749210 0.000000 
#    z -0.006390 0.000000 1.784400 
# 
# From -- ./inp_files/226841.got.cif
#   From: 2010.06.25/outbox.cif.g09.slc.cpg/sg12_114_cif.got.tgz:226841.got - 2010.06.28 00:19:55.
