data_PCOD8115925
_publ_section_title
;
Structure prediction by ZEFSAII (Michael W. Deem and Ramdas Pophale) SiO2 
 PCOD8115925
Probable space group: C 2/M
;
_chemical_formula_sum "Si O2"
_cell_formula_units_Z 40
_cell_length_a 15.898123
_cell_length_b 21.504614
_cell_length_c 8.875379
_cell_angle_alpha 90.000000
_cell_angle_beta 36.337487
_cell_angle_gamma 90.000000
_cell_volume 1797.969582
_symmetry_space_group_name_H-M "C 2/M"
_symmetry_group_IT_number 12
_symmetry_cell_setting 'monoclinic'
loop_
_space_group_symop_operation_xyz
x,y,z
-x,y,-z
-x,-y,-z
x,-y,z
1/2+x,1/2+y,z
1/2-x,1/2+y,-z
1/2-x,1/2-y,-z
1/2+x,1/2-y,z
loop_
_atom_site_type_symbol
_atom_site_label
_atom_site_fract_x
_atom_site_fract_y
_atom_site_fract_z
Si Si1 0.027280 0.787738 0.709523
Si Si2 0.756536 0.374230 0.222217
Si Si3 0.000000 0.693386 0.500000
Si Si4 0.500000 0.203346 0.000000
Si Si5 0.336846 0.500000 0.180925
Si Si6 0.670487 0.000000 0.727863
Si Si7 0.720946 0.623125 0.919908
O O1 0.956897 0.737924 0.699006
O O2 0.091414 0.748347 0.757341
O O3 0.140152 0.830849 0.466048
O O4 0.900122 0.829445 0.956761
O O5 0.757640 0.440473 0.300605
O O6 0.905759 0.340234 0.029583
O O7 0.722296 0.385277 0.097780
O O8 0.868991 0.649559 0.645215
O O9 0.219047 0.500000 0.483680
O O10 0.308964 0.558523 0.116217
O O11 0.500000 0.500000 0.000000
O O12 0.500000 0.000000 0.000000
#
# Coordination Sequence:
#
# PCOD8115925 Si02
#       7
#     8   8   4   4   4   4   8
#     4  12  25  45  73 108 150 191 243 300 370 444
#     4  12  25  49  73 107 148 196 244 305 370 441
#     4  12  24  45  74 109 148 188 240 300 368 452
#     4  12  26  41  72 111 152 188 242 304 366 438
#     4  12  31  53  78 111 142 195 256 313 366 434
#     4  12  29  48  75 105 148 190 254 308 366 429
#     4  12  27  48  76 104 150 194 246 301 370 438
#
# _framework density 22.247316999999999
#
# number of rings (size 3 to 8) (size 9 to 14) (size 15 to 20)
#    0.000    0.000    5.000    4.200    9.800    0.400 
#    0.000    3.000    0.000    0.000    0.000    0.000 
#    0.000    0.000    0.000    0.000    0.000    0.000 
#
# Total GULP energy -248025.092608 kJ/mol
# GULP energy per Si atom -12401.254630 kJ/mol
# Density = 2.219668 g / cm^3
# Si number density = 22.247317 Si / 1000 Ang^3
#
#
#
# Elastic Constant Matrix: (Units=GPa)
#
#
# Indices 1 2 3 4 5 6 
#
# 1 77.6511 70.7020 23.9581 0.0002 15.4548 0.0000
# 2 70.7020 184.4346 55.1070 0.0000 8.5227 0.0000
# 3 23.9581 55.1070 111.0248 0.0005 -1.6238 0.0001
# 4 0.0002 0.0000 0.0005 12.5628 -0.0002 -6.7377
# 5 15.4548 8.5227 -1.6238 -0.0002 46.5058 0.0000
# 6 0.0000 0.0000 0.0001 -6.7377 0.0000 36.0882
#
#
#
# Elastic Compliance Matrix: (Units=1/GPa)
#
#
# Indices 1 2 3 4 5 6 
#
# 1 0.021203 -0.007601 -0.000886 0.000000 -0.005684 0.000000
# 2 -0.007601 0.009168 -0.002899 0.000000 0.000745 0.000000
# 3 -0.000886 -0.002899 0.010655 0.000000 0.001198 0.000000
# 4 0.000000 0.000000 0.000000 0.088458 0.000001 0.016515
# 5 -0.005684 0.000745 0.001198 0.000001 0.023297 0.000000
# 6 0.000000 0.000000 0.000000 0.016515 0.000000 0.030793
#
#
# Mechanical properties :
#
#
# Convention : Reuss Voigt Hill
#
# Bulk Modulus (GPa) = 54.78358 74.73829 64.76093
# Shear Modulus (GPa) = 23.53712 33.92090 28.72901
#
# Velocity S-wave (km/s) = 3.25618 3.90900 3.59743
# Velocity P-wave (km/s) = 6.23019 7.35125 6.81382
#
# Compressibility (1/GPa) = 0.01825364
#
# Stress axis : x y z
#
# Youngs Moduli (GPa) = 47.16221 109.08034 93.85503
#
# Poissons Ratio (x) = 0.82910 0.08315
# Poissons Ratio (y) = 0.35847 0.27211
# Poissons Ratio (z) = 0.04179 0.31625
#
# Static dielectric constant tensor:
#      x y z
#    x 5.303740 0.000000 -0.486510 
#    y 0.000000 4.409100 0.000000 
#    z -0.486510 0.000000 4.313080 
# 
# 
# High freq. dielectric constant tensor:
#      x y z
#    x 1.884580 0.000000 0.008620 
#    y 0.000000 1.898950 0.000000 
#    z 0.008620 0.000000 1.881750 
# 
# From -- ./inp_files/65138.got.cif
#   From: 2010.06.25/outbox.cif.g09.slc.cpg/sg12_33_cif.got.tgz:65138.got - 2010.06.28 00:19:55.
