data_PCOD8115808
_publ_section_title
;
Structure prediction by ZEFSAII (Michael W. Deem and Ramdas Pophale) SiO2 
 PCOD8115808
Probable space group: C 2/M
;
_chemical_formula_sum "Si O2"
_cell_formula_units_Z 40
_cell_length_a 31.428446
_cell_length_b 9.499813
_cell_length_c 13.791389
_cell_angle_alpha 90.000000
_cell_angle_beta 28.641337
_cell_angle_gamma 90.000000
_cell_volume 1973.677573
_symmetry_space_group_name_H-M "C 2/M"
_symmetry_group_IT_number 12
_symmetry_cell_setting 'monoclinic'
loop_
_space_group_symop_operation_xyz
x,y,z
-x,y,-z
-x,-y,-z
x,-y,z
1/2+x,1/2+y,z
1/2-x,1/2+y,-z
1/2-x,1/2-y,-z
1/2+x,1/2-y,z
loop_
_atom_site_type_symbol
_atom_site_label
_atom_site_fract_x
_atom_site_fract_y
_atom_site_fract_z
Si Si1 0.858968 0.500000 0.666456
Si Si2 0.094835 0.230390 0.845932
Si Si3 0.335476 0.000000 0.203585
Si Si4 0.641032 0.500000 0.602329
Si Si5 0.450633 0.500000 0.911990
Si Si6 0.335476 0.500000 0.954512
Si Si7 0.405165 0.230390 0.725271
Si Si8 0.549367 0.000000 0.214521
O O1 0.861824 0.637971 0.727610
O O2 0.941301 0.500000 0.426519
O O3 0.764173 0.500000 0.800346
O O4 0.156395 0.363266 0.744957
O O5 0.138176 0.137971 0.674907
O O6 0.000000 0.286697 0.000000
O O7 0.083314 0.138526 0.965946
O O8 0.235827 0.000000 0.357039
O O9 0.412233 0.000000 0.969950
O O10 0.558699 0.500000 0.691723
O O11 0.412233 0.500000 0.881116
O O12 0.343605 0.363266 0.870538
O O13 0.500000 0.286697 0.500000
O O14 0.416687 0.138526 0.799200
#
# Coordination Sequence:
#
# PCOD8115808 Si02
#       8
#     4   8   4   4   4   4   8   4
#     4   9  20  38  56  76 112 149 173 215 280 326
#     4   9  19  37  56  76 109 146 177 217 271 325
#     4  12  19  32  59  89 104 135 190 231 255 312
#     4   9  20  38  56  76 112 149 173 215 280 326
#     4   9  20  38  53  75 114 148 171 216 278 320
#     4  12  19  32  59  89 104 135 190 231 255 312
#     4   9  19  37  56  76 109 146 177 217 271 325
#     4   9  20  38  53  75 114 148 171 216 278 320
#
# _framework density 20.266736000000002
#
# number of rings (size 3 to 8) (size 9 to 14) (size 15 to 20)
#    0.000    2.400    0.000    5.400    0.000    0.000 
#    0.000   24.000    0.000    0.000    0.000    0.000 
#    0.000    0.000    0.000    0.000    0.000    0.000 
#
# Total GULP energy -247968.296136 kJ/mol
# GULP energy per Si atom -12398.414807 kJ/mol
# Density = 2.022061 g / cm^3
# Si number density = 20.266736 Si / 1000 Ang^3
#
#
#
# Elastic Constant Matrix: (Units=GPa)
#
#
# Indices 1 2 3 4 5 6 
#
# 1 76.9710 22.0733 46.7539 0.0000 -11.4788 0.0000
# 2 22.0733 112.6440 44.4519 0.0000 -11.3483 0.0000
# 3 46.7539 44.4519 140.1545 0.0000 -20.5622 0.0000
# 4 0.0000 0.0000 0.0000 6.9502 0.0000 0.9119
# 5 -11.4788 -11.3483 -20.5622 0.0000 31.0328 0.0000
# 6 0.0000 0.0000 0.0000 0.9119 0.0000 8.7482
#
#
#
# Elastic Compliance Matrix: (Units=1/GPa)
#
#
# Indices 1 2 3 4 5 6 
#
# 1 0.016615 -0.001097 -0.004821 0.000000 0.002551 0.000000
# 2 -0.001097 0.010306 -0.002669 0.000000 0.001595 0.000000
# 3 -0.004821 -0.002669 0.010174 0.000000 0.003982 0.000000
# 4 0.000000 0.000000 0.000000 0.145875 0.000000 -0.015207
# 5 0.002551 0.001595 0.003982 0.000000 0.036389 0.000000
# 6 0.000000 0.000000 0.000000 -0.015207 0.000000 0.115895
#
#
# Mechanical properties :
#
#
# Convention : Reuss Voigt Hill
#
# Bulk Modulus (GPa) = 50.19376 61.81417 56.00397
# Shear Modulus (GPa) = 13.92499 23.77894 18.85196
#
# Velocity S-wave (km/s) = 2.62408 3.42906 3.05321
# Velocity P-wave (km/s) = 5.83107 6.80033 6.33427
#
# Compressibility (1/GPa) = 0.01992279
#
# Stress axis : x y z
#
# Youngs Moduli (GPa) = 60.18712 97.02779 98.29192
#
# Poissons Ratio (x) = 0.10639 0.47382
# Poissons Ratio (y) = 0.06600 0.26234
# Poissons Ratio (z) = 0.29013 0.25897
#
# Static dielectric constant tensor:
#      x y z
#    x 3.303840 0.000000 -0.151750 
#    y 0.000000 3.683810 0.000000 
#    z -0.151750 0.000000 3.603090 
# 
# 
# High freq. dielectric constant tensor:
#      x y z
#    x 1.764230 0.000000 -0.013850 
#    y 0.000000 1.800610 0.000000 
#    z -0.013850 0.000000 1.791550 
# 
# From -- ./inp_files/249571.got.cif
#   From: 2010.06.25/outbox.cif.g09.slc.cpg/sg12_125_cif.got.tgz:249571.got - 2010.06.28 00:19:55.
