data_PCOD8115860
_publ_section_title
;
Structure prediction by ZEFSAII (Michael W. Deem and Ramdas Pophale) SiO2 
 PCOD8115860
Probable space group: C 2/M
;
_chemical_formula_sum "Si O2"
_cell_formula_units_Z 40
_cell_length_a 27.212781
_cell_length_b 9.533914
_cell_length_c 25.630781
_cell_angle_alpha 90.000000
_cell_angle_beta 160.367318
_cell_angle_gamma 90.000000
_cell_volume 2234.245497
_symmetry_space_group_name_H-M "C 2/M"
_symmetry_group_IT_number 12
_symmetry_cell_setting 'monoclinic'
loop_
_space_group_symop_operation_xyz
x,y,z
-x,y,-z
-x,-y,-z
x,-y,z
1/2+x,1/2+y,z
1/2-x,1/2+y,-z
1/2-x,1/2-y,-z
1/2+x,1/2-y,z
loop_
_atom_site_type_symbol
_atom_site_label
_atom_site_fract_x
_atom_site_fract_y
_atom_site_fract_z
Si Si1 0.578620 0.000000 0.133322
Si Si2 0.921381 0.000000 0.476083
Si Si3 0.922943 0.500000 0.254192
Si Si4 0.922943 0.000000 0.091694
Si Si5 0.419230 0.228001 0.781821
Si Si6 0.916589 0.000000 0.640121
Si Si7 0.419231 0.271999 0.556639
Si Si8 0.083412 0.500000 0.306944
O O1 0.750000 0.000000 0.295033
O O2 0.533367 0.862142 0.120510
O O3 0.500000 0.000000 0.000000
O O4 0.966636 0.862142 0.553779
O O5 0.000000 0.000000 0.500000
O O6 0.980748 0.635482 0.342501
O O7 0.974747 0.500000 0.246469
O O8 0.750000 0.500000 0.082481
O O9 0.980749 0.864519 0.118997
O O10 0.974746 0.000000 0.203025
O O11 0.249999 0.272160 0.616195
O O12 0.445740 0.138352 0.756101
O O13 0.945739 0.138352 0.635377
O O14 0.750001 0.000000 0.494421
#
# Coordination Sequence:
#
# PCOD8115860 Si02
#       8
#     4   4   4   4   8   4   8   4
#     4   9  19  37  61  82  98 125 168 215 261 308
#     4   9  19  37  61  82  98 125 168 215 261 308
#     4  12  23  31  46  78 113 139 167 210 259 296
#     4  12  23  31  46  78 113 139 167 210 259 296
#     4   9  19  36  55  75 101 137 177 208 244 305
#     4   9  18  34  55  74  98 140 183 209 240 298
#     4   9  19  36  55  75 101 137 177 208 244 305
#     4   9  18  34  55  74  98 140 183 209 240 298
#
# _framework density 17.903136
#
# number of rings (size 3 to 8) (size 9 to 14) (size 15 to 20)
#    0.000    2.400    0.000    5.400    0.000    8.000 
#    0.000    5.000    0.000    0.000    0.000    0.000 
#    0.000    0.000    0.000    0.000    0.000    0.000 
#
# Total GULP energy -248035.077892 kJ/mol
# GULP energy per Si atom -12401.753895 kJ/mol
# Density = 1.786239 g / cm^3
# Si number density = 17.903136 Si / 1000 Ang^3
#
#
#
# Elastic Constant Matrix: (Units=GPa)
#
#
# Indices 1 2 3 4 5 6 
#
# 1 133.5573 69.5223 65.4398 0.0001 0.1629 0.0000
# 2 69.5223 152.7235 86.2046 0.0000 4.8424 0.0004
# 3 65.4398 86.2046 118.7884 -0.0042 -4.4495 -0.0007
# 4 0.0001 0.0000 -0.0042 18.3215 -0.0015 2.4064
# 5 0.1629 4.8424 -4.4495 -0.0015 32.9994 -0.0003
# 6 0.0000 0.0004 -0.0007 2.4064 -0.0003 10.0329
#
#
#
# Elastic Compliance Matrix: (Units=1/GPa)
#
#
# Indices 1 2 3 4 5 6 
#
# 1 0.010857 -0.002633 -0.004078 -0.000001 -0.000217 0.000000
# 2 -0.002633 0.011979 -0.007345 -0.000002 -0.002735 -0.000001
# 3 -0.004078 -0.007345 0.016118 0.000004 0.003271 0.000001
# 4 -0.000001 -0.000002 0.000004 0.056356 0.000003 -0.013517
# 5 -0.000217 -0.002735 0.003271 0.000003 0.031147 0.000001
# 6 0.000000 -0.000001 0.000001 -0.013517 0.000001 0.102914
#
#
# Mechanical properties :
#
#
# Convention : Reuss Voigt Hill
#
# Bulk Modulus (GPa) = 92.24462 94.15583 93.20022
# Shear Modulus (GPa) = 19.15000 24.53094 21.84047
#
# Velocity S-wave (km/s) = 3.27409 3.70564 3.49653
# Velocity P-wave (km/s) = 8.11967 8.42704 8.27478
#
# Compressibility (1/GPa) = 0.01084074
#
# Stress axis : x y z
#
# Youngs Moduli (GPa) = 92.11025 83.47829 62.04423
#
# Poissons Ratio (x) = 0.21984 0.25301
# Poissons Ratio (y) = 0.24257 0.45571
# Poissons Ratio (z) = 0.37561 0.61314
#
# Static dielectric constant tensor:
#      x y z
#    x 3.252110 0.000000 -0.033360 
#    y 0.000000 3.453450 0.000000 
#    z -0.033360 0.000000 3.137170 
# 
# 
# High freq. dielectric constant tensor:
#      x y z
#    x 1.680750 0.000000 0.000180 
#    y 0.000000 1.703360 0.000000 
#    z 0.000180 0.000000 1.681370 
# 
# From -- ./inp_files/368829.got.cif
#   From: 2010.06.25/outbox.cif.g09.slc.cpg/sg12_185_cif.got.tgz:368829.got - 2010.06.28 00:19:55.
