data_PCOD8115400
_publ_section_title
;
Structure prediction by ZEFSAII (Michael W. Deem and Ramdas Pophale) SiO2 
 PCOD8115400
Probable space group: C 2/M
;
_chemical_formula_sum "Si O2"
_cell_formula_units_Z 64
_cell_length_a 8.822301
_cell_length_b 16.803675
_cell_length_c 31.877076
_cell_angle_alpha 90.000000
_cell_angle_beta 40.347648
_cell_angle_gamma 90.000000
_cell_volume 3059.519911
_symmetry_space_group_name_H-M "C 2/M"
_symmetry_group_IT_number 12
_symmetry_cell_setting 'monoclinic'
loop_
_space_group_symop_operation_xyz
x,y,z
-x,y,-z
-x,-y,-z
x,-y,z
1/2+x,1/2+y,z
1/2-x,1/2+y,-z
1/2-x,1/2-y,-z
1/2+x,1/2-y,z
loop_
_atom_site_type_symbol
_atom_site_label
_atom_site_fract_x
_atom_site_fract_y
_atom_site_fract_z
Si Si1 0.532684 0.170914 0.247766
Si Si2 0.495348 0.685698 0.623330
Si Si3 0.984972 0.238139 0.049207
Si Si4 0.880554 0.908941 0.483454
Si Si5 0.828763 0.594366 0.865853
Si Si6 0.246327 0.830623 0.172344
Si Si7 0.271399 0.589579 0.271826
Si Si8 0.893403 0.650203 0.607125
O O1 0.254097 0.175926 0.301303
O O2 0.629638 0.110682 0.192184
O O3 0.645377 0.258304 0.221112
O O4 0.598691 0.142952 0.280418
O O5 0.510705 0.625862 0.581562
O O6 0.697881 0.671177 0.614295
O O7 0.520691 0.772980 0.599066
O O8 0.895073 0.146392 0.071972
O O9 0.831133 0.296043 0.110238
O O10 0.250000 0.250000 0.000000
O O11 0.000000 0.271763 0.000000
O O12 0.599641 0.900123 0.542253
O O13 0.000000 0.870303 0.500000
O O14 0.952704 0.000000 0.466946
O O15 0.783853 0.500000 0.882370
O O16 0.050738 0.623957 0.845672
O O17 0.041407 0.891985 0.204911
O O18 0.220157 0.500000 0.269671
O O19 0.225151 0.600498 0.330791
#
# Coordination Sequence:
#
# PCOD8115400 Si02
#       8
#     8   8   8   8   8   8   8   8
#     4  11  23  42  67  98 132 179 222 273 331 403
#     4  12  25  42  70  94 129 175 230 274 331 406
#     4  11  23  44  69  98 128 177 221 267 321 396
#     4  11  25  45  67  94 132 174 219 281 347 402
#     4  11  24  42  67 100 137 174 222 279 332 388
#     4  11  23  42  70  95 132 177 225 269 327 400
#     4  12  25  41  66 100 138 172 218 281 339 392
#     4  12  25  43  66  98 129 174 225 279 334 404
#
# _framework density 20.918313999999999
#
# number of rings (size 3 to 8) (size 9 to 14) (size 15 to 20)
#    0.000    0.625    2.500    6.375    1.750    3.750 
#    0.000    0.000    0.000    1.875    0.000    0.000 
#    0.000    0.000    0.000    0.000    0.000    0.000 
#
# Total GULP energy -396763.792598 kJ/mol
# GULP energy per Si atom -12398.868519 kJ/mol
# Density = 2.087070 g / cm^3
# Si number density = 20.918314 Si / 1000 Ang^3
#
#
#
# Elastic Constant Matrix: (Units=GPa)
#
#
# Indices 1 2 3 4 5 6 
#
# 1 125.6281 29.7856 25.0942 -0.0062 -2.1978 0.0162
# 2 29.7856 85.4421 24.6652 0.0048 -1.3487 0.0080
# 3 25.0942 24.6652 103.9050 -0.0051 -2.0929 0.0085
# 4 -0.0062 0.0048 -0.0051 26.7919 0.0025 -0.3893
# 5 -2.1978 -1.3487 -2.0929 0.0025 43.5618 -0.0108
# 6 0.0162 0.0080 0.0085 -0.3893 -0.0108 37.4904
#
#
#
# Elastic Compliance Matrix: (Units=1/GPa)
#
#
# Indices 1 2 3 4 5 6 
#
# 1 0.008898 -0.002661 -0.001511 0.000002 0.000294 -0.000003
# 2 -0.002661 0.013363 -0.002526 -0.000004 0.000158 -0.000001
# 3 -0.001511 -0.002526 0.010596 0.000002 0.000355 -0.000001
# 4 0.000002 -0.000004 0.000002 0.037330 -0.000002 0.000388
# 5 0.000294 0.000158 0.000355 -0.000002 0.022993 0.000006
# 6 -0.000003 -0.000001 -0.000001 0.000388 0.000006 0.026678
#
#
# Mechanical properties :
#
#
# Convention : Reuss Voigt Hill
#
# Bulk Modulus (GPa) = 51.38777 52.67392 52.03084
# Shear Modulus (GPa) = 35.78031 37.26418 36.52225
#
# Velocity S-wave (km/s) = 4.14028 4.22526 4.18298
# Velocity P-wave (km/s) = 6.89022 7.00280 6.94674
#
# Compressibility (1/GPa) = 0.01945988
#
# Stress axis : x y z
#
# Youngs Moduli (GPa) = 112.38572 74.83214 94.37487
#
# Poissons Ratio (x) = 0.19912 0.14264
# Poissons Ratio (y) = 0.29905 0.23843
# Poissons Ratio (z) = 0.16986 0.18905
#
# Static dielectric constant tensor:
#      x y z
#    x 3.887530 -0.000020 0.021100 
#    y -0.000020 3.584120 -0.000030 
#    z 0.021100 -0.000030 3.967490 
# 
# 
# High freq. dielectric constant tensor:
#      x y z
#    x 1.837130 0.000000 0.001130 
#    y 0.000000 1.813330 0.000000 
#    z 0.001130 0.000000 1.830720 
# 
# From -- ./inp_files/372952.got.cif
#   From: 2010.06.25/outbox.cif.g09.slc.cpg/sg12_187_cif.got.tgz:372952.got - 2010.06.28 00:19:55.
