data_PCOD8115455
_publ_section_title
;
Structure prediction by ZEFSAII (Michael W. Deem and Ramdas Pophale) SiO2 
 PCOD8115455
Probable space group: C 2/M
;
_chemical_formula_sum "Si O2"
_cell_formula_units_Z 56
_cell_length_a 18.583615
_cell_length_b 27.776107
_cell_length_c 8.976320
_cell_angle_alpha 90.000000
_cell_angle_beta 145.285866
_cell_angle_gamma 90.000000
_cell_volume 2638.640023
_symmetry_space_group_name_H-M "C 2/M"
_symmetry_group_IT_number 12
_symmetry_cell_setting 'monoclinic'
loop_
_space_group_symop_operation_xyz
x,y,z
-x,y,-z
-x,-y,-z
x,-y,z
1/2+x,1/2+y,z
1/2-x,1/2+y,-z
1/2-x,1/2-y,-z
1/2+x,1/2-y,z
loop_
_atom_site_type_symbol
_atom_site_label
_atom_site_fract_x
_atom_site_fract_y
_atom_site_fract_z
Si Si1 0.855071 0.000000 0.936107
Si Si2 0.312449 0.601561 0.018325
Si Si3 0.566584 0.157845 0.962080
Si Si4 0.116333 0.678757 0.598685
Si Si5 0.968547 0.841585 0.772240
Si Si6 0.781945 0.907656 0.301225
Si Si7 0.654762 0.500000 0.428268
Si Si8 0.779096 0.234669 0.381709
O O1 0.802188 0.950986 0.922179
O O2 0.813914 0.000000 0.693548
O O3 0.005705 0.000000 0.205282
O O4 0.183023 0.632300 0.787136
O O5 0.414529 0.636402 0.116997
O O6 0.349814 0.592786 0.254657
O O7 0.639972 0.110357 0.034715
O O8 0.664915 0.202257 0.125865
O O9 0.500000 0.147460 0.000000
O O10 0.442493 0.164237 0.655880
O O11 0.215070 0.721539 0.727026
O O12 0.000000 0.697607 0.500000
O O13 0.850571 0.876367 0.545104
O O14 0.918498 0.790519 0.622818
O O15 0.000000 0.837777 0.000000
O O16 0.775918 0.958505 0.366182
O O17 0.750000 0.250000 0.500000
#
# Coordination Sequence:
#
# PCOD8115455 Si02
#       8
#     4   8   8   8   8   8   4   8
#     4  11  25  43  73 107 140 174 231 285 343 418
#     4  12  25  44  71 101 141 184 223 287 354 409
#     4  11  25  45  69  97 138 184 234 280 342 412
#     4  12  27  46  69  98 144 182 231 289 344 412
#     4  11  24  40  67 101 138 176 233 284 342 405
#     4  11  24  44  68 102 140 179 225 284 348 408
#     4  11  23  43  71 107 136 171 231 288 341 407
#     4  11  25  42  69  98 133 185 234 287 337 410
#
# _framework density 21.223053
#
# number of rings (size 3 to 8) (size 9 to 14) (size 15 to 20)
#    0.000    0.714    4.286    2.571    8.000    3.429 
#    0.000    1.429    0.000    0.000    0.000    0.000 
#    0.000    0.000    0.000    0.000    0.000    0.000 
#
# Total GULP energy -347000.618810 kJ/mol
# GULP energy per Si atom -12392.879243 kJ/mol
# Density = 2.117475 g / cm^3
# Si number density = 21.223053 Si / 1000 Ang^3
#
#
#
# Elastic Constant Matrix: (Units=GPa)
#
#
# Indices 1 2 3 4 5 6 
#
# 1 89.2305 36.0325 12.0742 0.0000 -3.1090 0.0000
# 2 36.0325 138.2171 36.1910 0.0000 -1.6320 0.0000
# 3 12.0742 36.1910 64.6280 0.0000 -13.3672 0.0000
# 4 0.0000 0.0000 0.0000 33.8426 0.0000 -3.7137
# 5 -3.1090 -1.6320 -13.3672 0.0000 37.5614 0.0000
# 6 0.0000 0.0000 0.0000 -3.7137 0.0000 29.3678
#
#
#
# Elastic Compliance Matrix: (Units=1/GPa)
#
#
# Indices 1 2 3 4 5 6 
#
# 1 0.012565 -0.003155 -0.000425 0.000000 0.000752 0.000000
# 2 -0.003155 0.009342 -0.004978 0.000000 -0.001627 0.000000
# 3 -0.000425 -0.004978 0.019741 0.000000 0.006774 0.000000
# 4 0.000000 0.000000 0.000000 0.029964 0.000000 0.003789
# 5 0.000752 -0.001627 0.006774 0.000000 0.029025 0.000000
# 6 0.000000 0.000000 0.000000 0.003789 0.000000 0.034530
#
#
# Mechanical properties :
#
#
# Convention : Reuss Voigt Hill
#
# Bulk Modulus (GPa) = 40.76520 51.18568 45.97544
# Shear Modulus (GPa) = 31.15994 34.00623 32.58308
#
# Velocity S-wave (km/s) = 3.83588 4.00725 3.92250
# Velocity P-wave (km/s) = 6.23445 6.75137 6.49805
#
# Compressibility (1/GPa) = 0.02453073
#
# Stress axis : x y z
#
# Youngs Moduli (GPa) = 79.58721 107.04419 50.65472
#
# Poissons Ratio (x) = 0.33777 0.02153
# Poissons Ratio (y) = 0.25113 0.25218
# Poissons Ratio (z) = 0.03382 0.53291
#
# Static dielectric constant tensor:
#      x y z
#    x 3.906910 0.000000 -0.057690 
#    y 0.000000 4.040120 0.000000 
#    z -0.057690 0.000000 4.001430 
# 
# 
# High freq. dielectric constant tensor:
#      x y z
#    x 1.838780 0.000000 -0.009780 
#    y 0.000000 1.834430 0.000000 
#    z -0.009780 0.000000 1.838070 
# 
# From -- ./inp_files/80151.got.cif
#   From: 2010.06.25/outbox.cif.g09.slc.cpg/sg12_41_cif.got.tgz:80151.got - 2010.06.28 00:19:55.
