data_PCOD8115056
_publ_section_title
;
Structure prediction by ZEFSAII (Michael W. Deem and Ramdas Pophale) SiO2 
 PCOD8115056
Probable space group: C 2/M
;
_chemical_formula_sum "Si O2"
_cell_formula_units_Z 24
_cell_length_a 13.611389
_cell_length_b 18.287623
_cell_length_c 5.492468
_cell_angle_alpha 90.000000
_cell_angle_beta 44.523521
_cell_angle_gamma 90.000000
_cell_volume 958.672771
_symmetry_space_group_name_H-M "C 2/M"
_symmetry_group_IT_number 12
_symmetry_cell_setting 'monoclinic'
loop_
_space_group_symop_operation_xyz
x,y,z
-x,y,-z
-x,-y,-z
x,-y,z
1/2+x,1/2+y,z
1/2-x,1/2+y,-z
1/2-x,1/2-y,-z
1/2+x,1/2-y,z
loop_
_atom_site_type_symbol
_atom_site_label
_atom_site_fract_x
_atom_site_fract_y
_atom_site_fract_z
Si Si1 0.077722 0.130867 0.619897
Si Si2 0.860131 0.715684 0.624183
Si Si3 0.657827 0.081960 0.648616
O O1 0.098291 0.217990 0.629374
O O2 0.229221 0.089398 0.331481
O O3 0.000000 0.115480 0.500000
O O4 0.000000 0.099629 0.000000
O O5 0.788666 0.644613 0.630922
O O6 0.000000 0.684984 0.500000
O O7 0.750000 0.750000 0.000000
O O8 0.659890 0.000000 0.534564
O O9 0.500000 0.102921 0.000000
#
# Coordination Sequence:
#
# PCOD8115056 Si02
#       3
#     8   8   8
#     4  11  24  45  72 101 136 186 244 295 345 414
#     4  11  22  41  70 102 138 184 241 295 348 419
#     4  11  24  42  67 103 146 186 229 291 364 430
#
# _framework density 25.034610000000001
#
# number of rings (size 3 to 8) (size 9 to 14) (size 15 to 20)
#    0.000    1.000    0.000    8.000    0.000    2.000 
#    0.000    8.333    0.000    1.000    0.000    0.000 
#    0.000    0.000    0.000    0.000    0.000    0.000 
#
# Total GULP energy -148705.060398 kJ/mol
# GULP energy per Si atom -12392.088366 kJ/mol
# Density = 2.497763 g / cm^3
# Si number density = 25.034610 Si / 1000 Ang^3
#
#
#
# Elastic Constant Matrix: (Units=GPa)
#
#
# Indices 1 2 3 4 5 6 
#
# 1 163.6492 71.5760 92.4266 0.0000 -23.2592 0.0000
# 2 71.5760 130.6937 36.0575 0.0000 1.9490 0.0000
# 3 92.4266 36.0575 122.2627 0.0000 -1.9349 0.0000
# 4 0.0000 0.0000 0.0000 29.4061 0.0000 -5.9369
# 5 -23.2592 1.9490 -1.9349 0.0000 43.5577 0.0000
# 6 0.0000 0.0000 0.0000 -5.9369 0.0000 12.9050
#
#
#
# Elastic Compliance Matrix: (Units=1/GPa)
#
#
# Indices 1 2 3 4 5 6 
#
# 1 0.015258 -0.005800 -0.009698 0.000000 0.007976 0.000000
# 2 -0.005800 0.010544 0.001219 0.000000 -0.003515 0.000000
# 3 -0.009698 0.001219 0.015079 0.000000 -0.004563 0.000000
# 4 0.000000 0.000000 0.000000 0.037489 0.000000 0.017247
# 5 0.007976 -0.003515 -0.004563 0.000000 0.027172 0.000000
# 6 0.000000 0.000000 0.000000 0.017247 0.000000 0.085424
#
#
# Mechanical properties :
#
#
# Convention : Reuss Voigt Hill
#
# Bulk Modulus (GPa) = 81.14469 90.74733 85.94601
# Shear Modulus (GPa) = 22.35837 31.61013 26.98425
#
# Velocity S-wave (km/s) = 2.99172 3.55724 3.28667
# Velocity P-wave (km/s) = 6.66462 7.29379 6.98629
#
# Compressibility (1/GPa) = 0.01232367
#
# Stress axis : x y z
#
# Youngs Moduli (GPa) = 65.53807 94.84246 66.31838
#
# Poissons Ratio (x) = 0.55006 0.64316
# Poissons Ratio (y) = 0.38010 -0.08086
# Poissons Ratio (z) = 0.63560 -0.11563
#
# Static dielectric constant tensor:
#      x y z
#    x 5.040770 0.000000 -0.570890 
#    y 0.000000 4.596260 0.000000 
#    z -0.570890 0.000000 4.360600 
# 
# 
# High freq. dielectric constant tensor:
#      x y z
#    x 2.013380 0.000000 -0.035360 
#    y 0.000000 1.989090 0.000000 
#    z -0.035360 0.000000 1.985190 
# 
# From -- ./inp_files/5169.got.cif
#   From: 2010.06.25/outbox.cif.g09.slc.cpg/sg12_3_cif.got.tgz:5169.got - 2010.06.28 00:19:55.
