data_PCOD8115346
_publ_section_title
;
Structure prediction by ZEFSAII (Michael W. Deem and Ramdas Pophale) SiO2 
 PCOD8115346
Probable space group: C 2/M
;
_chemical_formula_sum "Si O2"
_cell_formula_units_Z 56
_cell_length_a 20.280726
_cell_length_b 29.846893
_cell_length_c 8.868617
_cell_angle_alpha 90.000000
_cell_angle_beta 150.113922
_cell_angle_gamma 90.000000
_cell_volume 2674.911630
_symmetry_space_group_name_H-M "C 2/M"
_symmetry_group_IT_number 12
_symmetry_cell_setting 'monoclinic'
loop_
_space_group_symop_operation_xyz
x,y,z
-x,y,-z
-x,-y,-z
x,-y,z
1/2+x,1/2+y,z
1/2-x,1/2+y,-z
1/2-x,1/2-y,-z
1/2+x,1/2-y,z
loop_
_atom_site_type_symbol
_atom_site_label
_atom_site_fract_x
_atom_site_fract_y
_atom_site_fract_z
Si Si1 0.372426 0.860452 0.335791
Si Si2 0.041943 0.500000 0.337160
Si Si3 0.636593 0.616441 0.348126
Si Si4 0.122374 0.743459 0.648919
Si Si5 0.614679 0.090110 0.328797
Si Si6 0.284994 0.000000 0.023283
Si Si7 0.362987 0.720332 0.651412
Si Si8 0.357776 0.406204 0.292770
O O1 0.500000 0.880454 0.500000
O O2 0.396092 0.808791 0.419235
O O3 0.356282 0.882369 0.464750
O O4 0.242085 0.870317 0.979681
O O5 0.062378 0.541720 0.269712
O O6 0.148031 0.500000 0.681038
O O7 0.893443 0.500000 0.106712
O O8 0.751275 0.586612 0.501399
O O9 0.669138 0.668490 0.382674
O O10 0.627480 0.605829 0.504735
O O11 0.500000 0.602270 0.000000
O O12 0.130982 0.771503 0.514026
O O13 0.000000 0.763170 0.500000
O O14 0.250000 0.750000 0.000000
O O15 0.500000 0.113346 0.000000
O O16 0.193829 0.956484 0.829712
O O17 0.250000 0.750000 0.500000
O O18 0.500000 0.734496 0.000000
O O19 0.500000 0.400953 0.500000
#
# Coordination Sequence:
#
# PCOD8115346 Si02
#       8
#     8   4   8   8   8   4   8   8
#     4  11  23  41  65  96 130 171 219 272 323 384
#     4  11  23  42  72  97 131 168 211 263 320 380
#     4  11  26  44  63  96 133 172 214 266 327 383
#     4  11  24  40  64  96 128 168 224 276 322 377
#     4  12  24  41  67  99 130 167 215 265 319 382
#     4  11  23  44  70 100 129 167 215 263 318 382
#     4  11  24  43  66  91 131 175 215 264 328 388
#     4  12  25  44  69  95 132 174 218 264 322 387
#
# _framework density 20.935271
#
# number of rings (size 3 to 8) (size 9 to 14) (size 15 to 20)
#    0.000    0.714    1.429    6.429    0.000    9.714 
#    0.000    0.714    0.000    0.000    0.000    0.000 
#    0.000    0.000    0.000    0.000    0.000    0.000 
#
# Total GULP energy -347387.463187 kJ/mol
# GULP energy per Si atom -12406.695114 kJ/mol
# Density = 2.088762 g / cm^3
# Si number density = 20.935271 Si / 1000 Ang^3
#
#
#
# Elastic Constant Matrix: (Units=GPa)
#
#
# Indices 1 2 3 4 5 6 
#
# 1 161.4636 6.8653 65.5746 0.0000 8.5721 0.0000
# 2 6.8653 27.9527 -2.9255 0.0000 6.9798 0.0000
# 3 65.5746 -2.9255 151.1832 0.0000 0.5035 0.0000
# 4 0.0000 0.0000 0.0000 10.0671 0.0000 18.7575
# 5 8.5721 6.9798 0.5035 0.0000 51.3015 0.0000
# 6 0.0000 0.0000 0.0000 18.7575 0.0000 -0.8257
#
#
#
# Elastic Compliance Matrix: (Units=1/GPa)
#
#
# Indices 1 2 3 4 5 6 
#
# 1 0.007702 -0.002000 -0.003376 0.000000 -0.000982 0.000000
# 2 -0.002000 0.037634 0.001612 0.000000 -0.004802 0.000000
# 3 -0.003376 0.001612 0.008109 0.000000 0.000265 0.000000
# 4 0.000000 0.000000 0.000000 0.002293 0.000000 0.052082
# 5 -0.000982 -0.004802 0.000265 0.000000 0.020307 0.000000
# 6 0.000000 0.000000 0.000000 0.052082 0.000000 -0.027952
#
#
# Mechanical properties :
#
#
# Convention : Reuss Voigt Hill
#
# Bulk Modulus (GPa) = 21.77883 53.29201 37.53542
# Shear Modulus (GPa) = 70.49657 30.18092 50.33874
#
# Velocity S-wave (km/s) = 5.80919 3.80100 4.90888
# Velocity P-wave (km/s) = 7.44454 6.69136 7.07797
#
# Compressibility (1/GPa) = 0.04591615
#
# Stress axis : x y z
#
# Youngs Moduli (GPa) = 129.84428 26.57200 123.31867
#
# Poissons Ratio (x) = 0.05314 0.41631
# Poissons Ratio (y) = 0.25965 -0.19874
# Poissons Ratio (z) = 0.43834 -0.04282
#
# Static dielectric constant tensor:
#      x y z
#    x 1.157190 0.000000 -0.720660 
#    y 0.000000 3.256970 0.000000 
#    z -0.720660 0.000000 3.930540 
# 
# 
# High freq. dielectric constant tensor:
#      x y z
#    x 1.839270 0.000000 -0.003850 
#    y 0.000000 1.822780 0.000000 
#    z -0.003850 0.000000 1.838740 
# 
# From -- ./inp_files/91678.got.cif
#   From: 2010.06.25/outbox.cif.g09.slc.cpg/sg12_46_cif.got.tgz:91678.got - 2010.06.28 00:19:55.
