data_PCOD8115011
_publ_section_title
;
Structure prediction by ZEFSAII (Michael W. Deem and Ramdas Pophale) SiO2 
 PCOD8115011
Probable space group: C 2/M
;
_chemical_formula_sum "Si O2"
_cell_formula_units_Z 48
_cell_length_a 11.377856
_cell_length_b 15.658903
_cell_length_c 14.869169
_cell_angle_alpha 90.000000
_cell_angle_beta 56.952070
_cell_angle_gamma 90.000000
_cell_volume 2220.566168
_symmetry_space_group_name_H-M "C 2/M"
_symmetry_group_IT_number 12
_symmetry_cell_setting 'monoclinic'
loop_
_space_group_symop_operation_xyz
x,y,z
-x,y,-z
-x,-y,-z
x,-y,z
1/2+x,1/2+y,z
1/2-x,1/2+y,-z
1/2-x,1/2-y,-z
1/2+x,1/2-y,z
loop_
_atom_site_type_symbol
_atom_site_label
_atom_site_fract_x
_atom_site_fract_y
_atom_site_fract_z
Si Si1 0.401229 0.906845 0.467514
Si Si2 0.871632 0.126111 0.324714
Si Si3 0.628481 0.404911 0.881094
Si Si4 0.317300 0.761183 0.876825
Si Si5 0.175403 0.099604 0.243190
Si Si6 0.622503 0.187842 0.705484
O O1 0.500000 0.861452 0.500000
O O2 0.247576 0.924018 0.572755
O O3 0.413826 0.852037 0.373941
O O4 0.463746 0.000000 0.417561
O O5 0.911259 0.092592 0.208071
O O6 0.807860 0.221420 0.345041
O O7 0.009582 0.113957 0.329871
O O8 0.681375 0.500000 0.886038
O O9 0.748307 0.334942 0.845260
O O10 0.500000 0.379642 0.000000
O O11 0.287156 0.667339 0.849552
O O12 0.480197 0.787697 0.819212
O O13 0.250000 0.750000 0.000000
O O14 0.271533 0.124326 0.288241
O O15 0.206156 0.000000 0.204769
#
# Coordination Sequence:
#
# PCOD8115011 Si02
#       6
#     8   8   8   8   8   8
#     4  11  24  41  66  98 133 176 227 282 338 406
#     4  11  23  43  65  96 137 179 226 281 339 407
#     4  11  22  40  69  99 129 175 231 280 339 412
#     4  11  25  43  68  96 138 176 223 285 349 408
#     4  11  24  43  68  99 136 179 227 280 342 409
#     4  11  24  43  65  95 134 176 225 280 342 411
#
# _framework density 21.616109000000002
#
# number of rings (size 3 to 8) (size 9 to 14) (size 15 to 20)
#    0.000    1.000    1.667    5.500    2.333    5.333 
#    0.000    2.500    0.000    0.000    0.000    0.000 
#    0.000    0.000    0.000    0.000    0.000    0.000 
#
# Total GULP energy -297424.789510 kJ/mol
# GULP energy per Si atom -12392.699563 kJ/mol
# Density = 2.156691 g / cm^3
# Si number density = 21.616109 Si / 1000 Ang^3
#
#
#
# Elastic Constant Matrix: (Units=GPa)
#
#
# Indices 1 2 3 4 5 6 
#
# 1 129.5772 47.2452 40.4728 0.0000 5.1581 0.0000
# 2 47.2452 163.1958 20.2906 0.0000 4.1182 0.0000
# 3 40.4728 20.2906 112.5330 0.0000 5.3801 0.0000
# 4 0.0000 0.0000 0.0000 40.7884 0.0000 14.5561
# 5 5.1581 4.1182 5.3801 0.0000 27.5421 0.0000
# 6 0.0000 0.0000 0.0000 14.5561 0.0000 37.6689
#
#
#
# Elastic Compliance Matrix: (Units=1/GPa)
#
#
# Indices 1 2 3 4 5 6 
#
# 1 0.009542 -0.002372 -0.002963 0.000000 -0.000853 0.000000
# 2 -0.002372 0.006872 -0.000361 0.000000 -0.000513 0.000000
# 3 -0.002963 -0.000361 0.010082 0.000000 -0.001360 0.000000
# 4 0.000000 0.000000 0.000000 0.028439 0.000000 -0.010989
# 5 -0.000853 -0.000513 -0.001360 0.000000 0.036810 0.000000
# 6 0.000000 0.000000 0.000000 -0.010989 0.000000 0.030794
#
#
# Mechanical properties :
#
#
# Convention : Reuss Voigt Hill
#
# Bulk Modulus (GPa) = 66.21453 69.03589 67.62521
# Shear Modulus (GPa) = 35.97977 41.01971 38.49974
#
# Velocity S-wave (km/s) = 4.08424 4.36092 4.22485
# Velocity P-wave (km/s) = 7.27598 7.57387 7.42642
#
# Compressibility (1/GPa) = 0.01510242
#
# Stress axis : x y z
#
# Youngs Moduli (GPa) = 104.80057 145.51187 99.18461
#
# Poissons Ratio (x) = 0.34522 0.29390
# Poissons Ratio (y) = 0.24863 0.03584
# Poissons Ratio (z) = 0.31055 0.05258
#
# Static dielectric constant tensor:
#      x y z
#    x 3.985710 0.000000 -0.027990 
#    y 0.000000 4.258850 0.000000 
#    z -0.027990 0.000000 3.667200 
# 
# 
# High freq. dielectric constant tensor:
#      x y z
#    x 1.850420 0.000000 -0.000510 
#    y 0.000000 1.872220 0.000000 
#    z -0.000510 0.000000 1.837510 
# 
# From -- ./inp_files/204862.got.cif
#   From: 2010.06.25/outbox.cif.g09.slc.cpg/sg12_103_cif.got.tgz:204862.got - 2010.06.28 00:19:55.
