data_PCOD8115253
_publ_section_title
;
Structure prediction by ZEFSAII (Michael W. Deem and Ramdas Pophale) SiO2 
 PCOD8115253
Probable space group: C 2/M
;
_chemical_formula_sum "Si O2"
_cell_formula_units_Z 40
_cell_length_a 9.632247
_cell_length_b 15.395619
_cell_length_c 15.164056
_cell_angle_alpha 90.000000
_cell_angle_beta 64.051434
_cell_angle_gamma 90.000000
_cell_volume 2022.042430
_symmetry_space_group_name_H-M "C 2/M"
_symmetry_group_IT_number 12
_symmetry_cell_setting 'monoclinic'
loop_
_space_group_symop_operation_xyz
x,y,z
-x,y,-z
-x,-y,-z
x,-y,z
1/2+x,1/2+y,z
1/2-x,1/2+y,-z
1/2-x,1/2-y,-z
1/2+x,1/2-y,z
loop_
_atom_site_type_symbol
_atom_site_label
_atom_site_fract_x
_atom_site_fract_y
_atom_site_fract_z
Si Si1 0.923238 0.166698 0.816641
Si Si2 0.422226 0.403572 0.387428
Si Si3 0.457960 0.000000 0.911376
Si Si4 0.385514 0.500000 0.951252
Si Si5 0.608539 0.827276 0.800165
Si Si6 0.242489 0.902316 0.399355
O O1 0.759990 0.189060 0.817183
O O2 0.059005 0.150940 0.707032
O O3 0.986359 0.250177 0.852133
O O4 0.904773 0.084959 0.885715
O O5 0.368550 0.500000 0.375502
O O6 0.586120 0.409492 0.388421
O O7 0.294440 0.365260 0.491751
O O8 0.529346 0.916414 0.847016
O O9 0.500000 0.000000 0.000000
O O10 0.275375 0.000000 0.953043
O O11 0.500000 0.500000 0.000000
O O12 0.646463 0.836552 0.684725
O O13 0.313245 0.000000 0.386321
#
# Coordination Sequence:
#
# PCOD8115253 Si02
#       6
#     8   8   4   4   8   8
#     4  11  23  41  62  94 124 160 203 251 302 363
#     4   8  14  29  58  86 121 158 199 242 290 352
#     4  12  24  46  67  85 117 163 200 258 310 360
#     4  12  28  46  67  87 119 157 206 256 314 361
#     4  11  23  39  64  93 126 159 204 248 301 362
#     4   8  14  29  56  90 118 159 201 238 289 358
#
# _framework density 19.781980000000001
#
# number of rings (size 3 to 8) (size 9 to 14) (size 15 to 20)
#    0.000    2.000    4.000    1.200    2.800    2.400 
#    0.000    0.000    0.000    0.000    0.000    4.200 
#    0.000    0.000    0.000    0.000    0.000    0.000 
#
# Total GULP energy -247831.980957 kJ/mol
# GULP energy per Si atom -12391.599048 kJ/mol
# Density = 1.973696 g / cm^3
# Si number density = 19.781980 Si / 1000 Ang^3
#
#
#
# Elastic Constant Matrix: (Units=GPa)
#
#
# Indices 1 2 3 4 5 6 
#
# 1 93.3434 47.1821 43.4368 0.0000 -5.7729 0.0000
# 2 47.1821 129.8330 45.8794 0.0000 -10.2607 0.0000
# 3 43.4368 45.8794 101.2217 0.0000 -9.2536 0.0000
# 4 0.0000 0.0000 0.0000 -31.1626 0.0000 -19.5853
# 5 -5.7729 -10.2607 -9.2536 0.0000 22.6142 0.0000
# 6 0.0000 0.0000 0.0000 -19.5853 0.0000 17.2160
#
#
#
# Elastic Compliance Matrix: (Units=1/GPa)
#
#
# Indices 1 2 3 4 5 6 
#
# 1 0.014756 -0.003710 -0.004633 0.000000 0.000187 0.000000
# 2 -0.003710 0.010249 -0.002820 0.000000 0.002549 0.000000
# 3 -0.004633 -0.002820 0.013423 0.000000 0.003030 0.000000
# 4 0.000000 0.000000 0.000000 -0.018711 0.000000 -0.021287
# 5 0.000187 0.002549 0.003030 0.000000 0.046664 0.000000
# 6 0.000000 0.000000 0.000000 -0.021287 0.000000 0.033869
#
#
# Mechanical properties :
#
#
# Convention : Reuss Voigt Hill
#
# Bulk Modulus (GPa) = 62.11136 66.37719 64.24427
# Shear Modulus (GPa) = 39.07950 14.26018 26.66984
#
# Velocity S-wave (km/s) = 4.44949 2.68781 3.67575
# Velocity P-wave (km/s) = 7.60680 6.57721 7.11066
#
# Compressibility (1/GPa) = 0.01610012
#
# Stress axis : x y z
#
# Youngs Moduli (GPa) = 67.76745 97.57507 74.50004
#
# Poissons Ratio (x) = 0.36204 0.34519
# Poissons Ratio (y) = 0.25144 0.21009
# Poissons Ratio (z) = 0.31400 0.27516
#
# Static dielectric constant tensor:
#      x y z
#    x 3.202120 0.000000 -0.027090 
#    y 0.000000 3.548400 0.000000 
#    z -0.027090 0.000000 3.990670 
# 
# 
# High freq. dielectric constant tensor:
#      x y z
#    x 1.728610 0.000000 -0.004360 
#    y 0.000000 1.768280 0.000000 
#    z -0.004360 0.000000 1.791000 
# 
# From -- ./inp_files/195327.got.cif
#   From: 2010.06.25/outbox.cif.g09.slc.cpg/sg12_98_cif.got.tgz:195327.got - 2010.06.28 00:19:55.
