data_PCOD8115542
_publ_section_title
;
Structure prediction by ZEFSAII (Michael W. Deem and Ramdas Pophale) SiO2 
 PCOD8115542
Probable space group: C 2/M
;
_chemical_formula_sum "Si O2"
_cell_formula_units_Z 40
_cell_length_a 25.108854
_cell_length_b 8.765182
_cell_length_c 15.380775
_cell_angle_alpha 90.000000
_cell_angle_beta 143.811254
_cell_angle_gamma 90.000000
_cell_volume 1998.697559
_symmetry_space_group_name_H-M "C 2/M"
_symmetry_group_IT_number 12
_symmetry_cell_setting 'monoclinic'
loop_
_space_group_symop_operation_xyz
x,y,z
-x,y,-z
-x,-y,-z
x,-y,z
1/2+x,1/2+y,z
1/2-x,1/2+y,-z
1/2-x,1/2-y,-z
1/2+x,1/2-y,z
loop_
_atom_site_type_symbol
_atom_site_label
_atom_site_fract_x
_atom_site_fract_y
_atom_site_fract_z
Si Si1 0.353882 0.175637 0.820039
Si Si2 0.513661 0.824039 0.159293
Si Si3 0.677158 0.320766 0.840978
Si Si4 0.182694 0.322106 0.662211
Si Si5 0.982434 0.821736 0.652397
O O1 0.402437 0.210589 0.793031
O O2 0.266455 0.282150 0.710081
O O3 0.323583 0.000000 0.784084
O O4 0.420881 0.212690 0.987673
O O5 0.521830 0.712553 0.251254
O O6 0.515319 0.000000 0.191857
O O7 0.687821 0.500000 0.859625
O O8 0.695889 0.267654 0.768562
O O9 0.578238 0.269100 0.740792
O O10 0.750000 0.250000 0.000000
O O11 0.180889 0.500000 0.679737
O O12 0.090925 0.275449 0.495007
O O13 0.964584 0.000000 0.613037
#
# Coordination Sequence:
#
# PCOD8115542 Si02
#       5
#     8   8   8   8   8
#     4   9  19  38  62  87 118 154 193 239 289 343
#     4   9  19  37  62  89 116 152 195 238 288 344
#     4  11  24  42  64  89 117 151 192 237 288 346
#     4  12  25  39  59  87 118 155 196 239 290 343
#     4  11  24  40  59  85 118 155 193 238 291 344
#
# _framework density 20.013033
#
# number of rings (size 3 to 8) (size 9 to 14) (size 15 to 20)
#    0.000    1.600    0.000    6.000    0.000   11.200 
#    0.000    2.000    0.000    0.000    0.000    0.000 
#    0.000    0.000    0.000    0.000    0.000    0.000 
#
# Total GULP energy -248122.543450 kJ/mol
# GULP energy per Si atom -12406.127173 kJ/mol
# Density = 1.996748 g / cm^3
# Si number density = 20.013033 Si / 1000 Ang^3
#
#
#
# Elastic Constant Matrix: (Units=GPa)
#
#
# Indices 1 2 3 4 5 6 
#
# 1 95.6458 37.8555 34.9046 0.0000 19.9389 0.0000
# 2 37.8555 57.3764 41.7257 0.0000 15.4950 0.0000
# 3 34.9046 41.7257 77.1646 0.0000 28.8391 0.0000
# 4 0.0000 0.0000 0.0000 33.4434 0.0000 -6.4891
# 5 19.9389 15.4950 28.8391 0.0000 34.0497 0.0000
# 6 0.0000 0.0000 0.0000 -6.4891 0.0000 32.6920
#
#
#
# Elastic Compliance Matrix: (Units=1/GPa)
#
#
# Indices 1 2 3 4 5 6 
#
# 1 0.014829 -0.008098 -0.000674 0.000000 -0.004428 0.000000
# 2 -0.008098 0.033147 -0.015210 0.000000 0.002540 0.000000
# 3 -0.000674 -0.015210 0.027441 0.000000 -0.015925 0.000000
# 4 0.000000 0.000000 0.000000 0.031099 0.000000 0.006173
# 5 -0.004428 0.002540 -0.015925 0.000000 0.044293 0.000000
# 6 0.000000 0.000000 0.000000 0.006173 0.000000 0.031814
#
#
# Mechanical properties :
#
#
# Convention : Reuss Voigt Hill
#
# Bulk Modulus (GPa) = 36.42712 51.01761 43.72237
# Shear Modulus (GPa) = 20.85610 27.75042 24.30326
#
# Velocity S-wave (km/s) = 3.23170 3.72777 3.48856
# Velocity P-wave (km/s) = 5.67154 6.63897 6.17423
#
# Compressibility (1/GPa) = 0.02745207
#
# Stress axis : x y z
#
# Youngs Moduli (GPa) = 67.43358 30.16897 36.44236
#
# Poissons Ratio (x) = 0.24431 0.02458
# Poissons Ratio (y) = 0.54607 0.55429
# Poissons Ratio (z) = 0.04547 0.45887
#
# Static dielectric constant tensor:
#      x y z
#    x 3.729000 0.000000 0.204980 
#    y 0.000000 3.562090 0.000000 
#    z 0.204980 0.000000 3.508940 
# 
# 
# High freq. dielectric constant tensor:
#      x y z
#    x 1.795680 0.000000 0.004300 
#    y 0.000000 1.780800 0.000000 
#    z 0.004300 0.000000 1.787260 
# 
# From -- ./inp_files/220579.got.cif
#   From: 2010.06.25/outbox.cif.g09.slc.cpg/sg12_111_cif.got.tgz:220579.got - 2010.06.28 00:19:55.
