data_PCOD8115187
_publ_section_title
;
Structure prediction by ZEFSAII (Michael W. Deem and Ramdas Pophale) SiO2 
 PCOD8115187
Probable space group: C 2/M
;
_chemical_formula_sum "Si O2"
_cell_formula_units_Z 56
_cell_length_a 12.498996
_cell_length_b 26.427250
_cell_length_c 8.908662
_cell_angle_alpha 90.000000
_cell_angle_beta 66.987737
_cell_angle_gamma 90.000000
_cell_volume 2708.483531
_symmetry_space_group_name_H-M "C 2/M"
_symmetry_group_IT_number 12
_symmetry_cell_setting 'monoclinic'
loop_
_space_group_symop_operation_xyz
x,y,z
-x,y,-z
-x,-y,-z
x,-y,z
1/2+x,1/2+y,z
1/2-x,1/2+y,-z
1/2-x,1/2-y,-z
1/2+x,1/2-y,z
loop_
_atom_site_type_symbol
_atom_site_label
_atom_site_fract_x
_atom_site_fract_y
_atom_site_fract_z
Si Si1 0.417379 0.174248 0.422664
Si Si2 0.233246 0.807483 0.036760
Si Si3 0.381684 0.123729 0.131532
Si Si4 0.659305 0.442746 0.280412
Si Si5 0.595862 0.557929 0.659097
Si Si6 0.306225 0.656212 0.271426
Si Si7 0.503910 0.712697 0.328215
O O1 0.500000 0.147149 0.500000
O O2 0.402316 0.136350 0.293391
O O3 0.294460 0.181449 0.572164
O O4 0.478948 0.226950 0.339156
O O5 0.350827 0.826144 0.053956
O O6 0.127023 0.809027 0.209535
O O7 0.250000 0.750000 0.000000
O O8 0.215313 0.837886 0.892855
O O9 0.270381 0.088402 0.164785
O O10 0.500000 0.099301 0.000000
O O11 0.687315 0.500000 0.222680
O O12 0.540654 0.426306 0.259949
O O13 0.641955 0.436816 0.466102
O O14 0.612470 0.500000 0.707021
O O15 0.672868 0.596137 0.716189
O O16 0.417104 0.687354 0.260536
O O17 0.500000 0.691990 0.500000
#
# Coordination Sequence:
#
# PCOD8115187 Si02
#       7
#     8   8   8   8   8   8   8
#     4  11  23  41  59  87 121 165 212 260 313 373
#     4  12  25  41  58  89 130 170 211 261 316 372
#     4  12  23  39  62  88 125 172 213 258 315 382
#     4   9  19  38  64  95 126 160 205 264 324 384
#     4   9  19  38  67  98 126 157 206 268 327 377
#     4  12  22  38  65  92 123 163 213 264 318 378
#     4  11  23  38  60  88 122 163 212 260 314 378
#
# _framework density 20.675775999999999
#
# number of rings (size 3 to 8) (size 9 to 14) (size 15 to 20)
#    0.000    1.143    1.429    7.714    2.000    0.286 
#    0.000    0.714    0.000    6.857    0.000    0.000 
#    0.000    0.000    0.000    0.000    0.000    0.000 
#
# Total GULP energy -347099.005139 kJ/mol
# GULP energy per Si atom -12396.393041 kJ/mol
# Density = 2.062872 g / cm^3
# Si number density = 20.675776 Si / 1000 Ang^3
#
#
#
# Elastic Constant Matrix: (Units=GPa)
#
#
# Indices 1 2 3 4 5 6 
#
# 1 95.9154 27.6025 32.5658 0.0000 -2.4391 0.0000
# 2 27.6025 81.3756 18.8527 0.0000 6.0435 0.0000
# 3 32.5658 18.8527 105.9738 0.0000 -3.0408 0.0000
# 4 0.0000 0.0000 0.0000 23.6177 0.0000 -6.5977
# 5 -2.4391 6.0435 -3.0408 0.0000 50.7275 0.0000
# 6 0.0000 0.0000 0.0000 -6.5977 0.0000 28.3589
#
#
#
# Elastic Compliance Matrix: (Units=1/GPa)
#
#
# Indices 1 2 3 4 5 6 
#
# 1 0.012565 -0.003583 -0.003200 0.000000 0.000839 0.000000
# 2 -0.003583 0.013981 -0.001441 0.000000 -0.001924 0.000000
# 3 -0.003200 -0.001441 0.010695 0.000000 0.000659 0.000000
# 4 0.000000 0.000000 0.000000 0.045284 0.000000 0.010535
# 5 0.000839 -0.001924 0.000659 0.000000 0.020022 0.000000
# 6 0.000000 0.000000 0.000000 0.010535 0.000000 0.037713
#
#
# Mechanical properties :
#
#
# Convention : Reuss Voigt Hill
#
# Bulk Modulus (GPa) = 48.09430 49.03407 48.56419
# Shear Modulus (GPa) = 30.55508 34.15707 32.35608
#
# Velocity S-wave (km/s) = 3.84841 4.06893 3.96021
# Velocity P-wave (km/s) = 6.56191 6.77068 6.66712
#
# Compressibility (1/GPa) = 0.02079248
#
# Stress axis : x y z
#
# Youngs Moduli (GPa) = 79.58830 71.52630 93.50276
#
# Poissons Ratio (x) = 0.25628 0.29917
# Poissons Ratio (y) = 0.28516 0.13477
# Poissons Ratio (z) = 0.25465 0.10309
#
# Static dielectric constant tensor:
#      x y z
#    x 3.157890 0.000000 0.178160 
#    y 0.000000 3.805260 0.000000 
#    z 0.178160 0.000000 3.600210 
# 
# 
# High freq. dielectric constant tensor:
#      x y z
#    x 1.818980 0.000000 -0.004910 
#    y 0.000000 1.797180 0.000000 
#    z -0.004910 0.000000 1.810830 
# 
# From -- ./inp_files/53211.got.cif
#   From: 2010.06.25/outbox.cif.g09.slc.cpg/sg12_27_cif.got.tgz:53211.got - 2010.06.28 00:19:55.
