data_PCOD8115746
_publ_section_title
;
Structure prediction by ZEFSAII (Michael W. Deem and Ramdas Pophale) SiO2 
 PCOD8115746
Probable space group: C 2/M
;
_chemical_formula_sum "Si O2"
_cell_formula_units_Z 64
_cell_length_a 15.533968
_cell_length_b 30.117943
_cell_length_c 8.884249
_cell_angle_alpha 90.000000
_cell_angle_beta 134.762133
_cell_angle_gamma 90.000000
_cell_volume 2951.270205
_symmetry_space_group_name_H-M "C 2/M"
_symmetry_group_IT_number 12
_symmetry_cell_setting 'monoclinic'
loop_
_space_group_symop_operation_xyz
x,y,z
-x,y,-z
-x,-y,-z
x,-y,z
1/2+x,1/2+y,z
1/2-x,1/2+y,-z
1/2-x,1/2-y,-z
1/2+x,1/2-y,z
loop_
_atom_site_type_symbol
_atom_site_label
_atom_site_fract_x
_atom_site_fract_y
_atom_site_fract_z
Si Si1 0.258362 0.450884 0.157191
Si Si2 0.081311 0.132878 0.729299
Si Si3 0.776781 0.451664 0.544266
Si Si4 0.718762 0.202137 0.910974
Si Si5 0.400515 0.623077 0.756414
Si Si6 0.498228 0.837627 0.176779
Si Si7 0.979261 0.431901 0.296936
Si Si8 0.264039 0.795597 0.421108
O O1 0.320667 0.500000 0.230869
O O2 0.351166 0.412063 0.232725
O O3 0.209017 0.439484 0.262803
O O4 0.148513 0.454054 0.902395
O O5 0.000000 0.156583 0.500000
O O6 0.970941 0.115701 0.691357
O O7 0.174106 0.166904 0.922339
O O8 0.712252 0.500000 0.444962
O O9 0.707858 0.412848 0.368131
O O10 0.910751 0.457649 0.643542
O O11 0.600537 0.193862 0.867262
O O12 0.697003 0.207512 0.705765
O O13 0.750000 0.250000 0.000000
O O14 0.356383 0.674211 0.717142
O O15 0.500000 0.611412 0.000000
O O16 0.470802 0.883308 0.220954
O O17 0.632689 0.822574 0.371793
O O18 0.500000 0.840066 0.000000
O O19 0.000000 0.431241 0.500000
O O20 0.250000 0.750000 0.500000
#
# Coordination Sequence:
#
# PCOD8115746 Si02
#       8
#     8   8   8   8   8   8   8   8
#     4  11  25  46  73 106 141 186 241 297 355 424
#     4  12  27  46  74 103 143 190 238 291 357 423
#     4  11  25  46  73 105 141 188 240 293 357 428
#     4  12  28  48  74 109 143 185 239 296 355 428
#     4  12  27  48  71 101 145 191 234 293 356 426
#     4  12  26  45  75 105 139 185 236 292 357 421
#     4  12  25  43  70 105 142 182 235 295 360 418
#     4  12  28  48  75 106 145 187 236 297 356 425
#
# _framework density 21.685579000000001
#
# number of rings (size 3 to 8) (size 9 to 14) (size 15 to 20)
#    0.000    0.250    5.000    3.375    7.000    3.500 
#    0.000    0.000    0.000    0.000    0.000    0.000 
#    0.000    0.000    0.000    0.000    0.000    0.000 
#
# Total GULP energy -396506.525485 kJ/mol
# GULP energy per Si atom -12390.828921 kJ/mol
# Density = 2.163622 g / cm^3
# Si number density = 21.685579 Si / 1000 Ang^3
#
#
#
# Elastic Constant Matrix: (Units=GPa)
#
#
# Indices 1 2 3 4 5 6 
#
# 1 129.0598 19.8195 27.5876 0.0000 -26.9314 0.0000
# 2 19.8195 117.4450 13.3792 0.0000 -10.6400 0.0000
# 3 27.5876 13.3792 123.5600 0.0000 -27.5914 0.0000
# 4 0.0000 0.0000 0.0000 26.5344 0.0000 1.4991
# 5 -26.9314 -10.6400 -27.5914 0.0000 49.0028 0.0000
# 6 0.0000 0.0000 0.0000 1.4991 0.0000 31.0922
#
#
#
# Elastic Compliance Matrix: (Units=1/GPa)
#
#
# Indices 1 2 3 4 5 6 
#
# 1 0.008983 -0.001028 -0.000963 0.000000 0.004171 0.000000
# 2 -0.001028 0.008841 -0.000486 0.000000 0.001081 0.000000
# 3 -0.000963 -0.000486 0.009401 0.000000 0.004659 0.000000
# 4 0.000000 0.000000 0.000000 0.037790 0.000000 -0.001822
# 5 0.004171 0.001081 0.004659 0.000000 0.025557 0.000000
# 6 0.000000 0.000000 0.000000 -0.001822 0.000000 0.032250
#
#
# Mechanical properties :
#
#
# Convention : Reuss Voigt Hill
#
# Bulk Modulus (GPa) = 44.90295 54.62636 49.76465
# Shear Modulus (GPa) = 36.98201 41.94445 39.46323
#
# Velocity S-wave (km/s) = 4.13410 4.40274 4.27053
# Velocity P-wave (km/s) = 6.59841 7.14775 6.87856
#
# Compressibility (1/GPa) = 0.02227025
#
# Stress axis : x y z
#
# Youngs Moduli (GPa) = 111.32755 113.10332 106.36995
#
# Poissons Ratio (x) = 0.11630 0.10241
# Poissons Ratio (y) = 0.11447 0.05174
# Poissons Ratio (z) = 0.10718 0.05502
#
# Static dielectric constant tensor:
#      x y z
#    x 3.806800 0.000000 -0.247470 
#    y 0.000000 4.040500 0.000000 
#    z -0.247470 0.000000 3.666010 
# 
# 
# High freq. dielectric constant tensor:
#      x y z
#    x 1.863770 0.000000 -0.006110 
#    y 0.000000 1.865500 0.000000 
#    z -0.006110 0.000000 1.864630 
# 
# From -- ./inp_files/68627.got.cif
#   From: 2010.06.25/outbox.cif.g09.slc.cpg/sg12_35_cif.got.tgz:68627.got - 2010.06.28 00:19:55.
