data_PCOD8115239
_publ_section_title
;
Structure prediction by ZEFSAII (Michael W. Deem and Ramdas Pophale) SiO2 
 PCOD8115239
Probable space group: C 2/M
;
_chemical_formula_sum "Si O2"
_cell_formula_units_Z 48
_cell_length_a 17.318482
_cell_length_b 17.707124
_cell_length_c 14.637447
_cell_angle_alpha 90.000000
_cell_angle_beta 150.437959
_cell_angle_gamma 90.000000
_cell_volume 2214.583950
_symmetry_space_group_name_H-M "C 2/M"
_symmetry_group_IT_number 12
_symmetry_cell_setting 'monoclinic'
loop_
_space_group_symop_operation_xyz
x,y,z
-x,y,-z
-x,-y,-z
x,-y,z
1/2+x,1/2+y,z
1/2-x,1/2+y,-z
1/2-x,1/2-y,-z
1/2+x,1/2-y,z
loop_
_atom_site_type_symbol
_atom_site_label
_atom_site_fract_x
_atom_site_fract_y
_atom_site_fract_z
Si Si1 0.423834 0.200513 0.829787
Si Si2 0.937216 0.130215 0.841531
Si Si3 0.949616 0.202278 0.552583
Si Si4 0.429714 0.157072 0.201797
Si Si5 0.397614 0.413421 0.165414
Si Si6 0.899467 0.415792 0.478640
O O1 0.496419 0.284197 0.892825
O O2 0.237384 0.201032 0.636723
O O3 0.487395 0.153329 0.810435
O O4 0.500000 0.164908 0.000000
O O5 0.750198 0.135161 0.655630
O O6 0.993977 0.082685 0.813293
O O7 0.000000 0.092920 0.000000
O O8 0.000000 0.211974 0.500000
O O9 0.024768 0.268424 0.692583
O O10 0.007693 0.121871 0.652127
O O11 0.493143 0.084153 0.321203
O O12 0.245381 0.143803 0.001317
O O13 0.349106 0.500000 0.139336
O O14 0.846080 0.500000 0.397867
O O15 0.000000 0.379295 0.500000
#
# Coordination Sequence:
#
# PCOD8115239 Si02
#       6
#     8   8   8   8   8   8
#     4  11  24  42  68 102 132 167 221 279 334 388
#     4  11  23  39  64  95 134 173 218 274 332 393
#     4  12  25  43  72 101 131 174 222 278 328 390
#     4  12  23  43  68  97 129 175 222 273 326 392
#     4  12  27  44  66  98 136 179 222 272 334 397
#     4  11  23  39  62  96 137 176 216 268 331 397
#
# _framework density 21.674499999999998
#
# number of rings (size 3 to 8) (size 9 to 14) (size 15 to 20)
#    0.000    0.500    3.333    5.500    4.667    3.000 
#    0.000    0.833    0.000    3.500    0.000    0.000 
#    0.000    0.000    0.000    0.000    0.000    0.000 
#
# Total GULP energy -297582.215961 kJ/mol
# GULP energy per Si atom -12399.258998 kJ/mol
# Density = 2.162517 g / cm^3
# Si number density = 21.674500 Si / 1000 Ang^3
#
#
#
# Elastic Constant Matrix: (Units=GPa)
#
#
# Indices 1 2 3 4 5 6 
#
# 1 172.7844 37.8361 62.3049 0.0000 -6.7958 0.0000
# 2 37.8361 74.5372 43.5079 0.0000 -6.1109 0.0000
# 3 62.3049 43.5079 141.6047 0.0000 -2.3121 0.0000
# 4 0.0000 0.0000 0.0000 10.9529 0.0000 2.9026
# 5 -6.7958 -6.1109 -2.3121 0.0000 46.6570 0.0000
# 6 0.0000 0.0000 0.0000 2.9026 0.0000 -7.4660
#
#
#
# Elastic Compliance Matrix: (Units=1/GPa)
#
#
# Indices 1 2 3 4 5 6 
#
# 1 0.007179 -0.002137 -0.002492 0.000000 0.000642 0.000000
# 2 -0.002137 0.017153 -0.004302 0.000000 0.001722 0.000000
# 3 -0.002492 -0.004302 0.009472 0.000000 -0.000457 0.000000
# 4 0.000000 0.000000 0.000000 0.082772 0.000000 0.032180
# 5 0.000642 0.001722 -0.000457 0.000000 0.021729 0.000000
# 6 0.000000 0.000000 0.000000 0.032180 0.000000 -0.121429
#
#
# Mechanical properties :
#
#
# Convention : Reuss Voigt Hill
#
# Bulk Modulus (GPa) = 62.72136 75.13602 68.92869
# Shear Modulus (GPa) = 124.83237 26.38060 75.60648
#
# Velocity S-wave (km/s) = 7.59731 3.49252 5.91256
# Velocity P-wave (km/s) = 10.29367 7.14174 8.85901
#
# Compressibility (1/GPa) = 0.01594353
#
# Stress axis : x y z
#
# Youngs Moduli (GPa) = 139.28896 58.29813 105.56877
#
# Poissons Ratio (x) = 0.12460 0.26304
# Poissons Ratio (y) = 0.29770 0.45414
# Poissons Ratio (z) = 0.34706 0.25079
#
# Static dielectric constant tensor:
#      x y z
#    x 4.042420 0.000000 -0.144190 
#    y 0.000000 3.665320 0.000000 
#    z -0.144190 0.000000 4.109340 
# 
# 
# High freq. dielectric constant tensor:
#      x y z
#    x 1.860320 0.000000 -0.001010 
#    y 0.000000 1.833700 0.000000 
#    z -0.001010 0.000000 1.865750 
# 
# From -- ./inp_files/112953.got.cif
#   From: 2010.06.25/outbox.cif.g09.slc.cpg/sg12_57_cif.got.tgz:112953.got - 2010.06.28 00:19:55.
