data_PCOD8115511
_publ_section_title
;
Structure prediction by ZEFSAII (Michael W. Deem and Ramdas Pophale) SiO2 
 PCOD8115511
Probable space group: C 2/M
;
_chemical_formula_sum "Si O2"
_cell_formula_units_Z 48
_cell_length_a 16.012456
_cell_length_b 19.366565
_cell_length_c 12.244221
_cell_angle_alpha 90.000000
_cell_angle_beta 143.680653
_cell_angle_gamma 90.000000
_cell_volume 2248.912962
_symmetry_space_group_name_H-M "C 2/M"
_symmetry_group_IT_number 12
_symmetry_cell_setting 'monoclinic'
loop_
_space_group_symop_operation_xyz
x,y,z
-x,y,-z
-x,-y,-z
x,-y,z
1/2+x,1/2+y,z
1/2-x,1/2+y,-z
1/2-x,1/2-y,-z
1/2+x,1/2-y,z
loop_
_atom_site_type_symbol
_atom_site_label
_atom_site_fract_x
_atom_site_fract_y
_atom_site_fract_z
Si Si1 0.221195 0.916733 0.245488
Si Si2 0.486036 0.885802 0.113663
Si Si3 0.500000 0.832318 0.500000
Si Si4 0.712411 0.000000 0.118212
Si Si5 0.989208 0.878159 0.161406
Si Si6 0.583900 0.760933 0.811277
Si Si7 0.685798 0.000000 0.328979
Si Si8 0.486358 0.500000 0.309703
O O1 0.375160 0.883086 0.407034
O O2 0.143223 0.900245 0.277817
O O3 0.228531 0.000000 0.237482
O O4 0.129054 0.878134 0.056821
O O5 0.476653 0.815864 0.168702
O O6 0.619273 0.929202 0.305406
O O7 0.500000 0.867202 0.000000
O O8 0.346460 0.929977 0.999003
O O9 0.547056 0.782210 0.648359
O O10 0.882839 0.000000 0.306125
O O11 0.632496 0.000000 0.148783
O O12 0.999157 0.807421 0.239208
O O13 0.937644 0.933912 0.192646
O O14 0.750000 0.750000 0.000000
O O15 0.851209 0.000000 0.495161
#
# Coordination Sequence:
#
# PCOD8115511 Si02
#       8
#     8   8   4   4   8   8   4   4
#     4  11  23  48  72 106 136 181 244 293 354 419
#     4   9  21  42  71  94 129 182 226 284 347 413
#     4  12  29  46  74 105 142 190 238 292 356 417
#     4   9  19  39  64  96 133 174 224 278 354 408
#     4  11  24  43  70  93 144 186 224 293 352 420
#     4  12  26  47  67 104 143 184 236 287 355 421
#     4   9  21  41  62 102 131 164 240 284 330 424
#     4  12  21  39  64 100 132 182 222 282 354 398
#
# _framework density 21.343644000000001
#
# number of rings (size 3 to 8) (size 9 to 14) (size 15 to 20)
#    0.000    1.333    3.333    3.000    4.667    0.667 
#   12.000    0.000    0.000    0.000    0.000    0.000 
#    0.000    0.000    0.000    0.000    0.000    0.000 
#
# Total GULP energy -297401.594048 kJ/mol
# GULP energy per Si atom -12391.733085 kJ/mol
# Density = 2.129506 g / cm^3
# Si number density = 21.343644 Si / 1000 Ang^3
#
#
#
# Elastic Constant Matrix: (Units=GPa)
#
#
# Indices 1 2 3 4 5 6 
#
# 1 114.4594 65.4442 52.0396 0.0000 14.7447 0.0000
# 2 65.4442 168.7925 37.6037 0.0000 -4.3937 0.0000
# 3 52.0396 37.6037 96.5802 0.0000 19.3248 0.0000
# 4 0.0000 0.0000 0.0000 29.0167 0.0000 -4.8660
# 5 14.7447 -4.3937 19.3248 0.0000 46.3168 0.0000
# 6 0.0000 0.0000 0.0000 -4.8660 0.0000 40.0940
#
#
#
# Elastic Compliance Matrix: (Units=1/GPa)
#
#
# Indices 1 2 3 4 5 6 
#
# 1 0.013947 -0.004291 -0.005318 0.000000 -0.002628 0.000000
# 2 -0.004291 0.007951 -0.001318 0.000000 0.002670 0.000000
# 3 -0.005318 -0.001318 0.014641 0.000000 -0.004541 0.000000
# 4 0.000000 0.000000 0.000000 0.035179 0.000000 0.004269
# 5 -0.002628 0.002670 -0.004541 0.000000 0.024575 0.000000
# 6 0.000000 0.000000 0.000000 0.004269 0.000000 0.025460
#
#
# Mechanical properties :
#
#
# Convention : Reuss Voigt Hill
#
# Bulk Modulus (GPa) = 68.09750 76.66746 72.38248
# Shear Modulus (GPa) = 33.66949 38.06845 35.86897
#
# Velocity S-wave (km/s) = 3.97608 4.22785 4.10389
# Velocity P-wave (km/s) = 7.28378 7.73508 7.51282
#
# Compressibility (1/GPa) = 0.01468483
#
# Stress axis : x y z
#
# Youngs Moduli (GPa) = 71.70163 125.76585 68.29922
#
# Poissons Ratio (x) = 0.53966 0.36323
# Poissons Ratio (y) = 0.30767 0.09002
# Poissons Ratio (z) = 0.38133 0.16576
#
# Static dielectric constant tensor:
#      x y z
#    x 4.072750 0.000000 -0.033290 
#    y 0.000000 4.450040 0.000000 
#    z -0.033290 0.000000 3.736080 
# 
# 
# High freq. dielectric constant tensor:
#      x y z
#    x 1.851900 0.000000 0.008750 
#    y 0.000000 1.842440 0.000000 
#    z 0.008750 0.000000 1.832300 
# 
# From -- ./inp_files/148091.got.cif
#   From: 2010.06.25/outbox.cif.g09.slc.cpg/sg12_75_cif.got.tgz:148091.got - 2010.06.28 00:19:55.
