data_PCOD8115021
_publ_section_title
;
Structure prediction by ZEFSAII (Michael W. Deem and Ramdas Pophale) SiO2 
 PCOD8115021
Probable space group: C 2/M
;
_chemical_formula_sum "Si O2"
_cell_formula_units_Z 48
_cell_length_a 14.495583
_cell_length_b 22.043468
_cell_length_c 10.433308
_cell_angle_alpha 90.000000
_cell_angle_beta 44.721162
_cell_angle_gamma 90.000000
_cell_volume 2345.842033
_symmetry_space_group_name_H-M "C 2/M"
_symmetry_group_IT_number 12
_symmetry_cell_setting 'monoclinic'
loop_
_space_group_symop_operation_xyz
x,y,z
-x,y,-z
-x,-y,-z
x,-y,z
1/2+x,1/2+y,z
1/2-x,1/2+y,-z
1/2-x,1/2-y,-z
1/2+x,1/2-y,z
loop_
_atom_site_type_symbol
_atom_site_label
_atom_site_fract_x
_atom_site_fract_y
_atom_site_fract_z
Si Si1 0.841689 0.500000 0.271106
Si Si2 0.498885 0.675542 0.690332
Si Si3 0.253521 0.628867 0.671328
Si Si4 0.259582 0.877290 0.016983
Si Si5 0.126103 0.249059 0.786311
Si Si6 0.626401 0.790460 0.300765
Si Si7 0.124037 0.500000 0.066590
O O1 0.769648 0.563662 0.374276
O O2 0.968122 0.500000 0.238203
O O3 0.859616 0.500000 0.101724
O O4 0.591717 0.640670 0.498612
O O5 0.396396 0.629156 0.858891
O O6 0.593099 0.709231 0.695881
O O7 0.405142 0.722145 0.708975
O O8 0.212605 0.630015 0.860041
O O9 0.167069 0.683669 0.696477
O O10 0.345047 0.828933 0.854291
O O11 0.308370 0.943620 0.928824
O O12 0.245445 0.213854 0.737246
O O13 0.000000 0.253435 0.000000
O O14 0.500000 0.818171 0.500000
#
# Coordination Sequence:
#
# PCOD8115021 Si02
#       7
#     4   8   8   8   8   8   4
#     4   9  22  37  59  91 125 167 211 251 317 380
#     4  12  23  39  64  96 129 167 207 260 323 373
#     4  11  23  39  61  94 131 162 205 262 313 379
#     4  11  22  41  63  89 129 163 210 259 312 376
#     4  12  24  39  64  95 130 168 208 261 320 372
#     4  12  24  41  62  95 129 167 211 261 315 378
#     4   9  22  39  62  88 120 172 209 260 311 370
#
# _framework density 20.461735000000001
#
# number of rings (size 3 to 8) (size 9 to 14) (size 15 to 20)
#    0.000    0.833    5.000    2.500    7.000    0.667 
#    0.000    2.917    0.000    3.000    0.000    0.000 
#    0.000    0.000    0.000    0.000    0.000    0.000 
#
# Total GULP energy -297515.191984 kJ/mol
# GULP energy per Si atom -12396.466333 kJ/mol
# Density = 2.041516 g / cm^3
# Si number density = 20.461735 Si / 1000 Ang^3
#
#
#
# Elastic Constant Matrix: (Units=GPa)
#
#
# Indices 1 2 3 4 5 6 
#
# 1 84.3056 36.9549 17.0810 0.0000 -22.7553 0.0000
# 2 36.9549 136.2418 45.1154 0.0000 -16.8829 0.0000
# 3 17.0810 45.1154 132.4279 0.0000 -22.2909 0.0000
# 4 0.0000 0.0000 0.0000 24.6478 0.0000 -4.9242
# 5 -22.7553 -16.8829 -22.2909 0.0000 30.1780 0.0000
# 6 0.0000 0.0000 0.0000 -4.9242 0.0000 27.6417
#
#
#
# Elastic Compliance Matrix: (Units=1/GPa)
#
#
# Indices 1 2 3 4 5 6 
#
# 1 0.016080 -0.003302 0.000892 0.000000 0.010937 0.000000
# 2 -0.003302 0.009181 -0.002577 0.000000 0.000743 0.000000
# 3 0.000892 -0.002577 0.009347 0.000000 0.006135 0.000000
# 4 0.000000 0.000000 0.000000 0.042069 0.000000 0.007494
# 5 0.010937 0.000743 0.006135 0.000000 0.046331 0.000000
# 6 0.000000 0.000000 0.000000 0.007494 0.000000 0.037512
#
#
# Mechanical properties :
#
#
# Convention : Reuss Voigt Hill
#
# Bulk Modulus (GPa) = 40.59405 61.25311 50.92358
# Shear Modulus (GPa) = 27.97919 33.41509 30.69714
#
# Velocity S-wave (km/s) = 3.70184 4.04549 3.87747
# Velocity P-wave (km/s) = 6.17685 7.19873 6.70728
#
# Compressibility (1/GPa) = 0.02463415
#
# Stress axis : x y z
#
# Youngs Moduli (GPa) = 62.18850 108.92263 106.98907
#
# Poissons Ratio (x) = 0.35963 -0.09539
# Poissons Ratio (y) = 0.20533 0.27568
# Poissons Ratio (z) = -0.05545 0.28067
#
# Static dielectric constant tensor:
#      x y z
#    x 3.568220 0.000000 -0.195540 
#    y 0.000000 3.904420 0.000000 
#    z -0.195540 0.000000 3.914310 
# 
# 
# High freq. dielectric constant tensor:
#      x y z
#    x 1.787380 0.000000 -0.023560 
#    y 0.000000 1.788520 0.000000 
#    z -0.023560 0.000000 1.805330 
# 
# From -- ./inp_files/147951.got.cif
#   From: 2010.06.25/outbox.cif.g09.slc.cpg/sg12_74_cif.got.tgz:147951.got - 2010.06.28 00:19:55.
