data_PCOD8115532
_publ_section_title
;
Structure prediction by ZEFSAII (Michael W. Deem and Ramdas Pophale) SiO2 
 PCOD8115532
Probable space group: C 2/M
;
_chemical_formula_sum "Si O2"
_cell_formula_units_Z 48
_cell_length_a 29.549701
_cell_length_b 8.935104
_cell_length_c 19.242436
_cell_angle_alpha 90.000000
_cell_angle_beta 148.682904
_cell_angle_gamma 90.000000
_cell_volume 2640.750321
_symmetry_space_group_name_H-M "C 2/M"
_symmetry_group_IT_number 12
_symmetry_cell_setting 'monoclinic'
loop_
_space_group_symop_operation_xyz
x,y,z
-x,y,-z
-x,-y,-z
x,-y,z
1/2+x,1/2+y,z
1/2-x,1/2+y,-z
1/2-x,1/2-y,-z
1/2+x,1/2-y,z
loop_
_atom_site_type_symbol
_atom_site_label
_atom_site_fract_x
_atom_site_fract_y
_atom_site_fract_z
Si Si1 0.343334 0.177012 0.116468
Si Si2 0.029083 0.328185 0.836470
Si Si3 0.542070 0.672245 0.129768
Si Si4 0.623660 0.172210 0.471337
Si Si5 0.777682 0.323743 0.607849
Si Si6 0.490891 0.178101 0.410970
O O1 0.390346 0.223884 0.106154
O O2 0.402159 0.234982 0.258150
O O3 0.333518 0.000000 0.106696
O O4 0.250000 0.250000 0.000000
O O5 0.041471 0.500000 0.875099
O O6 0.026582 0.225709 0.901683
O O7 0.938519 0.308872 0.676769
O O8 0.566336 0.500000 0.175160
O O9 0.627597 0.772558 0.244622
O O10 0.500000 0.696044 0.000000
O O11 0.708649 0.274713 0.575878
O O12 0.573977 0.229034 0.474989
O O13 0.652724 0.000000 0.516889
O O14 0.777524 0.500000 0.598164
O O15 0.750000 0.250000 0.500000
O O16 0.500000 0.246926 0.500000
O O17 0.488576 0.000000 0.409812
#
# Coordination Sequence:
#
# PCOD8115532 Si02
#       6
#     8   8   8   8   8   8
#     4   9  18  33  54  80 107 140 182 221 265 320
#     4   9  18  34  56  78 106 147 185 221 270 326
#     4  11  24  40  57  81 111 143 184 230 276 327
#     4   9  17  32  56  83 108 140 184 227 265 316
#     4  12  23  36  58  84 111 144 184 226 271 326
#     4   8  15  31  55  80 107 140 178 220 267 314
#
# _framework density 18.176653000000002
#
# number of rings (size 3 to 8) (size 9 to 14) (size 15 to 20)
#    0.000    2.333    1.667    4.000    0.000    2.000 
#    3.000    2.500    0.000    1.000    0.000    0.000 
#    0.000    0.000    0.000    0.000    0.000    0.000 
#
# Total GULP energy -297591.425714 kJ/mol
# GULP energy per Si atom -12399.642738 kJ/mol
# Density = 1.813528 g / cm^3
# Si number density = 18.176653 Si / 1000 Ang^3
#
#
#
# Elastic Constant Matrix: (Units=GPa)
#
#
# Indices 1 2 3 4 5 6 
#
# 1 151.2829 55.8739 78.2368 0.0000 1.0437 0.0000
# 2 55.8739 91.0750 49.5560 0.0000 2.5561 0.0000
# 3 78.2368 49.5560 94.1159 0.0000 7.1175 0.0000
# 4 0.0000 0.0000 0.0000 27.1319 0.0000 6.8494
# 5 1.0437 2.5561 7.1175 0.0000 37.0087 0.0000
# 6 0.0000 0.0000 0.0000 6.8494 0.0000 30.1222
#
#
#
# Elastic Compliance Matrix: (Units=1/GPa)
#
#
# Indices 1 2 3 4 5 6 
#
# 1 0.012143 -0.002715 -0.008781 0.000000 0.001534 0.000000
# 2 -0.002715 0.016005 -0.006183 0.000000 0.000160 0.000000
# 3 -0.008781 -0.006183 0.021441 0.000000 -0.003449 0.000000
# 4 0.000000 0.000000 0.000000 0.039102 0.000000 -0.008891
# 5 0.001534 0.000160 -0.003449 0.000000 0.027630 0.000000
# 6 0.000000 0.000000 0.000000 -0.008891 0.000000 0.035220
#
#
# Mechanical properties :
#
#
# Convention : Reuss Voigt Hill
#
# Bulk Modulus (GPa) = 70.26278 78.20080 74.23179
# Shear Modulus (GPa) = 26.09031 29.03970 27.56501
#
# Velocity S-wave (km/s) = 3.79274 4.00138 3.89846
# Velocity P-wave (km/s) = 7.61047 8.02896 7.82251
#
# Compressibility (1/GPa) = 0.01423229
#
# Stress axis : x y z
#
# Youngs Moduli (GPa) = 82.34870 62.47978 46.63970
#
# Poissons Ratio (x) = 0.16963 0.40955
# Poissons Ratio (y) = 0.22358 0.28835
# Poissons Ratio (z) = 0.72311 0.38629
#
# Static dielectric constant tensor:
#      x y z
#    x 3.698500 0.000000 -0.013240 
#    y 0.000000 3.191120 0.000000 
#    z -0.013240 0.000000 3.454760 
# 
# 
# High freq. dielectric constant tensor:
#      x y z
#    x 1.718210 0.000000 0.005510 
#    y 0.000000 1.686240 0.000000 
#    z 0.005510 0.000000 1.688390 
# 
# From -- ./inp_files/281829.got.cif
#   From: 2010.06.25/outbox.cif.g09.slc.cpg/sg12_141_cif.got.tgz:281829.got - 2010.06.28 00:19:55.
