data_PCOD8115301
_publ_section_title
;
Structure prediction by ZEFSAII (Michael W. Deem and Ramdas Pophale) SiO2 
 PCOD8115301
Probable space group: C 2/M
;
_chemical_formula_sum "Si O2"
_cell_formula_units_Z 40
_cell_length_a 13.969672
_cell_length_b 22.570454
_cell_length_c 10.488111
_cell_angle_alpha 90.000000
_cell_angle_beta 32.041836
_cell_angle_gamma 90.000000
_cell_volume 1754.448237
_symmetry_space_group_name_H-M "C 2/M"
_symmetry_group_IT_number 12
_symmetry_cell_setting 'monoclinic'
loop_
_space_group_symop_operation_xyz
x,y,z
-x,y,-z
-x,-y,-z
x,-y,z
1/2+x,1/2+y,z
1/2-x,1/2+y,-z
1/2-x,1/2-y,-z
1/2+x,1/2-y,z
loop_
_atom_site_type_symbol
_atom_site_label
_atom_site_fract_x
_atom_site_fract_y
_atom_site_fract_z
Si Si1 0.944597 0.137842 0.422997
Si Si2 0.302726 0.361510 0.200357
Si Si3 0.409754 0.138008 0.298245
Si Si4 0.272250 0.069163 0.960101
Si Si5 0.912667 0.761939 0.909350
O O1 0.735123 0.117537 0.646424
O O2 0.000000 0.161347 0.500000
O O3 0.957118 0.190605 0.305863
O O4 0.075765 0.083373 0.240310
O O5 0.179764 0.362554 0.462125
O O6 0.201100 0.397235 0.203919
O O7 0.500000 0.391333 0.000000
O O8 0.333092 0.292368 0.127015
O O9 0.575327 0.091974 0.113609
O O10 0.481874 0.202469 0.176823
O O11 0.293341 0.000000 0.914090
O O12 0.750000 0.750000 0.000000
#
# Coordination Sequence:
#
# PCOD8115301 Si02
#       5
#     8   8   8   8   8
#     4  11  26  45  68  99 134 177 224 280 339 401
#     4  11  23  43  68 102 139 173 218 278 337 397
#     4  12  24  45  69 100 137 182 222 271 345 401
#     4  11  26  47  69  99 133 175 234 283 331 395
#     4  11  23  40  66 102 139 175 212 272 334 406
#
# _framework density 22.799191
#
# number of rings (size 3 to 8) (size 9 to 14) (size 15 to 20)
#    0.000    0.800    8.000    1.200    2.800    4.000 
#    0.000    1.000    0.000    0.000    0.000    0.000 
#    0.000    0.000    0.000    0.000    0.000    0.000 
#
# Total GULP energy -248016.296704 kJ/mol
# GULP energy per Si atom -12400.814835 kJ/mol
# Density = 2.274730 g / cm^3
# Si number density = 22.799191 Si / 1000 Ang^3
#
#
#
# Elastic Constant Matrix: (Units=GPa)
#
#
# Indices 1 2 3 4 5 6 
#
# 1 110.0943 23.1041 35.8546 0.0013 -42.4100 0.0004
# 2 23.1041 131.4836 41.2661 0.0001 -17.3533 0.0005
# 3 35.8546 41.2661 67.9113 0.0033 -27.2417 0.0017
# 4 0.0013 0.0001 0.0033 16.3848 -0.0035 -5.5988
# 5 -42.4100 -17.3533 -27.2417 -0.0035 54.2733 -0.0014
# 6 0.0004 0.0005 0.0017 -5.5988 -0.0014 11.4742
#
#
#
# Elastic Compliance Matrix: (Units=1/GPa)
#
#
# Indices 1 2 3 4 5 6 
#
# 1 0.013692 -0.000103 -0.003616 0.000002 0.008851 0.000002
# 2 -0.000103 0.009400 -0.005615 0.000001 0.000107 0.000001
# 3 -0.003616 -0.005615 0.022779 -0.000004 0.006813 -0.000004
# 4 0.000002 0.000001 -0.000004 0.073245 0.000006 0.035740
# 5 0.008851 0.000107 0.006813 0.000006 0.028796 0.000005
# 6 0.000002 0.000001 -0.000004 0.035740 0.000005 0.104592
#
#
# Mechanical properties :
#
#
# Convention : Reuss Voigt Hill
#
# Bulk Modulus (GPa) = 36.75929 56.65985 46.70957
# Shear Modulus (GPa) = 17.84203 30.37741 24.10972
#
# Velocity S-wave (km/s) = 2.80049 3.65415 3.25542
# Velocity P-wave (km/s) = 5.15898 6.53524 5.88746
#
# Compressibility (1/GPa) = 0.02720401
#
# Stress axis : x y z
#
# Youngs Moduli (GPa) = 73.03578 106.38485 43.90094
#
# Poissons Ratio (x) = 0.01095 0.15873
# Poissons Ratio (y) = 0.00752 0.24648
# Poissons Ratio (z) = 0.26407 0.59730
#
# Static dielectric constant tensor:
#      x y z
#    x 4.651190 0.000010 -0.345230 
#    y 0.000010 4.194900 -0.000010 
#    z -0.345230 -0.000010 4.328920 
# 
# 
# High freq. dielectric constant tensor:
#      x y z
#    x 1.922510 0.000000 -0.016340 
#    y 0.000000 1.860170 0.000000 
#    z -0.016340 0.000000 1.905660 
# 
# From -- ./inp_files/148796.got.cif
#   From: 2010.06.25/outbox.cif.g09.slc.cpg/sg12_75_cif.got.tgz:148796.got - 2010.06.28 00:19:55.
