data_PCOD8115515
_publ_section_title
;
Structure prediction by ZEFSAII (Michael W. Deem and Ramdas Pophale) SiO2 
 PCOD8115515
Probable space group: C 2/M
;
_chemical_formula_sum "Si O2"
_cell_formula_units_Z 56
_cell_length_a 25.647135
_cell_length_b 17.343609
_cell_length_c 9.196866
_cell_angle_alpha 90.000000
_cell_angle_beta 44.177545
_cell_angle_gamma 90.000000
_cell_volume 2850.878675
_symmetry_space_group_name_H-M "C 2/M"
_symmetry_group_IT_number 12
_symmetry_cell_setting 'monoclinic'
loop_
_space_group_symop_operation_xyz
x,y,z
-x,y,-z
-x,-y,-z
x,-y,z
1/2+x,1/2+y,z
1/2-x,1/2+y,-z
1/2-x,1/2-y,-z
1/2+x,1/2-y,z
loop_
_atom_site_type_symbol
_atom_site_label
_atom_site_fract_x
_atom_site_fract_y
_atom_site_fract_z
Si Si1 0.783058 0.832145 0.104874
Si Si2 0.413886 0.588265 0.342245
Si Si3 1.000000 0.415864 0.827591
Si Si4 0.341395 0.090589 0.478174
Si Si5 0.158606 0.409411 0.843750
Si Si6 0.716941 0.667855 0.237107
Si Si7 0.913886 0.911735 0.002212
O O1 0.722652 0.894250 0.277292
O O2 0.749999 0.750000 0.221050
O O3 0.794135 0.836944 0.911731
O O4 0.862661 0.851020 0.018525
O O5 0.395223 0.500000 0.425228
O O6 0.362662 0.648980 0.530831
O O7 0.500001 0.607076 0.207005
O O8 0.398289 0.598674 0.203423
O O9 0.999999 0.500000 0.752092
O O10 0.078259 0.372656 0.629035
O O11 0.000000 0.425150 0.000000
O O12 0.921740 0.372656 0.942074
O O13 0.319039 0.122459 0.361923
O O14 0.354032 0.000000 0.441357
O O15 0.145969 0.500000 0.857484
O O16 0.222654 0.394250 0.832094
O O17 0.895222 0.000000 0.993885
#
# Coordination Sequence:
#
# PCOD8115515 Si02
#       7
#     8   8   8   8   8   8   8
#     4  11  24  38  50  74 114 154 186 218 265 327
#     4   9  19  38  64  90 111 135 179 239 291 333
#     4   7  12  26  49  77 103 125 158 207 260 309
#     4   9  17  32  56  81 104 134 176 226 272 315
#     4   9  17  32  56  81 104 134 176 226 272 315
#     4  11  24  38  50  74 114 154 186 218 265 327
#     4   9  19  38  64  90 111 135 179 239 291 333
#
# _framework density 19.643066999999999
#
# number of rings (size 3 to 8) (size 9 to 14) (size 15 to 20)
#    0.000    2.714    0.000    4.286    0.000    7.429 
#    2.571    2.143    0.000    2.571    0.000    0.000 
#    0.000    0.000    0.000    0.000    0.000    0.000 
#
# Total GULP energy -346915.740664 kJ/mol
# GULP energy per Si atom -12389.847881 kJ/mol
# Density = 1.959836 g / cm^3
# Si number density = 19.643067 Si / 1000 Ang^3
#
#
#
# Elastic Constant Matrix: (Units=GPa)
#
#
# Indices 1 2 3 4 5 6 
#
# 1 99.1899 47.0472 73.0103 0.0000 -22.5493 0.0000
# 2 47.0472 60.6100 47.2492 0.0000 -4.8210 0.0000
# 3 73.0103 47.2492 101.0978 0.0000 -23.1178 0.0000
# 4 0.0000 0.0000 0.0000 26.5170 0.0000 -1.0769
# 5 -22.5493 -4.8210 -23.1178 0.0000 27.2024 0.0000
# 6 0.0000 0.0000 0.0000 -1.0769 0.0000 26.4721
#
#
#
# Elastic Compliance Matrix: (Units=1/GPa)
#
#
# Indices 1 2 3 4 5 6 
#
# 1 0.025521 -0.010046 -0.011549 0.000000 0.009560 0.000000
# 2 -0.010046 0.031059 -0.009813 0.000000 -0.011163 0.000000
# 3 -0.011549 -0.009813 0.025112 0.000000 0.010028 0.000000
# 4 0.000000 0.000000 0.000000 0.037774 0.000000 0.001537
# 5 0.009560 -0.011163 0.010028 0.000000 0.051230 0.000000
# 6 0.000000 0.000000 0.000000 0.001537 0.000000 0.037838
#
#
# Mechanical properties :
#
#
# Convention : Reuss Voigt Hill
#
# Bulk Modulus (GPa) = 52.98346 66.16790 59.57568
# Shear Modulus (GPa) = 18.00867 22.27771 20.14319
#
# Velocity S-wave (km/s) = 3.03115 3.37133 3.20576
# Velocity P-wave (km/s) = 6.26755 6.99377 6.64059
#
# Compressibility (1/GPa) = 0.01887381
#
# Stress axis : x y z
#
# Youngs Moduli (GPa) = 39.18287 32.19638 39.82231
#
# Poissons Ratio (x) = 0.32346 0.45993
# Poissons Ratio (y) = 0.39365 0.39079
# Poissons Ratio (z) = 0.45254 0.31595
#
# Static dielectric constant tensor:
#      x y z
#    x 3.616120 0.000000 -0.386650 
#    y 0.000000 3.306720 0.000000 
#    z -0.386650 0.000000 3.632240 
# 
# 
# High freq. dielectric constant tensor:
#      x y z
#    x 1.763580 0.000000 -0.028270 
#    y 0.000000 1.731710 0.000000 
#    z -0.028270 0.000000 1.764760 
# 
# From -- ./inp_files/105972.got.cif
#   From: 2010.06.25/outbox.cif.g09.slc.cpg/sg12_53_cif.got.tgz:105972.got - 2010.06.28 00:19:55.
