data_PCOD8115366
_publ_section_title
;
Structure prediction by ZEFSAII (Michael W. Deem and Ramdas Pophale) SiO2 
 PCOD8115366
Probable space group: C 2/M
;
_chemical_formula_sum "Si O2"
_cell_formula_units_Z 40
_cell_length_a 27.787156
_cell_length_b 15.782165
_cell_length_c 8.767786
_cell_angle_alpha 90.000000
_cell_angle_beta 152.798655
_cell_angle_gamma 90.000000
_cell_volume 1757.639113
_symmetry_space_group_name_H-M "C 2/M"
_symmetry_group_IT_number 12
_symmetry_cell_setting 'monoclinic'
loop_
_space_group_symop_operation_xyz
x,y,z
-x,y,-z
-x,-y,-z
x,-y,z
1/2+x,1/2+y,z
1/2-x,1/2+y,-z
1/2-x,1/2-y,-z
1/2+x,1/2-y,z
loop_
_atom_site_type_symbol
_atom_site_label
_atom_site_fract_x
_atom_site_fract_y
_atom_site_fract_z
Si Si1 0.894172 0.369732 0.791628
Si Si2 0.386711 0.089218 0.118202
Si Si3 0.335131 0.595251 0.938536
Si Si4 0.359383 0.743923 0.227722
Si Si5 0.043926 0.807018 0.968882
O O1 0.791303 0.403770 0.415170
O O2 0.892323 0.407832 0.953161
O O3 0.000000 0.398037 0.000000
O O4 0.881356 0.268133 0.760709
O O5 0.500000 0.074114 0.500000
O O6 0.347898 0.176608 0.081463
O O7 0.323595 0.000000 0.980792
O O8 0.373860 0.500000 0.082834
O O9 0.377988 0.656920 0.189845
O O10 0.386029 0.624338 0.921357
O O11 0.455760 0.743309 0.618824
O O12 0.250000 0.750000 0.000000
O O13 0.000000 0.851659 0.000000
#
# Coordination Sequence:
#
# PCOD8115366 Si02
#       5
#     8   8   8   8   8
#     4  11  23  45  71 102 137 179 228 292 350 407
#     4  11  23  41  67  98 137 178 225 286 348 406
#     4  12  27  45  71 103 142 187 230 280 346 418
#     4  12  25  46  70 100 141 182 234 285 341 412
#     4  11  24  45  73  99 135 186 231 286 347 407
#
# _framework density 22.757802000000002
#
# number of rings (size 3 to 8) (size 9 to 14) (size 15 to 20)
#    0.000    0.600    4.000    4.200    2.800    4.400 
#    0.000    0.000    0.000    0.600    0.000    0.000 
#    0.000    0.000    0.000    0.000    0.000    0.000 
#
# Total GULP energy -247807.892578 kJ/mol
# GULP energy per Si atom -12390.394629 kJ/mol
# Density = 2.270600 g / cm^3
# Si number density = 22.757802 Si / 1000 Ang^3
#
#
#
# Elastic Constant Matrix: (Units=GPa)
#
#
# Indices 1 2 3 4 5 6 
#
# 1 124.1751 62.3065 19.0785 0.0000 6.1962 0.0000
# 2 62.3065 187.1346 8.7699 0.0000 4.7971 0.0000
# 3 19.0785 8.7699 59.7421 0.0000 3.1326 0.0000
# 4 0.0000 0.0000 0.0000 25.7146 0.0000 1.4188
# 5 6.1962 4.7971 3.1326 0.0000 40.8956 0.0000
# 6 0.0000 0.0000 0.0000 1.4188 0.0000 4.0062
#
#
#
# Elastic Compliance Matrix: (Units=1/GPa)
#
#
# Indices 1 2 3 4 5 6 
#
# 1 0.010135 -0.003223 -0.002714 0.000000 -0.000950 0.000000
# 2 -0.003223 0.006419 0.000101 0.000000 -0.000272 0.000000
# 3 -0.002714 0.000101 0.017640 0.000000 -0.000952 0.000000
# 4 0.000000 0.000000 0.000000 0.039663 0.000000 -0.014047
# 5 -0.000950 -0.000272 -0.000952 0.000000 0.024701 0.000000
# 6 0.000000 0.000000 0.000000 -0.014047 0.000000 0.254586
#
#
# Mechanical properties :
#
#
# Convention : Reuss Voigt Hill
#
# Bulk Modulus (GPa) = 44.39812 61.26241 52.83026
# Shear Modulus (GPa) = 13.42923 32.84976 23.13949
#
# Velocity S-wave (km/s) = 2.43182 3.80340 3.19215
# Velocity P-wave (km/s) = 5.23797 6.80188 6.07050
#
# Compressibility (1/GPa) = 0.02252348
#
# Stress axis : x y z
#
# Youngs Moduli (GPa) = 98.67263 155.78718 56.68858
#
# Poissons Ratio (x) = 0.50207 0.15383
# Poissons Ratio (y) = 0.31800 -0.00574
# Poissons Ratio (z) = 0.26775 -0.01576
#
# Static dielectric constant tensor:
#      x y z
#    x 4.311090 0.000000 -0.019970 
#    y 0.000000 3.446000 0.000000 
#    z -0.019970 0.000000 3.876240 
# 
# 
# High freq. dielectric constant tensor:
#      x y z
#    x 1.902810 0.000000 -0.009220 
#    y 0.000000 1.905760 0.000000 
#    z -0.009220 0.000000 1.893050 
# 
# From -- ./inp_files/105878.got.cif
#   From: 2010.06.25/outbox.cif.g09.slc.cpg/sg12_53_cif.got.tgz:105878.got - 2010.06.28 00:19:55.
