data_PCOD8115092
_publ_section_title
;
Structure prediction by ZEFSAII (Michael W. Deem and Ramdas Pophale) SiO2 
 PCOD8115092
Probable space group: C 2/M
;
_chemical_formula_sum "Si O2"
_cell_formula_units_Z 64
_cell_length_a 14.961579
_cell_length_b 28.533207
_cell_length_c 8.726365
_cell_angle_alpha 90.000000
_cell_angle_beta 128.218167
_cell_angle_gamma 90.000000
_cell_volume 2926.823013
_symmetry_space_group_name_H-M "C 2/M"
_symmetry_group_IT_number 12
_symmetry_cell_setting 'monoclinic'
loop_
_space_group_symop_operation_xyz
x,y,z
-x,y,-z
-x,-y,-z
x,-y,z
1/2+x,1/2+y,z
1/2-x,1/2+y,-z
1/2-x,1/2-y,-z
1/2+x,1/2-y,z
loop_
_atom_site_type_symbol
_atom_site_label
_atom_site_fract_x
_atom_site_fract_y
_atom_site_fract_z
Si Si1 0.531938 0.806057 0.264653
Si Si2 0.193984 0.944435 0.512783
Si Si3 0.527088 0.624881 0.206553
Si Si4 0.135648 0.447390 0.771765
Si Si5 0.597020 0.290228 0.482588
Si Si6 0.819932 0.317547 0.869491
Si Si7 0.093979 0.404629 0.415356
Si Si8 0.811859 0.906667 0.169420
O O1 0.584053 0.759715 0.391129
O O2 0.594061 0.822149 0.177808
O O3 0.558022 0.850418 0.398913
O O4 0.396654 0.796499 0.090563
O O5 0.316187 0.919056 0.621110
O O6 0.147037 0.933532 0.633907
O O7 0.104686 0.921638 0.298562
O O8 0.201343 0.000000 0.490803
O O9 0.596869 0.668927 0.353319
O O10 0.414087 0.617096 0.185549
O O11 0.500000 0.635905 0.000000
O O12 0.124704 0.500000 0.702086
O O13 0.151809 0.416072 0.638775
O O14 0.020677 0.433770 0.740193
O O15 0.246626 0.443618 0.994597
O O16 0.500000 0.302160 0.500000
O O17 0.713770 0.286308 0.702490
O O18 0.778004 0.367618 0.879199
#
# Coordination Sequence:
#
# PCOD8115092 Si02
#       8
#     8   8   8   8   8   8   8   8
#     4  11  25  42  72 105 139 187 235 284 355 419
#     4  12  25  44  73 103 136 184 239 291 352 420
#     4  12  27  47  71 100 139 184 233 293 356 418
#     4  11  24  40  64  99 143 186 230 289 354 418
#     4  12  25  47  73 103 144 186 238 292 349 416
#     4  11  23  46  68 102 141 182 224 295 343 417
#     4  11  22  43  65 100 143 180 229 289 351 413
#     4  12  23  45  69  97 140 181 232 289 352 418
#
# _framework density 21.866714999999999
#
# number of rings (size 3 to 8) (size 9 to 14) (size 15 to 20)
#    0.000    0.500    5.000    3.375    3.500    2.750 
#    2.250    1.250    0.000    0.000    0.000    0.000 
#    0.000    0.000    0.000    0.000    0.000    0.000 
#
# Total GULP energy -396727.771011 kJ/mol
# GULP energy per Si atom -12397.742844 kJ/mol
# Density = 2.181695 g / cm^3
# Si number density = 21.866715 Si / 1000 Ang^3
#
#
#
# Elastic Constant Matrix: (Units=GPa)
#
#
# Indices 1 2 3 4 5 6 
#
# 1 95.1113 32.6078 44.8800 0.0000 1.2366 0.0000
# 2 32.6078 151.2019 69.1454 0.0000 5.9435 0.0000
# 3 44.8800 69.1454 108.3076 0.0000 14.1388 0.0000
# 4 0.0000 0.0000 0.0000 41.1514 0.0000 -5.5629
# 5 1.2366 5.9435 14.1388 0.0000 34.1104 0.0000
# 6 0.0000 0.0000 0.0000 -5.5629 0.0000 22.6093
#
#
#
# Elastic Compliance Matrix: (Units=1/GPa)
#
#
# Indices 1 2 3 4 5 6 
#
# 1 0.013204 -0.000435 -0.005435 0.000000 0.001850 0.000000
# 2 -0.000435 0.009381 -0.005918 0.000000 0.000834 0.000000
# 3 -0.005435 -0.005918 0.015967 0.000000 -0.005390 0.000000
# 4 0.000000 0.000000 0.000000 0.025137 0.000000 0.006185
# 5 0.001850 0.000834 -0.005390 0.000000 0.031338 0.000000
# 6 0.000000 0.000000 0.000000 0.006185 0.000000 0.045751
#
#
# Mechanical properties :
#
#
# Convention : Reuss Voigt Hill
#
# Bulk Modulus (GPa) = 66.77297 71.98747 69.38022
# Shear Modulus (GPa) = 29.52556 33.44006 31.48281
#
# Velocity S-wave (km/s) = 3.67856 3.91483 3.79853
# Velocity P-wave (km/s) = 6.97460 7.30938 7.14395
#
# Compressibility (1/GPa) = 0.01497612
#
# Stress axis : x y z
#
# Youngs Moduli (GPa) = 75.73630 106.60096 62.62996
#
# Poissons Ratio (x) = 0.04633 0.34042
# Poissons Ratio (y) = 0.03291 0.37062
# Poissons Ratio (z) = 0.41165 0.63083
#
# Static dielectric constant tensor:
#      x y z
#    x 4.034430 0.000000 0.138510 
#    y 0.000000 3.842750 0.000000 
#    z 0.138510 0.000000 4.753330 
# 
# 
# High freq. dielectric constant tensor:
#      x y z
#    x 1.863700 0.000000 0.006590 
#    y 0.000000 1.857620 0.000000 
#    z 0.006590 0.000000 1.868820 
# 
# From -- ./inp_files/68642.got.cif
#   From: 2010.06.25/outbox.cif.g09.slc.cpg/sg12_35_cif.got.tgz:68642.got - 2010.06.28 00:19:55.
