data_PCOD8115840
_publ_section_title
;
Structure prediction by ZEFSAII (Michael W. Deem and Ramdas Pophale) SiO2 
 PCOD8115840
Probable space group: C 2/M
;
_chemical_formula_sum "Si O2"
_cell_formula_units_Z 48
_cell_length_a 13.758587
_cell_length_b 31.692508
_cell_length_c 11.013021
_cell_angle_alpha 90.000000
_cell_angle_beta 30.921665
_cell_angle_gamma 90.000000
_cell_volume 2467.666790
_symmetry_space_group_name_H-M "C 2/M"
_symmetry_group_IT_number 12
_symmetry_cell_setting 'monoclinic'
loop_
_space_group_symop_operation_xyz
x,y,z
-x,y,-z
-x,-y,-z
x,-y,z
1/2+x,1/2+y,z
1/2-x,1/2+y,-z
1/2-x,1/2-y,-z
1/2+x,1/2-y,z
loop_
_atom_site_type_symbol
_atom_site_label
_atom_site_fract_x
_atom_site_fract_y
_atom_site_fract_z
Si Si1 0.294576 0.000000 0.842350
Si Si2 0.503447 0.568928 0.139669
Si Si3 0.407338 0.657017 0.838595
Si Si4 0.795524 0.500000 0.553505
Si Si5 0.240145 0.702188 0.480438
Si Si6 0.722185 0.215504 0.234668
Si Si7 0.385551 0.191766 0.004899
O O1 0.314482 0.000000 0.677045
O O2 0.484621 0.000000 0.721706
O O3 0.180591 0.041989 0.995881
O O4 0.528110 0.610897 0.190279
O O5 0.312630 0.542331 0.375620
O O6 0.500000 0.578900 0.000000
O O7 0.605755 0.679733 0.600224
O O8 0.287265 0.659731 0.841555
O O9 0.274973 0.681258 0.077392
O O10 0.250000 0.750000 0.500000
O O11 0.305092 0.696424 0.271178
O O12 0.028068 0.687504 0.737608
O O13 0.500000 0.221105 0.500000
O O14 0.811225 0.260476 0.102266
O O15 0.500000 0.176238 0.000000
#
# Coordination Sequence:
#
# PCOD8115840 Si02
#       7
#     4   8   8   4   8   8   8
#     4   8  15  31  56  77 111 146 173 208 276 344
#     4   9  18  33  52  81 116 143 178 224 271 336
#     4  12  24  37  55  84 115 149 192 241 281 329
#     4   8  15  31  54  81 107 149 176 207 275 347
#     4  12  22  39  57  77 107 151 193 238 286 330
#     4  12  22  38  58  78 110 151 197 240 286 334
#     4  12  25  39  56  77 106 153 203 240 286 332
#
# _framework density 19.451573
#
# number of rings (size 3 to 8) (size 9 to 14) (size 15 to 20)
#    0.000    1.167    5.000    4.000    0.000    1.333 
#    6.000    0.000    0.000    0.000    0.000    2.333 
#    0.000    6.667    0.000    0.000    0.000    0.000 
#
# Total GULP energy -297339.463841 kJ/mol
# GULP energy per Si atom -12389.144327 kJ/mol
# Density = 1.940730 g / cm^3
# Si number density = 19.451573 Si / 1000 Ang^3
#
#
#
# Elastic Constant Matrix: (Units=GPa)
#
#
# Indices 1 2 3 4 5 6 
#
# 1 108.7639 65.9660 29.0676 0.0000 -33.1668 0.0000
# 2 65.9660 125.2035 37.7260 0.0000 -26.8484 0.0000
# 3 29.0676 37.7260 91.6084 0.0000 -31.7743 0.0000
# 4 0.0000 0.0000 0.0000 17.5602 0.0000 -1.0740
# 5 -33.1668 -26.8484 -31.7743 0.0000 41.8952 0.0000
# 6 0.0000 0.0000 0.0000 -1.0740 0.0000 29.0924
#
#
#
# Elastic Compliance Matrix: (Units=1/GPa)
#
#
# Indices 1 2 3 4 5 6 
#
# 1 0.015666 -0.006613 0.000793 0.000000 0.008766 0.000000
# 2 -0.006613 0.012451 -0.002819 0.000000 0.000605 0.000000
# 3 0.000793 -0.002819 0.015492 0.000000 0.010570 0.000000
# 4 0.000000 0.000000 0.000000 0.057076 0.000000 0.002107
# 5 0.008766 0.000605 0.010570 0.000000 0.039213 0.000000
# 6 0.000000 0.000000 0.000000 0.002107 0.000000 0.034451
#
#
# Mechanical properties :
#
#
# Convention : Reuss Voigt Hill
#
# Bulk Modulus (GPa) = 37.97977 65.67724 51.82850
# Shear Modulus (GPa) = 24.94953 30.56396 27.75675
#
# Velocity S-wave (km/s) = 3.58529 3.96824 3.78162
# Velocity P-wave (km/s) = 6.05861 7.40498 6.76537
#
# Compressibility (1/GPa) = 0.02632981
#
# Stress axis : x y z
#
# Youngs Moduli (GPa) = 63.83076 80.31721 64.55071
#
# Poissons Ratio (x) = 0.53117 -0.05118
# Poissons Ratio (y) = 0.42214 0.18197
# Poissons Ratio (z) = -0.05061 0.22641
#
# Static dielectric constant tensor:
#      x y z
#    x 3.631610 0.000000 -0.522080 
#    y 0.000000 3.232760 0.000000 
#    z -0.522080 0.000000 3.619700 
# 
# 
# High freq. dielectric constant tensor:
#      x y z
#    x 1.757330 0.000000 -0.034880 
#    y 0.000000 1.723440 0.000000 
#    z -0.034880 0.000000 1.758410 
# 
# From -- ./inp_files/149663.got.cif
#   From: 2010.06.25/outbox.cif.g09.slc.cpg/sg12_75_cif.got.tgz:149663.got - 2010.06.28 00:19:55.
