data_PCOD8115769
_publ_section_title
;
Structure prediction by ZEFSAII (Michael W. Deem and Ramdas Pophale) SiO2 
 PCOD8115769
Probable space group: C 2/M
;
_chemical_formula_sum "Si O2"
_cell_formula_units_Z 32
_cell_length_a 14.186483
_cell_length_b 22.113926
_cell_length_c 7.460252
_cell_angle_alpha 90.000000
_cell_angle_beta 137.886051
_cell_angle_gamma 90.000000
_cell_volume 1569.503643
_symmetry_space_group_name_H-M "C 2/M"
_symmetry_group_IT_number 12
_symmetry_cell_setting 'monoclinic'
loop_
_space_group_symop_operation_xyz
x,y,z
-x,y,-z
-x,-y,-z
x,-y,z
1/2+x,1/2+y,z
1/2-x,1/2+y,-z
1/2-x,1/2-y,-z
1/2+x,1/2-y,z
loop_
_atom_site_type_symbol
_atom_site_label
_atom_site_fract_x
_atom_site_fract_y
_atom_site_fract_z
Si Si1 0.000000 0.669494 0.500000
Si Si2 0.620673 0.861831 0.023276
Si Si3 0.266622 0.734879 0.729896
Si Si4 0.000000 0.141579 0.000000
Si Si5 0.604703 0.571103 0.491124
O O1 0.118615 0.714064 0.595200
O O2 0.054467 0.625175 0.734424
O O3 0.686108 0.794942 0.100570
O O4 0.737530 0.911341 0.232062
O O5 0.500000 0.865283 0.000000
O O6 0.250000 0.750000 0.500000
O O7 0.380413 0.682582 0.921009
O O8 0.934551 0.100952 0.752272
O O9 0.500000 0.592967 0.500000
O O10 0.596402 0.500000 0.452152
#
# Coordination Sequence:
#
# PCOD8115769 Si02
#       5
#     4   8   8   4   8
#     4  12  24  38  63  92 131 176 200 256 334 370
#     4  12  24  42  62  95 132 163 213 260 317 387
#     4  12  22  40  63  99 133 165 205 261 322 387
#     4  12  21  44  68  92 131 166 206 266 320 378
#     4  11  26  44  65  92 124 170 220 261 307 373
#
# _framework density 20.388611999999998
#
# number of rings (size 3 to 8) (size 9 to 14) (size 15 to 20)
#    0.000    0.250    6.250    2.625    1.750    0.500 
#    0.000    0.625    0.000    0.000    0.000    0.000 
#    0.000    0.000    0.000    0.000    0.000    0.000 
#
# Total GULP energy -198507.085846 kJ/mol
# GULP energy per Si atom -12406.692865 kJ/mol
# Density = 2.034221 g / cm^3
# Si number density = 20.388612 Si / 1000 Ang^3
#
#
#
# Elastic Constant Matrix: (Units=GPa)
#
#
# Indices 1 2 3 4 5 6 
#
# 1 93.6388 4.6079 43.5934 0.0000 9.8283 0.0000
# 2 4.6079 57.3137 16.7612 0.0000 4.1529 0.0000
# 3 43.5934 16.7612 124.3704 0.0000 -5.5504 0.0000
# 4 0.0000 0.0000 0.0000 1.2821 0.0000 6.6395
# 5 9.8283 4.1529 -5.5504 0.0000 59.8938 0.0000
# 6 0.0000 0.0000 0.0000 6.6395 0.0000 13.7867
#
#
#
# Elastic Compliance Matrix: (Units=1/GPa)
#
#
# Indices 1 2 3 4 5 6 
#
# 1 0.013168 0.000538 -0.004806 0.000000 -0.002643 0.000000
# 2 0.000538 0.018320 -0.002730 0.000000 -0.001612 0.000000
# 3 -0.004806 -0.002730 0.010179 0.000000 0.001921 0.000000
# 4 0.000000 0.000000 0.000000 -0.522093 0.000000 0.251434
# 5 -0.002643 -0.001612 0.001921 0.000000 0.017420 0.000000
# 6 0.000000 0.000000 0.000000 0.251434 0.000000 -0.048554
#
#
# Mechanical properties :
#
#
# Convention : Reuss Voigt Hill
#
# Bulk Modulus (GPa) = 36.13806 45.02756 40.58281
# Shear Modulus (GPa) = -10.23871 29.01655 9.38892
#
# Velocity S-wave (km/s) = -2.24336 3.77659 2.14825
# Velocity P-wave (km/s) = 3.32459 6.41478 5.10893
#
# Compressibility (1/GPa) = 0.02767166
#
# Stress axis : x y z
#
# Youngs Moduli (GPa) = 75.94329 54.58648 98.24479
#
# Poissons Ratio (x) = -0.02939 0.47216
# Poissons Ratio (y) = -0.04089 0.26816
# Poissons Ratio (z) = 0.36498 0.14900
#
# Static dielectric constant tensor:
#      x y z
#    x 4.384470 0.000000 -0.534720 
#    y 0.000000 3.562010 0.000000 
#    z -0.534720 0.000000 4.732330 
# 
# 
# High freq. dielectric constant tensor:
#      x y z
#    x 1.816720 0.000000 -0.001020 
#    y 0.000000 1.773730 0.000000 
#    z -0.001020 0.000000 1.822040 
# 
# From -- ./inp_files/67237.got.cif
#   From: 2010.06.25/outbox.cif.g09.slc.cpg/sg12_34_cif.got.tgz:67237.got - 2010.06.28 00:19:55.
