data_PCOD8115163
_publ_section_title
;
Structure prediction by ZEFSAII (Michael W. Deem and Ramdas Pophale) SiO2 
 PCOD8115163
Probable space group: C 2/M
;
_chemical_formula_sum "Si O2"
_cell_formula_units_Z 32
_cell_length_a 11.836348
_cell_length_b 17.391159
_cell_length_c 14.806405
_cell_angle_alpha 90.000000
_cell_angle_beta 37.215718
_cell_angle_gamma 90.000000
_cell_volume 1843.403041
_symmetry_space_group_name_H-M "C 2/M"
_symmetry_group_IT_number 12
_symmetry_cell_setting 'monoclinic'
loop_
_space_group_symop_operation_xyz
x,y,z
-x,y,-z
-x,-y,-z
x,-y,z
1/2+x,1/2+y,z
1/2-x,1/2+y,-z
1/2-x,1/2-y,-z
1/2+x,1/2-y,z
loop_
_atom_site_type_symbol
_atom_site_label
_atom_site_fract_x
_atom_site_fract_y
_atom_site_fract_z
Si Si1 0.363642 0.337577 0.340807
Si Si2 0.970846 0.680465 0.328756
Si Si3 0.649783 0.411978 0.473517
Si Si4 0.819494 0.912153 0.176463
O O1 0.150213 0.310450 0.500917
O O2 0.501786 0.263914 0.262946
O O3 0.426080 0.401003 0.375479
O O4 0.374844 0.374524 0.235916
O O5 0.849768 0.630042 0.334628
O O6 0.164064 0.638616 0.226094
O O7 0.500000 0.375451 0.500000
O O8 0.682408 0.500000 0.429236
O O9 0.747694 0.000000 0.236720
O O10 0.000000 0.911880 0.000000
#
# Coordination Sequence:
#
# PCOD8115163 Si02
#       4
#     8   8   8   8
#     4   9  20  33  57  79 108 137 180 226 277 319
#     4   9  20  33  57  79 108 137 180 226 277 319
#     4   9  17  29  51  81 107 131 169 223 275 321
#     4  11  23  37  55  81 113 150 188 223 266 325
#
# _framework density 17.359200000000001
#
# number of rings (size 3 to 8) (size 9 to 14) (size 15 to 20)
#    1.500    1.000    0.000    2.250    3.500    2.000 
#    0.000    0.000    0.000    0.000    0.000    7.000 
#    0.000    0.000    0.000    0.000    0.000    0.000 
#
# Total GULP energy -198223.639436 kJ/mol
# GULP energy per Si atom -12388.977465 kJ/mol
# Density = 1.731969 g / cm^3
# Si number density = 17.359200 Si / 1000 Ang^3
#
#
#
# Elastic Constant Matrix: (Units=GPa)
#
#
# Indices 1 2 3 4 5 6 
#
# 1 115.2989 30.7773 30.7632 0.0046 -1.6973 0.0013
# 2 30.7773 90.9743 22.9759 0.0096 -6.8401 -0.0004
# 3 30.7632 22.9759 46.0551 0.0094 -0.5400 -0.0010
# 4 0.0046 0.0096 0.0094 20.5728 -0.0021 -2.1656
# 5 -1.6973 -6.8401 -0.5400 -0.0021 14.9629 -0.0026
# 6 0.0013 -0.0004 -0.0010 -2.1656 -0.0026 33.3812
#
#
#
# Elastic Compliance Matrix: (Units=1/GPa)
#
#
# Indices 1 2 3 4 5 6 
#
# 1 0.010899 -0.002111 -0.006226 0.000001 0.000047 -0.000001
# 2 -0.002111 0.013459 -0.005237 -0.000003 0.005724 0.000000
# 3 -0.006226 -0.005237 0.028460 -0.000009 -0.002073 0.000000
# 4 0.000001 -0.000003 -0.000009 0.048942 0.000006 0.003175
# 5 0.000047 0.005724 -0.002073 0.000006 0.069379 0.000006
# 6 -0.000001 0.000000 0.000000 0.003175 0.000006 0.030163
#
#
# Mechanical properties :
#
#
# Convention : Reuss Voigt Hill
#
# Bulk Modulus (GPa) = 38.95709 46.81789 42.88749
# Shear Modulus (GPa) = 21.09634 24.97086 23.03360
#
# Velocity S-wave (km/s) = 3.48987 3.79684 3.64659
# Velocity P-wave (km/s) = 6.22330 6.80073 6.51841
#
# Compressibility (1/GPa) = 0.02566927
#
# Stress axis : x y z
#
# Youngs Moduli (GPa) = 91.75555 74.29735 35.13653
#
# Poissons Ratio (x) = 0.15685 0.21876
# Poissons Ratio (y) = 0.19371 0.18402
# Poissons Ratio (z) = 0.57128 0.38912
#
# Static dielectric constant tensor:
#      x y z
#    x 3.249890 0.000000 -0.003740 
#    y 0.000000 3.358710 0.000000 
#    z -0.003740 0.000000 2.772590 
# 
# 
# High freq. dielectric constant tensor:
#      x y z
#    x 1.675250 0.000000 0.000230 
#    y 0.000000 1.686130 0.000000 
#    z 0.000230 0.000000 1.618760 
# 
# From -- ./inp_files/74806.got.cif
#   From: 2010.06.25/outbox.cif.g09.slc.cpg/sg12_38_cif.got.tgz:74806.got - 2010.06.28 00:19:55.
