data_PCOD8115930
_publ_section_title
;
Structure prediction by ZEFSAII (Michael W. Deem and Ramdas Pophale) SiO2 
 PCOD8115930
Probable space group: C 2/M
;
_chemical_formula_sum "Si O2"
_cell_formula_units_Z 56
_cell_length_a 8.819860
_cell_length_b 19.470060
_cell_length_c 17.840114
_cell_angle_alpha 90.000000
_cell_angle_beta 89.999978
_cell_angle_gamma 90.000000
_cell_volume 3063.561525
_symmetry_space_group_name_H-M "C 2/M"
_symmetry_group_IT_number 12
_symmetry_cell_setting 'monoclinic'
loop_
_space_group_symop_operation_xyz
x,y,z
-x,y,-z
-x,-y,-z
x,-y,z
1/2+x,1/2+y,z
1/2-x,1/2+y,-z
1/2-x,1/2-y,-z
1/2+x,1/2-y,z
loop_
_atom_site_type_symbol
_atom_site_label
_atom_site_fract_x
_atom_site_fract_y
_atom_site_fract_z
Si Si1 0.321170 0.825698 1.000000
Si Si2 0.178796 0.177506 0.583991
Si Si3 0.820533 0.075362 0.707803
Si Si4 0.678796 0.677506 0.416009
Si Si5 0.679467 0.575362 0.707803
Si Si6 0.177368 0.079749 0.876853
Si Si7 0.177368 0.920251 0.123147
O O1 0.272509 0.868721 0.927434
O O2 0.500000 0.816639 0.000000
O O3 0.250000 0.750000 0.000000
O O4 0.272509 0.868721 0.072566
O O5 0.250000 0.250000 0.602797
O O6 0.222425 0.152950 0.500000
O O7 0.248628 0.125132 0.644677
O O8 1.000000 0.184091 0.592723
O O9 0.751372 0.125132 0.644677
O O10 0.779794 0.099831 0.791618
O O11 0.000000 0.071702 0.699442
O O12 0.751086 0.000000 0.693655
O O13 0.748914 0.500000 0.693655
O O14 0.720206 0.599831 0.791618
O O15 0.000000 0.091039 0.892782
O O16 0.219303 0.000000 0.893158
O O17 0.219303 0.000000 0.106842
#
# Coordination Sequence:
#
# PCOD8115930 Si02
#       7
#     8   8   8   8   8   8   8
#     4  12  25  38  53  75 103 131 165 208 249 294
#     4   9  17  29  46  69  98 131 165 201 241 285
#     4   8  15  29  50  75  99 125 161 202 241 284
#     4   9  17  29  46  69  98 131 165 201 241 285
#     4   8  15  29  50  75  99 125 161 202 241 284
#     4   9  18  35  57  77 101 133 165 200 248 303
#     4   9  18  35  57  77 101 133 165 200 248 303
#
# _framework density 18.27938
#
# number of rings (size 3 to 8) (size 9 to 14) (size 15 to 20)
#    0.000    2.857    0.000    3.429    0.000    4.000 
#    0.000    7.143    0.000    2.571    0.000    4.000 
#    0.000    0.000    0.000    0.000    0.000    0.000 
#
# Total GULP energy -347068.362832 kJ/mol
# GULP energy per Si atom -12395.298673 kJ/mol
# Density = 1.823777 g / cm^3
# Si number density = 18.279380 Si / 1000 Ang^3
#
#
#
# Elastic Constant Matrix: (Units=GPa)
#
#
# Indices 1 2 3 4 5 6 
#
# 1 52.2675 50.5780 42.7746 0.0000 2.2909 0.0000
# 2 50.5780 134.8822 109.5166 0.0000 5.1663 0.0000
# 3 42.7746 109.5166 164.5538 0.0000 7.5515 0.0000
# 4 0.0000 0.0000 0.0000 28.4662 0.0000 0.1475
# 5 2.2909 5.1663 7.5515 0.0000 18.2755 0.0000
# 6 0.0000 0.0000 0.0000 0.1475 0.0000 26.7837
#
#
#
# Elastic Compliance Matrix: (Units=1/GPa)
#
#
# Indices 1 2 3 4 5 6 
#
# 1 0.030067 -0.010722 -0.000658 0.000000 -0.000466 0.000000
# 2 -0.010722 0.019954 -0.010495 0.000000 0.000040 0.000000
# 3 -0.000658 -0.010495 0.013346 0.000000 -0.002465 0.000000
# 4 0.000000 0.000000 0.000000 0.035130 0.000000 -0.000193
# 5 -0.000466 0.000040 -0.002465 0.000000 0.055784 0.000000
# 6 0.000000 0.000000 0.000000 -0.000193 0.000000 0.037337
#
#
# Mechanical properties :
#
#
# Convention : Reuss Voigt Hill
#
# Bulk Modulus (GPa) = 50.97749 84.16020 67.56884
# Shear Modulus (GPa) = 20.66896 24.62736 22.64816
#
# Velocity S-wave (km/s) = 3.36627 3.67451 3.52376
# Velocity P-wave (km/s) = 6.56183 8.00898 7.32125
#
# Compressibility (1/GPa) = 0.01961650
#
# Stress axis : x y z
#
# Youngs Moduli (GPa) = 33.25898 50.11473 74.92834
#
# Poissons Ratio (x) = 0.53734 0.04933
# Poissons Ratio (y) = 0.35661 0.78637
# Poissons Ratio (z) = 0.02190 0.52595
#
# Static dielectric constant tensor:
#      x y z
#    x 3.005620 0.000000 0.058590 
#    y 0.000000 3.500500 0.000000 
#    z 0.058590 0.000000 3.674020 
# 
# 
# High freq. dielectric constant tensor:
#      x y z
#    x 1.671720 0.000000 0.004570 
#    y 0.000000 1.708780 0.000000 
#    z 0.004570 0.000000 1.723810 
# 
# From -- ./inp_files/257615.got.cif
#   From: 2010.06.25/outbox.cif.g09.slc.cpg/sg12_129_cif.got.tgz:257615.got - 2010.06.28 00:19:55.
