data_PCOD8115076
_publ_section_title
;
Structure prediction by ZEFSAII (Michael W. Deem and Ramdas Pophale) SiO2 
 PCOD8115076
Probable space group: C 2/M
;
_chemical_formula_sum "Si O2"
_cell_formula_units_Z 56
_cell_length_a 9.203638
_cell_length_b 30.446134
_cell_length_c 11.212030
_cell_angle_alpha 90.000000
_cell_angle_beta 119.352849
_cell_angle_gamma 90.000000
_cell_volume 2738.431461
_symmetry_space_group_name_H-M "C 2/M"
_symmetry_group_IT_number 12
_symmetry_cell_setting 'monoclinic'
loop_
_space_group_symop_operation_xyz
x,y,z
-x,y,-z
-x,-y,-z
x,-y,z
1/2+x,1/2+y,z
1/2-x,1/2+y,-z
1/2-x,1/2-y,-z
1/2+x,1/2-y,z
loop_
_atom_site_type_symbol
_atom_site_label
_atom_site_fract_x
_atom_site_fract_y
_atom_site_fract_z
Si Si1 0.355257 0.291893 0.024349
Si Si2 0.313307 0.795181 0.588329
Si Si3 0.302462 0.450583 0.432779
Si Si4 0.095157 0.404860 0.155696
Si Si5 0.126129 0.653215 0.775515
Si Si6 0.638029 0.664294 0.738249
Si Si7 0.291282 0.374005 0.601990
O O1 0.427878 0.305438 0.181629
O O2 0.500000 0.274634 0.000000
O O3 0.250000 0.250000 0.000000
O O4 0.261370 0.332126 0.925910
O O5 0.250000 0.750000 0.500000
O O6 0.509502 0.802791 0.703067
O O7 0.186692 0.804720 0.646421
O O8 0.304744 0.833199 0.489716
O O9 0.500000 0.446201 0.500000
O O10 0.252717 0.500000 0.448867
O O11 0.214498 0.439978 0.269711
O O12 0.236581 0.418611 0.512224
O O13 0.203434 0.363461 0.154390
O O14 0.972720 0.387167 0.207747
O O15 0.000000 0.424382 0.000000
O O16 0.230740 0.628789 0.713422
O O17 0.487495 0.631079 0.651243
#
# Coordination Sequence:
#
# PCOD8115076 Si02
#       7
#     8   8   8   8   8   8   8
#     4  12  28  43  59  91 131 178 229 272 321 393
#     4  11  26  39  62  92 127 168 217 272 329 384
#     4  11  23  43  72 103 132 171 219 275 338 407
#     4  11  22  42  67  95 130 169 215 267 330 393
#     4  11  25  40  64  92 131 174 211 271 332 384
#     4  11  23  41  65  88 129 178 217 266 326 386
#     4  12  22  42  62  97 130 170 218 268 327 396
#
# _framework density 20.449663000000001
#
# number of rings (size 3 to 8) (size 9 to 14) (size 15 to 20)
#    0.000    0.714    7.143    0.857    8.000    1.429 
#    0.000    1.429    0.000    0.000    0.000    3.000 
#    0.000    0.000    0.000    0.000    0.000    0.000 
#
# Total GULP energy -346899.252888 kJ/mol
# GULP energy per Si atom -12389.259032 kJ/mol
# Density = 2.040312 g / cm^3
# Si number density = 20.449663 Si / 1000 Ang^3
#
#
#
# Elastic Constant Matrix: (Units=GPa)
#
#
# Indices 1 2 3 4 5 6 
#
# 1 116.6172 29.5225 36.8135 0.0000 -12.4422 0.0000
# 2 29.5225 122.5750 43.8427 0.0000 -11.0230 0.0000
# 3 36.8135 43.8427 111.2658 0.0000 -7.6683 0.0000
# 4 0.0000 0.0000 0.0000 22.1480 0.0000 0.6948
# 5 -12.4422 -11.0230 -7.6683 0.0000 35.7378 0.0000
# 6 0.0000 0.0000 0.0000 0.6948 0.0000 19.1117
#
#
#
# Elastic Compliance Matrix: (Units=1/GPa)
#
#
# Indices 1 2 3 4 5 6 
#
# 1 0.009992 -0.001233 -0.002646 0.000000 0.002531 0.000000
# 2 -0.001233 0.009816 -0.003330 0.000000 0.001884 0.000000
# 3 -0.002646 -0.003330 0.011207 0.000000 0.000456 0.000000
# 4 0.000000 0.000000 0.000000 0.045202 0.000000 -0.001643
# 5 0.002531 0.001884 0.000456 0.000000 0.029542 0.000000
# 6 0.000000 0.000000 0.000000 -0.001643 0.000000 0.052384
#
#
# Mechanical properties :
#
#
# Convention : Reuss Voigt Hill
#
# Bulk Modulus (GPa) = 60.25090 63.42393 61.83742
# Shear Modulus (GPa) = 28.07534 31.41811 29.74672
#
# Velocity S-wave (km/s) = 3.70929 3.92390 3.81810
# Velocity P-wave (km/s) = 6.91896 7.18410 7.05278
#
# Compressibility (1/GPa) = 0.01659726
#
# Stress axis : x y z
#
# Youngs Moduli (GPa) = 100.07577 101.87789 89.23371
#
# Poissons Ratio (x) = 0.12558 0.23611
# Poissons Ratio (y) = 0.12336 0.29715
# Poissons Ratio (z) = 0.26479 0.33926
#
# Static dielectric constant tensor:
#      x y z
#    x 3.882660 0.000000 0.337770 
#    y 0.000000 3.169580 0.000000 
#    z 0.337770 0.000000 4.438990 
# 
# 
# High freq. dielectric constant tensor:
#      x y z
#    x 1.808320 0.000000 0.001690 
#    y 0.000000 1.768690 0.000000 
#    z 0.001690 0.000000 1.815100 
# 
# From -- ./inp_files/125835.got.cif
#   From: 2010.06.25/outbox.cif.g09.slc.cpg/sg12_63_cif.got.tgz:125835.got - 2010.06.28 00:19:55.
