data_PCOD8115924
_publ_section_title
;
Structure prediction by ZEFSAII (Michael W. Deem and Ramdas Pophale) SiO2 
 PCOD8115924
Probable space group: C 2/M
;
_chemical_formula_sum "Si O2"
_cell_formula_units_Z 48
_cell_length_a 17.323146
_cell_length_b 13.436249
_cell_length_c 9.182905
_cell_angle_alpha 90.000000
_cell_angle_beta 90.683717
_cell_angle_gamma 90.000000
_cell_volume 2137.243369
_symmetry_space_group_name_H-M "C 2/M"
_symmetry_group_IT_number 12
_symmetry_cell_setting 'monoclinic'
loop_
_space_group_symop_operation_xyz
x,y,z
-x,y,-z
-x,-y,-z
x,-y,z
1/2+x,1/2+y,z
1/2-x,1/2+y,-z
1/2-x,1/2-y,-z
1/2+x,1/2-y,z
loop_
_atom_site_type_symbol
_atom_site_label
_atom_site_fract_x
_atom_site_fract_y
_atom_site_fract_z
Si Si1 0.115644 0.500000 0.438743
Si Si2 0.077902 0.289268 0.810855
Si Si3 0.669400 0.284809 0.067385
Si Si4 0.081753 0.288876 0.325911
Si Si5 0.121196 0.500000 0.784807
Si Si6 0.279158 0.500000 0.300598
Si Si7 0.673540 0.706128 0.571528
Si Si8 0.216657 0.000000 0.048950
O O1 0.069642 0.400585 0.389732
O O2 0.133615 0.500000 0.610537
O O3 0.192406 0.500000 0.348789
O O4 0.070829 0.406881 0.837515
O O5 0.151506 0.275840 0.706505
O O6 0.997654 0.248875 0.744585
O O7 0.096631 0.232367 0.959836
O O8 0.652041 0.218860 0.210559
O O9 0.750000 0.250000 0.000000
O O10 0.671984 0.402035 0.103939
O O11 0.103259 0.213518 0.455797
O O12 0.200260 0.500000 0.875652
O O13 0.321375 0.594819 0.369969
O O14 0.280715 0.500000 0.126293
O O15 0.750000 0.750000 0.500000
#
# Coordination Sequence:
#
# PCOD8115924 Si02
#       8
#     4   8   8   8   4   4   8   4
#     4  12  25  42  71 106 145 179 227 295 355 414
#     4  12  25  46  68 107 144 183 231 287 357 415
#     4  12  25  47  73 101 140 187 238 288 341 418
#     4  12  27  44  71 105 146 184 226 293 360 412
#     4  12  25  40  75 104 143 181 230 289 349 430
#     4  12  24  45  72 107 136 178 244 294 332 411
#     4  12  24  44  72 103 139 186 232 283 344 416
#     4  12  26  45  74 105 132 184 245 292 338 405
#
# _framework density 22.458838
#
# number of rings (size 3 to 8) (size 9 to 14) (size 15 to 20)
#    0.000    0.000    6.667    3.500    2.333    0.667 
#    0.000    6.667    0.000    0.000    0.000    0.000 
#    0.000    0.000    0.000    0.000    0.000    0.000 
#
# Total GULP energy -297627.217817 kJ/mol
# GULP energy per Si atom -12401.134076 kJ/mol
# Density = 2.240772 g / cm^3
# Si number density = 22.458838 Si / 1000 Ang^3
#
#
#
# Elastic Constant Matrix: (Units=GPa)
#
#
# Indices 1 2 3 4 5 6 
#
# 1 53.6948 40.0118 16.2383 0.0000 15.9854 0.0000
# 2 40.0118 125.3823 40.7786 0.0000 17.5200 0.0000
# 3 16.2383 40.7786 116.6284 0.0000 18.2187 0.0000
# 4 0.0000 0.0000 0.0000 33.8107 0.0000 9.8709
# 5 15.9854 17.5200 18.2187 0.0000 49.7282 0.0000
# 6 0.0000 0.0000 0.0000 9.8709 0.0000 22.8218
#
#
#
# Elastic Compliance Matrix: (Units=1/GPa)
#
#
# Indices 1 2 3 4 5 6 
#
# 1 0.025881 -0.007429 -0.000122 0.000000 -0.005657 0.000000
# 2 -0.007429 0.011351 -0.002846 0.000000 -0.000569 0.000000
# 3 -0.000122 -0.002846 0.009996 0.000000 -0.002620 0.000000
# 4 0.000000 0.000000 0.000000 0.033851 0.000000 -0.014641
# 5 -0.005657 -0.000569 -0.002620 0.000000 0.023088 0.000000
# 6 0.000000 0.000000 0.000000 -0.014641 0.000000 0.050150
#
#
# Mechanical properties :
#
#
# Convention : Reuss Voigt Hill
#
# Bulk Modulus (GPa) = 37.82995 54.41809 46.12402
# Shear Modulus (GPa) = 27.18546 34.51725 30.85135
#
# Velocity S-wave (km/s) = 3.48294 3.92460 3.71035
# Velocity P-wave (km/s) = 5.74936 6.69473 6.23997
#
# Compressibility (1/GPa) = 0.02643408
#
# Stress axis : x y z
#
# Youngs Moduli (GPa) = 38.63883 88.09610 100.04435
#
# Poissons Ratio (x) = 0.65444 0.01223
# Poissons Ratio (y) = 0.28704 0.28470
# Poissons Ratio (z) = 0.00472 0.25070
#
# Static dielectric constant tensor:
#      x y z
#    x 3.940850 0.000000 0.094140 
#    y 0.000000 3.690190 0.000000 
#    z 0.094140 0.000000 4.465590 
# 
# 
# High freq. dielectric constant tensor:
#      x y z
#    x 1.878780 0.000000 0.014530 
#    y 0.000000 1.882990 0.000000 
#    z 0.014530 0.000000 1.906510 
# 
# From -- ./inp_files/73709.got.cif
#   From: 2010.06.25/outbox.cif.g09.slc.cpg/sg12_37_cif.got.tgz:73709.got - 2010.06.28 00:19:55.
