data_PCOD8115111
_publ_section_title
;
Structure prediction by ZEFSAII (Michael W. Deem and Ramdas Pophale) SiO2 
 PCOD8115111
Probable space group: C 2/M
;
_chemical_formula_sum "Si O2"
_cell_formula_units_Z 40
_cell_length_a 13.442730
_cell_length_b 14.105952
_cell_length_c 17.506819
_cell_angle_alpha 90.000000
_cell_angle_beta 32.480934
_cell_angle_gamma 90.000000
_cell_volume 1782.734677
_symmetry_space_group_name_H-M "C 2/M"
_symmetry_group_IT_number 12
_symmetry_cell_setting 'monoclinic'
loop_
_space_group_symop_operation_xyz
x,y,z
-x,y,-z
-x,-y,-z
x,-y,z
1/2+x,1/2+y,z
1/2-x,1/2+y,-z
1/2-x,1/2-y,-z
1/2+x,1/2-y,z
loop_
_atom_site_type_symbol
_atom_site_label
_atom_site_fract_x
_atom_site_fract_y
_atom_site_fract_z
Si Si1 0.082934 0.396612 0.302379
Si Si2 0.200783 0.241036 0.944076
Si Si3 0.800435 0.109092 0.762371
Si Si4 0.180247 0.219549 0.749856
Si Si5 0.684898 0.344627 0.578740
O O1 0.169328 0.500000 0.231693
O O2 0.147433 0.328660 0.191543
O O3 0.156688 0.351863 0.333056
O O4 0.863377 0.411742 0.456997
O O5 0.203247 0.342569 0.899140
O O6 0.250000 0.250000 0.000000
O O7 0.988837 0.203191 0.080722
O O8 0.752938 0.171125 0.716268
O O9 0.020054 0.108100 0.637647
O O10 0.733765 0.000000 0.794572
O O11 0.117538 0.188067 0.706532
O O12 0.750000 0.250000 0.500000
#
# Coordination Sequence:
#
# PCOD8115111 Si02
#       5
#     8   8   8   8   8
#     4  11  24  40  65  98 129 168 219 268 325 393
#     4  11  22  44  66  94 133 175 214 271 332 387
#     4  11  24  42  70 101 132 174 224 271 327 396
#     4  11  24  42  69  95 133 174 216 272 333 384
#     4  12  22  44  69  92 136 175 213 270 331 389
#
# _framework density 22.437439000000001
#
# number of rings (size 3 to 8) (size 9 to 14) (size 15 to 20)
#    0.000    0.800    6.000    3.600    0.000    6.400 
#    0.000    5.000    0.000    0.000    0.000    0.000 
#    0.000    0.000    0.000    0.000    0.000    0.000 
#
# Total GULP energy -247798.552589 kJ/mol
# GULP energy per Si atom -12389.927629 kJ/mol
# Density = 2.238637 g / cm^3
# Si number density = 22.437439 Si / 1000 Ang^3
#
#
#
# Elastic Constant Matrix: (Units=GPa)
#
#
# Indices 1 2 3 4 5 6 
#
# 1 36.1231 11.7257 0.5558 0.0012 2.7783 0.0001
# 2 11.7257 145.9898 16.7202 -0.0003 13.6371 0.0006
# 3 0.5558 16.7202 114.4317 -0.0177 -9.9351 -0.0004
# 4 0.0012 -0.0003 -0.0177 18.2444 0.0027 -6.6945
# 5 2.7783 13.6371 -9.9351 0.0027 43.3436 -0.0001
# 6 0.0001 0.0006 -0.0004 -6.6945 -0.0001 7.4839
#
#
#
# Elastic Compliance Matrix: (Units=1/GPa)
#
#
# Indices 1 2 3 4 5 6 
#
# 1 0.028479 -0.002193 0.000085 -0.000003 -0.001116 -0.000003
# 2 -0.002193 0.007405 -0.001287 -0.000001 -0.002484 -0.000002
# 3 0.000085 -0.001287 0.009143 0.000013 0.002495 0.000012
# 4 -0.000003 -0.000001 0.000013 0.081593 -0.000002 0.072987
# 5 -0.001116 -0.002484 0.002495 -0.000002 0.024497 -0.000001
# 6 -0.000003 -0.000002 0.000012 0.072987 -0.000001 0.198909
#
#
# Mechanical properties :
#
#
# Convention : Reuss Voigt Hill
#
# Bulk Modulus (GPa) = 26.15177 39.39423 32.77300
# Shear Modulus (GPa) = 13.52952 31.65056 22.59004
#
# Velocity S-wave (km/s) = 2.45825 3.75989 3.17646
# Velocity P-wave (km/s) = 4.44275 6.03693 5.30012
#
# Compressibility (1/GPa) = 0.03823833
#
# Stress axis : x y z
#
# Youngs Moduli (GPa) = 35.11303 135.03638 109.37173
#
# Poissons Ratio (x) = 0.29613 -0.00932
# Poissons Ratio (y) = 0.07700 0.14077
# Poissons Ratio (z) = -0.00299 0.17380
#
# Static dielectric constant tensor:
#      x y z
#    x 4.050170 0.000010 1.215690 
#    y 0.000010 3.879170 0.000270 
#    z 1.215690 0.000270 47.114620 
# 
# 
# High freq. dielectric constant tensor:
#      x y z
#    x 1.891580 0.000000 -0.015770 
#    y 0.000000 1.867360 0.000000 
#    z -0.015770 0.000000 1.895990 
# 
# From -- ./inp_files/270516.got.cif
#   From: 2010.06.25/outbox.cif.g09.slc.cpg/sg12_136_cif.got.tgz:270516.got - 2010.06.28 00:19:55.
