data_PCOD8115649
_publ_section_title
;
Structure prediction by ZEFSAII (Michael W. Deem and Ramdas Pophale) SiO2 
 PCOD8115649
Probable space group: C 2/M
;
_chemical_formula_sum "Si O2"
_cell_formula_units_Z 36
_cell_length_a 22.054650
_cell_length_b 16.028534
_cell_length_c 5.009701
_cell_angle_alpha 90.000000
_cell_angle_beta 70.029224
_cell_angle_gamma 90.000000
_cell_volume 1664.455375
_symmetry_space_group_name_H-M "C 2/M"
_symmetry_group_IT_number 12
_symmetry_cell_setting 'monoclinic'
loop_
_space_group_symop_operation_xyz
x,y,z
-x,y,-z
-x,-y,-z
x,-y,z
1/2+x,1/2+y,z
1/2-x,1/2+y,-z
1/2-x,1/2-y,-z
1/2+x,1/2-y,z
loop_
_atom_site_type_symbol
_atom_site_label
_atom_site_fract_x
_atom_site_fract_y
_atom_site_fract_z
Si Si1 0.349696 0.136601 0.061066
Si Si2 0.865814 0.172434 0.107812
Si Si3 0.045892 0.500000 0.180605
Si Si4 0.570998 0.598205 0.487220
Si Si5 0.268655 0.095428 0.685941
O O1 0.374110 0.228836 0.087012
O O2 0.319719 0.096528 0.370436
O O3 0.410307 0.082250 0.877260
O O4 0.297407 0.139214 0.904229
O O5 0.917468 0.137535 0.240385
O O6 0.794270 0.146727 0.308583
O O7 0.877588 0.133553 0.799514
O O8 0.000000 0.500000 0.500000
O O9 0.000000 0.500000 0.000000
O O10 0.500000 0.623749 0.500000
O O11 0.579819 0.500000 0.498222
O O12 0.250534 0.000000 0.779413
#
# Coordination Sequence:
#
# PCOD8115649 Si02
#       5
#     8   8   4   8   8
#     4  12  25  45  65 100 137 174 228 293 337 400
#     4  12  25  41  70 103 133 177 232 277 347 408
#     4  12  26  46  70  94 132 188 233 276 341 400
#     4  11  24  44  66  96 139 178 221 276 339 408
#     4  12  22  42  69  97 138 178 222 278 355 407
#
# _framework density 21.628696000000001
#
# number of rings (size 3 to 8) (size 9 to 14) (size 15 to 20)
#    0.000    0.222    2.222    8.000    0.000    4.444 
#    0.000    0.000    0.000    0.000    0.000    0.000 
#    0.000    0.000    0.000    0.000    0.000    0.000 
#
# Total GULP energy -223399.014127 kJ/mol
# GULP energy per Si atom -12411.056340 kJ/mol
# Density = 2.157947 g / cm^3
# Si number density = 21.628696 Si / 1000 Ang^3
#
#
#
# Elastic Constant Matrix: (Units=GPa)
#
#
# Indices 1 2 3 4 5 6 
#
# 1 91.5804 39.3686 0.0876 0.0000 -3.2542 0.0000
# 2 39.3686 120.5361 18.0092 0.0000 -28.1367 0.0000
# 3 0.0876 18.0092 90.1512 0.0000 -7.3776 0.0000
# 4 0.0000 0.0000 0.0000 32.4228 0.0000 -2.0447
# 5 -3.2542 -28.1367 -7.3776 0.0000 35.0073 0.0000
# 6 0.0000 0.0000 0.0000 -2.0447 0.0000 41.7317
#
#
#
# Elastic Compliance Matrix: (Units=1/GPa)
#
#
# Indices 1 2 3 4 5 6 
#
# 1 0.012957 -0.004957 0.000763 0.000000 -0.002619 0.000000
# 2 -0.004957 0.012284 -0.001708 0.000000 0.009052 0.000000
# 3 0.000763 -0.001708 0.011525 0.000000 0.001127 0.000000
# 4 0.000000 0.000000 0.000000 0.030938 0.000000 0.001516
# 5 -0.002619 0.009052 0.001127 0.000000 0.035835 0.000000
# 6 0.000000 0.000000 0.000000 0.001516 0.000000 0.024037
#
#
# Mechanical properties :
#
#
# Convention : Reuss Voigt Hill
#
# Bulk Modulus (GPa) = 40.06218 46.35538 43.20878
# Shear Modulus (GPa) = 33.85246 38.15252 36.00249
#
# Velocity S-wave (km/s) = 3.96051 4.20453 4.08434
# Velocity P-wave (km/s) = 6.28308 6.71190 6.50103
#
# Compressibility (1/GPa) = 0.02496120
#
# Stress axis : x y z
#
# Youngs Moduli (GPa) = 77.18096 81.40950 86.76633
#
# Poissons Ratio (x) = 0.40356 -0.06623
# Poissons Ratio (y) = 0.38260 0.14822
# Poissons Ratio (z) = -0.05892 0.13907
#
# Static dielectric constant tensor:
#      x y z
#    x 3.996720 0.000000 0.062010 
#    y 0.000000 3.891820 0.000000 
#    z 0.062010 0.000000 3.983170 
# 
# 
# High freq. dielectric constant tensor:
#      x y z
#    x 1.859710 0.000000 0.006010 
#    y 0.000000 1.860440 0.000000 
#    z 0.006010 0.000000 1.863220 
# 
# From -- ./inp_files/23988.got.cif
#   From: 2010.06.25/outbox.cif.g09.slc.cpg/sg12_12_cif.got.tgz:23988.got - 2010.06.28 00:19:55.
