data_PCOD8115292
_publ_section_title
;
Structure prediction by ZEFSAII (Michael W. Deem and Ramdas Pophale) SiO2 
 PCOD8115292
Probable space group: C 2/M
;
_chemical_formula_sum "Si O2"
_cell_formula_units_Z 56
_cell_length_a 19.784346
_cell_length_b 8.373078
_cell_length_c 25.979960
_cell_angle_alpha 90.000000
_cell_angle_beta 141.053523
_cell_angle_gamma 90.000000
_cell_volume 2705.301319
_symmetry_space_group_name_H-M "C 2/M"
_symmetry_group_IT_number 12
_symmetry_cell_setting 'monoclinic'
loop_
_space_group_symop_operation_xyz
x,y,z
-x,y,-z
-x,-y,-z
x,-y,z
1/2+x,1/2+y,z
1/2-x,1/2+y,-z
1/2-x,1/2-y,-z
1/2+x,1/2-y,z
loop_
_atom_site_type_symbol
_atom_site_label
_atom_site_fract_x
_atom_site_fract_y
_atom_site_fract_z
Si Si1 0.369506 0.686508 0.070213
Si Si2 0.260852 0.314731 0.749576
Si Si3 0.064864 0.817028 0.691618
Si Si4 0.976316 0.186621 0.929910
Si Si5 0.738952 0.814313 0.361706
Si Si6 0.996669 0.684820 0.239406
Si Si7 0.844923 0.685563 0.520594
O O1 0.374191 0.500000 0.086655
O O2 0.420826 0.721022 0.044875
O O3 0.435225 0.786758 0.150303
O O4 0.250000 0.750000 0.000000
O O5 0.278216 0.500000 0.746558
O O6 0.160050 0.294063 0.727314
O O7 0.367944 0.241808 0.840013
O O8 0.235637 0.221067 0.682365
O O9 0.056269 0.789525 0.747407
O O10 0.953975 0.776359 0.598049
O O11 0.094413 0.000000 0.698394
O O12 0.955610 0.000000 0.925164
O O13 0.000000 0.264773 0.000000
O O14 0.618778 0.759556 0.304211
O O15 0.819085 0.714557 0.445387
O O16 0.756564 0.000000 0.383324
O O17 0.989978 0.500000 0.250956
O O18 0.861556 0.500000 0.541893
O O19 0.750000 0.750000 0.500000
#
# Coordination Sequence:
#
# PCOD8115292 Si02
#       7
#     8   8   8   8   8   8   8
#     4  11  23  40  64  96 131 168 215 267 323 382
#     4  11  23  42  67  94 130 172 218 264 321 388
#     4  12  26  43  65  96 133 169 215 268 323 384
#     4   9  20  39  63  91 125 168 211 257 314 379
#     4  11  23  41  67  95 129 170 215 266 323 381
#     4  11  23  41  66  93 128 172 218 266 321 381
#     4  12  24  41  66  97 130 167 215 266 324 384
#
# _framework density 20.700095999999998
#
# number of rings (size 3 to 8) (size 9 to 14) (size 15 to 20)
#    0.000    1.000    2.857    4.286    2.000    1.714 
#    0.000    2.857    0.000    3.429    0.000    0.000 
#    0.000    0.000    0.000    0.000    0.000    0.000 
#
# Total GULP energy -347385.071510 kJ/mol
# GULP energy per Si atom -12406.609697 kJ/mol
# Density = 2.065298 g / cm^3
# Si number density = 20.700096 Si / 1000 Ang^3
#
#
#
# Elastic Constant Matrix: (Units=GPa)
#
#
# Indices 1 2 3 4 5 6 
#
# 1 116.4382 11.8796 41.6993 0.0000 -3.4043 0.0001
# 2 11.8796 56.4598 14.9894 0.0001 0.6134 0.0006
# 3 41.6993 14.9894 105.9661 0.0001 -11.5723 0.0000
# 4 0.0000 0.0001 0.0001 30.4006 0.0000 -1.0536
# 5 -3.4043 0.6134 -11.5723 0.0000 44.5128 0.0001
# 6 0.0001 0.0006 0.0000 -1.0536 0.0001 32.9518
#
#
#
# Elastic Compliance Matrix: (Units=1/GPa)
#
#
# Indices 1 2 3 4 5 6 
#
# 1 0.010065 -0.001099 -0.003828 0.000000 -0.000210 0.000000
# 2 -0.001099 0.018563 -0.002296 0.000000 -0.000937 0.000000
# 3 -0.003828 -0.002296 0.011568 0.000000 0.002746 0.000000
# 4 0.000000 0.000000 0.000000 0.032931 0.000000 0.001053
# 5 -0.000210 -0.000937 0.002746 0.000000 0.023176 0.000000
# 6 0.000000 0.000000 0.000000 0.001053 0.000000 0.030381
#
#
# Mechanical properties :
#
#
# Convention : Reuss Voigt Hill
#
# Bulk Modulus (GPa) = 38.83498 46.22229 42.52864
# Shear Modulus (GPa) = 33.39720 35.59276 34.49498
#
# Velocity S-wave (km/s) = 4.02105 4.15112 4.08661
# Velocity P-wave (km/s) = 6.35295 6.73452 6.54652
#
# Compressibility (1/GPa) = 0.02574998
#
# Stress axis : x y z
#
# Youngs Moduli (GPa) = 99.35171 53.87174 86.44450
#
# Poissons Ratio (x) = 0.05921 0.33094
# Poissons Ratio (y) = 0.10920 0.19843
# Poissons Ratio (z) = 0.38035 0.12366
#
# Static dielectric constant tensor:
#      x y z
#    x 3.726260 0.000000 -0.092100 
#    y 0.000000 3.732490 0.000000 
#    z -0.092100 0.000000 3.943520 
# 
# 
# High freq. dielectric constant tensor:
#      x y z
#    x 1.816500 0.000000 -0.005420 
#    y 0.000000 1.804310 0.000000 
#    z -0.005420 0.000000 1.821630 
# 
# From -- ./inp_files/363149.got.cif
#   From: 2010.06.25/outbox.cif.g09.slc.cpg/sg12_182_cif.got.tgz:363149.got - 2010.06.28 00:19:55.
