data_PCOD8115488
_publ_section_title
;
Structure prediction by ZEFSAII (Michael W. Deem and Ramdas Pophale) SiO2 
 PCOD8115488
Probable space group: C 2/M
;
_chemical_formula_sum "Si O2"
_cell_formula_units_Z 32
_cell_length_a 10.817942
_cell_length_b 21.407286
_cell_length_c 6.231881
_cell_angle_alpha 90.000000
_cell_angle_beta 71.244090
_cell_angle_gamma 90.000000
_cell_volume 1366.558216
_symmetry_space_group_name_H-M "C 2/M"
_symmetry_group_IT_number 12
_symmetry_cell_setting 'monoclinic'
loop_
_space_group_symop_operation_xyz
x,y,z
-x,y,-z
-x,-y,-z
x,-y,z
1/2+x,1/2+y,z
1/2-x,1/2+y,-z
1/2-x,1/2-y,-z
1/2+x,1/2-y,z
loop_
_atom_site_type_symbol
_atom_site_label
_atom_site_fract_x
_atom_site_fract_y
_atom_site_fract_z
Si Si1 0.780502 0.567773 0.425776
Si Si2 0.917718 0.207773 0.853573
Si Si3 0.328031 0.832485 0.766946
Si Si4 0.500000 0.102528 0.000000
Si Si5 0.000000 0.889375 0.500000
O O1 0.795372 0.500000 0.536513
O O2 0.809460 0.626971 0.562470
O O3 0.631741 0.570220 0.422161
O O4 0.878002 0.564304 0.167065
O O5 0.866625 0.259090 0.707490
O O6 0.011202 0.156347 0.697813
O O7 0.797477 0.167524 0.011670
O O8 0.000000 0.240348 0.000000
O O9 0.450884 0.858585 0.825476
#
# Coordination Sequence:
#
# PCOD8115488 Si02
#       5
#     8   8   8   4   4
#     4  12  28  48  71 103 144 191 241 287 345 424
#     4  11  23  44  74 107 142 178 236 298 359 420
#     4  11  25  44  73 105 142 187 232 290 358 421
#     4  12  25  46  68 104 142 190 233 286 356 410
#     4  12  25  46  76 106 137 186 240 296 354 408
#
# _framework density 23.416492999999999
#
# number of rings (size 3 to 8) (size 9 to 14) (size 15 to 20)
#    0.000    0.500    6.250    1.500    3.500    4.000 
#    0.000    1.250    0.000    0.000    0.000    0.000 
#    0.000    0.000    0.000    0.000    0.000    0.000 
#
# Total GULP energy -198228.876185 kJ/mol
# GULP energy per Si atom -12389.304762 kJ/mol
# Density = 2.336320 g / cm^3
# Si number density = 23.416493 Si / 1000 Ang^3
#
#
#
# Elastic Constant Matrix: (Units=GPa)
#
#
# Indices 1 2 3 4 5 6 
#
# 1 139.4990 34.7620 43.9384 0.0000 -19.2424 0.0000
# 2 34.7620 127.5167 56.4059 0.0000 -9.7730 0.0000
# 3 43.9384 56.4059 82.0139 0.0000 -21.3793 0.0000
# 4 0.0000 0.0000 0.0000 14.8646 0.0000 19.4011
# 5 -19.2424 -9.7730 -21.3793 0.0000 46.0963 0.0000
# 6 0.0000 0.0000 0.0000 19.4011 0.0000 -11.4620
#
#
#
# Elastic Compliance Matrix: (Units=1/GPa)
#
#
# Indices 1 2 3 4 5 6 
#
# 1 0.008763 -0.000546 -0.003863 0.000000 0.001751 0.000000
# 2 -0.000546 0.011382 -0.007924 0.000000 -0.001490 0.000000
# 3 -0.003863 -0.007924 0.021447 0.000000 0.006655 0.000000
# 4 0.000000 0.000000 0.000000 0.020963 0.000000 0.035482
# 5 0.001751 -0.001490 0.006655 0.000000 0.025195 0.000000
# 6 0.000000 0.000000 0.000000 0.035482 0.000000 -0.027186
#
#
# Mechanical properties :
#
#
# Convention : Reuss Voigt Hill
#
# Bulk Modulus (GPa) = 59.07942 68.80469 63.94206
# Shear Modulus (GPa) = 55.02336 24.16134 39.59235
#
# Velocity S-wave (km/s) = 4.85270 3.21566 4.11638
# Velocity P-wave (km/s) = 7.52880 6.57526 7.06813
#
# Compressibility (1/GPa) = 0.01692637
#
# Stress axis : x y z
#
# Youngs Moduli (GPa) = 114.12017 87.85961 46.62683
#
# Poissons Ratio (x) = 0.04797 0.18011
# Poissons Ratio (y) = 0.06231 0.36946
# Poissons Ratio (z) = 0.44081 0.69618
#
# Static dielectric constant tensor:
#      x y z
#    x 4.311780 0.000000 -0.281410 
#    y 0.000000 4.030220 0.000000 
#    z -0.281410 0.000000 4.019390 
# 
# 
# High freq. dielectric constant tensor:
#      x y z
#    x 1.944550 0.000000 -0.023690 
#    y 0.000000 1.918370 0.000000 
#    z -0.023690 0.000000 1.912920 
# 
# From -- ./inp_files/6865.got.cif
#   From: 2010.06.25/outbox.cif.g09.slc.cpg/sg12_4_cif.got.tgz:6865.got - 2010.06.28 00:19:55.
