data_PCOD8115551
_publ_section_title
;
Structure prediction by ZEFSAII (Michael W. Deem and Ramdas Pophale) SiO2 
 PCOD8115551
Probable space group: C 2/M
;
_chemical_formula_sum "Si O2"
_cell_formula_units_Z 56
_cell_length_a 16.810639
_cell_length_b 13.773872
_cell_length_c 13.886066
_cell_angle_alpha 90.000000
_cell_angle_beta 51.509247
_cell_angle_gamma 90.000000
_cell_volume 2516.631358
_symmetry_space_group_name_H-M "C 2/M"
_symmetry_group_IT_number 12
_symmetry_cell_setting 'monoclinic'
loop_
_space_group_symop_operation_xyz
x,y,z
-x,y,-z
-x,-y,-z
x,-y,z
1/2+x,1/2+y,z
1/2-x,1/2+y,-z
1/2-x,1/2-y,-z
1/2+x,1/2-y,z
loop_
_atom_site_type_symbol
_atom_site_label
_atom_site_fract_x
_atom_site_fract_y
_atom_site_fract_z
Si Si1 0.177939 0.267639 0.465115
Si Si2 0.743925 0.111675 0.712047
Si Si3 0.530814 0.793451 0.874449
Si Si4 0.625453 0.394273 0.209704
Si Si5 0.277440 0.886323 0.749243
Si Si6 0.530424 0.802722 0.288415
Si Si7 0.402001 0.610221 0.982476
O O1 0.250000 0.250000 0.500000
O O2 0.166892 0.162607 0.419101
O O3 0.227455 0.342722 0.353096
O O4 0.075233 0.320033 0.577369
O O5 0.647322 0.180767 0.767124
O O6 0.773697 0.118735 0.801791
O O7 0.725310 0.000000 0.694033
O O8 0.471589 0.832402 0.823730
O O9 0.503714 0.677695 0.904298
O O10 0.500000 0.844586 0.000000
O O11 0.576065 0.500000 0.269170
O O12 0.543444 0.312452 0.293761
O O13 0.657852 0.386994 0.073919
O O14 0.380887 0.861500 0.727251
O O15 0.268580 0.000000 0.748129
O O16 0.179350 0.846058 0.880921
O O17 0.437118 0.500000 0.979350
#
# Coordination Sequence:
#
# PCOD8115551 Si02
#       7
#     8   8   8   8   8   8   8
#     4  12  25  46  66  96 135 174 222 273 332 396
#     4  11  24  43  67  97 135 175 220 275 333 397
#     4  11  24  40  66 100 137 176 218 271 340 397
#     4   9  20  40  68  97 129 169 220 275 331 393
#     4  11  25  45  71 100 132 176 225 277 336 395
#     4  11  24  41  70  97 131 174 225 277 327 397
#     4   9  21  42  69 100 132 171 221 276 335 399
#
# _framework density 22.251967
#
# number of rings (size 3 to 8) (size 9 to 14) (size 15 to 20)
#    0.000    1.429    2.857    1.286    2.000    4.571 
#    0.000    2.143    0.000    0.000    0.000    0.000 
#    0.000    0.000    0.000    0.000    0.000    0.000 
#
# Total GULP energy -346957.546141 kJ/mol
# GULP energy per Si atom -12391.340934 kJ/mol
# Density = 2.220132 g / cm^3
# Si number density = 22.251967 Si / 1000 Ang^3
#
#
#
# Elastic Constant Matrix: (Units=GPa)
#
#
# Indices 1 2 3 4 5 6 
#
# 1 122.5131 23.1776 41.6730 0.0000 20.5430 0.0000
# 2 23.1776 91.5605 42.2463 0.0000 3.5813 0.0000
# 3 41.6730 42.2463 108.1583 0.0000 12.6455 0.0000
# 4 0.0000 0.0000 0.0000 28.0557 0.0000 -1.5152
# 5 20.5430 3.5813 12.6455 0.0000 40.1020 0.0000
# 6 0.0000 0.0000 0.0000 -1.5152 0.0000 29.1678
#
#
#
# Elastic Compliance Matrix: (Units=1/GPa)
#
#
# Indices 1 2 3 4 5 6 
#
# 1 0.010065 -0.001000 -0.003006 0.000000 -0.004119 0.000000
# 2 -0.001000 0.013431 -0.004963 0.000000 0.000878 0.000000
# 3 -0.003006 -0.004963 0.012574 0.000000 -0.001982 0.000000
# 4 0.000000 0.000000 0.000000 0.035744 0.000000 0.001857
# 5 -0.004119 0.000878 -0.001982 0.000000 0.027593 0.000000
# 6 0.000000 0.000000 0.000000 0.001857 0.000000 0.034381
#
#
# Mechanical properties :
#
#
# Convention : Reuss Voigt Hill
#
# Bulk Modulus (GPa) = 55.15255 59.60287 57.37771
# Shear Modulus (GPa) = 31.69201 33.80744 32.74972
#
# Velocity S-wave (km/s) = 3.77800 3.90205 3.84052
# Velocity P-wave (km/s) = 6.62347 6.86622 6.74593
#
# Compressibility (1/GPa) = 0.01813153
#
# Stress axis : x y z
#
# Youngs Moduli (GPa) = 99.35835 74.45684 79.52761
#
# Poissons Ratio (x) = 0.07444 0.23904
# Poissons Ratio (y) = 0.09933 0.39473
# Poissons Ratio (z) = 0.29865 0.36956
#
# Static dielectric constant tensor:
#      x y z
#    x 4.169650 0.000000 0.382510 
#    y 0.000000 4.042900 0.000000 
#    z 0.382510 0.000000 4.176270 
# 
# 
# High freq. dielectric constant tensor:
#      x y z
#    x 1.890300 0.000000 0.024650 
#    y 0.000000 1.867580 0.000000 
#    z 0.024650 0.000000 1.870290 
# 
# From -- ./inp_files/225171.got.cif
#   From: 2010.06.25/outbox.cif.g09.slc.cpg/sg12_113_cif.got.tgz:225171.got - 2010.06.28 00:19:55.
