data_PCOD8115036
_publ_section_title
;
Structure prediction by ZEFSAII (Michael W. Deem and Ramdas Pophale) SiO2 
 PCOD8115036
Probable space group: C 2/M
;
_chemical_formula_sum "Si O2"
_cell_formula_units_Z 48
_cell_length_a 22.556380
_cell_length_b 17.432872
_cell_length_c 11.006046
_cell_angle_alpha 90.000000
_cell_angle_beta 30.491218
_cell_angle_gamma 90.000000
_cell_volume 2195.965510
_symmetry_space_group_name_H-M "C 2/M"
_symmetry_group_IT_number 12
_symmetry_cell_setting 'monoclinic'
loop_
_space_group_symop_operation_xyz
x,y,z
-x,y,-z
-x,-y,-z
x,-y,z
1/2+x,1/2+y,z
1/2-x,1/2+y,-z
1/2-x,1/2-y,-z
1/2+x,1/2-y,z
loop_
_atom_site_type_symbol
_atom_site_label
_atom_site_fract_x
_atom_site_fract_y
_atom_site_fract_z
Si Si1 0.136020 0.836050 0.779625
Si Si2 0.752522 0.816389 0.666502
Si Si3 0.559905 0.869312 0.515405
Si Si4 0.985183 0.194477 0.392295
Si Si5 0.541356 0.086234 0.057731
Si Si6 0.821168 0.911529 0.068615
O O1 0.198417 0.852945 0.543346
O O2 0.201497 0.767629 0.734468
O O3 0.159610 0.911378 0.819437
O O4 0.000000 0.815758 0.000000
O O5 0.853436 0.819127 0.586277
O O6 0.655557 0.869363 0.897508
O O7 0.500000 0.907004 0.500000
O O8 0.499207 0.786328 0.640486
O O9 0.544679 0.911473 0.673306
O O10 0.698195 0.874458 0.244760
O O11 0.000000 0.161866 0.500000
O O12 0.077601 0.146949 0.151478
O O13 0.575750 0.000000 0.967989
O O14 0.500000 0.122947 0.000000
O O15 0.833551 0.000000 0.000808
#
# Coordination Sequence:
#
# PCOD8115036 Si02
#       6
#     8   8   8   8   8   8
#     4  11  22  41  67 100 133 175 226 278 334 406
#     4  11  23  40  70  99 129 177 227 277 337 403
#     4  11  26  47  74  99 133 180 238 279 334 403
#     4  11  26  45  70  98 135 179 226 279 336 403
#     4  11  25  43  66  99 139 176 221 283 343 402
#     4  12  26  45  69 101 140 176 221 284 345 406
#
# _framework density 21.858267999999999
#
# number of rings (size 3 to 8) (size 9 to 14) (size 15 to 20)
#    0.000    0.833    3.333    3.000    4.667    6.000 
#    0.000    0.000    0.000    0.000    0.000    0.000 
#    0.000    0.000    0.000    0.000    0.000    0.000 
#
# Total GULP energy -297420.121655 kJ/mol
# GULP energy per Si atom -12392.505069 kJ/mol
# Density = 2.180852 g / cm^3
# Si number density = 21.858268 Si / 1000 Ang^3
#
#
#
# Elastic Constant Matrix: (Units=GPa)
#
#
# Indices 1 2 3 4 5 6 
#
# 1 165.9211 18.6549 39.6816 0.0000 -12.2914 0.0000
# 2 18.6549 85.7814 25.0342 0.0000 -3.3674 0.0000
# 3 39.6816 25.0342 85.1243 0.0000 -21.3906 0.0000
# 4 0.0000 0.0000 0.0000 -15.6855 0.0000 9.7477
# 5 -12.2914 -3.3674 -21.3906 0.0000 42.5852 0.0000
# 6 0.0000 0.0000 0.0000 9.7477 0.0000 14.5389
#
#
#
# Elastic Compliance Matrix: (Units=1/GPa)
#
#
# Indices 1 2 3 4 5 6 
#
# 1 0.006820 -0.000625 -0.002876 0.000000 0.000474 0.000000
# 2 -0.000625 0.012847 -0.003750 0.000000 -0.001048 0.000000
# 3 -0.002876 -0.003750 0.015917 0.000000 0.006868 0.000000
# 4 0.000000 0.000000 0.000000 -0.045003 0.000000 0.030172
# 5 0.000474 -0.001048 0.006868 0.000000 0.026986 0.000000
# 6 0.000000 0.000000 0.000000 0.030172 0.000000 0.048552
#
#
# Mechanical properties :
#
#
# Convention : Reuss Voigt Hill
#
# Bulk Modulus (GPa) = 47.43585 55.95200 51.69393
# Shear Modulus (GPa) = 57.04517 25.18480 41.11499
#
# Velocity S-wave (km/s) = 5.11414 3.39807 4.34173
# Velocity P-wave (km/s) = 7.52471 6.40695 6.98821
#
# Compressibility (1/GPa) = 0.02108110
#
# Stress axis : x y z
#
# Youngs Moduli (GPa) = 146.62144 77.84062 62.82533
#
# Poissons Ratio (x) = 0.04866 0.18070
# Poissons Ratio (y) = 0.09167 0.23560
# Poissons Ratio (z) = 0.42173 0.29191
#
# Static dielectric constant tensor:
#      x y z
#    x 4.360190 0.000000 0.091830 
#    y 0.000000 3.708050 0.000000 
#    z 0.091830 0.000000 4.060900 
# 
# 
# High freq. dielectric constant tensor:
#      x y z
#    x 1.876220 0.000000 -0.003060 
#    y 0.000000 1.840150 0.000000 
#    z -0.003060 0.000000 1.864500 
# 
# From -- ./inp_files/177296.got.cif
#   From: 2010.06.25/outbox.cif.g09.slc.cpg/sg12_89_cif.got.tgz:177296.got - 2010.06.28 00:19:55.
