data_PCOD8115966
_publ_section_title
;
Structure prediction by ZEFSAII (Michael W. Deem and Ramdas Pophale) SiO2 
 PCOD8115966
Probable space group: C 2/M
;
_chemical_formula_sum "Si O2"
_cell_formula_units_Z 48
_cell_length_a 19.589247
_cell_length_b 10.037352
_cell_length_c 16.232387
_cell_angle_alpha 90.000000
_cell_angle_beta 109.186381
_cell_angle_gamma 90.000000
_cell_volume 3014.396188
_symmetry_space_group_name_H-M "C 2/M"
_symmetry_group_IT_number 12
_symmetry_cell_setting 'monoclinic'
loop_
_space_group_symop_operation_xyz
x,y,z
-x,y,-z
-x,-y,-z
x,-y,z
1/2+x,1/2+y,z
1/2-x,1/2+y,-z
1/2-x,1/2-y,-z
1/2+x,1/2-y,z
loop_
_atom_site_type_symbol
_atom_site_label
_atom_site_fract_x
_atom_site_fract_y
_atom_site_fract_z
Si Si1 0.522898 0.350986 0.263947
Si Si2 0.189566 0.843677 0.938568
Si Si3 0.968026 0.158282 0.071716
Si Si4 0.605947 0.148723 0.600797
Si Si5 0.359186 0.646485 0.258984
Si Si6 0.441642 0.850815 0.593601
O O1 0.556503 0.500000 0.280496
O O2 0.518177 0.295445 0.168366
O O3 0.442614 0.355440 0.267586
O O4 0.573016 0.252344 0.337802
O O5 0.114457 0.795564 0.949672
O O6 0.187853 0.817090 0.839861
O O7 0.204626 0.000000 0.962820
O O8 0.250000 0.750000 0.000000
O O9 0.969481 0.000000 0.071011
O O10 0.000000 0.219498 0.000000
O O11 0.655793 0.248519 0.673693
O O12 0.606081 0.191568 0.504705
O O13 0.525026 0.151635 0.602195
O O14 0.637827 0.000000 0.622942
O O15 0.337176 0.500000 0.282803
O O16 0.420390 0.000000 0.613837
#
# Coordination Sequence:
#
# PCOD8115966 Si02
#       6
#     8   8   8   8   8   8
#     4   8  13  21  34  51  69  93 126 158 188 224
#     4   9  17  28  42  60  81 106 135 166 201 238
#     4   8  14  26  43  60  79 105 137 170 199 230
#     4   8  13  20  30  45  66  95 127 152 180 224
#     4   8  14  23  33  48  71  96 123 156 191 225
#     4   8  13  20  29  44  69  97 122 150 185 226
#
# _framework density 15.923586999999999
#
# number of rings (size 3 to 8) (size 9 to 14) (size 15 to 20)
#    0.000    3.833    0.000    3.000    0.000    1.333 
#    0.000    5.833    0.000    2.000    0.000    0.000 
#    0.000    1.333    0.000    3.000    0.000    6.333 
#
# Total GULP energy -297355.095403 kJ/mol
# GULP energy per Si atom -12389.795642 kJ/mol
# Density = 1.588734 g / cm^3
# Si number density = 15.923587 Si / 1000 Ang^3
#
#
#
# Elastic Constant Matrix: (Units=GPa)
#
#
# Indices 1 2 3 4 5 6 
#
# 1 22.9685 22.2301 32.0078 0.0000 -0.9220 0.0000
# 2 22.2301 97.5731 92.2141 0.0000 4.9109 0.0000
# 3 32.0078 92.2141 156.4276 0.0000 -1.5442 0.0000
# 4 0.0000 0.0000 0.0000 33.2635 0.0000 7.2074
# 5 -0.9220 4.9109 -1.5442 0.0000 15.0777 0.0000
# 6 0.0000 0.0000 0.0000 7.2074 0.0000 8.7058
#
#
#
# Elastic Compliance Matrix: (Units=1/GPa)
#
#
# Indices 1 2 3 4 5 6 
#
# 1 0.062193 -0.005459 -0.009462 0.000000 0.004612 0.000000
# 2 -0.005459 0.024891 -0.013654 0.000000 -0.009839 0.000000
# 3 -0.009462 -0.013654 0.016432 0.000000 0.005551 0.000000
# 4 0.000000 0.000000 0.000000 0.036635 0.000000 -0.030329
# 5 0.004612 -0.009839 0.005551 0.000000 0.070378 0.000000
# 6 0.000000 0.000000 0.000000 -0.030329 0.000000 0.139974
#
#
# Mechanical properties :
#
#
# Convention : Reuss Voigt Hill
#
# Bulk Modulus (GPa) = 21.56712 63.31925 42.44318
# Shear Modulus (GPa) = 11.81731 20.11056 15.96393
#
# Velocity S-wave (km/s) = 2.72715 3.55764 3.16972
# Velocity P-wave (km/s) = 4.84665 7.53170 6.33311
#
# Compressibility (1/GPa) = 0.04636688
#
# Stress axis : x y z
#
# Youngs Moduli (GPa) = 16.07909 40.17459 60.85550
#
# Poissons Ratio (x) = 0.21932 0.57581
# Poissons Ratio (y) = 0.08778 0.83089
# Poissons Ratio (z) = 0.15214 0.54853
#
# Static dielectric constant tensor:
#      x y z
#    x 2.447650 0.000000 -0.138500 
#    y 0.000000 3.194220 0.000000 
#    z -0.138500 0.000000 3.449480 
# 
# 
# High freq. dielectric constant tensor:
#      x y z
#    x 1.532800 0.000000 -0.000040 
#    y 0.000000 1.602310 0.000000 
#    z -0.000040 0.000000 1.625630 
# 
# From -- ./inp_files/213526.got.cif
#   From: 2010.06.25/outbox.cif.g09.slc.cpg/sg12_107_cif.got.tgz:213526.got - 2010.06.28 00:19:55.
