data_PCOD8115918
_publ_section_title
;
Structure prediction by ZEFSAII (Michael W. Deem and Ramdas Pophale) SiO2 
 PCOD8115918
Probable space group: C 2/M
;
_chemical_formula_sum "Si O2"
_cell_formula_units_Z 28
_cell_length_a 8.715546
_cell_length_b 5.167485
_cell_length_c 30.904557
_cell_angle_alpha 90.000000
_cell_angle_beta 111.817581
_cell_angle_gamma 90.000000
_cell_volume 1292.165974
_symmetry_space_group_name_H-M "C 2/M"
_symmetry_group_IT_number 12
_symmetry_cell_setting 'monoclinic'
loop_
_space_group_symop_operation_xyz
x,y,z
-x,y,-z
-x,-y,-z
x,-y,z
1/2+x,1/2+y,z
1/2-x,1/2+y,-z
1/2-x,1/2-y,-z
1/2+x,1/2-y,z
loop_
_atom_site_type_symbol
_atom_site_label
_atom_site_fract_x
_atom_site_fract_y
_atom_site_fract_z
Si Si1 0.331349 0.000000 0.588389
Si Si2 0.832815 0.500000 0.837726
Si Si3 0.306171 0.500000 0.980858
Si Si4 0.881936 0.500000 0.446724
Si Si5 0.211371 0.500000 0.872722
Si Si6 0.310519 0.500000 0.269522
Si Si7 0.975895 0.500000 0.695275
O O1 0.233308 0.749374 0.562715
O O2 0.512691 0.000000 0.586204
O O3 0.350773 0.000000 0.641991
O O4 0.019495 0.500000 0.839757
O O5 0.802536 0.249002 0.863392
O O6 0.709855 0.500000 0.784196
O O7 0.224652 0.500000 0.925444
O O8 0.500000 0.500000 0.000000
O O9 0.250000 0.750000 0.000000
O O10 0.000000 0.500000 0.500000
O O11 0.130549 0.500000 0.272278
O O12 0.408858 0.249358 0.294966
#
# Coordination Sequence:
#
# PCOD8115918 Si02
#       7
#     4   4   4   4   4   4   4
#     4  12  24  43  65  94 129 168 213 264 319 380
#     4  12  24  42  64  92 127 165 210 262 317 379
#     4  12  24  43  67  96 130 169 213 262 316 378
#     4  12  24  42  66  96 130 170 214 264 319 380
#     4  12  25  43  66  96 129 169 212 262 318 378
#     4  12  24  42  64  92 124 165 211 262 318 379
#     4  12  25  43  66  94 127 168 213 264 319 380
#
# _framework density 21.669044
#
# number of rings (size 3 to 8) (size 9 to 14) (size 15 to 20)
#    0.000    0.000    0.000   12.000    0.000    0.000 
#    0.000    0.000    0.000    0.000    0.000    0.000 
#    0.000    0.000    0.000    0.000    0.000    0.000 
#
# Total GULP energy -173754.416069 kJ/mol
# GULP energy per Si atom -12411.029719 kJ/mol
# Density = 2.161972 g / cm^3
# Si number density = 21.669044 Si / 1000 Ang^3
#
#
#
# Elastic Constant Matrix: (Units=GPa)
#
#
# Indices 1 2 3 4 5 6 
#
# 1 123.6245 54.2619 -9.7068 0.0000 3.4558 0.0000
# 2 54.2619 197.1069 21.4988 0.0000 6.1503 0.0000
# 3 -9.7068 21.4988 118.0403 0.0000 0.2813 0.0000
# 4 0.0000 0.0000 0.0000 30.2798 0.0000 -4.5984
# 5 3.4558 6.1503 0.2813 0.0000 41.7867 0.0000
# 6 0.0000 0.0000 0.0000 -4.5984 0.0000 26.0531
#
#
#
# Elastic Compliance Matrix: (Units=1/GPa)
#
#
# Indices 1 2 3 4 5 6 
#
# 1 0.009389 -0.002711 0.001267 0.000000 -0.000386 0.000000
# 2 -0.002711 0.005983 -0.001311 0.000000 -0.000648 0.000000
# 3 0.001267 -0.001311 0.008815 0.000000 0.000029 0.000000
# 4 0.000000 0.000000 0.000000 0.033935 0.000000 0.005990
# 5 -0.000386 -0.000648 0.000029 0.000000 0.024058 0.000000
# 6 0.000000 0.000000 0.000000 0.005990 0.000000 0.039440
#
#
# Mechanical properties :
#
#
# Convention : Reuss Voigt Hill
#
# Bulk Modulus (GPa) = 53.54398 63.43105 58.48752
# Shear Modulus (GPa) = 37.49372 44.47178 40.98275
#
# Velocity S-wave (km/s) = 4.16419 4.53517 4.35363
# Velocity P-wave (km/s) = 6.91984 7.53391 7.23340
#
# Compressibility (1/GPa) = 0.01867624
#
# Stress axis : x y z
#
# Youngs Moduli (GPa) = 106.50609 167.14377 113.44862
#
# Poissons Ratio (x) = 0.45311 -0.14371
# Poissons Ratio (y) = 0.28872 0.14874
# Poissons Ratio (z) = -0.13492 0.21913
#
# Static dielectric constant tensor:
#      x y z
#    x 4.061070 0.000000 -0.015830 
#    y 0.000000 4.110380 0.000000 
#    z -0.015830 0.000000 4.056970 
# 
# 
# High freq. dielectric constant tensor:
#      x y z
#    x 1.868630 0.000000 0.000000 
#    y 0.000000 1.874680 0.000000 
#    z 0.000000 0.000000 1.869120 
# 
# From -- ./inp_files/355279.got.cif
#   From: 2010.06.25/outbox.cif.g09.slc.cpg/sg12_178_cif.got.tgz:355279.got - 2010.06.28 00:19:55.
