data_PCOD8115034
_publ_section_title
;
Structure prediction by ZEFSAII (Michael W. Deem and Ramdas Pophale) SiO2 
 PCOD8115034
Probable space group: C 2/M
;
_chemical_formula_sum "Si O2"
_cell_formula_units_Z 64
_cell_length_a 14.287931
_cell_length_b 17.421270
_cell_length_c 11.666442
_cell_angle_alpha 90.000000
_cell_angle_beta 84.625902
_cell_angle_gamma 90.000000
_cell_volume 2891.175083
_symmetry_space_group_name_H-M "C 2/M"
_symmetry_group_IT_number 12
_symmetry_cell_setting 'monoclinic'
loop_
_space_group_symop_operation_xyz
x,y,z
-x,y,-z
-x,-y,-z
x,-y,z
1/2+x,1/2+y,z
1/2-x,1/2+y,-z
1/2-x,1/2-y,-z
1/2+x,1/2-y,z
loop_
_atom_site_type_symbol
_atom_site_label
_atom_site_fract_x
_atom_site_fract_y
_atom_site_fract_z
Si Si1 0.985095 0.361832 0.139665
Si Si2 0.023030 0.809484 0.810514
Si Si3 0.226665 0.661010 0.485651
Si Si4 0.424503 0.411955 0.409224
Si Si5 0.844918 0.586303 0.724016
Si Si6 0.305951 0.318766 0.857891
Si Si7 0.289168 0.659718 0.109854
Si Si8 0.311576 0.913897 0.285119
O O1 0.957561 0.280837 0.198498
O O2 0.897214 0.414671 0.184558
O O3 0.076369 0.392580 0.192857
O O4 0.000000 0.359671 0.000000
O O5 0.042327 0.852093 0.690064
O O6 0.097852 0.839764 0.895202
O O7 0.917058 0.819436 0.863936
O O8 0.250000 0.750000 0.500000
O O9 0.321992 0.611912 0.465721
O O10 0.160628 0.645249 0.382290
O O11 0.165994 0.631988 0.600898
O O12 0.500000 0.404417 0.500000
O O13 0.420549 0.500000 0.364355
O O14 0.859448 0.500000 0.676006
O O15 0.747743 0.590145 0.807384
O O16 0.262627 0.235707 0.833265
O O17 0.281232 0.376992 0.760088
O O18 0.259393 0.348977 0.981266
O O19 0.285593 0.000000 0.321299
#
# Coordination Sequence:
#
# PCOD8115034 Si02
#       8
#     8   8   8   8   8   8   8   8
#     4  12  26  46  72 105 145 192 243 292 352 430
#     4  12  23  41  70 105 138 184 240 290 352 426
#     4  12  26  48  72 103 138 184 238 291 357 433
#     4  11  25  45  71 101 142 188 234 297 363 427
#     4  12  26  45  72 102 142 189 232 293 364 428
#     4  11  23  40  66 100 137 183 234 289 344 413
#     4  11  22  41  66  97 139 184 233 286 347 414
#     4  12  26  45  70 103 142 180 231 294 354 422
#
# _framework density 22.136327999999999
#
# number of rings (size 3 to 8) (size 9 to 14) (size 15 to 20)
#    0.000    0.375    3.750    5.625    1.750    4.500 
#    0.000    1.250    0.000    4.125    0.000    0.000 
#    0.000    0.000    0.000    0.000    0.000    0.000 
#
# Total GULP energy -396757.951676 kJ/mol
# GULP energy per Si atom -12398.685990 kJ/mol
# Density = 2.208595 g / cm^3
# Si number density = 22.136328 Si / 1000 Ang^3
#
#
#
# Elastic Constant Matrix: (Units=GPa)
#
#
# Indices 1 2 3 4 5 6 
#
# 1 109.4569 5.0719 29.5891 0.0000 18.7046 0.0000
# 2 5.0719 110.3762 58.4694 0.0000 18.4789 0.0000
# 3 29.5891 58.4694 134.2118 0.0000 7.7698 0.0000
# 4 0.0000 0.0000 0.0000 23.6056 0.0000 -7.4599
# 5 18.7046 18.4789 7.7698 0.0000 33.2970 0.0000
# 6 0.0000 0.0000 0.0000 -7.4599 0.0000 21.5166
#
#
#
# Elastic Compliance Matrix: (Units=1/GPa)
#
#
# Indices 1 2 3 4 5 6 
#
# 1 0.010988 0.002202 -0.002994 0.000000 -0.006696 0.000000
# 2 0.002202 0.013267 -0.005846 0.000000 -0.007236 0.000000
# 3 -0.002994 -0.005846 0.010515 0.000000 0.002473 0.000000
# 4 0.000000 0.000000 0.000000 0.047576 0.000000 0.016495
# 5 -0.006696 -0.007236 0.002473 0.000000 0.037233 0.000000
# 6 0.000000 0.000000 0.000000 0.016495 0.000000 0.052194
#
#
# Mechanical properties :
#
#
# Convention : Reuss Voigt Hill
#
# Bulk Modulus (GPa) = 46.52734 60.03398 53.28066
# Shear Modulus (GPa) = 26.01277 33.07813 29.54545
#
# Velocity S-wave (km/s) = 3.43172 3.86980 3.65732
# Velocity P-wave (km/s) = 6.06353 6.86630 6.47737
#
# Compressibility (1/GPa) = 0.02149274
#
# Stress axis : x y z
#
# Youngs Moduli (GPa) = 91.01192 75.37424 95.10358
#
# Poissons Ratio (x) = -0.16599 0.28475
# Poissons Ratio (y) = -0.20042 0.55602
# Poissons Ratio (z) = 0.27250 0.44067
#
# Static dielectric constant tensor:
#      x y z
#    x 4.586170 0.000000 -0.222530 
#    y 0.000000 4.044880 0.000000 
#    z -0.222530 0.000000 4.204470 
# 
# 
# High freq. dielectric constant tensor:
#      x y z
#    x 1.879420 0.000000 0.007630 
#    y 0.000000 1.866100 0.000000 
#    z 0.007630 0.000000 1.881440 
# 
# From -- ./inp_files/146128.got.cif
#   From: 2010.06.25/outbox.cif.g09.slc.cpg/sg12_74_cif.got.tgz:146128.got - 2010.06.28 00:19:55.
