data_PCOD8115525
_publ_section_title
;
Structure prediction by ZEFSAII (Michael W. Deem and Ramdas Pophale) SiO2 
 PCOD8115525
Probable space group: C 2/M
;
_chemical_formula_sum "Si O2"
_cell_formula_units_Z 48
_cell_length_a 26.271714
_cell_length_b 9.051267
_cell_length_c 14.142722
_cell_angle_alpha 90.000000
_cell_angle_beta 138.313756
_cell_angle_gamma 90.000000
_cell_volume 2236.586965
_symmetry_space_group_name_H-M "C 2/M"
_symmetry_group_IT_number 12
_symmetry_cell_setting 'monoclinic'
loop_
_space_group_symop_operation_xyz
x,y,z
-x,y,-z
-x,-y,-z
x,-y,z
1/2+x,1/2+y,z
1/2-x,1/2+y,-z
1/2-x,1/2-y,-z
1/2+x,1/2-y,z
loop_
_atom_site_type_symbol
_atom_site_label
_atom_site_fract_x
_atom_site_fract_y
_atom_site_fract_z
Si Si1 0.377981 0.666662 0.838210
Si Si2 0.241346 0.168637 0.586483
Si Si3 0.492372 0.667698 0.834078
Si Si4 0.183494 0.325026 0.846592
Si Si5 0.013529 0.671940 0.674193
Si Si6 0.371877 0.328066 0.409097
O O1 0.349121 0.500000 0.813732
O O2 0.307071 0.776472 0.749251
O O3 0.413768 0.680651 0.782961
O O4 0.438377 0.710364 0.001276
O O5 0.250000 0.250000 0.500000
O O6 0.161341 0.193293 0.530508
O O7 0.254707 0.000000 0.581244
O O8 0.501302 0.500000 0.807262
O O9 0.492183 0.785306 0.750841
O O10 0.198167 0.500000 0.862039
O O11 0.183122 0.256495 0.741016
O O12 0.101503 0.285731 0.778646
O O13 0.250000 0.250000 0.000000
O O14 0.998370 0.500000 0.636480
O O15 0.957130 0.759291 0.524756
O O16 0.375259 0.500000 0.386120
#
# Coordination Sequence:
#
# PCOD8115525 Si02
#       6
#     8   8   8   8   8   8
#     4   9  19  36  57  85 122 162 209 258 306 369
#     4  11  24  39  59  89 126 164 209 259 309 370
#     4   9  19  36  59  88 122 163 208 254 310 374
#     4  11  26  46  68  96 129 164 209 264 319 378
#     4  11  24  41  64  94 127 161 208 263 314 374
#     4  11  25  44  66  94 129 169 214 262 314 376
#
# _framework density 21.461271
#
# number of rings (size 3 to 8) (size 9 to 14) (size 15 to 20)
#    0.000    1.667    0.000    4.500    2.333   12.667 
#    0.000    1.667    0.000    0.000    0.000    0.000 
#    0.000    0.000    0.000    0.000    0.000    0.000 
#
# Total GULP energy -297652.765875 kJ/mol
# GULP energy per Si atom -12402.198578 kJ/mol
# Density = 2.141242 g / cm^3
# Si number density = 21.461271 Si / 1000 Ang^3
#
#
#
# Elastic Constant Matrix: (Units=GPa)
#
#
# Indices 1 2 3 4 5 6 
#
# 1 62.3614 51.5643 41.0466 0.0000 1.9608 0.0000
# 2 51.5643 130.9686 68.9534 0.0000 8.9861 0.0000
# 3 41.0466 68.9534 118.6805 0.0000 7.8678 0.0000
# 4 0.0000 0.0000 0.0000 42.3946 0.0000 0.4072
# 5 1.9608 8.9861 7.8678 0.0000 37.5596 0.0000
# 6 0.0000 0.0000 0.0000 0.4072 0.0000 34.3846
#
#
#
# Elastic Compliance Matrix: (Units=1/GPa)
#
#
# Indices 1 2 3 4 5 6 
#
# 1 0.025256 -0.007770 -0.004316 0.000000 0.001445 0.000000
# 2 -0.007770 0.013455 -0.005013 0.000000 -0.001763 0.000000
# 3 -0.004316 -0.005013 0.012916 0.000000 -0.001281 0.000000
# 4 0.000000 0.000000 0.000000 0.023591 0.000000 -0.000279
# 5 0.001445 -0.001763 -0.001281 0.000000 0.027239 0.000000
# 6 0.000000 0.000000 0.000000 -0.000279 0.000000 0.029086
#
#
# Mechanical properties :
#
#
# Convention : Reuss Voigt Hill
#
# Bulk Modulus (GPa) = 57.37839 70.57101 63.97470
# Shear Modulus (GPa) = 29.14569 32.89751 31.02160
#
# Velocity S-wave (km/s) = 3.68918 3.91945 3.80606
# Velocity P-wave (km/s) = 6.70377 7.31007 7.01348
#
# Compressibility (1/GPa) = 0.01742817
#
# Stress axis : x y z
#
# Youngs Moduli (GPa) = 39.59429 74.32162 77.42177
#
# Poissons Ratio (x) = 0.57751 0.33417
# Poissons Ratio (y) = 0.30766 0.38812
# Poissons Ratio (z) = 0.17090 0.37258
#
# Static dielectric constant tensor:
#      x y z
#    x 3.874560 0.000000 0.089490 
#    y 0.000000 3.833680 0.000000 
#    z 0.089490 0.000000 4.009220 
# 
# 
# High freq. dielectric constant tensor:
#      x y z
#    x 1.841190 0.000000 0.001280 
#    y 0.000000 1.840880 0.000000 
#    z 0.001280 0.000000 1.857610 
# 
# From -- ./inp_files/244911.got.cif
#   From: 2010.06.25/outbox.cif.g09.slc.cpg/sg12_123_cif.got.tgz:244911.got - 2010.06.28 00:19:55.
