data_PCOD8115100
_publ_section_title
;
Structure prediction by ZEFSAII (Michael W. Deem and Ramdas Pophale) SiO2 
 PCOD8115100
Probable space group: C 2/M
;
_chemical_formula_sum "Si O2"
_cell_formula_units_Z 44
_cell_length_a 12.152753
_cell_length_b 20.446744
_cell_length_c 8.911934
_cell_angle_alpha 90.000000
_cell_angle_beta 66.355755
_cell_angle_gamma 90.000000
_cell_volume 2028.577177
_symmetry_space_group_name_H-M "C 2/M"
_symmetry_group_IT_number 12
_symmetry_cell_setting 'monoclinic'
loop_
_space_group_symop_operation_xyz
x,y,z
-x,y,-z
-x,-y,-z
x,-y,z
1/2+x,1/2+y,z
1/2-x,1/2+y,-z
1/2-x,1/2-y,-z
1/2+x,1/2-y,z
loop_
_atom_site_type_symbol
_atom_site_label
_atom_site_fract_x
_atom_site_fract_y
_atom_site_fract_z
Si Si1 0.043154 0.275779 0.744099
Si Si2 0.966052 0.869877 0.346321
Si Si3 0.750104 0.924977 0.309241
Si Si4 0.678108 0.802658 0.945409
Si Si5 0.320793 0.425906 0.935034
Si Si6 0.000000 0.635895 0.500000
O O1 0.002052 0.204028 0.716772
O O2 0.161175 0.273819 0.785904
O O3 0.065501 0.319294 0.586767
O O4 0.944509 0.312488 0.897919
O O5 0.825253 0.884746 0.393487
O O6 0.000000 0.882666 0.500000
O O7 0.042955 0.917868 0.197169
O O8 0.609281 0.906789 0.375421
O O9 0.758084 0.000000 0.351365
O O10 0.812804 0.910747 0.115734
O O11 0.740038 0.873167 0.891524
O O12 0.750000 0.750000 0.000000
O O13 0.276527 0.500000 0.925575
#
# Coordination Sequence:
#
# PCOD8115100 Si02
#       6
#     8   8   8   8   8   4
#     4  11  25  40  69 102 135 176 231 284 342 410
#     4  12  26  43  69 105 137 175 228 293 349 403
#     4  11  26  46  69  96 136 185 229 275 342 420
#     4  11  22  43  70 101 135 182 230 283 345 408
#     4  11  24  45  70 100 136 181 227 279 348 415
#     4  12  25  46  68 100 137 180 226 284 342 404
#
# _framework density 21.690079000000001
#
# number of rings (size 3 to 8) (size 9 to 14) (size 15 to 20)
#    0.000    0.727    4.545    2.455    5.091    3.636 
#    0.000    2.727    0.000    0.000    0.000    0.000 
#    0.000    0.000    0.000    0.000    0.000    0.000 
#
# Total GULP energy -272830.891515 kJ/mol
# GULP energy per Si atom -12401.404160 kJ/mol
# Density = 2.164071 g / cm^3
# Si number density = 21.690079 Si / 1000 Ang^3
#
#
#
# Elastic Constant Matrix: (Units=GPa)
#
#
# Indices 1 2 3 4 5 6 
#
# 1 122.2230 41.1535 56.3504 0.0000 14.6000 0.0000
# 2 41.1535 109.9118 37.3540 0.0000 2.7841 0.0000
# 3 56.3504 37.3540 109.7657 0.0000 14.7846 0.0000
# 4 0.0000 0.0000 0.0000 20.3781 0.0000 6.2796
# 5 14.6000 2.7841 14.7846 0.0000 39.5162 0.0000
# 6 0.0000 0.0000 0.0000 6.2796 0.0000 31.4502
#
#
#
# Elastic Compliance Matrix: (Units=1/GPa)
#
#
# Indices 1 2 3 4 5 6 
#
# 1 0.011518 -0.002658 -0.004698 0.000000 -0.002311 0.000000
# 2 -0.002658 0.010916 -0.002505 0.000000 0.001150 0.000000
# 3 -0.004698 -0.002505 0.012760 0.000000 -0.002862 0.000000
# 4 0.000000 0.000000 0.000000 0.052290 0.000000 -0.010441
# 5 -0.002311 0.001150 -0.002862 0.000000 0.027150 0.000000
# 6 0.000000 0.000000 0.000000 -0.010441 0.000000 0.033881
#
#
# Mechanical properties :
#
#
# Convention : Reuss Voigt Hill
#
# Bulk Modulus (GPa) = 64.62846 67.95736 66.29291
# Shear Modulus (GPa) = 28.83629 32.07174 30.45401
#
# Velocity S-wave (km/s) = 3.65014 3.84948 3.75113
# Velocity P-wave (km/s) = 6.90114 7.15242 7.02790
#
# Compressibility (1/GPa) = 0.01547306
#
# Stress axis : x y z
#
# Youngs Moduli (GPa) = 86.81702 91.61214 78.37068
#
# Poissons Ratio (x) = 0.24348 0.36815
# Poissons Ratio (y) = 0.23074 0.19633
# Poissons Ratio (z) = 0.40782 0.22950
#
# Static dielectric constant tensor:
#      x y z
#    x 4.239020 0.000000 -0.005640 
#    y 0.000000 3.918080 0.000000 
#    z -0.005640 0.000000 3.951180 
# 
# 
# High freq. dielectric constant tensor:
#      x y z
#    x 1.853860 0.000000 0.002410 
#    y 0.000000 1.853210 0.000000 
#    z 0.002410 0.000000 1.853550 
# 
# From -- ./inp_files/49199.got.cif
#   From: 2010.06.25/outbox.cif.g09.slc.cpg/sg12_25_cif.got.tgz:49199.got - 2010.06.28 00:19:55.
