data_PCOD8115730
_publ_section_title
;
Structure prediction by ZEFSAII (Michael W. Deem and Ramdas Pophale) SiO2 
 PCOD8115730
Probable space group: C 2/M
;
_chemical_formula_sum "Si O2"
_cell_formula_units_Z 32
_cell_length_a 16.142024
_cell_length_b 11.881238
_cell_length_c 11.192160
_cell_angle_alpha 90.000000
_cell_angle_beta 140.939492
_cell_angle_gamma 90.000000
_cell_volume 1352.605546
_symmetry_space_group_name_H-M "C 2/M"
_symmetry_group_IT_number 12
_symmetry_cell_setting 'monoclinic'
loop_
_space_group_symop_operation_xyz
x,y,z
-x,y,-z
-x,-y,-z
x,-y,z
1/2+x,1/2+y,z
1/2-x,1/2+y,-z
1/2-x,1/2-y,-z
1/2+x,1/2-y,z
loop_
_atom_site_type_symbol
_atom_site_label
_atom_site_fract_x
_atom_site_fract_y
_atom_site_fract_z
Si Si1 0.074973 0.500000 0.460419
Si Si2 0.654684 0.500000 0.134024
Si Si3 0.056346 0.303873 0.270982
Si Si4 0.311135 0.631113 0.419675
Si Si5 0.788021 0.762436 0.905716
O O1 0.236952 0.500000 0.637107
O O2 0.022359 0.389539 0.337618
O O3 0.000000 0.500000 0.500000
O O4 0.500000 0.500000 0.000000
O O5 0.696030 0.393182 0.103798
O O6 0.166359 0.353741 0.308890
O O7 0.090405 0.184325 0.372245
O O8 0.930948 0.291441 0.045890
O O9 0.346796 0.500000 0.439431
O O10 0.315472 0.698906 0.297915
O O11 0.750000 0.750000 0.000000
#
# Coordination Sequence:
#
# PCOD8115730 Si02
#       5
#     4   4   8   8   8
#     4  12  24  46  74 104 143 185 238 296 356 428
#     4  12  26  48  75 101 146 196 246 291 352 448
#     4  11  25  44  72 101 135 184 231 286 355 429
#     4  11  25  45  70 102 138 178 235 290 352 425
#     4  12  28  45  69 103 143 184 236 298 362 421
#
# _framework density 23.658041999999998
#
# number of rings (size 3 to 8) (size 9 to 14) (size 15 to 20)
#    0.000    0.500    3.750    3.750    8.750    1.000 
#    0.000    1.250    0.000    0.000    0.000    0.000 
#    0.000    0.000    0.000    0.000    0.000    0.000 
#
# Total GULP energy -198356.717108 kJ/mol
# GULP energy per Si atom -12397.294819 kJ/mol
# Density = 2.360419 g / cm^3
# Si number density = 23.658042 Si / 1000 Ang^3
#
#
#
# Elastic Constant Matrix: (Units=GPa)
#
#
# Indices 1 2 3 4 5 6 
#
# 1 61.1286 22.9434 -20.8720 0.0000 -21.6639 0.0000
# 2 22.9434 178.1813 10.3777 0.0000 -10.7873 0.0000
# 3 -20.8720 10.3777 70.6210 0.0000 4.6065 0.0000
# 4 0.0000 0.0000 0.0000 23.6298 0.0000 4.0137
# 5 -21.6639 -10.7873 4.6065 0.0000 38.3633 0.0000
# 6 0.0000 0.0000 0.0000 4.0137 0.0000 6.0941
#
#
#
# Elastic Compliance Matrix: (Units=1/GPa)
#
#
# Indices 1 2 3 4 5 6 
#
# 1 0.023898 -0.002745 0.006689 0.000000 0.011920 0.000000
# 2 -0.002745 0.006089 -0.001730 0.000000 0.000370 0.000000
# 3 0.006689 -0.001730 0.016304 0.000000 0.001333 0.000000
# 4 0.000000 0.000000 0.000000 0.047650 0.000000 -0.031383
# 5 0.011920 0.000370 0.001333 0.000000 0.032742 0.000000
# 6 0.000000 0.000000 0.000000 -0.031383 0.000000 0.184761
#
#
# Mechanical properties :
#
#
# Convention : Reuss Voigt Hill
#
# Bulk Modulus (GPa) = 19.71698 37.20323 28.46011
# Shear Modulus (GPa) = 15.43581 33.44957 24.44269
#
# Velocity S-wave (km/s) = 2.55709 3.76424 3.21778
# Velocity P-wave (km/s) = 4.13165 5.88661 5.08541
#
# Compressibility (1/GPa) = 0.05071771
#
# Stress axis : x y z
#
# Youngs Moduli (GPa) = 41.84534 164.23378 61.33362
#
# Poissons Ratio (x) = 0.45083 -0.41025
# Poissons Ratio (y) = 0.11487 0.10612
# Poissons Ratio (z) = -0.27989 0.28415
#
# Static dielectric constant tensor:
#      x y z
#    x 4.074550 0.000000 0.077700 
#    y 0.000000 4.313690 0.000000 
#    z 0.077700 0.000000 4.653830 
# 
# 
# High freq. dielectric constant tensor:
#      x y z
#    x 1.933560 0.000000 -0.006060 
#    y 0.000000 1.949000 0.000000 
#    z -0.006060 0.000000 1.946500 
# 
# From -- ./inp_files/153192.got.cif
#   From: 2010.06.25/outbox.cif.g09.slc.cpg/sg12_77_cif.got.tgz:153192.got - 2010.06.28 00:19:55.
