data_PCOD8115058
_publ_section_title
;
Structure prediction by ZEFSAII (Michael W. Deem and Ramdas Pophale) SiO2 
 PCOD8115058
Probable space group: C 2/M
;
_chemical_formula_sum "Si O2"
_cell_formula_units_Z 40
_cell_length_a 11.407364
_cell_length_b 14.725987
_cell_length_c 20.794609
_cell_angle_alpha 90.000000
_cell_angle_beta 151.481085
_cell_angle_gamma 90.000000
_cell_volume 1667.812903
_symmetry_space_group_name_H-M "C 2/M"
_symmetry_group_IT_number 12
_symmetry_cell_setting 'monoclinic'
loop_
_space_group_symop_operation_xyz
x,y,z
-x,y,-z
-x,-y,-z
x,-y,z
1/2+x,1/2+y,z
1/2-x,1/2+y,-z
1/2-x,1/2-y,-z
1/2+x,1/2-y,z
loop_
_atom_site_type_symbol
_atom_site_label
_atom_site_fract_x
_atom_site_fract_y
_atom_site_fract_z
Si Si1 0.531922 0.726977 0.644298
Si Si2 0.223950 0.103161 0.850265
Si Si3 0.707313 0.643936 0.979792
Si Si4 0.280556 0.102761 0.208581
Si Si5 0.362796 0.100571 0.733899
O O1 0.250000 0.750000 0.500000
O O2 0.584467 0.669229 0.733990
O O3 0.665392 0.824500 0.709153
O O4 0.634109 0.669311 0.632318
O O5 0.094507 0.109157 0.857897
O O6 0.210522 0.000000 0.817423
O O7 0.500000 0.136814 0.000000
O O8 0.515466 0.611104 0.943252
O O9 0.750000 0.750000 0.000000
O O10 0.974717 0.598613 0.122118
O O11 0.446110 0.134884 0.228087
O O12 0.354162 0.000000 0.262930
O O13 0.259109 0.000000 0.669358
#
# Coordination Sequence:
#
# PCOD8115058 Si02
#       5
#     8   8   8   8   8
#     4  12  27  46  70 102 147 197 250 300 369 447
#     4  11  22  41  73 109 145 187 247 313 372 436
#     4  12  21  40  73 110 151 186 234 303 377 442
#     4  11  25  44  68 103 144 190 241 301 367 439
#     4  11  23  44  74 107 144 188 243 304 368 438
#
# _framework density 23.983506999999999
#
# number of rings (size 3 to 8) (size 9 to 14) (size 15 to 20)
#    0.000    0.600    4.000    4.200    0.000    4.000 
#    0.000    2.000    0.000    2.400    0.000    0.000 
#    0.000    0.000    0.000    0.000    0.000    0.000 
#
# Total GULP energy -247912.753903 kJ/mol
# GULP energy per Si atom -12395.637695 kJ/mol
# Density = 2.392892 g / cm^3
# Si number density = 23.983507 Si / 1000 Ang^3
#
#
#
# Elastic Constant Matrix: (Units=GPa)
#
#
# Indices 1 2 3 4 5 6 
#
# 1 116.2317 50.0095 39.3156 0.0031 29.5336 -0.0015
# 2 50.0095 174.8996 50.4005 0.0028 16.4084 -0.0007
# 3 39.3156 50.4005 123.0805 0.0041 28.7537 0.0017
# 4 0.0031 0.0028 0.0041 21.5812 0.0011 14.5161
# 5 29.5336 16.4084 28.7537 0.0011 38.9727 -0.0001
# 6 -0.0015 -0.0007 0.0017 14.5161 -0.0001 39.7221
#
#
#
# Elastic Compliance Matrix: (Units=1/GPa)
#
#
# Indices 1 2 3 4 5 6 
#
# 1 0.011823 -0.002385 -0.001137 -0.000001 -0.007116 0.000001
# 2 -0.002385 0.006992 -0.002218 0.000000 0.000500 0.000000
# 3 -0.001137 -0.002218 0.010846 -0.000001 -0.006206 0.000000
# 4 -0.000001 0.000000 -0.000001 0.061439 0.000000 -0.022452
# 5 -0.007116 0.000500 -0.006206 0.000000 0.035420 0.000000
# 6 0.000001 0.000000 0.000000 -0.022452 0.000000 0.033380
#
#
# Mechanical properties :
#
#
# Convention : Reuss Voigt Hill
#
# Bulk Modulus (GPa) = 55.00725 77.07368 66.04046
# Shear Modulus (GPa) = 28.17857 38.35428 33.26642
#
# Velocity S-wave (km/s) = 3.43142 4.00333 3.72836
# Velocity P-wave (km/s) = 6.21971 7.31948 6.79189
#
# Compressibility (1/GPa) = 0.01817942
#
# Stress axis : x y z
#
# Youngs Moduli (GPa) = 84.58443 143.02483 92.19718
#
# Poissons Ratio (x) = 0.34113 0.10487
# Poissons Ratio (y) = 0.20174 0.20450
# Poissons Ratio (z) = 0.09621 0.31724
#
# Static dielectric constant tensor:
#      x y z
#    x 4.764440 0.000000 0.220370 
#    y 0.000000 4.411120 -0.000010 
#    z 0.220370 -0.000010 4.023890 
# 
# 
# High freq. dielectric constant tensor:
#      x y z
#    x 1.966240 0.000000 0.022250 
#    y 0.000000 1.967610 0.000000 
#    z 0.022250 0.000000 1.909880 
# 
# From -- ./inp_files/336101.got.cif
#   From: 2010.06.25/outbox.cif.g09.slc.cpg/sg12_169_cif.got.tgz:336101.got - 2010.06.28 00:19:55.
