data_PCOD8115622
_publ_section_title
;
Structure prediction by ZEFSAII (Michael W. Deem and Ramdas Pophale) SiO2 
 PCOD8115622
Probable space group: C 2/M
;
_chemical_formula_sum "Si O2"
_cell_formula_units_Z 56
_cell_length_a 8.898915
_cell_length_b 17.823703
_cell_length_c 28.668683
_cell_angle_alpha 90.000000
_cell_angle_beta 140.897180
_cell_angle_gamma 90.000000
_cell_volume 2867.974005
_symmetry_space_group_name_H-M "C 2/M"
_symmetry_group_IT_number 12
_symmetry_cell_setting 'monoclinic'
loop_
_space_group_symop_operation_xyz
x,y,z
-x,y,-z
-x,-y,-z
x,-y,z
1/2+x,1/2+y,z
1/2-x,1/2+y,-z
1/2-x,1/2-y,-z
1/2+x,1/2-y,z
loop_
_atom_site_type_symbol
_atom_site_label
_atom_site_fract_x
_atom_site_fract_y
_atom_site_fract_z
Si Si1 0.589089 0.411208 0.069829
Si Si2 0.655529 0.169655 0.633681
Si Si3 0.655968 0.586696 0.233449
Si Si4 0.487124 0.330344 0.366319
Si Si5 0.670396 0.411456 0.500000
Si Si6 0.988720 0.413304 0.766551
Si Si7 0.760056 0.088792 0.069829
O O1 0.555273 0.500000 0.060142
O O2 0.418903 0.375472 0.067561
O O3 0.861089 0.393503 0.150339
O O4 0.500000 0.374837 0.000000
O O5 0.806360 0.139912 0.713593
O O6 0.545601 0.250000 0.618241
O O7 0.822468 0.174856 0.628987
O O8 0.440074 0.113618 0.572314
O O9 0.668995 0.500000 0.252188
O O10 0.390607 0.606499 0.150339
O O11 0.854469 0.602335 0.241787
O O12 0.578504 0.386381 0.427686
O O13 0.238396 0.360088 0.286407
O O14 0.500000 0.379018 0.500000
O O15 0.664797 0.500000 0.499998
O O16 0.908051 0.500000 0.747811
O O17 0.745441 0.000000 0.060144
O O18 0.500000 0.125163 0.000000
#
# Coordination Sequence:
#
# PCOD8115622 Si02
#       7
#     8   8   8   8   8   8   8
#     4   8  14  25  44  72 106 142 179 222 271 322
#     4  12  25  40  59  83 113 147 185 227 271 323
#     4   9  18  34  55  80 112 148 185 227 277 329
#     4  12  25  40  59  83 113 147 185 227 271 323
#     4  11  24  43  66  89 115 145 176 217 270 323
#     4   9  18  34  55  80 112 148 185 227 277 329
#     4   8  14  25  44  72 106 142 179 222 271 322
#
# _framework density 19.525979
#
# number of rings (size 3 to 8) (size 9 to 14) (size 15 to 20)
#    0.000    2.143    0.000    6.000    0.000    6.286 
#    0.000    2.857    0.000    0.857    0.000    6.000 
#    0.000    0.000    0.000    0.000    0.000    0.000 
#
# Total GULP energy -347102.728966 kJ/mol
# GULP energy per Si atom -12396.526034 kJ/mol
# Density = 1.948154 g / cm^3
# Si number density = 19.525979 Si / 1000 Ang^3
#
#
#
# Elastic Constant Matrix: (Units=GPa)
#
#
# Indices 1 2 3 4 5 6 
#
# 1 122.3733 33.8983 57.5635 -0.0002 -0.8722 0.0000
# 2 33.8983 54.1791 29.7649 -0.0003 -0.2127 -0.0001
# 3 57.5635 29.7649 142.8641 -0.0005 1.9174 -0.0003
# 4 -0.0002 -0.0003 -0.0005 7.2288 -0.0006 -0.9571
# 5 -0.8722 -0.2127 1.9174 -0.0006 24.0217 -0.0001
# 6 0.0000 -0.0001 -0.0003 -0.9571 -0.0001 25.9585
#
#
#
# Elastic Compliance Matrix: (Units=1/GPa)
#
#
# Indices 1 2 3 4 5 6 
#
# 1 0.011223 -0.005116 -0.003465 0.000000 0.000639 0.000000
# 2 -0.005116 0.023182 -0.002772 0.000001 0.000241 0.000000
# 3 -0.003465 -0.002772 0.008985 0.000000 -0.000868 0.000000
# 4 0.000000 0.000001 0.000000 0.139015 0.000003 0.005126
# 5 0.000639 0.000241 -0.000868 0.000003 0.041724 0.000000
# 6 0.000000 0.000000 0.000000 0.005126 0.000000 0.038712
#
#
# Mechanical properties :
#
#
# Convention : Reuss Voigt Hill
#
# Bulk Modulus (GPa) = 48.34436 62.42999 55.38717
# Shear Modulus (GPa) = 17.09748 24.65445 20.87597
#
# Velocity S-wave (km/s) = 2.96231 3.55723 3.27331
# Velocity P-wave (km/s) = 6.04261 6.99386 6.53556
#
# Compressibility (1/GPa) = 0.02068494
#
# Stress axis : x y z
#
# Youngs Moduli (GPa) = 89.10052 43.13707 111.29890
#
# Poissons Ratio (x) = 0.22069 0.38563
# Poissons Ratio (y) = 0.45585 0.30848
# Poissons Ratio (z) = 0.30872 0.11956
#
# Static dielectric constant tensor:
#      x y z
#    x 3.744070 0.000000 0.007200 
#    y 0.000000 3.227560 0.000000 
#    z 0.007200 0.000000 3.885070 
# 
# 
# High freq. dielectric constant tensor:
#      x y z
#    x 1.757100 0.000000 0.001350 
#    y 0.000000 1.726750 0.000000 
#    z 0.001350 0.000000 1.783460 
# 
# From -- ./inp_files/356757.got.cif
#   From: 2010.06.25/outbox.cif.g09.slc.cpg/sg12_179_cif.got.tgz:356757.got - 2010.06.28 00:19:55.
