data_PCOD8115593
_publ_section_title
;
Structure prediction by ZEFSAII (Michael W. Deem and Ramdas Pophale) SiO2 
 PCOD8115593
Probable space group: C 2/M
;
_chemical_formula_sum "Si O2"
_cell_formula_units_Z 44
_cell_length_a 8.240283
_cell_length_b 17.182823
_cell_length_c 19.264916
_cell_angle_alpha 90.000000
_cell_angle_beta 127.436262
_cell_angle_gamma 90.000000
_cell_volume 2165.911497
_symmetry_space_group_name_H-M "C 2/M"
_symmetry_group_IT_number 12
_symmetry_cell_setting 'monoclinic'
loop_
_space_group_symop_operation_xyz
x,y,z
-x,y,-z
-x,-y,-z
x,-y,z
1/2+x,1/2+y,z
1/2-x,1/2+y,-z
1/2-x,1/2-y,-z
1/2+x,1/2-y,z
loop_
_atom_site_type_symbol
_atom_site_label
_atom_site_fract_x
_atom_site_fract_y
_atom_site_fract_z
Si Si1 0.383503 0.409194 0.043647
Si Si2 0.726679 0.196005 0.560162
Si Si3 0.000000 0.677444 0.000000
Si Si4 0.394590 0.194011 0.716251
Si Si5 0.653373 0.720601 0.161365
Si Si6 0.051636 0.909481 0.590346
O O1 0.380498 0.500000 0.064704
O O2 0.513787 0.356609 0.130356
O O3 0.500000 0.399899 0.000000
O O4 0.150353 0.375338 0.990009
O O5 0.500000 0.159687 0.500000
O O6 0.750000 0.250000 0.500000
O O7 0.762825 0.242388 0.640508
O O8 0.890595 0.126963 0.601913
O O9 0.137726 0.735507 0.083009
O O10 0.410109 0.213749 0.801012
O O11 0.628552 0.189438 0.755182
O O12 0.282007 0.111971 0.673470
O O13 0.000000 0.877606 0.500000
O O14 0.024761 0.000000 0.587253
#
# Coordination Sequence:
#
# PCOD8115593 Si02
#       6
#     8   8   4   8   8   8
#     4  11  24  43  67  98 131 171 225 281 337 395
#     4  12  20  39  67  92 125 169 214 260 323 399
#     4  12  23  46  67  96 134 186 224 266 343 406
#     4  12  22  38  66  97 121 171 218 270 317 386
#     4  12  23  40  68  94 127 170 230 269 315 398
#     4  11  24  42  64  97 133 167 212 267 329 391
#
# _framework density 20.314771
#
# number of rings (size 3 to 8) (size 9 to 14) (size 15 to 20)
#    0.000    0.364    8.182    1.909    0.000    1.091 
#    0.000    4.545    0.000    0.000    0.000    0.000 
#    0.000    0.000    0.000    0.000    0.000    0.000 
#
# Total GULP energy -272668.673754 kJ/mol
# GULP energy per Si atom -12394.030625 kJ/mol
# Density = 2.026853 g / cm^3
# Si number density = 20.314771 Si / 1000 Ang^3
#
#
#
# Elastic Constant Matrix: (Units=GPa)
#
#
# Indices 1 2 3 4 5 6 
#
# 1 94.7681 30.4982 15.0330 0.0000 19.6650 0.0000
# 2 30.4982 89.6717 32.1251 0.0000 8.7715 0.0000
# 3 15.0330 32.1251 92.1356 0.0000 7.2367 0.0000
# 4 0.0000 0.0000 0.0000 24.6801 0.0000 10.5666
# 5 19.6650 8.7715 7.2367 0.0000 43.0931 0.0000
# 6 0.0000 0.0000 0.0000 10.5666 0.0000 29.0295
#
#
#
# Elastic Compliance Matrix: (Units=1/GPa)
#
#
# Indices 1 2 3 4 5 6 
#
# 1 0.012865 -0.003739 -0.000399 0.000000 -0.005043 0.000000
# 2 -0.003739 0.013981 -0.004231 0.000000 -0.000429 0.000000
# 3 -0.000399 -0.004231 0.012477 0.000000 -0.001052 0.000000
# 4 0.000000 0.000000 0.000000 0.047999 0.000000 -0.017471
# 5 -0.005043 -0.000429 -0.001052 0.000000 0.025771 0.000000
# 6 0.000000 0.000000 0.000000 -0.017471 0.000000 0.040807
#
#
# Mechanical properties :
#
#
# Convention : Reuss Voigt Hill
#
# Bulk Modulus (GPa) = 44.27944 47.98756 46.13350
# Shear Modulus (GPa) = 28.06360 32.62181 30.34270
#
# Velocity S-wave (km/s) = 3.72080 4.01161 3.86894
# Velocity P-wave (km/s) = 6.34848 6.71794 6.53582
#
# Compressibility (1/GPa) = 0.02258385
#
# Stress axis : x y z
#
# Youngs Moduli (GPa) = 77.72924 71.52409 80.15017
#
# Poissons Ratio (x) = 0.26745 0.03200
# Poissons Ratio (y) = 0.29065 0.33912
# Poissons Ratio (z) = 0.03103 0.30262
#
# Static dielectric constant tensor:
#      x y z
#    x 5.241680 0.000000 0.453340 
#    y 0.000000 3.604640 0.000000 
#    z 0.453340 0.000000 3.889410 
# 
# 
# High freq. dielectric constant tensor:
#      x y z
#    x 1.806640 0.000000 0.011490 
#    y 0.000000 1.776100 0.000000 
#    z 0.011490 0.000000 1.793920 
# 
# From -- ./inp_files/257298.got.cif
#   From: 2010.06.25/outbox.cif.g09.slc.cpg/sg12_129_cif.got.tgz:257298.got - 2010.06.28 00:19:55.
