data_PCOD8115913
_publ_section_title
;
Structure prediction by ZEFSAII (Michael W. Deem and Ramdas Pophale) SiO2 
 PCOD8115913
Probable space group: C 2/M
;
_chemical_formula_sum "Si O2"
_cell_formula_units_Z 32
_cell_length_a 8.875864
_cell_length_b 19.931571
_cell_length_c 9.910842
_cell_angle_alpha 90.000000
_cell_angle_beta 63.457630
_cell_angle_gamma 90.000000
_cell_volume 1568.532905
_symmetry_space_group_name_H-M "C 2/M"
_symmetry_group_IT_number 12
_symmetry_cell_setting 'monoclinic'
loop_
_space_group_symop_operation_xyz
x,y,z
-x,y,-z
-x,-y,-z
x,-y,z
1/2+x,1/2+y,z
1/2-x,1/2+y,-z
1/2-x,1/2-y,-z
1/2+x,1/2-y,z
loop_
_atom_site_type_symbol
_atom_site_label
_atom_site_fract_x
_atom_site_fract_y
_atom_site_fract_z
Si Si1 0.722202 0.923993 0.111362
Si Si2 0.481369 0.804307 0.163593
Si Si3 0.593849 0.699882 0.332383
Si Si4 0.993690 0.923978 0.221934
O O1 0.562399 0.876280 0.162162
O O2 0.823886 0.908174 0.207251
O O3 0.654293 0.000000 0.140839
O O4 0.843886 0.912932 0.936297
O O5 0.576090 0.747397 0.210131
O O6 0.289377 0.808700 0.287116
O O7 0.500000 0.784509 0.000000
O O8 0.500000 0.731086 0.500000
O O9 0.507262 0.627795 0.339180
O O10 0.988914 0.000000 0.279276
#
# Coordination Sequence:
#
# PCOD8115913 Si02
#       4
#     8   8   8   8
#     4   9  19  37  64  94 119 150 200 255 297 346
#     4  12  24  40  64  90 119 160 208 250 291 355
#     4  12  26  41  60  89 127 161 197 250 305 355
#     4   9  19  38  63  90 122 157 195 245 304 357
#
# _framework density 20.401230000000002
#
# number of rings (size 3 to 8) (size 9 to 14) (size 15 to 20)
#    0.000    1.500    2.500    4.500    3.500    2.000 
#    0.000    0.000    0.000    3.750    0.000    0.000 
#    0.000    0.000    0.000    0.000    0.000    0.000 
#
# Total GULP energy -198477.106279 kJ/mol
# GULP energy per Si atom -12404.819142 kJ/mol
# Density = 2.035480 g / cm^3
# Si number density = 20.401230 Si / 1000 Ang^3
#
#
#
# Elastic Constant Matrix: (Units=GPa)
#
#
# Indices 1 2 3 4 5 6 
#
# 1 121.5739 62.9010 43.2130 0.0000 -16.1951 0.0000
# 2 62.9010 111.1148 28.6000 0.0000 1.8578 0.0000
# 3 43.2130 28.6000 75.9492 0.0000 -13.4610 0.0000
# 4 0.0000 0.0000 0.0000 13.2061 0.0000 -0.9145
# 5 -16.1951 1.8578 -13.4610 0.0000 25.3590 0.0000
# 6 0.0000 0.0000 0.0000 -0.9145 0.0000 40.0308
#
#
#
# Elastic Compliance Matrix: (Units=1/GPa)
#
#
# Indices 1 2 3 4 5 6 
#
# 1 0.014456 -0.007239 -0.004160 0.000000 0.007554 0.000000
# 2 -0.007239 0.013802 -0.002293 0.000000 -0.006851 0.000000
# 3 -0.004160 -0.002293 0.017613 0.000000 0.006861 0.000000
# 4 0.000000 0.000000 0.000000 0.075842 0.000000 0.001733
# 5 0.007554 -0.006851 0.006861 0.000000 0.048401 0.000000
# 6 0.000000 0.000000 0.000000 0.001733 0.000000 0.025020
#
#
# Mechanical properties :
#
#
# Convention : Reuss Voigt Hill
#
# Bulk Modulus (GPa) = 54.09205 64.22955 59.16080
# Shear Modulus (GPa) = 21.86446 27.31413 24.58930
#
# Velocity S-wave (km/s) = 3.27727 3.66300 3.47549
# Velocity P-wave (km/s) = 6.39471 7.03147 6.72064
#
# Compressibility (1/GPa) = 0.01848700
#
# Stress axis : x y z
#
# Youngs Moduli (GPa) = 69.17703 72.45200 56.77558
#
# Poissons Ratio (x) = 0.52446 0.23620
# Poissons Ratio (y) = 0.50075 0.13019
# Poissons Ratio (z) = 0.28779 0.16614
#
# Static dielectric constant tensor:
#      x y z
#    x 3.788410 0.000000 0.072740 
#    y 0.000000 3.859160 0.000000 
#    z 0.072740 0.000000 3.333680 
# 
# 
# High freq. dielectric constant tensor:
#      x y z
#    x 1.808500 0.000000 0.002290 
#    y 0.000000 1.807640 0.000000 
#    z 0.002290 0.000000 1.768590 
# 
# From -- ./inp_files/37560.got.cif
#   From: 2010.06.25/outbox.cif.g09.slc.cpg/sg12_19_cif.got.tgz:37560.got - 2010.06.28 00:19:55.
