data_PCOD8115312
_publ_section_title
;
Structure prediction by ZEFSAII (Michael W. Deem and Ramdas Pophale) SiO2 
 PCOD8115312
Probable space group: C 2/M
;
_chemical_formula_sum "Si O2"
_cell_formula_units_Z 64
_cell_length_a 24.846922
_cell_length_b 8.481707
_cell_length_c 14.371346
_cell_angle_alpha 90.000000
_cell_angle_beta 89.798636
_cell_angle_gamma 90.000000
_cell_volume 3028.660725
_symmetry_space_group_name_H-M "C 2/M"
_symmetry_group_IT_number 12
_symmetry_cell_setting 'monoclinic'
loop_
_space_group_symop_operation_xyz
x,y,z
-x,y,-z
-x,-y,-z
x,-y,z
1/2+x,1/2+y,z
1/2-x,1/2+y,-z
1/2-x,1/2-y,-z
1/2+x,1/2-y,z
loop_
_atom_site_type_symbol
_atom_site_label
_atom_site_fract_x
_atom_site_fract_y
_atom_site_fract_z
Si Si1 0.164069 0.316369 0.269243
Si Si2 0.354124 0.685738 0.345911
Si Si3 0.772164 0.683509 0.217246
Si Si4 0.054828 0.313037 0.788990
Si Si5 0.809242 0.314088 0.520899
Si Si6 0.443226 0.683919 0.816437
Si Si7 0.584934 0.816229 0.994991
Si Si8 0.694412 0.316843 0.965543
O O1 0.175204 0.500000 0.254000
O O2 0.208886 0.220856 0.210193
O O3 0.170783 0.267866 0.376455
O O4 0.105376 0.275120 0.232296
O O5 0.355408 0.500000 0.332410
O O6 0.296631 0.759175 0.314547
O O7 0.403242 0.761976 0.289805
O O8 0.354514 0.733501 0.454345
O O9 0.782279 0.500000 0.198923
O O10 0.807789 0.782767 0.144057
O O11 0.049851 0.500000 0.788492
O O12 0.071814 0.252338 0.891819
O O13 0.997778 0.234727 0.763798
O O14 0.809198 0.500000 0.505506
O O15 0.750000 0.250000 0.500000
O O16 0.433130 0.500000 0.805723
O O17 0.450094 0.730716 0.925323
O O18 0.646991 0.776975 0.017479
O O19 0.573137 0.000000 0.003793
O O20 0.688400 0.500000 0.988425
O O21 0.750000 0.250000 0.000000
#
# Coordination Sequence:
#
# PCOD8115312 Si02
#       8
#     8   8   8   8   8   8   8   8
#     4  11  24  43  66  94 129 170 215 263 321 384
#     4  12  24  40  65  97 131 165 208 261 318 380
#     4  12  23  38  61  90 127 167 209 258 318 380
#     4  11  24  44  69  94 127 170 219 269 317 375
#     4  11  23  40  67  98 131 168 211 263 320 384
#     4  12  26  43  65  94 130 170 215 268 322 378
#     4  11  23  41  65  92 125 167 217 266 316 376
#     4  12  24  38  57  85 126 168 212 261 318 381
#
# _framework density 21.131450999999998
#
# number of rings (size 3 to 8) (size 9 to 14) (size 15 to 20)
#    0.000    0.500    2.500    7.125    0.000    4.500 
#    0.000    0.625    0.000    3.750    0.000    0.000 
#    0.000    0.000    0.000    0.000    0.000    0.000 
#
# Total GULP energy -396957.954529 kJ/mol
# GULP energy per Si atom -12404.936079 kJ/mol
# Density = 2.108336 g / cm^3
# Si number density = 21.131451 Si / 1000 Ang^3
#
#
#
# Elastic Constant Matrix: (Units=GPa)
#
#
# Indices 1 2 3 4 5 6 
#
# 1 91.5605 15.2426 20.8606 0.0000 -9.5183 0.0000
# 2 15.2426 84.1014 22.7805 0.0000 -3.1334 0.0000
# 3 20.8606 22.7805 77.9387 0.0000 -14.8891 0.0000
# 4 0.0000 0.0000 0.0000 32.9006 0.0000 -6.0655
# 5 -9.5183 -3.1334 -14.8891 0.0000 27.2433 0.0000
# 6 0.0000 0.0000 0.0000 -6.0655 0.0000 35.5794
#
#
#
# Elastic Compliance Matrix: (Units=1/GPa)
#
#
# Indices 1 2 3 4 5 6 
#
# 1 0.011965 -0.001457 -0.002244 0.000000 0.002786 0.000000
# 2 -0.001457 0.013100 -0.003627 0.000000 -0.000985 0.000000
# 3 -0.002244 -0.003627 0.015925 0.000000 0.007502 0.000000
# 4 0.000000 0.000000 0.000000 0.031381 0.000000 0.005350
# 5 0.002786 -0.000985 0.007502 0.000000 0.041666 0.000000
# 6 0.000000 0.000000 0.000000 0.005350 0.000000 0.029018
#
#
# Mechanical properties :
#
#
# Convention : Reuss Voigt Hill
#
# Bulk Modulus (GPa) = 37.97491 41.26309 39.61900
# Shear Modulus (GPa) = 30.03177 32.12579 31.07878
#
# Velocity S-wave (km/s) = 3.77395 3.90331 3.83918
# Velocity P-wave (km/s) = 6.08277 6.31535 6.20015
#
# Compressibility (1/GPa) = 0.02633318
#
# Stress axis : x y z
#
# Youngs Moduli (GPa) = 83.57513 76.33435 62.79571
#
# Poissons Ratio (x) = 0.11121 0.14094
# Poissons Ratio (y) = 0.12175 0.22777
# Poissons Ratio (z) = 0.18758 0.27688
#
# Static dielectric constant tensor:
#      x y z
#    x 3.856140 0.000000 -0.125310 
#    y 0.000000 3.845860 0.000000 
#    z -0.125310 0.000000 4.154120 
# 
# 
# High freq. dielectric constant tensor:
#      x y z
#    x 1.829730 0.000000 -0.010290 
#    y 0.000000 1.837810 0.000000 
#    z -0.010290 0.000000 1.829630 
# 
# From -- ./inp_files/238785.got.cif
#   From: 2010.06.25/outbox.cif.g09.slc.cpg/sg12_120_cif.got.tgz:238785.got - 2010.06.28 00:19:55.
