data_PCOD8115947
_publ_section_title
;
Structure prediction by ZEFSAII (Michael W. Deem and Ramdas Pophale) SiO2 
 PCOD8115947
Probable space group: C 2/M
;
_chemical_formula_sum "Si O2"
_cell_formula_units_Z 20
_cell_length_a 11.221378
_cell_length_b 15.026837
_cell_length_c 4.798718
_cell_angle_alpha 90.000000
_cell_angle_beta 99.926900
_cell_angle_gamma 90.000000
_cell_volume 797.054085
_symmetry_space_group_name_H-M "C 2/M"
_symmetry_group_IT_number 12
_symmetry_cell_setting 'monoclinic'
loop_
_space_group_symop_operation_xyz
x,y,z
-x,y,-z
-x,-y,-z
x,-y,z
1/2+x,1/2+y,z
1/2-x,1/2+y,-z
1/2-x,1/2-y,-z
1/2+x,1/2-y,z
loop_
_atom_site_type_symbol
_atom_site_label
_atom_site_fract_x
_atom_site_fract_y
_atom_site_fract_z
Si Si1 0.000000 0.698068 0.500000
Si Si2 0.763986 0.600403 0.453946
Si Si3 0.613766 0.652374 0.905276
O O1 0.104283 0.636436 0.406683
O O2 0.058729 0.755304 0.771231
O O3 0.774255 0.500000 0.341205
O O4 0.674860 0.597947 0.681720
O O5 0.711281 0.666230 0.193074
O O6 0.500000 0.599104 0.000000
#
# Coordination Sequence:
#
# PCOD8115947 Si02
#       3
#     4   8   8
#     4  12  27  48  77 102 142 190 240 284 349 426
#     4  12  28  47  73 107 144 183 235 296 353 410
#     4  12  26  47  75 104 142 188 239 284 351 424
#
# _framework density 25.092402
#
# number of rings (size 3 to 8) (size 9 to 14) (size 15 to 20)
#    0.000    0.000    4.000    4.200    5.600    4.800 
#    0.000    4.000    0.000    0.000    0.000    0.000 
#    0.000    0.000    0.000    0.000    0.000    0.000 
#
# Total GULP energy -123981.418726 kJ/mol
# GULP energy per Si atom -12398.141873 kJ/mol
# Density = 2.503529 g / cm^3
# Si number density = 25.092402 Si / 1000 Ang^3
#
#
#
# Elastic Constant Matrix: (Units=GPa)
#
#
# Indices 1 2 3 4 5 6 
#
# 1 188.4340 94.4923 76.7987 0.0000 0.5033 0.0000
# 2 94.4923 100.5746 39.0824 0.0000 1.6222 0.0000
# 3 76.7987 39.0824 148.2917 0.0000 -9.3349 0.0000
# 4 0.0000 0.0000 0.0000 21.6609 0.0000 1.4057
# 5 0.5033 1.6222 -9.3349 0.0000 42.2617 0.0000
# 6 0.0000 0.0000 0.0000 1.4057 0.0000 24.3918
#
#
#
# Elastic Compliance Matrix: (Units=1/GPa)
#
#
# Indices 1 2 3 4 5 6 
#
# 1 0.011429 -0.009376 -0.003482 0.000000 -0.000545 0.000000
# 2 -0.009376 0.018818 -0.000144 0.000000 -0.000643 0.000000
# 3 -0.003482 -0.000144 0.008709 0.000000 0.001971 0.000000
# 4 0.000000 0.000000 0.000000 0.046339 0.000000 -0.002671
# 5 -0.000545 -0.000643 0.001971 0.000000 0.024129 0.000000
# 6 0.000000 0.000000 0.000000 -0.002671 0.000000 0.041151
#
#
# Mechanical properties :
#
#
# Convention : Reuss Voigt Hill
#
# Bulk Modulus (GPa) = 77.21273 95.33857 86.27565
# Shear Modulus (GPa) = 27.63972 32.79135 30.21554
#
# Velocity S-wave (km/s) = 3.32251 3.61892 3.47388
# Velocity P-wave (km/s) = 6.74959 7.45249 7.10973
#
# Compressibility (1/GPa) = 0.01295123
#
# Stress axis : x y z
#
# Youngs Moduli (GPa) = 87.49295 53.13920 114.82325
#
# Poissons Ratio (x) = 0.49825 0.39986
# Poissons Ratio (y) = 0.82036 0.01656
# Poissons Ratio (z) = 0.30469 0.00766
#
# Static dielectric constant tensor:
#      x y z
#    x 5.120030 0.000000 -0.100960 
#    y 0.000000 3.974260 0.000000 
#    z -0.100960 0.000000 4.479220 
# 
# 
# High freq. dielectric constant tensor:
#      x y z
#    x 2.031080 0.000000 -0.005050 
#    y 0.000000 1.967670 0.000000 
#    z -0.005050 0.000000 2.003980 
# 
# From -- ./inp_files/4823.got.cif
#   From: 2010.06.25/outbox.cif.g09.slc.cpg/sg12_3_cif.got.tgz:4823.got - 2010.06.28 00:19:55.
