data_PCOD8115889
_publ_section_title
;
Structure prediction by ZEFSAII (Michael W. Deem and Ramdas Pophale) SiO2 
 PCOD8115889
Probable space group: C 2/M
;
_chemical_formula_sum "Si O2"
_cell_formula_units_Z 36
_cell_length_a 18.659014
_cell_length_b 19.431301
_cell_length_c 4.990996
_cell_angle_alpha 90.000000
_cell_angle_beta 113.581327
_cell_angle_gamma 90.000000
_cell_volume 1658.467702
_symmetry_space_group_name_H-M "C 2/M"
_symmetry_group_IT_number 12
_symmetry_cell_setting 'monoclinic'
loop_
_space_group_symop_operation_xyz
x,y,z
-x,y,-z
-x,-y,-z
x,-y,z
1/2+x,1/2+y,z
1/2-x,1/2+y,-z
1/2-x,1/2-y,-z
1/2+x,1/2-y,z
loop_
_atom_site_type_symbol
_atom_site_label
_atom_site_fract_x
_atom_site_fract_y
_atom_site_fract_z
Si Si1 0.835778 0.280774 0.605809
Si Si2 0.162202 0.919971 0.850864
Si Si3 0.913720 0.857568 0.757856
Si Si4 0.165718 0.371240 0.912789
Si Si5 0.055540 0.500000 0.828138
O O1 0.750000 0.250000 0.500000
O O2 0.897648 0.220350 0.635838
O O3 0.841639 0.342018 0.398263
O O4 0.859057 0.310104 0.928453
O O5 0.099942 0.905789 0.521147
O O6 0.160768 0.000000 0.921812
O O7 0.145114 0.877508 0.093476
O O8 0.247429 0.896287 0.882580
O O9 0.000000 0.868118 0.000000
O O10 0.108548 0.433275 0.887404
O O11 0.000000 0.500000 0.500000
O O12 0.000000 0.500000 0.000000
#
# Coordination Sequence:
#
# PCOD8115889 Si02
#       5
#     8   8   8   8   4
#     4  12  23  42  73  99 134 178 234 283 339 412
#     4  12  24  44  71  98 131 182 231 275 337 413
#     4  12  27  43  65 102 140 174 225 289 343 398
#     4  12  24  44  73 101 132 182 234 278 340 417
#     4  12  28  48  70 106 147 178 229 296 350 408
#
# _framework density 21.706782
#
# number of rings (size 3 to 8) (size 9 to 14) (size 15 to 20)
#    0.000    0.000    5.556    4.667    0.000    5.333 
#    0.000    0.000    0.000    0.000    0.000    0.000 
#    0.000    0.000    0.000    0.000    0.000    0.000 
#
# Total GULP energy -223299.880686 kJ/mol
# GULP energy per Si atom -12405.548927 kJ/mol
# Density = 2.165738 g / cm^3
# Si number density = 21.706782 Si / 1000 Ang^3
#
#
#
# Elastic Constant Matrix: (Units=GPa)
#
#
# Indices 1 2 3 4 5 6 
#
# 1 87.7281 49.3105 31.6504 0.0000 -8.3712 0.0000
# 2 49.3105 123.6555 30.7863 0.0000 -0.7127 0.0000
# 3 31.6504 30.7863 111.6021 0.0000 -7.0252 0.0000
# 4 0.0000 0.0000 0.0000 36.8182 0.0000 -10.8879
# 5 -8.3712 -0.7127 -7.0252 0.0000 38.4616 0.0000
# 6 0.0000 0.0000 0.0000 -10.8879 0.0000 30.0947
#
#
#
# Elastic Compliance Matrix: (Units=1/GPa)
#
#
# Indices 1 2 3 4 5 6 
#
# 1 0.015815 -0.005603 -0.002761 0.000000 0.002834 0.000000
# 2 -0.005603 0.010671 -0.001436 0.000000 -0.001284 0.000000
# 3 -0.002761 -0.001436 0.010217 0.000000 0.001239 0.000000
# 4 0.000000 0.000000 0.000000 0.030414 0.000000 0.011004
# 5 0.002834 -0.001284 0.001239 0.000000 0.026819 0.000000
# 6 0.000000 0.000000 0.000000 0.011004 0.000000 0.037209
#
#
# Mechanical properties :
#
#
# Convention : Reuss Voigt Hill
#
# Bulk Modulus (GPa) = 58.46431 60.72000 59.59216
# Shear Modulus (GPa) = 31.95982 35.15750 33.55866
#
# Velocity S-wave (km/s) = 3.84127 4.02886 3.93618
# Velocity P-wave (km/s) = 6.83125 7.04811 6.94053
#
# Compressibility (1/GPa) = 0.01710445
#
# Stress axis : x y z
#
# Youngs Moduli (GPa) = 63.23283 93.71020 97.87171
#
# Poissons Ratio (x) = 0.52503 0.27023
# Poissons Ratio (y) = 0.35427 0.14051
# Poissons Ratio (z) = 0.17459 0.13453
#
# Static dielectric constant tensor:
#      x y z
#    x 3.941400 0.000000 -0.089170 
#    y 0.000000 4.053930 0.000000 
#    z -0.089170 0.000000 4.189040 
# 
# 
# High freq. dielectric constant tensor:
#      x y z
#    x 1.851590 0.000000 -0.003450 
#    y 0.000000 1.868470 0.000000 
#    z -0.003450 0.000000 1.868830 
# 
# From -- ./inp_files/15353.got.cif
#   From: 2010.06.25/outbox.cif.g09.slc.cpg/sg12_8_cif.got.tgz:15353.got - 2010.06.28 00:19:55.
