data_PCOD8115390
_publ_section_title
;
Structure prediction by ZEFSAII (Michael W. Deem and Ramdas Pophale) SiO2 
 PCOD8115390
Probable space group: C 2/M
;
_chemical_formula_sum "Si O2"
_cell_formula_units_Z 40
_cell_length_a 8.285277
_cell_length_b 28.913874
_cell_length_c 9.360721
_cell_angle_alpha 90.000000
_cell_angle_beta 118.020824
_cell_angle_gamma 90.000000
_cell_volume 1979.582388
_symmetry_space_group_name_H-M "C 2/M"
_symmetry_group_IT_number 12
_symmetry_cell_setting 'monoclinic'
loop_
_space_group_symop_operation_xyz
x,y,z
-x,y,-z
-x,-y,-z
x,-y,z
1/2+x,1/2+y,z
1/2-x,1/2+y,-z
1/2-x,1/2-y,-z
1/2+x,1/2-y,z
loop_
_atom_site_type_symbol
_atom_site_label
_atom_site_fract_x
_atom_site_fract_y
_atom_site_fract_z
Si Si1 0.184527 0.883100 0.000647
Si Si2 0.792846 0.707701 0.920157
Si Si3 0.962385 0.615822 0.649310
Si Si4 0.209518 0.794544 0.577746
Si Si5 0.177775 0.448481 0.170888
O O1 0.349053 0.879571 0.183767
O O2 0.164161 0.834025 0.914681
O O3 0.187430 0.920035 0.873925
O O4 0.000000 0.896503 0.000000
O O5 0.747690 0.726358 0.747102
O O6 0.750000 0.750000 0.000000
O O7 0.000000 0.689262 0.000000
O O8 0.845749 0.663249 0.596632
O O9 0.849201 0.576297 0.686466
O O10 0.000000 0.600983 0.500000
O O11 0.250000 0.750000 0.500000
O O12 0.000000 0.811898 0.500000
O O13 0.253447 0.500000 0.233781
O O14 0.000000 0.451359 0.000000
#
# Coordination Sequence:
#
# PCOD8115390 Si02
#       5
#     8   8   8   8   8
#     4  11  23  42  66  96 128 170 214 262 313 377
#     4  12  23  41  62  89 127 166 218 264 306 376
#     4  11  24  41  65  96 132 166 211 263 318 379
#     4  12  26  42  62  91 132 171 210 264 322 371
#     4   9  19  42  69  94 127 166 210 264 319 377
#
# _framework density 20.20628
#
# number of rings (size 3 to 8) (size 9 to 14) (size 15 to 20)
#    0.000    1.000    4.000    3.000    5.600    0.800 
#    0.000    0.000    0.000    4.200    0.000    0.000 
#    0.000    0.000    0.000    0.000    0.000    0.000 
#
# Total GULP energy -247822.501758 kJ/mol
# GULP energy per Si atom -12391.125088 kJ/mol
# Density = 2.016029 g / cm^3
# Si number density = 20.206280 Si / 1000 Ang^3
#
#
#
# Elastic Constant Matrix: (Units=GPa)
#
#
# Indices 1 2 3 4 5 6 
#
# 1 145.8880 70.1791 53.9741 0.0000 -23.7869 0.0000
# 2 70.1791 179.7414 54.3419 0.0000 -33.0773 0.0000
# 3 53.9741 54.3419 131.0897 0.0000 -35.9818 0.0000
# 4 0.0000 0.0000 0.0000 17.1057 0.0000 -11.4528
# 5 -23.7869 -33.0773 -35.9818 0.0000 47.7251 0.0000
# 6 0.0000 0.0000 0.0000 -11.4528 0.0000 33.5134
#
#
#
# Elastic Compliance Matrix: (Units=1/GPa)
#
#
# Indices 1 2 3 4 5 6 
#
# 1 0.009192 -0.002692 -0.002425 0.000000 0.000887 0.000000
# 2 -0.002692 0.007523 -0.001194 0.000000 0.002971 0.000000
# 3 -0.002425 -0.001194 0.010797 0.000000 0.006104 0.000000
# 4 0.000000 0.000000 0.000000 0.075805 0.000000 0.025905
# 5 0.000887 0.002971 0.006104 0.000000 0.028057 0.000000
# 6 0.000000 0.000000 0.000000 0.025905 0.000000 0.038692
#
#
# Mechanical properties :
#
#
# Convention : Reuss Voigt Hill
#
# Bulk Modulus (GPa) = 67.16674 90.41215 78.78944
# Shear Modulus (GPa) = 26.64524 38.21710 32.43117
#
# Velocity S-wave (km/s) = 3.63528 4.35368 4.01060
# Velocity P-wave (km/s) = 7.13674 8.37344 7.77970
#
# Compressibility (1/GPa) = 0.01488832
#
# Stress axis : x y z
#
# Youngs Moduli (GPa) = 108.79601 132.93104 92.61537
#
# Poissons Ratio (x) = 0.35791 0.22458
# Poissons Ratio (y) = 0.29293 0.11061
# Poissons Ratio (z) = 0.26382 0.15876
#
# Static dielectric constant tensor:
#      x y z
#    x 3.932190 0.000000 -0.151370 
#    y 0.000000 3.987420 0.000000 
#    z -0.151370 0.000000 3.867380 
# 
# 
# High freq. dielectric constant tensor:
#      x y z
#    x 1.795160 0.000000 -0.020020 
#    y 0.000000 1.787460 0.000000 
#    z -0.020020 0.000000 1.793260 
# 
# From -- ./inp_files/41398.got.cif
#   From: 2010.06.25/outbox.cif.g09.slc.cpg/sg12_21_cif.got.tgz:41398.got - 2010.06.28 00:19:55.
