data_PCOD8115922
_publ_section_title
;
Structure prediction by ZEFSAII (Michael W. Deem and Ramdas Pophale) SiO2 
 PCOD8115922
Probable space group: C 2/M
;
_chemical_formula_sum "Si O2"
_cell_formula_units_Z 32
_cell_length_a 15.642841
_cell_length_b 18.695734
_cell_length_c 4.898410
_cell_angle_alpha 90.000000
_cell_angle_beta 81.075344
_cell_angle_gamma 90.000000
_cell_volume 1415.217791
_symmetry_space_group_name_H-M "C 2/M"
_symmetry_group_IT_number 12
_symmetry_cell_setting 'monoclinic'
loop_
_space_group_symop_operation_xyz
x,y,z
-x,y,-z
-x,-y,-z
x,-y,z
1/2+x,1/2+y,z
1/2-x,1/2+y,-z
1/2-x,1/2-y,-z
1/2+x,1/2-y,z
loop_
_atom_site_type_symbol
_atom_site_label
_atom_site_fract_x
_atom_site_fract_y
_atom_site_fract_z
Si Si1 0.191603 0.000000 0.590403
Si Si2 0.150273 0.732158 0.561777
Si Si3 0.441504 0.377395 0.295783
Si Si4 0.403492 0.146789 0.933927
Si Si5 0.691017 0.000000 0.982088
O O1 0.138919 0.929821 0.706992
O O2 0.225346 0.000000 0.261455
O O3 0.277781 0.000000 0.723650
O O4 0.250000 0.750000 0.500000
O O5 0.091741 0.802468 0.568155
O O6 0.887909 0.672181 0.628615
O O7 0.149445 0.703725 0.868309
O O8 0.500000 0.413563 0.500000
O O9 0.500000 0.366960 0.000000
O O10 0.500000 0.150284 0.000000
O O11 0.368999 0.068540 0.021180
#
# Coordination Sequence:
#
# PCOD8115922 Si02
#       5
#     4   8   8   8   4
#     4  12  26  45  67  98 133 174 221 270 329 396
#     4  12  25  43  68  99 133 174 221 273 330 393
#     4  12  24  43  68  98 133 173 217 271 330 394
#     4  12  25  44  68  98 133 174 222 274 330 392
#     4  12  25  45  68  96 133 176 221 274 329 390
#
# _framework density 22.611360999999999
#
# number of rings (size 3 to 8) (size 9 to 14) (size 15 to 20)
#    0.000    0.000    0.000   12.375    0.000    0.000 
#    0.000    3.750    0.000    0.000    0.000    0.000 
#    0.000    0.000    0.000    0.000    0.000    0.000 
#
# Total GULP energy -198379.711046 kJ/mol
# GULP energy per Si atom -12398.731940 kJ/mol
# Density = 2.255990 g / cm^3
# Si number density = 22.611361 Si / 1000 Ang^3
#
#
#
# Elastic Constant Matrix: (Units=GPa)
#
#
# Indices 1 2 3 4 5 6 
#
# 1 118.8443 36.1445 37.0116 0.0000 2.9865 0.0000
# 2 36.1445 129.4498 25.2224 0.0000 -25.1196 0.0000
# 3 37.0116 25.2224 107.9466 0.0000 -15.5698 0.0000
# 4 0.0000 0.0000 0.0000 31.0491 0.0000 5.3389
# 5 2.9865 -25.1196 -15.5698 0.0000 35.3625 0.0000
# 6 0.0000 0.0000 0.0000 5.3389 0.0000 30.4441
#
#
#
# Elastic Compliance Matrix: (Units=1/GPa)
#
#
# Indices 1 2 3 4 5 6 
#
# 1 0.010617 -0.003186 -0.003579 0.000000 -0.004736 0.000000
# 2 -0.003186 0.010078 -0.000204 0.000000 0.007338 0.000000
# 3 -0.003579 -0.000204 0.011277 0.000000 0.005123 0.000000
# 4 0.000000 0.000000 0.000000 0.033208 0.000000 -0.005824
# 5 -0.004736 0.007338 0.005123 0.000000 0.036147 0.000000
# 6 0.000000 0.000000 0.000000 -0.005824 0.000000 0.033868
#
#
# Mechanical properties :
#
#
# Convention : Reuss Voigt Hill
#
# Bulk Modulus (GPa) = 55.44785 61.44420 58.44602
# Shear Modulus (GPa) = 32.22778 36.56196 34.39487
#
# Velocity S-wave (km/s) = 3.77940 4.02552 3.90440
# Velocity P-wave (km/s) = 6.60458 6.98852 6.79926
#
# Compressibility (1/GPa) = 0.01803496
#
# Stress axis : x y z
#
# Youngs Moduli (GPa) = 94.18953 99.22260 88.67261
#
# Poissons Ratio (x) = 0.31613 0.31734
# Poissons Ratio (y) = 0.30009 0.01809
# Poissons Ratio (z) = 0.33709 0.02024
#
# Static dielectric constant tensor:
#      x y z
#    x 4.083280 0.000000 -0.028790 
#    y 0.000000 4.143980 0.000000 
#    z -0.028790 0.000000 4.350800 
# 
# 
# High freq. dielectric constant tensor:
#      x y z
#    x 1.910170 0.000000 -0.002670 
#    y 0.000000 1.903470 0.000000 
#    z -0.002670 0.000000 1.906370 
# 
# From -- ./inp_files/10664.got.cif
#   From: 2010.06.25/outbox.cif.g09.slc.cpg/sg12_6_cif.got.tgz:10664.got - 2010.06.28 00:19:55.
