data_PCOD8115483
_publ_section_title
;
Structure prediction by ZEFSAII (Michael W. Deem and Ramdas Pophale) SiO2 
 PCOD8115483
Probable space group: C 2/M
;
_chemical_formula_sum "Si O2"
_cell_formula_units_Z 48
_cell_length_a 9.398072
_cell_length_b 14.938091
_cell_length_c 16.912828
_cell_angle_alpha 90.000000
_cell_angle_beta 84.768756
_cell_angle_gamma 90.000000
_cell_volume 2364.489620
_symmetry_space_group_name_H-M "C 2/M"
_symmetry_group_IT_number 12
_symmetry_cell_setting 'monoclinic'
loop_
_space_group_symop_operation_xyz
x,y,z
-x,y,-z
-x,-y,-z
x,-y,z
1/2+x,1/2+y,z
1/2-x,1/2+y,-z
1/2-x,1/2-y,-z
1/2+x,1/2-y,z
loop_
_atom_site_type_symbol
_atom_site_label
_atom_site_fract_x
_atom_site_fract_y
_atom_site_fract_z
Si Si1 0.649915 0.310282 0.450158
Si Si2 0.426478 0.599268 0.926323
Si Si3 0.891348 0.500000 0.621652
Si Si4 0.830119 0.688179 0.700089
Si Si5 0.290337 0.000000 0.451256
Si Si6 0.151926 0.682823 0.954460
Si Si7 0.448140 0.267078 0.197663
O O1 0.500000 0.321672 0.500000
O O2 0.750000 0.250000 0.500000
O O3 0.628047 0.259630 0.368907
O O4 0.709648 0.409484 0.429637
O O5 0.489256 0.500000 0.917310
O O6 0.254380 0.595774 0.944219
O O7 0.469977 0.649006 0.844231
O O8 0.500000 0.647504 0.000000
O O9 0.846241 0.587012 0.671594
O O10 0.806560 0.500000 0.544193
O O11 0.059880 0.500000 0.600667
O O12 0.665578 0.700168 0.732204
O O13 0.935860 0.702505 0.768228
O O14 0.133713 0.714570 0.866271
O O15 0.250000 0.750000 0.000000
O O16 0.000000 0.658066 0.000000
#
# Coordination Sequence:
#
# PCOD8115483 Si02
#       7
#     8   8   4   8   4   8   8
#     4  12  24  45  70  97 131 176 227 272 326 395
#     4  11  24  43  68  95 130 171 222 272 320 388
#     4  11  24  44  68  98 130 173 220 271 335 394
#     4  12  26  42  66  98 134 174 216 272 339 390
#     4  11  23  44  72  96 128 169 229 279 316 396
#     4  12  20  41  70  94 126 175 222 261 317 391
#     4  12  23  43  64  94 133 176 210 267 336 390
#
# _framework density 20.300363999999998
#
# number of rings (size 3 to 8) (size 9 to 14) (size 15 to 20)
#    0.000    0.333    6.667    3.250    1.167    0.333 
#    3.000    0.000    0.000    0.000    0.000    0.000 
#    0.000    0.000    0.000    0.000    0.000    0.000 
#
# Total GULP energy -297628.128479 kJ/mol
# GULP energy per Si atom -12401.172020 kJ/mol
# Density = 2.025416 g / cm^3
# Si number density = 20.300364 Si / 1000 Ang^3
#
#
#
# Elastic Constant Matrix: (Units=GPa)
#
#
# Indices 1 2 3 4 5 6 
#
# 1 121.7708 34.0843 31.8541 0.0000 -9.9345 0.0000
# 2 34.0843 122.8861 31.7014 0.0000 -5.7664 0.0000
# 3 31.8541 31.7014 81.3150 0.0000 -12.0324 0.0000
# 4 0.0000 0.0000 0.0000 -29.1345 0.0000 -16.3407
# 5 -9.9345 -5.7664 -12.0324 0.0000 37.5810 0.0000
# 6 0.0000 0.0000 0.0000 -16.3407 0.0000 12.6129
#
#
#
# Elastic Compliance Matrix: (Units=1/GPa)
#
#
# Indices 1 2 3 4 5 6 
#
# 1 0.009584 -0.001866 -0.002828 0.000000 0.001342 0.000000
# 2 -0.001866 0.009413 -0.002937 0.000000 0.000011 0.000000
# 3 -0.002828 -0.002937 0.015089 0.000000 0.003633 0.000000
# 4 0.000000 0.000000 0.000000 -0.019879 0.000000 -0.025754
# 5 0.001342 0.000011 0.003633 0.000000 0.028128 0.000000
# 6 0.000000 0.000000 0.000000 -0.025754 0.000000 0.045918
#
#
# Mechanical properties :
#
#
# Convention : Reuss Voigt Hill
#
# Bulk Modulus (GPa) = 53.12757 57.91683 55.52220
# Shear Modulus (GPa) = 45.54131 19.43404 32.48767
#
# Velocity S-wave (km/s) = 4.74157 3.09742 4.00478
# Velocity P-wave (km/s) = 7.49694 6.43303 6.98527
#
# Compressibility (1/GPa) = 0.01882262
#
# Stress axis : x y z
#
# Youngs Moduli (GPa) = 104.34411 106.23203 66.27526
#
# Poissons Ratio (x) = 0.19818 0.18746
# Poissons Ratio (y) = 0.19466 0.19468
# Poissons Ratio (z) = 0.29513 0.31206
#
# Static dielectric constant tensor:
#      x y z
#    x 4.556300 0.000000 0.082420 
#    y 0.000000 3.724890 0.000000 
#    z 0.082420 0.000000 3.803980 
# 
# 
# High freq. dielectric constant tensor:
#      x y z
#    x 1.813940 0.000000 -0.001970 
#    y 0.000000 1.789150 0.000000 
#    z -0.001970 0.000000 1.799470 
# 
# From -- ./inp_files/255829.got.cif
#   From: 2010.06.25/outbox.cif.g09.slc.cpg/sg12_128_cif.got.tgz:255829.got - 2010.06.28 00:19:55.
