data_PCOD8115385
_publ_section_title
;
Structure prediction by ZEFSAII (Michael W. Deem and Ramdas Pophale) SiO2 
 PCOD8115385
Probable space group: C 2/M
;
_chemical_formula_sum "Si O2"
_cell_formula_units_Z 48
_cell_length_a 8.316559
_cell_length_b 29.209090
_cell_length_c 15.798871
_cell_angle_alpha 90.000000
_cell_angle_beta 33.667695
_cell_angle_gamma 90.000000
_cell_volume 2127.607896
_symmetry_space_group_name_H-M "C 2/M"
_symmetry_group_IT_number 12
_symmetry_cell_setting 'monoclinic'
loop_
_space_group_symop_operation_xyz
x,y,z
-x,y,-z
-x,-y,-z
x,-y,z
1/2+x,1/2+y,z
1/2-x,1/2+y,-z
1/2-x,1/2-y,-z
1/2+x,1/2-y,z
loop_
_atom_site_type_symbol
_atom_site_label
_atom_site_fract_x
_atom_site_fract_y
_atom_site_fract_z
Si Si1 0.746131 0.086290 0.229160
Si Si2 0.784835 0.186743 0.249808
Si Si3 0.395122 0.914732 0.902116
Si Si4 0.395396 0.000000 0.405992
Si Si5 0.747593 0.500000 0.273716
Si Si6 0.431388 0.183645 0.936304
Si Si7 0.684955 0.769806 0.665183
O O1 0.703120 0.133509 0.300554
O O2 0.616470 0.094998 0.192905
O O3 0.576105 0.045474 0.351034
O O4 0.081008 0.071533 0.075867
O O5 0.541421 0.213160 0.303821
O O6 0.814996 0.213915 0.326173
O O7 0.089267 0.188331 0.065450
O O8 0.616919 0.955094 0.828780
O O9 0.522394 0.869488 0.890284
O O10 0.334884 0.000000 0.333249
O O11 0.097350 0.000000 0.589135
O O12 0.612667 0.212935 0.790852
O O13 0.500000 0.202264 0.000000
O O14 0.000000 0.787953 0.500000
#
# Coordination Sequence:
#
# PCOD8115385 Si02
#       7
#     8   8   8   4   4   8   8
#     4   9  17  33  57  85 122 161 209 260 310 369
#     4  11  23  42  64  92 129 172 219 267 316 385
#     4   9  17  33  56  85 122 159 212 260 311 369
#     4   9  17  29  53  90 123 160 199 254 319 377
#     4   9  17  29  52  88 126 156 201 255 319 379
#     4  11  23  42  66  94 126 176 222 264 319 384
#     4  12  25  42  65  94 129 167 216 274 327 376
#
# _framework density 22.560547
#
# number of rings (size 3 to 8) (size 9 to 14) (size 15 to 20)
#    0.000    1.833    1.667    3.000    0.000    3.333 
#    0.000    0.417    0.000    0.000    0.000    5.250 
#    0.000    0.000    0.000    0.000    0.000    0.000 
#
# Total GULP energy -297614.419893 kJ/mol
# GULP energy per Si atom -12400.600829 kJ/mol
# Density = 2.250920 g / cm^3
# Si number density = 22.560547 Si / 1000 Ang^3
#
#
#
# Elastic Constant Matrix: (Units=GPa)
#
#
# Indices 1 2 3 4 5 6 
#
# 1 39.6943 32.6497 20.4830 0.0000 -12.2362 0.0000
# 2 32.6497 161.8459 67.2867 0.0000 -26.6838 0.0000
# 3 20.4830 67.2867 108.2546 0.0000 -30.3795 0.0000
# 4 0.0000 0.0000 0.0000 19.5663 0.0000 -4.0821
# 5 -12.2362 -26.6838 -30.3795 0.0000 20.3839 0.0000
# 6 0.0000 0.0000 0.0000 -4.0821 0.0000 29.1171
#
#
#
# Elastic Compliance Matrix: (Units=1/GPa)
#
#
# Indices 1 2 3 4 5 6 
#
# 1 0.033182 -0.004520 0.000791 0.000000 0.015181 0.000000
# 2 -0.004520 0.009320 -0.003911 0.000000 0.003658 0.000000
# 3 0.000791 -0.003911 0.017559 0.000000 0.021525 0.000000
# 4 0.000000 0.000000 0.000000 0.052648 0.000000 0.007381
# 5 0.015181 0.003658 0.021525 0.000000 0.095040 0.000000
# 6 0.000000 0.000000 0.000000 0.007381 0.000000 0.035379
#
#
# Mechanical properties :
#
#
# Convention : Reuss Voigt Hill
#
# Bulk Modulus (GPa) = 22.33070 61.18152 41.75611
# Shear Modulus (GPa) = 18.29265 26.43849 22.36557
#
# Velocity S-wave (km/s) = 2.85059 3.42700 3.15200
# Velocity P-wave (km/s) = 4.55566 6.54498 5.63874
#
# Compressibility (1/GPa) = 0.04478140
#
# Stress axis : x y z
#
# Youngs Moduli (GPa) = 30.13713 107.30107 56.95010
#
# Poissons Ratio (x) = 0.48499 -0.04506
# Poissons Ratio (y) = 0.13622 0.22273
# Poissons Ratio (z) = -0.02385 0.41965
#
# Static dielectric constant tensor:
#      x y z
#    x 3.659370 0.000000 -0.169120 
#    y 0.000000 4.306580 0.000000 
#    z -0.169120 0.000000 4.074290 
# 
# 
# High freq. dielectric constant tensor:
#      x y z
#    x 1.860890 0.000000 -0.017910 
#    y 0.000000 1.901520 0.000000 
#    z -0.017910 0.000000 1.882370 
# 
# From -- ./inp_files/260275.got.cif
#   From: 2010.06.25/outbox.cif.g09.slc.cpg/sg12_131_cif.got.tgz:260275.got - 2010.06.28 00:19:55.
