data_PCOD8115158
_publ_section_title
;
Structure prediction by ZEFSAII (Michael W. Deem and Ramdas Pophale) SiO2 
 PCOD8115158
Probable space group: C 2/M
;
_chemical_formula_sum "Si O2"
_cell_formula_units_Z 48
_cell_length_a 18.447162
_cell_length_b 9.012273
_cell_length_c 18.816746
_cell_angle_alpha 90.000000
_cell_angle_beta 118.669144
_cell_angle_gamma 90.000000
_cell_volume 2744.785164
_symmetry_space_group_name_H-M "C 2/M"
_symmetry_group_IT_number 12
_symmetry_cell_setting 'monoclinic'
loop_
_space_group_symop_operation_xyz
x,y,z
-x,y,-z
-x,-y,-z
x,-y,z
1/2+x,1/2+y,z
1/2-x,1/2+y,-z
1/2-x,1/2-y,-z
1/2+x,1/2-y,z
loop_
_atom_site_type_symbol
_atom_site_label
_atom_site_fract_x
_atom_site_fract_y
_atom_site_fract_z
Si Si1 0.507136 0.327130 0.869444
Si Si2 0.954219 0.828375 0.269517
Si Si3 0.469814 0.831613 0.411295
Si Si4 0.172231 0.329247 0.997666
Si Si5 0.153962 0.669467 0.154700
Si Si6 0.689033 0.831787 0.739369
O O1 0.511152 0.500000 0.890538
O O2 0.495942 0.302568 0.779605
O O3 0.589863 0.251186 0.934445
O O4 0.431099 0.254573 0.874054
O O5 0.006077 0.761437 0.361036
O O6 0.864739 0.745903 0.222823
O O7 0.936478 0.000000 0.275126
O O8 0.500000 0.761091 0.500000
O O9 0.369031 0.827410 0.358896
O O10 0.502854 0.000000 0.420602
O O11 0.169350 0.500000 0.971903
O O12 0.250000 0.250000 0.000000
O O13 0.180463 0.316940 0.085890
O O14 0.142669 0.500000 0.173551
O O15 0.226265 0.744503 0.235575
O O16 0.709866 0.000000 0.771694
#
# Coordination Sequence:
#
# PCOD8115158 Si02
#       6
#     8   8   8   8   8   8
#     4  11  23  37  54  77 107 142 179 219 263 313
#     4   9  18  32  51  78 107 134 172 216 258 306
#     4   8  16  31  53  81 108 135 171 214 260 311
#     4  11  24  39  56  78 105 138 179 224 265 308
#     4  11  23  37  53  76 107 140 178 222 263 310
#     4   9  18  32  53  78 105 137 173 213 260 311
#
# _framework density 17.487708000000001
#
# number of rings (size 3 to 8) (size 9 to 14) (size 15 to 20)
#    1.000    1.167    0.000    3.500    0.000   11.667 
#    0.000    0.000    0.000    1.000    0.000    0.000 
#    0.000    0.000    0.000    0.000    0.000    0.000 
#
# Total GULP energy -297453.849099 kJ/mol
# GULP energy per Si atom -12393.910379 kJ/mol
# Density = 1.744790 g / cm^3
# Si number density = 17.487708 Si / 1000 Ang^3
#
#
#
# Elastic Constant Matrix: (Units=GPa)
#
#
# Indices 1 2 3 4 5 6 
#
# 1 94.3122 51.9486 26.4882 0.0000 14.4929 0.0000
# 2 51.9486 135.1183 45.6964 0.0000 4.8874 0.0000
# 3 26.4882 45.6964 77.9108 0.0000 3.3970 0.0000
# 4 0.0000 0.0000 0.0000 27.3902 0.0000 2.4352
# 5 14.4929 4.8874 3.3970 0.0000 16.0464 0.0000
# 6 0.0000 0.0000 0.0000 2.4352 0.0000 30.8917
#
#
#
# Elastic Compliance Matrix: (Units=1/GPa)
#
#
# Indices 1 2 3 4 5 6 
#
# 1 0.015772 -0.004973 -0.001908 0.000000 -0.012327 0.000000
# 2 -0.004973 0.010845 -0.004766 0.000000 0.002197 0.000000
# 3 -0.001908 -0.004766 0.016291 0.000000 -0.000274 0.000000
# 4 0.000000 0.000000 0.000000 0.036767 0.000000 -0.002898
# 5 -0.012327 0.002197 -0.000274 0.000000 0.072842 0.000000
# 6 0.000000 0.000000 0.000000 -0.002898 0.000000 0.032600
#
#
# Mechanical properties :
#
#
# Convention : Reuss Voigt Hill
#
# Bulk Modulus (GPa) = 50.98205 61.73419 56.35812
# Shear Modulus (GPa) = 23.26128 27.07952 25.17040
#
# Velocity S-wave (km/s) = 3.65108 3.93935 3.79795
# Velocity P-wave (km/s) = 6.85494 7.48795 7.17843
#
# Compressibility (1/GPa) = 0.01961475
#
# Stress axis : x y z
#
# Youngs Moduli (GPa) = 63.40221 92.20695 61.38241
#
# Poissons Ratio (x) = 0.45852 0.11713
# Poissons Ratio (y) = 0.31528 0.29255
# Poissons Ratio (z) = 0.12099 0.43947
#
# Static dielectric constant tensor:
#      x y z
#    x 2.929900 0.000000 -0.092830 
#    y 0.000000 3.433980 0.000000 
#    z -0.092830 0.000000 3.184940 
# 
# 
# High freq. dielectric constant tensor:
#      x y z
#    x 1.653260 0.000000 0.002900 
#    y 0.000000 1.694680 0.000000 
#    z 0.002900 0.000000 1.664170 
# 
# From -- ./inp_files/313381.got.cif
#   From: 2010.06.25/outbox.cif.g09.slc.cpg/sg12_157_cif.got.tgz:313381.got - 2010.06.28 00:19:55.
