data_PCOD8115892
_publ_section_title
;
Structure prediction by ZEFSAII (Michael W. Deem and Ramdas Pophale) SiO2 
 PCOD8115892
Probable space group: C 2/M
;
_chemical_formula_sum "Si O2"
_cell_formula_units_Z 44
_cell_length_a 9.589408
_cell_length_b 22.438077
_cell_length_c 11.713202
_cell_angle_alpha 90.000000
_cell_angle_beta 49.516576
_cell_angle_gamma 90.000000
_cell_volume 1916.928251
_symmetry_space_group_name_H-M "C 2/M"
_symmetry_group_IT_number 12
_symmetry_cell_setting 'monoclinic'
loop_
_space_group_symop_operation_xyz
x,y,z
-x,y,-z
-x,-y,-z
x,-y,z
1/2+x,1/2+y,z
1/2-x,1/2+y,-z
1/2-x,1/2-y,-z
1/2+x,1/2-y,z
loop_
_atom_site_type_symbol
_atom_site_label
_atom_site_fract_x
_atom_site_fract_y
_atom_site_fract_z
Si Si1 0.726410 0.280846 0.132013
Si Si2 0.161405 0.262304 0.686168
Si Si3 0.565649 0.112351 0.665821
Si Si4 0.842358 0.410421 0.002732
Si Si5 0.686332 0.000000 0.470833
Si Si6 0.000000 0.313912 0.500000
Si Si7 0.033164 0.000000 0.119383
O O1 0.845825 0.253041 0.171899
O O2 0.515008 0.268566 0.278289
O O3 0.787744 0.348115 0.086090
O O4 0.750000 0.250000 0.000000
O O5 0.186650 0.333629 0.654125
O O6 0.333421 0.226592 0.542139
O O7 0.439749 0.142292 0.634230
O O8 0.692922 0.058909 0.548709
O O9 0.421455 0.088538 0.833427
O O10 0.651000 0.444097 0.098058
O O11 0.000000 0.439376 0.000000
O O12 0.500000 0.000000 0.500000
O O13 0.153314 0.000000 0.708294
O O14 0.000000 0.000000 0.000000
#
# Coordination Sequence:
#
# PCOD8115892 Si02
#       7
#     8   8   8   8   4   4   4
#     4  12  23  43  72 110 151 194 252 303 377 441
#     4  12  25  43  70 114 152 202 247 309 380 457
#     4  12  25  47  76 107 152 202 247 316 381 449
#     4  12  25  50  77 109 151 196 253 318 374 452
#     4  12  28  52  75 107 154 197 257 318 380 456
#     4  12  26  43  72 111 156 200 246 312 392 460
#     4  12  31  50  80 113 138 202 261 317 380 454
#
# _framework density 22.953388
#
# number of rings (size 3 to 8) (size 9 to 14) (size 15 to 20)
#    0.000    0.000    6.364    3.000    2.545    1.455 
#    0.000    0.909    0.000    0.000    0.000    0.000 
#    0.000    0.000    0.000    0.000    0.000    0.000 
#
# Total GULP energy -272699.945965 kJ/mol
# GULP energy per Si atom -12395.452089 kJ/mol
# Density = 2.290114 g / cm^3
# Si number density = 22.953388 Si / 1000 Ang^3
#
#
#
# Elastic Constant Matrix: (Units=GPa)
#
#
# Indices 1 2 3 4 5 6 
#
# 1 127.3247 36.8578 35.3589 0.0000 -0.3523 0.0000
# 2 36.8578 103.6586 50.0219 0.0000 -7.6603 0.0000
# 3 35.3589 50.0219 155.5833 0.0000 -6.1560 0.0000
# 4 0.0000 0.0000 0.0000 36.6803 0.0000 3.1296
# 5 -0.3523 -7.6603 -6.1560 0.0000 38.8043 0.0000
# 6 0.0000 0.0000 0.0000 3.1296 0.0000 33.3256
#
#
#
# Elastic Compliance Matrix: (Units=1/GPa)
#
#
# Indices 1 2 3 4 5 6 
#
# 1 0.008954 -0.002647 -0.001209 0.000000 -0.000633 0.000000
# 2 -0.002647 0.012311 -0.003282 0.000000 0.001886 0.000000
# 3 -0.001209 -0.003282 0.007780 0.000000 0.000575 0.000000
# 4 0.000000 0.000000 0.000000 0.027483 0.000000 -0.002581
# 5 -0.000633 0.001886 0.000575 0.000000 0.026228 0.000000
# 6 0.000000 0.000000 0.000000 -0.002581 0.000000 0.030249
#
#
# Mechanical properties :
#
#
# Convention : Reuss Voigt Hill
#
# Bulk Modulus (GPa) = 67.70743 70.11597 68.91170
# Shear Modulus (GPa) = 37.81987 39.38393 38.60190
#
# Velocity S-wave (km/s) = 4.06357 4.14674 4.10537
# Velocity P-wave (km/s) = 7.18183 7.31715 7.24980
#
# Compressibility (1/GPa) = 0.01476943
#
# Stress axis : x y z
#
# Youngs Moduli (GPa) = 111.67901 81.22503 128.53213
#
# Poissons Ratio (x) = 0.21502 0.15539
# Poissons Ratio (y) = 0.29564 0.42185
# Poissons Ratio (z) = 0.13501 0.26658
#
# Static dielectric constant tensor:
#      x y z
#    x 4.149430 0.000000 0.160060 
#    y 0.000000 4.324100 0.000000 
#    z 0.160060 0.000000 4.436830 
# 
# 
# High freq. dielectric constant tensor:
#      x y z
#    x 1.910940 0.000000 0.025200 
#    y 0.000000 1.907750 0.000000 
#    z 0.025200 0.000000 1.929550 
# 
# From -- ./inp_files/122375.got.cif
#   From: 2010.06.25/outbox.cif.g09.slc.cpg/sg12_62_cif.got.tgz:122375.got - 2010.06.28 00:19:55.
