data_PCOD8115807
_publ_section_title
;
Structure prediction by ZEFSAII (Michael W. Deem and Ramdas Pophale) SiO2 
 PCOD8115807
Probable space group: C 2/M
;
_chemical_formula_sum "Si O2"
_cell_formula_units_Z 48
_cell_length_a 12.746371
_cell_length_b 13.445907
_cell_length_c 15.971938
_cell_angle_alpha 90.000000
_cell_angle_beta 87.600548
_cell_angle_gamma 90.000000
_cell_volume 2734.974810
_symmetry_space_group_name_H-M "C 2/M"
_symmetry_group_IT_number 12
_symmetry_cell_setting 'monoclinic'
loop_
_space_group_symop_operation_xyz
x,y,z
-x,y,-z
-x,-y,-z
x,-y,z
1/2+x,1/2+y,z
1/2-x,1/2+y,-z
1/2-x,1/2-y,-z
1/2+x,1/2-y,z
loop_
_atom_site_type_symbol
_atom_site_label
_atom_site_fract_x
_atom_site_fract_y
_atom_site_fract_z
Si Si1 0.135574 0.885631 0.578041
Si Si2 0.090604 0.614488 0.804217
Si Si3 0.740497 0.748685 0.705841
Si Si4 0.395234 0.614241 0.610876
Si Si5 0.886501 0.616938 0.014296
Si Si6 0.156168 0.384687 0.161309
O O1 0.215666 0.817558 0.625993
O O2 0.152711 0.865658 0.479266
O O3 0.017470 0.858600 0.608184
O O4 0.159963 0.000000 0.598304
O O5 0.110301 0.500000 0.778520
O O6 0.139412 0.684556 0.731655
O O7 0.152504 0.639766 0.889981
O O8 0.966666 0.634823 0.815937
O O9 0.838509 0.818652 0.681440
O O10 0.769711 0.678885 0.782006
O O11 0.378399 0.500000 0.636665
O O12 0.901958 0.500000 0.003061
O O13 0.816241 0.649642 0.936180
O O14 0.000000 0.668515 0.000000
O O15 0.183899 0.500000 0.175055
#
# Coordination Sequence:
#
# PCOD8115807 Si02
#       6
#     8   8   8   8   8   8
#     4   9  19  35  50  64  88 122 153 179 216 272
#     4   9  18  31  46  66  93 122 150 182 220 263
#     4  12  19  27  48  76  94 108 144 195 235 256
#     4   9  19  35  50  64  88 122 153 179 216 272
#     4   7  12  27  46  60  84 124 156 174 206 262
#     4   9  18  31  46  66  93 122 150 182 220 263
#
# _framework density 17.550436999999999
#
# number of rings (size 3 to 8) (size 9 to 14) (size 15 to 20)
#    0.000    2.833    0.000    5.500    0.000    0.667 
#    0.000    0.000    0.000    0.000    0.000   14.000 
#    0.000   21.333    0.000    0.000    0.000    0.000 
#
# Total GULP energy -297388.029290 kJ/mol
# GULP energy per Si atom -12391.167887 kJ/mol
# Density = 1.751049 g / cm^3
# Si number density = 17.550437 Si / 1000 Ang^3
#
#
#
# Elastic Constant Matrix: (Units=GPa)
#
#
# Indices 1 2 3 4 5 6 
#
# 1 27.7780 16.5945 0.8632 0.0000 4.4833 0.0000
# 2 16.5945 53.3554 19.7327 0.0000 4.3156 0.0000
# 3 0.8632 19.7327 43.2661 0.0000 10.3189 0.0000
# 4 0.0000 0.0000 0.0000 17.4721 0.0000 2.0966
# 5 4.4833 4.3156 10.3189 0.0000 24.8094 0.0000
# 6 0.0000 0.0000 0.0000 2.0966 0.0000 14.1756
#
#
#
# Elastic Compliance Matrix: (Units=1/GPa)
#
#
# Indices 1 2 3 4 5 6 
#
# 1 0.047689 -0.017501 0.009280 0.000000 -0.009434 0.000000
# 2 -0.017501 0.028971 -0.013784 0.000000 0.003856 0.000000
# 3 0.009280 -0.013784 0.032240 0.000000 -0.012689 0.000000
# 4 0.000000 0.000000 0.000000 0.058268 0.000000 -0.008618
# 5 -0.009434 0.003856 -0.012689 0.000000 0.046619 0.000000
# 6 0.000000 0.000000 0.000000 -0.008618 0.000000 0.071819
#
#
# Mechanical properties :
#
#
# Convention : Reuss Voigt Hill
#
# Bulk Modulus (GPa) = 15.41031 22.08669 18.74850
# Shear Modulus (GPa) = 14.23501 17.10534 15.67017
#
# Velocity S-wave (km/s) = 2.85106 3.12531 2.99133
# Velocity P-wave (km/s) = 4.43144 5.06314 4.75779
#
# Compressibility (1/GPa) = 0.06489164
#
# Stress axis : x y z
#
# Youngs Moduli (GPa) = 20.96911 34.51698 31.01696
#
# Poissons Ratio (x) = 0.60410 -0.28785
# Poissons Ratio (y) = 0.36699 0.42753
# Poissons Ratio (z) = -0.19460 0.47577
#
# Static dielectric constant tensor:
#      x y z
#    x 2.886240 0.000000 0.071350 
#    y 0.000000 3.070230 0.000000 
#    z 0.071350 0.000000 3.402110 
# 
# 
# High freq. dielectric constant tensor:
#      x y z
#    x 1.649690 0.000000 0.005150 
#    y 0.000000 1.666600 0.000000 
#    z 0.005150 0.000000 1.687150 
# 
# From -- ./inp_files/143020.got.cif
#   From: 2010.06.25/outbox.cif.g09.slc.cpg/sg12_72_cif.got.tgz:143020.got - 2010.06.28 00:19:55.
