data_PCOD8115131
_publ_section_title
;
Structure prediction by ZEFSAII (Michael W. Deem and Ramdas Pophale) SiO2 
 PCOD8115131
Probable space group: C 2/M
;
_chemical_formula_sum "Si O2"
_cell_formula_units_Z 28
_cell_length_a 11.705262
_cell_length_b 13.296961
_cell_length_c 9.580142
_cell_angle_alpha 90.000000
_cell_angle_beta 125.379726
_cell_angle_gamma 90.000000
_cell_volume 1215.739011
_symmetry_space_group_name_H-M "C 2/M"
_symmetry_group_IT_number 12
_symmetry_cell_setting 'monoclinic'
loop_
_space_group_symop_operation_xyz
x,y,z
-x,y,-z
-x,-y,-z
x,-y,z
1/2+x,1/2+y,z
1/2-x,1/2+y,-z
1/2-x,1/2-y,-z
1/2+x,1/2-y,z
loop_
_atom_site_type_symbol
_atom_site_label
_atom_site_fract_x
_atom_site_fract_y
_atom_site_fract_z
Si Si1 0.697140 0.000000 0.718717
Si Si2 0.000000 0.334922 0.000000
Si Si3 0.000000 0.829055 0.500000
Si Si4 0.739573 0.217803 0.833925
Si Si5 0.016496 0.500000 0.218641
Si Si6 0.817459 0.000000 0.496854
O O1 0.762496 0.098930 0.834593
O O2 0.531187 0.000000 0.651150
O O3 0.735550 0.000000 0.584766
O O4 0.127899 0.268450 0.148430
O O5 0.950332 0.402082 0.097019
O O6 0.903511 0.756615 0.338841
O O7 0.909572 0.900222 0.539244
O O8 0.750000 0.250000 0.000000
O O9 0.182787 0.500000 0.300084
#
# Coordination Sequence:
#
# PCOD8115131 Si02
#       6
#     4   4   4   8   4   4
#     4  12  29  42  74 109 149 188 259 305 362 446
#     4  11  24  47  76 102 152 199 240 307 374 442
#     4  11  28  51  74 106 156 195 242 307 382 440
#     4  12  28  49  74 110 149 196 247 310 375 437
#     4  11  22  46  74 110 146 195 251 295 375 446
#     4  11  26  47  75 111 148 194 249 305 372 443
#
# _framework density 23.031257
#
# number of rings (size 3 to 8) (size 9 to 14) (size 15 to 20)
#    0.000    0.571    5.714    0.429    8.000    4.000 
#    0.000    0.000    0.000    0.000    0.000    0.000 
#    0.000    0.000    0.000    0.000    0.000    0.000 
#
# Total GULP energy -173531.053500 kJ/mol
# GULP energy per Si atom -12395.075250 kJ/mol
# Density = 2.297884 g / cm^3
# Si number density = 23.031257 Si / 1000 Ang^3
#
#
#
# Elastic Constant Matrix: (Units=GPa)
#
#
# Indices 1 2 3 4 5 6 
#
# 1 140.5950 60.6044 51.5537 0.0000 1.1940 0.0000
# 2 60.6044 202.6186 63.7939 0.0000 11.7557 0.0000
# 3 51.5537 63.7939 128.0826 0.0000 10.4362 0.0000
# 4 0.0000 0.0000 0.0000 29.4529 0.0000 3.3645
# 5 1.1940 11.7557 10.4362 0.0000 51.3345 0.0000
# 6 0.0000 0.0000 0.0000 3.3645 0.0000 12.3342
#
#
#
# Elastic Compliance Matrix: (Units=1/GPa)
#
#
# Indices 1 2 3 4 5 6 
#
# 1 0.008903 -0.001850 -0.002725 0.000000 0.000770 0.000000
# 2 -0.001850 0.006267 -0.002302 0.000000 -0.000924 0.000000
# 3 -0.002725 -0.002302 0.010171 0.000000 -0.001477 0.000000
# 4 0.000000 0.000000 0.000000 0.035044 0.000000 -0.009559
# 5 0.000770 -0.000924 -0.001477 0.000000 0.019974 0.000000
# 6 0.000000 0.000000 0.000000 -0.009559 0.000000 0.083683
#
#
# Mechanical properties :
#
#
# Convention : Reuss Voigt Hill
#
# Bulk Modulus (GPa) = 86.29378 91.46668 88.88023
# Shear Modulus (GPa) = 27.52450 38.31395 32.91923
#
# Velocity S-wave (km/s) = 3.46076 4.08311 3.78475
# Velocity P-wave (km/s) = 7.31564 7.87587 7.60092
#
# Compressibility (1/GPa) = 0.01158832
#
# Stress axis : x y z
#
# Youngs Moduli (GPa) = 112.32788 159.56954 98.31947
#
# Poissons Ratio (x) = 0.29514 0.26791
# Poissons Ratio (y) = 0.20776 0.22629
# Poissons Ratio (z) = 0.30608 0.36726
#
# Static dielectric constant tensor:
#      x y z
#    x 4.455520 0.000000 0.194990 
#    y 0.000000 4.409880 0.000000 
#    z 0.194990 0.000000 3.899140 
# 
# 
# High freq. dielectric constant tensor:
#      x y z
#    x 1.925420 0.000000 -0.000750 
#    y 0.000000 1.927790 0.000000 
#    z -0.000750 0.000000 1.896340 
# 
# From -- ./inp_files/45140.got.cif
#   From: 2010.06.25/outbox.cif.g09.slc.cpg/sg12_23_cif.got.tgz:45140.got - 2010.06.28 00:19:55.
