data_PCOD8115045
_publ_section_title
;
Structure prediction by ZEFSAII (Michael W. Deem and Ramdas Pophale) SiO2 
 PCOD8115045
Probable space group: C 2/M
;
_chemical_formula_sum "Si O2"
_cell_formula_units_Z 64
_cell_length_a 16.266122
_cell_length_b 25.280512
_cell_length_c 14.485998
_cell_angle_alpha 90.000000
_cell_angle_beta 150.460347
_cell_angle_gamma 90.000000
_cell_volume 2936.891840
_symmetry_space_group_name_H-M "C 2/M"
_symmetry_group_IT_number 12
_symmetry_cell_setting 'monoclinic'
loop_
_space_group_symop_operation_xyz
x,y,z
-x,y,-z
-x,-y,-z
x,-y,z
1/2+x,1/2+y,z
1/2-x,1/2+y,-z
1/2-x,1/2-y,-z
1/2+x,1/2-y,z
loop_
_atom_site_type_symbol
_atom_site_label
_atom_site_fract_x
_atom_site_fract_y
_atom_site_fract_z
Si Si1 0.695744 0.562447 0.792662
Si Si2 0.581609 0.222639 0.816470
Si Si3 0.317115 0.402466 0.422397
Si Si4 0.683550 0.060060 0.477752
Si Si5 0.990650 0.887508 0.883886
Si Si6 0.832045 0.396437 0.113979
Si Si7 0.575577 0.734074 0.166868
Si Si8 0.602950 0.286224 0.513067
O O1 0.725463 0.500000 0.828905
O O2 0.753643 0.583375 0.748504
O O3 0.502378 0.575315 0.617688
O O4 0.803428 0.591120 0.977663
O O5 0.609501 0.163283 0.811574
O O6 0.463146 0.224739 0.789550
O O7 0.518223 0.262260 0.678403
O O8 0.750000 0.250000 0.000000
O O9 0.201561 0.429456 0.386172
O O10 0.308560 0.339822 0.434937
O O11 0.819295 0.092803 0.669769
O O12 0.488127 0.071215 0.309852
O O13 0.722391 0.000000 0.540216
O O14 0.989147 0.824216 0.873666
O O15 0.000000 0.905145 0.000000
O O16 0.158388 0.909090 0.997847
O O17 0.772867 0.737729 0.343676
O O18 0.500000 0.757105 0.000000
O O19 0.500000 0.305166 0.500000
#
# Coordination Sequence:
#
# PCOD8115045 Si02
#       8
#     8   8   8   8   8   8   8   8
#     4  11  22  41  70 101 141 189 234 284 348 415
#     4  12  23  41  67  97 136 177 229 280 340 409
#     4  11  22  41  68 104 147 184 234 279 344 425
#     4  12  26  47  74 104 138 181 236 290 352 415
#     4  11  26  49  71 100 137 181 232 292 355 418
#     4  12  26  45  72 104 137 182 236 291 351 419
#     4  11  24  42  66  93 138 180 222 272 344 410
#     4  12  24  39  65 102 138 179 229 285 334 408
#
# _framework density 21.791746
#
# number of rings (size 3 to 8) (size 9 to 14) (size 15 to 20)
#    0.000    0.500    3.750    6.000    3.500    1.750 
#    0.000    1.875    0.000    0.000    0.000    0.000 
#    0.000    0.000    0.000    0.000    0.000    0.000 
#
# Total GULP energy -396728.658457 kJ/mol
# GULP energy per Si atom -12397.770577 kJ/mol
# Density = 2.174215 g / cm^3
# Si number density = 21.791746 Si / 1000 Ang^3
#
#
#
# Elastic Constant Matrix: (Units=GPa)
#
#
# Indices 1 2 3 4 5 6 
#
# 1 80.7622 27.5179 53.7807 0.0000 -4.0187 0.0000
# 2 27.5179 97.1319 22.1160 0.0000 -7.3818 0.0000
# 3 53.7807 22.1160 126.0721 0.0000 1.2452 0.0000
# 4 0.0000 0.0000 0.0000 7.6997 0.0000 8.8520
# 5 -4.0187 -7.3818 1.2452 0.0000 37.6787 0.0000
# 6 0.0000 0.0000 0.0000 8.8520 0.0000 26.3570
#
#
#
# Elastic Compliance Matrix: (Units=1/GPa)
#
#
# Indices 1 2 3 4 5 6 
#
# 1 0.018499 -0.003462 -0.007299 0.000000 0.001536 0.000000
# 2 -0.003462 0.011551 -0.000568 0.000000 0.001913 0.000000
# 3 -0.007299 -0.000568 0.011158 0.000000 -0.001259 0.000000
# 4 0.000000 0.000000 0.000000 0.211558 0.000000 -0.071051
# 5 0.001536 0.001913 -0.001259 0.000000 0.027120 0.000000
# 6 0.000000 0.000000 0.000000 -0.071051 0.000000 0.061803
#
#
# Mechanical properties :
#
#
# Convention : Reuss Voigt Hill
#
# Bulk Modulus (GPa) = 53.91332 56.75506 55.33419
# Shear Modulus (GPa) = 13.49416 27.71719 20.60568
#
# Velocity S-wave (km/s) = 2.49114 3.57026 3.07835
# Velocity P-wave (km/s) = 5.75051 6.56479 6.17109
#
# Compressibility (1/GPa) = 0.01854829
#
# Stress axis : x y z
#
# Youngs Moduli (GPa) = 54.05791 86.57367 89.62336
#
# Poissons Ratio (x) = 0.29973 0.65417
# Poissons Ratio (y) = 0.18715 0.05093
# Poissons Ratio (z) = 0.39458 0.04920
#
# Static dielectric constant tensor:
#      x y z
#    x 4.220860 0.000000 -0.017570 
#    y 0.000000 3.736070 0.000000 
#    z -0.017570 0.000000 4.060150 
# 
# 
# High freq. dielectric constant tensor:
#      x y z
#    x 1.855770 0.000000 0.001540 
#    y 0.000000 1.857970 0.000000 
#    z 0.001540 0.000000 1.869030 
# 
# From -- ./inp_files/228192.got.cif
#   From: 2010.06.25/outbox.cif.g09.slc.cpg/sg12_115_cif.got.tgz:228192.got - 2010.06.28 00:19:55.
