data_PCOD8115563
_publ_section_title
;
Structure prediction by ZEFSAII (Michael W. Deem and Ramdas Pophale) SiO2 
 PCOD8115563
Probable space group: C 2/M
;
_chemical_formula_sum "Si O2"
_cell_formula_units_Z 32
_cell_length_a 36.707676
_cell_length_b 8.410141
_cell_length_c 4.970480
_cell_angle_alpha 90.000000
_cell_angle_beta 74.489255
_cell_angle_gamma 90.000000
_cell_volume 1478.585417
_symmetry_space_group_name_H-M "C 2/M"
_symmetry_group_IT_number 12
_symmetry_cell_setting 'monoclinic'
loop_
_space_group_symop_operation_xyz
x,y,z
-x,y,-z
-x,-y,-z
x,-y,z
1/2+x,1/2+y,z
1/2-x,1/2+y,-z
1/2-x,1/2-y,-z
1/2+x,1/2-y,z
loop_
_atom_site_type_symbol
_atom_site_label
_atom_site_fract_x
_atom_site_fract_y
_atom_site_fract_z
Si Si1 0.291754 0.814747 0.453244
Si Si2 0.831927 0.185462 0.873541
Si Si3 0.582228 0.684345 0.373673
Si Si4 0.457150 0.815541 0.048526
O O1 0.250000 0.750000 0.500000
O O2 0.304780 0.785024 0.732059
O O3 0.292659 0.000000 0.383905
O O4 0.320292 0.721662 0.201695
O O5 0.874842 0.241697 0.747152
O O6 0.827149 0.000000 0.819327
O O7 0.578113 0.500000 0.309233
O O8 0.569998 0.715078 0.703690
O O9 0.555209 0.785439 0.232875
O O10 0.453401 0.000000 0.128888
O O11 0.500000 0.756537 0.000000
#
# Coordination Sequence:
#
# PCOD8115563 Si02
#       4
#     8   8   8   8
#     4  12  25  42  65  93 124 162 205 250 303 361
#     4  11  24  43  64  91 126 161 202 253 306 361
#     4  11  24  41  64  92 123 161 204 253 306 361
#     4  11  24  41  62  90 125 163 204 253 306 361
#
# _framework density 21.642306000000001
#
# number of rings (size 3 to 8) (size 9 to 14) (size 15 to 20)
#    0.000    0.750    0.000    7.500    0.000   15.000 
#    0.000    0.000    0.000    0.000    0.000    0.000 
#    0.000    0.000    0.000    0.000    0.000    0.000 
#
# Total GULP energy -198586.589769 kJ/mol
# GULP energy per Si atom -12411.661861 kJ/mol
# Density = 2.159305 g / cm^3
# Si number density = 21.642306 Si / 1000 Ang^3
#
#
#
# Elastic Constant Matrix: (Units=GPa)
#
#
# Indices 1 2 3 4 5 6 
#
# 1 101.4316 46.5641 3.4787 0.0000 -1.4148 0.0000
# 2 46.5641 70.9516 16.6111 0.0000 -11.4884 0.0000
# 3 3.4787 16.6111 83.8093 0.0000 -7.1328 0.0000
# 4 0.0000 0.0000 0.0000 40.6967 0.0000 3.9029
# 5 -1.4148 -11.4884 -7.1328 0.0000 45.7087 0.0000
# 6 0.0000 0.0000 0.0000 3.9029 0.0000 30.6325
#
#
#
# Elastic Compliance Matrix: (Units=1/GPa)
#
#
# Indices 1 2 3 4 5 6 
#
# 1 0.014402 -0.010046 0.001233 0.000000 -0.001887 0.000000
# 2 -0.010046 0.022296 -0.003599 0.000000 0.004731 0.000000
# 3 0.001233 -0.003599 0.012689 0.000000 0.001114 0.000000
# 4 0.000000 0.000000 0.000000 0.024876 0.000000 -0.003170
# 5 -0.001887 0.004731 0.001114 0.000000 0.023182 0.000000
# 6 0.000000 0.000000 0.000000 -0.003170 0.000000 0.033049
#
#
# Mechanical properties :
#
#
# Convention : Reuss Voigt Hill
#
# Bulk Modulus (GPa) = 40.71405 43.27783 41.99594
# Shear Modulus (GPa) = 30.57991 36.04347 33.31169
#
# Velocity S-wave (km/s) = 3.76303 4.08538 3.92751
# Velocity P-wave (km/s) = 6.14277 6.50339 6.32565
#
# Compressibility (1/GPa) = 0.02456155
#
# Stress axis : x y z
#
# Youngs Moduli (GPa) = 69.43475 44.85153 78.80923
#
# Poissons Ratio (x) = 0.45057 -0.09715
# Poissons Ratio (y) = 0.69753 0.28367
# Poissons Ratio (z) = -0.08560 0.16144
#
# Static dielectric constant tensor:
#      x y z
#    x 3.959300 0.000000 -0.065010 
#    y 0.000000 3.794940 0.000000 
#    z -0.065010 0.000000 3.865860 
# 
# 
# High freq. dielectric constant tensor:
#      x y z
#    x 1.863170 0.000000 -0.001810 
#    y 0.000000 1.855350 0.000000 
#    z -0.001810 0.000000 1.862190 
# 
# From -- ./inp_files/30183.got.cif
#   From: 2010.06.25/outbox.cif.g09.slc.cpg/sg12_16_cif.got.tgz:30183.got - 2010.06.28 00:19:55.
