data_PCOD8115238
_publ_section_title
;
Structure prediction by ZEFSAII (Michael W. Deem and Ramdas Pophale) SiO2 
 PCOD8115238
Probable space group: C 2/M
;
_chemical_formula_sum "Si O2"
_cell_formula_units_Z 48
_cell_length_a 16.031593
_cell_length_b 28.625305
_cell_length_c 16.719199
_cell_angle_alpha 90.000000
_cell_angle_beta 162.786290
_cell_angle_gamma 90.000000
_cell_volume 2270.601838
_symmetry_space_group_name_H-M "C 2/M"
_symmetry_group_IT_number 12
_symmetry_cell_setting 'monoclinic'
loop_
_space_group_symop_operation_xyz
x,y,z
-x,y,-z
-x,-y,-z
x,-y,z
1/2+x,1/2+y,z
1/2-x,1/2+y,-z
1/2-x,1/2-y,-z
1/2+x,1/2-y,z
loop_
_atom_site_type_symbol
_atom_site_label
_atom_site_fract_x
_atom_site_fract_y
_atom_site_fract_z
Si Si1 0.552902 0.555190 0.325816
Si Si2 0.311605 0.170435 0.256425
Si Si3 0.066296 0.239493 0.408903
Si Si4 0.280020 0.601571 0.227745
Si Si5 0.451123 0.179207 0.095822
Si Si6 0.117913 0.607658 0.827233
O O1 0.552340 0.500000 0.327900
O O2 0.453119 0.573248 0.320851
O O3 0.855121 0.573889 0.579291
O O4 0.361363 0.574097 0.080076
O O5 0.500000 0.149355 0.500000
O O6 0.487184 0.214645 0.385448
O O7 0.285778 0.129544 0.167985
O O8 0.000000 0.185462 0.000000
O O9 0.250000 0.250000 0.500000
O O10 0.239739 0.203711 0.625974
O O11 0.782262 0.218798 0.112577
O O12 0.500000 0.613738 0.500000
O O13 0.126637 0.647726 0.051633
O O14 0.000000 0.572287 0.000000
O O15 0.450806 0.149634 0.176231
#
# Coordination Sequence:
#
# PCOD8115238 Si02
#       6
#     8   8   8   8   8   8
#     4  11  24  43  71 100 122 166 224 266 325 403
#     4  12  27  43  66  99 132 169 220 270 331 379
#     4  12  24  40  67  93 131 177 223 275 306 371
#     4  11  23  39  62  95 139 177 212 264 326 378
#     4  11  23  40  66  91 128 183 229 256 308 379
#     4  11  23  44  70  92 129 171 214 270 323 394
#
# _framework density 21.139769999999999
#
# number of rings (size 3 to 8) (size 9 to 14) (size 15 to 20)
#    0.000    0.667    1.667    8.000    2.333    3.333 
#    0.000    1.667    0.000   10.000    0.000    0.000 
#    0.000    0.000    0.000    0.000    0.000    0.000 
#
# Total GULP energy -297576.922599 kJ/mol
# GULP energy per Si atom -12399.038442 kJ/mol
# Density = 2.109166 g / cm^3
# Si number density = 21.139770 Si / 1000 Ang^3
#
#
#
# Elastic Constant Matrix: (Units=GPa)
#
#
# Indices 1 2 3 4 5 6 
#
# 1 123.4483 55.1413 52.9040 -0.0174 -5.6484 -0.0090
# 2 55.1413 104.4060 43.3841 -0.0098 -19.7299 -0.0041
# 3 52.9040 43.3841 164.3226 -0.0297 -10.6409 -0.0311
# 4 -0.0174 -0.0098 -0.0297 33.3801 -0.0265 -3.1213
# 5 -5.6484 -19.7299 -10.6409 -0.0265 41.6148 -0.0272
# 6 -0.0090 -0.0041 -0.0311 -3.1213 -0.0272 3.4761
#
#
#
# Elastic Compliance Matrix: (Units=1/GPa)
#
#
# Indices 1 2 3 4 5 6 
#
# 1 0.011436 -0.005356 -0.002371 0.000000 -0.001593 -0.000010
# 2 -0.005356 0.014142 -0.001650 0.000008 0.005556 0.000039
# 3 -0.002371 -0.001650 0.007334 0.000012 0.000772 0.000075
# 4 0.000000 0.000008 0.000012 0.032704 0.000047 0.029367
# 5 -0.001593 0.005556 0.000772 0.000047 0.026645 0.000260
# 6 -0.000010 0.000039 0.000075 0.029367 0.000260 0.314051
#
#
# Mechanical properties :
#
#
# Convention : Reuss Voigt Hill
#
# Bulk Modulus (GPa) = 70.62283 77.22620 73.92451
# Shear Modulus (GPa) = 11.63372 31.74404 21.68888
#
# Velocity S-wave (km/s) = 2.34844 3.87929 3.20656
# Velocity P-wave (km/s) = 6.39012 7.52833 6.98246
#
# Compressibility (1/GPa) = 0.01415973
#
# Stress axis : x y z
#
# Youngs Moduli (GPa) = 87.44302 70.71124 136.34257
#
# Poissons Ratio (x) = 0.37871 0.32327
# Poissons Ratio (y) = 0.46832 0.22492
# Poissons Ratio (z) = 0.20733 0.11665
#
# Static dielectric constant tensor:
#      x y z
#    x 3.928200 0.000020 -0.004770 
#    y 0.000020 3.657100 -0.000070 
#    z -0.004770 -0.000070 4.322130 
# 
# 
# High freq. dielectric constant tensor:
#      x y z
#    x 1.830040 0.000000 0.001090 
#    y 0.000000 1.810940 -0.000010 
#    z 0.001090 -0.000010 1.860900 
# 
# From -- ./inp_files/219609.got.cif
#   From: 2010.06.25/outbox.cif.g09.slc.cpg/sg12_110_cif.got.tgz:219609.got - 2010.06.28 00:19:55.
