data_PCOD8115024
_publ_section_title
;
Structure prediction by ZEFSAII (Michael W. Deem and Ramdas Pophale) SiO2 
 PCOD8115024
Probable space group: C 2/M
;
_chemical_formula_sum "Si O2"
_cell_formula_units_Z 64
_cell_length_a 17.983390
_cell_length_b 22.101294
_cell_length_c 14.339917
_cell_angle_alpha 90.000000
_cell_angle_beta 33.099470
_cell_angle_gamma 90.000000
_cell_volume 3112.457827
_symmetry_space_group_name_H-M "C 2/M"
_symmetry_group_IT_number 12
_symmetry_cell_setting 'monoclinic'
loop_
_space_group_symop_operation_xyz
x,y,z
-x,y,-z
-x,-y,-z
x,-y,z
1/2+x,1/2+y,z
1/2-x,1/2+y,-z
1/2-x,1/2-y,-z
1/2+x,1/2-y,z
loop_
_atom_site_type_symbol
_atom_site_label
_atom_site_fract_x
_atom_site_fract_y
_atom_site_fract_z
Si Si1 0.756599 0.570322 0.992874
Si Si2 0.699787 0.817001 0.402377
Si Si3 0.222053 0.832585 0.879378
Si Si4 0.870540 0.885465 0.689040
Si Si5 0.047235 0.759610 0.326053
Si Si6 0.854295 0.432010 0.199545
Si Si7 0.454062 0.127458 0.268468
Si Si8 0.971984 0.762969 0.199483
O O1 0.758637 0.500000 0.963869
O O2 0.699901 0.607141 0.963458
O O3 0.907176 0.591726 0.860519
O O4 0.656644 0.579938 0.185725
O O5 0.744166 0.852151 0.262341
O O6 0.590299 0.766811 0.482151
O O7 0.624913 0.862943 0.551273
O O8 0.822785 0.784556 0.326425
O O9 0.340836 0.793324 0.803448
O O10 0.085093 0.792817 0.014470
O O11 0.892956 0.814372 0.678837
O O12 0.743290 0.887901 0.754119
O O13 0.000000 0.914792 0.500000
O O14 0.004734 0.784870 0.269529
O O15 0.797741 0.500000 0.251581
O O16 0.858727 0.413125 0.302934
O O17 0.000000 0.426197 0.000000
O O18 0.482477 0.190401 0.185104
#
# Coordination Sequence:
#
# PCOD8115024 Si02
#       8
#     8   8   8   8   8   8   8   8
#     4  12  25  45  70  93 131 186 232 277 328 390
#     4  11  25  41  66 101 143 171 214 279 343 400
#     4  12  23  43  66 101 138 172 220 280 331 400
#     4  12  26  41  68 101 136 172 221 280 343 400
#     4  11  22  41  65 100 137 171 212 273 341 398
#     4  11  25  43  63  92 133 178 223 267 318 395
#     4  11  23  41  68  98 134 175 227 272 325 405
#     4  11  23  40  67  99 135 175 211 271 350 402
#
# _framework density 20.562526999999999
#
# number of rings (size 3 to 8) (size 9 to 14) (size 15 to 20)
#    0.000    0.625    5.000    4.875    5.250    1.000 
#    0.000    1.875    0.000    2.250    0.000    0.000 
#    0.000    0.000    0.000    0.000    0.000    0.000 
#
# Total GULP energy -396907.511714 kJ/mol
# GULP energy per Si atom -12403.359741 kJ/mol
# Density = 2.051573 g / cm^3
# Si number density = 20.562527 Si / 1000 Ang^3
#
#
#
# Elastic Constant Matrix: (Units=GPa)
#
#
# Indices 1 2 3 4 5 6 
#
# 1 99.6254 52.9435 45.3825 0.0176 6.7899 -0.0108
# 2 52.9435 102.3509 58.4213 0.0049 -0.8177 -0.0052
# 3 45.3825 58.4213 128.3552 0.0122 10.4354 -0.0063
# 4 0.0176 0.0049 0.0122 20.6121 -0.0130 3.0024
# 5 6.7899 -0.8177 10.4354 -0.0130 44.1580 0.0059
# 6 -0.0108 -0.0052 -0.0063 3.0024 0.0059 31.8044
#
#
#
# Elastic Compliance Matrix: (Units=1/GPa)
#
#
# Indices 1 2 3 4 5 6 
#
# 1 0.014467 -0.006301 -0.002097 -0.000012 -0.001846 0.000005
# 2 -0.006301 0.016070 -0.005291 0.000007 0.002517 -0.000002
# 3 -0.002097 -0.005291 0.011136 -0.000005 -0.002407 0.000002
# 4 -0.000012 0.000007 -0.000005 0.049192 0.000018 -0.004644
# 5 -0.001846 0.002517 -0.002407 0.000018 0.023545 -0.000007
# 6 0.000005 -0.000002 0.000002 -0.004644 -0.000007 0.031881
#
#
# Mechanical properties :
#
#
# Convention : Reuss Voigt Hill
#
# Bulk Modulus (GPa) = 69.95540 71.53625 70.74582
# Shear Modulus (GPa) = 28.02145 30.88718 29.45431
#
# Velocity S-wave (km/s) = 3.69554 3.87991 3.78885
# Velocity P-wave (km/s) = 7.23215 7.41193 7.32259
#
# Compressibility (1/GPa) = 0.01429482
#
# Stress axis : x y z
#
# Youngs Moduli (GPa) = 69.12106 62.22780 89.79668
#
# Poissons Ratio (x) = 0.39212 0.18831
# Poissons Ratio (y) = 0.43555 0.47511
# Poissons Ratio (z) = 0.14495 0.32925
#
# Static dielectric constant tensor:
#      x y z
#    x 3.769970 0.000010 0.115840 
#    y 0.000010 3.529090 -0.000010 
#    z 0.115840 -0.000010 3.811340 
# 
# 
# High freq. dielectric constant tensor:
#      x y z
#    x 1.817230 0.000000 0.001740 
#    y 0.000000 1.780270 0.000000 
#    z 0.001740 0.000000 1.813980 
# 
# From -- ./inp_files/228117.got.cif
#   From: 2010.06.25/outbox.cif.g09.slc.cpg/sg12_115_cif.got.tgz:228117.got - 2010.06.28 00:19:55.
