data_PCOD8115295
_publ_section_title
;
Structure prediction by ZEFSAII (Michael W. Deem and Ramdas Pophale) SiO2 
 PCOD8115295
Probable space group: C 2/M
;
_chemical_formula_sum "Si O2"
_cell_formula_units_Z 40
_cell_length_a 17.691097
_cell_length_b 22.375342
_cell_length_c 9.088447
_cell_angle_alpha 90.000000
_cell_angle_beta 28.791119
_cell_angle_gamma 90.000000
_cell_volume 1732.673323
_symmetry_space_group_name_H-M "C 2/M"
_symmetry_group_IT_number 12
_symmetry_cell_setting 'monoclinic'
loop_
_space_group_symop_operation_xyz
x,y,z
-x,y,-z
-x,-y,-z
x,-y,z
1/2+x,1/2+y,z
1/2-x,1/2+y,-z
1/2-x,1/2-y,-z
1/2+x,1/2-y,z
loop_
_atom_site_type_symbol
_atom_site_label
_atom_site_fract_x
_atom_site_fract_y
_atom_site_fract_z
Si Si1 0.860728 0.180896 0.434123
Si Si2 0.083577 0.311867 0.708960
Si Si3 0.547686 0.436118 0.085383
Si Si4 0.812169 0.810682 0.830820
Si Si5 0.357787 0.893612 0.655132
O O1 0.959542 0.242889 0.255454
O O2 0.768095 0.178168 0.437512
O O3 0.971142 0.123941 0.280862
O O4 0.746707 0.183853 0.773117
O O5 0.055504 0.349334 0.608489
O O6 0.000000 0.335369 0.000000
O O7 0.490495 0.500000 0.254834
O O8 0.500000 0.437828 0.000000
O O9 0.738052 0.436808 0.774666
O O10 0.000000 0.811356 0.500000
O O11 0.750000 0.750000 0.000000
O O12 0.750424 0.862897 0.037991
O O13 0.500000 0.926705 0.500000
#
# Coordination Sequence:
#
# PCOD8115295 Si02
#       5
#     8   8   8   8   8
#     4  11  23  40  65 100 140 181 240 280 354 420
#     4  11  24  38  66 100 145 179 227 293 365 424
#     4  11  24  46  73  99 136 191 245 293 343 422
#     4  12  24  38  63 100 146 188 223 289 364 431
#     4  12  25  43  67 105 144 183 231 295 366 420
#
# _framework density 23.085713999999999
#
# number of rings (size 3 to 8) (size 9 to 14) (size 15 to 20)
#    0.000    0.600    6.000    2.400    5.600    0.400 
#    0.000    2.000    0.000    4.800    0.000    0.000 
#    0.000    0.000    0.000    0.000    0.000    0.000 
#
# Total GULP energy -247772.522674 kJ/mol
# GULP energy per Si atom -12388.626134 kJ/mol
# Density = 2.303317 g / cm^3
# Si number density = 23.085714 Si / 1000 Ang^3
#
#
#
# Elastic Constant Matrix: (Units=GPa)
#
#
# Indices 1 2 3 4 5 6 
#
# 1 141.2822 33.0139 31.6436 -0.0077 -3.1267 0.0126
# 2 33.0139 112.0829 28.0459 -0.0041 -10.8390 0.0073
# 3 31.6436 28.0459 95.4570 -0.0230 13.8805 0.0060
# 4 -0.0077 -0.0041 -0.0230 21.7638 0.0093 4.3403
# 5 -3.1267 -10.8390 13.8805 0.0093 45.2584 -0.0110
# 6 0.0126 0.0073 0.0060 4.3403 -0.0110 -58.4270
#
#
#
# Elastic Compliance Matrix: (Units=1/GPa)
#
#
# Indices 1 2 3 4 5 6 
#
# 1 0.008005 -0.001707 -0.002274 0.000000 0.000842 0.000001
# 2 -0.001707 0.010496 -0.003000 -0.000003 0.003316 0.000000
# 3 -0.002274 -0.003000 0.012810 0.000014 -0.004804 0.000002
# 4 0.000000 -0.000003 0.000014 0.045277 -0.000014 0.003363
# 5 0.000842 0.003316 -0.004804 -0.000014 0.024421 -0.000005
# 6 0.000001 0.000000 0.000002 0.003363 -0.000005 -0.016866
#
#
# Mechanical properties :
#
#
# Convention : Reuss Voigt Hill
#
# Bulk Modulus (GPa) = 57.64500 59.35878 58.50189
# Shear Modulus (GPa) = 48.12786 18.79363 33.46074
#
# Velocity S-wave (km/s) = 4.57086 2.85631 3.81125
# Velocity P-wave (km/s) = 7.27194 6.05361 6.69056
#
# Compressibility (1/GPa) = 0.01734756
#
# Stress axis : x y z
#
# Youngs Moduli (GPa) = 124.92148 95.27235 78.06458
#
# Poissons Ratio (x) = 0.16267 0.17755
# Poissons Ratio (y) = 0.21329 0.23420
# Poissons Ratio (z) = 0.28412 0.28582
#
# Static dielectric constant tensor:
#      x y z
#    x 4.899950 0.000160 -0.122030 
#    y 0.000160 4.733950 0.000480 
#    z -0.122030 0.000480 3.834320 
# 
# 
# High freq. dielectric constant tensor:
#      x y z
#    x 1.952680 0.000000 -0.006560 
#    y 0.000000 1.873280 0.000000 
#    z -0.006560 0.000000 1.903190 
# 
# From -- ./inp_files/79263.got.cif
#   From: 2010.06.25/outbox.cif.g09.slc.cpg/sg12_40_cif.got.tgz:79263.got - 2010.06.28 00:19:55.
