data_PCOD8115212
_publ_section_title
;
Structure prediction by ZEFSAII (Michael W. Deem and Ramdas Pophale) SiO2 
 PCOD8115212
Probable space group: C 2/M
;
_chemical_formula_sum "Si O2"
_cell_formula_units_Z 56
_cell_length_a 17.665630
_cell_length_b 8.950629
_cell_length_c 20.426622
_cell_angle_alpha 90.000000
_cell_angle_beta 119.152540
_cell_angle_gamma 90.000000
_cell_volume 2820.691389
_symmetry_space_group_name_H-M "C 2/M"
_symmetry_group_IT_number 12
_symmetry_cell_setting 'monoclinic'
loop_
_space_group_symop_operation_xyz
x,y,z
-x,y,-z
-x,-y,-z
x,-y,z
1/2+x,1/2+y,z
1/2-x,1/2+y,-z
1/2-x,1/2-y,-z
1/2+x,1/2-y,z
loop_
_atom_site_type_symbol
_atom_site_label
_atom_site_fract_x
_atom_site_fract_y
_atom_site_fract_z
Si Si1 0.066776 0.675204 0.266592
Si Si2 0.754834 0.174662 0.146401
Si Si3 0.896775 0.676940 0.117773
Si Si4 0.596999 0.675254 0.018931
Si Si5 0.376336 0.331578 0.586362
Si Si6 0.682381 0.831881 0.558382
Si Si7 0.252310 0.327903 0.295355
O O1 0.064489 0.500000 0.277994
O O2 0.060584 0.752133 0.335072
O O3 0.153442 0.726272 0.265081
O O4 0.986196 0.727488 0.188984
O O5 0.818149 0.275671 0.130586
O O6 0.779049 0.200912 0.232150
O O7 0.761688 0.000000 0.130588
O O8 0.657627 0.232778 0.093910
O O9 0.893346 0.500000 0.103281
O O10 0.886325 0.766008 0.046599
O O11 0.618616 0.500000 0.031229
O O12 0.500000 0.710272 0.000000
O O13 0.408468 0.500000 0.591379
O O14 0.382505 0.253049 0.518164
O O15 0.278983 0.322214 0.571426
O O16 0.680819 0.759984 0.629961
O O17 0.648998 0.000000 0.550097
O O18 0.259431 0.500000 0.318040
#
# Coordination Sequence:
#
# PCOD8115212 Si02
#       7
#     8   8   8   8   8   8   8
#     4   9  18  33  53  77 105 139 180 224 270 321
#     4  11  23  39  59  82 112 148 184 223 270 325
#     4  11  23  39  59  82 112 148 184 223 270 325
#     4  11  24  41  62  87 113 141 178 225 272 321
#     4   9  16  26  44  72 105 139 175 219 269 319
#     4   9  16  26  44  72 105 139 175 219 269 319
#     4   9  18  33  53  77 105 139 180 224 270 321
#
# _framework density 19.853289
#
# number of rings (size 3 to 8) (size 9 to 14) (size 15 to 20)
#    0.000    2.143    0.000    3.429    0.000    8.000 
#    0.000    2.857    0.000    0.857    0.000    6.000 
#    0.000    0.000    0.000    0.000    0.000    0.000 
#
# Total GULP energy -347274.141834 kJ/mol
# GULP energy per Si atom -12402.647923 kJ/mol
# Density = 1.980810 g / cm^3
# Si number density = 19.853289 Si / 1000 Ang^3
#
#
#
# Elastic Constant Matrix: (Units=GPa)
#
#
# Indices 1 2 3 4 5 6 
#
# 1 42.0026 6.9263 3.5659 0.0000 -13.9627 0.0000
# 2 6.9263 66.1114 33.8790 0.0000 -5.2101 0.0000
# 3 3.5659 33.8790 95.1268 0.0000 -17.0565 0.0000
# 4 0.0000 0.0000 0.0000 37.2840 0.0000 2.6430
# 5 -13.9627 -5.2101 -17.0565 0.0000 17.2770 0.0000
# 6 0.0000 0.0000 0.0000 2.6430 0.0000 20.4536
#
#
#
# Elastic Compliance Matrix: (Units=1/GPa)
#
#
# Indices 1 2 3 4 5 6 
#
# 1 0.034953 -0.004186 0.006099 0.000000 0.033006 0.000000
# 2 -0.004186 0.019022 -0.007528 0.000000 -0.005079 0.000000
# 3 0.006099 -0.007528 0.016333 0.000000 0.018783 0.000000
# 4 0.000000 0.000000 0.000000 0.027069 0.000000 -0.003498
# 5 0.033006 -0.005079 0.018783 0.000000 0.101566 0.000000
# 6 0.000000 0.000000 0.000000 -0.003498 0.000000 0.049343
#
#
# Mechanical properties :
#
#
# Convention : Reuss Voigt Hill
#
# Bulk Modulus (GPa) = 16.92732 32.44256 24.68494
# Shear Modulus (GPa) = 17.90768 25.59423 21.75096
#
# Velocity S-wave (km/s) = 3.00659 3.59439 3.31355
# Velocity P-wave (km/s) = 4.53845 5.79680 5.20578
#
# Compressibility (1/GPa) = 0.05907609
#
# Stress axis : x y z
#
# Youngs Moduli (GPa) = 28.61016 52.57000 61.22687
#
# Poissons Ratio (x) = 0.22006 -0.37340
# Poissons Ratio (y) = 0.11976 0.46094
# Poissons Ratio (z) = -0.17448 0.39577
#
# Static dielectric constant tensor:
#      x y z
#    x 3.274590 0.000000 0.053550 
#    y 0.000000 3.660240 0.000000 
#    z 0.053550 0.000000 3.803390 
# 
# 
# High freq. dielectric constant tensor:
#      x y z
#    x 1.738570 0.000000 -0.000790 
#    y 0.000000 1.781200 0.000000 
#    z -0.000790 0.000000 1.791730 
# 
# From -- ./inp_files/275695.got.cif
#   From: 2010.06.25/outbox.cif.g09.slc.cpg/sg12_138_cif.got.tgz:275695.got - 2010.06.28 00:19:55.
