data_PCOD8115873
_publ_section_title
;
Structure prediction by ZEFSAII (Michael W. Deem and Ramdas Pophale) SiO2 
 PCOD8115873
Probable space group: C 2/M
;
_chemical_formula_sum "Si O2"
_cell_formula_units_Z 56
_cell_length_a 10.199104
_cell_length_b 14.898439
_cell_length_c 25.718403
_cell_angle_alpha 90.000000
_cell_angle_beta 128.743857
_cell_angle_gamma 90.000000
_cell_volume 3047.996269
_symmetry_space_group_name_H-M "C 2/M"
_symmetry_group_IT_number 12
_symmetry_cell_setting 'monoclinic'
loop_
_space_group_symop_operation_xyz
x,y,z
-x,y,-z
-x,-y,-z
x,-y,z
1/2+x,1/2+y,z
1/2-x,1/2+y,-z
1/2-x,1/2-y,-z
1/2+x,1/2-y,z
loop_
_atom_site_type_symbol
_atom_site_label
_atom_site_fract_x
_atom_site_fract_y
_atom_site_fract_z
Si Si1 0.128745 0.896855 0.350939
Si Si2 0.896531 0.257591 0.258101
Si Si3 0.350242 0.105878 0.495403
Si Si4 0.956753 0.396566 0.361457
Si Si5 0.055670 0.602941 0.930995
Si Si6 0.731510 0.397221 0.917554
Si Si7 0.501939 0.240863 0.168983
O O1 0.175680 0.869265 0.422799
O O2 0.288592 0.881202 0.353356
O O3 0.974108 0.837272 0.294282
O O4 0.069525 0.000000 0.333504
O O5 0.957238 0.336456 0.310686
O O6 0.698926 0.245235 0.209305
O O7 0.960037 0.285454 0.217261
O O8 0.500000 0.152088 0.500000
O O9 0.377736 0.132469 0.562867
O O10 0.373692 0.000000 0.497400
O O11 0.970403 0.500000 0.347348
O O12 0.054058 0.500000 0.912202
O O13 0.881378 0.627766 0.915666
O O14 0.082853 0.665185 0.887944
O O15 0.209118 0.619677 0.008688
O O16 0.676567 0.500000 0.896383
O O17 0.571027 0.337645 0.864450
#
# Coordination Sequence:
#
# PCOD8115873 Si02
#       7
#     8   8   8   8   8   8   8
#     4   9  18  35  57  79 107 146 192 232 270 328
#     4  12  24  35  54  83 116 154 185 218 271 338
#     4   7  12  27  54  80 100 135 187 237 276 313
#     4   9  18  35  56  79 110 145 186 234 279 325
#     4   9  19  38  63  87 109 141 186 230 272 321
#     4   9  19  38  64  86 107 144 188 226 270 325
#     4  12  23  38  55  84 119 148 183 222 273 327
#
# _framework density 18.372726
#
# number of rings (size 3 to 8) (size 9 to 14) (size 15 to 20)
#    0.000    2.429    2.857    3.000    0.000    2.857 
#    0.000    0.000    0.000    1.714    0.000    3.000 
#    0.000    0.000    0.000    0.000    0.000    0.000 
#
# Total GULP energy -347031.468217 kJ/mol
# GULP energy per Si atom -12393.981008 kJ/mol
# Density = 1.833091 g / cm^3
# Si number density = 18.372726 Si / 1000 Ang^3
#
#
#
# Elastic Constant Matrix: (Units=GPa)
#
#
# Indices 1 2 3 4 5 6 
#
# 1 94.2020 42.2027 64.5375 0.0000 -12.3245 0.0000
# 2 42.2027 99.4177 72.5145 0.0000 -10.2666 0.0000
# 3 64.5375 72.5145 138.4204 0.0000 -17.8139 0.0000
# 4 0.0000 0.0000 0.0000 33.9347 0.0000 -1.7038
# 5 -12.3245 -10.2666 -17.8139 0.0000 26.2308 0.0000
# 6 0.0000 0.0000 0.0000 -1.7038 0.0000 17.0602
#
#
#
# Elastic Compliance Matrix: (Units=1/GPa)
#
#
# Indices 1 2 3 4 5 6 
#
# 1 0.016043 -0.002152 -0.006017 0.000000 0.002609 0.000000
# 2 -0.002152 0.016577 -0.007644 0.000000 0.000286 0.000000
# 3 -0.006017 -0.007644 0.014558 0.000000 0.004068 0.000000
# 4 0.000000 0.000000 0.000000 0.029617 0.000000 0.002958
# 5 0.002609 0.000286 0.004068 0.000000 0.042223 0.000000
# 6 0.000000 0.000000 0.000000 0.002958 0.000000 0.058911
#
#
# Mechanical properties :
#
#
# Convention : Reuss Voigt Hill
#
# Bulk Modulus (GPa) = 64.30097 76.72772 70.51434
# Shear Modulus (GPa) = 23.28402 25.63082 24.45742
#
# Velocity S-wave (km/s) = 3.56380 3.73909 3.65249
# Velocity P-wave (km/s) = 7.21167 7.77775 7.50006
#
# Compressibility (1/GPa) = 0.01555186
#
# Stress axis : x y z
#
# Youngs Moduli (GPa) = 62.33221 60.32356 68.69282
#
# Poissons Ratio (x) = 0.12984 0.41330
# Poissons Ratio (y) = 0.13416 0.52509
# Poissons Ratio (z) = 0.37503 0.46112
#
# Static dielectric constant tensor:
#      x y z
#    x 2.987600 0.000000 -0.051930 
#    y 0.000000 3.270130 0.000000 
#    z -0.051930 0.000000 3.747290 
# 
# 
# High freq. dielectric constant tensor:
#      x y z
#    x 1.673220 0.000000 -0.002270 
#    y 0.000000 1.705480 0.000000 
#    z -0.002270 0.000000 1.736920 
# 
# From -- ./inp_files/333010.got.cif
#   From: 2010.06.25/outbox.cif.g09.slc.cpg/sg12_167_cif.got.tgz:333010.got - 2010.06.28 00:19:55.
