data_PCOD8115149
_publ_section_title
;
Structure prediction by ZEFSAII (Michael W. Deem and Ramdas Pophale) SiO2 
 PCOD8115149
Probable space group: C 2/M
;
_chemical_formula_sum "Si O2"
_cell_formula_units_Z 56
_cell_length_a 18.119685
_cell_length_b 15.375054
_cell_length_c 21.297877
_cell_angle_alpha 90.000000
_cell_angle_beta 28.804310
_cell_angle_gamma 90.000000
_cell_volume 2858.828237
_symmetry_space_group_name_H-M "C 2/M"
_symmetry_group_IT_number 12
_symmetry_cell_setting 'monoclinic'
loop_
_space_group_symop_operation_xyz
x,y,z
-x,y,-z
-x,-y,-z
x,-y,z
1/2+x,1/2+y,z
1/2-x,1/2+y,-z
1/2-x,1/2-y,-z
1/2+x,1/2-y,z
loop_
_atom_site_type_symbol
_atom_site_label
_atom_site_fract_x
_atom_site_fract_y
_atom_site_fract_z
Si Si1 0.994015 0.405550 0.578798
Si Si2 0.022085 0.735531 0.910918
Si Si3 0.431879 0.398982 0.912505
Si Si4 0.690830 0.903078 0.988487
Si Si5 0.955552 0.098398 0.689503
Si Si6 0.669033 0.601857 0.633935
Si Si7 0.373107 0.735218 0.649162
O O1 0.945312 0.500000 0.643956
O O2 0.878362 0.327866 0.683215
O O3 0.000000 0.417469 0.500000
O O4 0.155565 0.374604 0.486810
O O5 0.198558 0.726734 0.757426
O O6 0.946244 0.831846 0.959932
O O7 0.000000 0.708333 0.000000
O O8 0.939100 0.667772 0.926534
O O9 0.453474 0.500000 0.918049
O O10 0.270358 0.387479 0.996942
O O11 0.568892 0.363213 0.766288
O O12 0.815599 0.895785 0.841337
O O13 0.617931 0.000000 0.041922
O O14 0.922354 0.154711 0.653842
O O15 0.106349 0.135908 0.613303
O O16 0.980895 0.000000 0.646912
O O17 0.636287 0.500000 0.658152
O O18 0.500000 0.741573 0.500000
#
# Coordination Sequence:
#
# PCOD8115149 Si02
#       7
#     8   8   8   8   8   8   8
#     4   9  17  31  51  75 106 141 180 220 260 322
#     4  12  23  36  57  87 117 149 188 229 281 339
#     4   9  18  34  58  86 115 147 186 232 283 333
#     4   9  19  38  62  83 106 148 198 237 271 330
#     4   9  18  35  57  81 110 140 185 236 278 326
#     4   8  15  31  57  82 104 145 193 227 266 328
#     4  11  23  36  53  83 115 146 183 226 280 335
#
# _framework density 19.588445
#
# number of rings (size 3 to 8) (size 9 to 14) (size 15 to 20)
#    0.000    2.429    1.429    3.857    0.000    3.714 
#    0.000    0.000    0.000    0.000    0.000    0.000 
#    0.000    0.000    0.000    0.000    0.000    0.000 
#
# Total GULP energy -346938.940894 kJ/mol
# GULP energy per Si atom -12390.676460 kJ/mol
# Density = 1.954386 g / cm^3
# Si number density = 19.588445 Si / 1000 Ang^3
#
#
#
# Elastic Constant Matrix: (Units=GPa)
#
#
# Indices 1 2 3 4 5 6 
#
# 1 96.9604 52.7714 29.1450 0.0027 -26.5966 -0.0011
# 2 52.7714 108.0863 25.1586 0.0145 -16.6055 -0.0050
# 3 29.1450 25.1586 58.3410 0.0097 -19.2923 0.0000
# 4 0.0027 0.0145 0.0097 31.7370 0.0126 -1.9404
# 5 -26.5966 -16.6055 -19.2923 0.0126 24.3058 -0.0022
# 6 -0.0011 -0.0050 0.0000 -1.9404 -0.0022 36.7672
#
#
#
# Elastic Compliance Matrix: (Units=1/GPa)
#
#
# Indices 1 2 3 4 5 6 
#
# 1 0.018135 -0.006283 -0.001637 -0.000004 0.014252 0.000000
# 2 -0.006283 0.012883 -0.002413 -0.000005 0.000011 0.000001
# 3 -0.001637 -0.002413 0.024218 -0.000012 0.015783 0.000000
# 4 -0.000004 -0.000005 -0.000012 0.031611 -0.000033 0.001668
# 5 0.014252 0.000011 0.015783 -0.000033 0.069272 0.000003
# 6 0.000000 0.000001 0.000000 0.001668 0.000003 0.027286
#
#
# Mechanical properties :
#
#
# Convention : Reuss Voigt Hill
#
# Bulk Modulus (GPa) = 28.92802 53.05974 40.99388
# Shear Modulus (GPa) = 23.19169 28.98284 26.08726
#
# Velocity S-wave (km/s) = 3.44459 3.85071 3.65330
# Velocity P-wave (km/s) = 5.53355 6.84958 6.22643
#
# Compressibility (1/GPa) = 0.03456856
#
# Stress axis : x y z
#
# Youngs Moduli (GPa) = 55.14312 77.62203 41.29150
#
# Poissons Ratio (x) = 0.48773 0.06760
# Poissons Ratio (y) = 0.34649 0.09964
# Poissons Ratio (z) = 0.09027 0.18731
#
# Static dielectric constant tensor:
#      x y z
#    x 3.914050 -0.000010 -0.302030 
#    y -0.000010 4.023210 0.000010 
#    z -0.302030 0.000010 3.189190 
# 
# 
# High freq. dielectric constant tensor:
#      x y z
#    x 1.767510 0.000000 -0.027490 
#    y 0.000000 1.770040 0.000000 
#    z -0.027490 0.000000 1.720960 
# 
# From -- ./inp_files/316678.got.cif
#   From: 2010.06.25/outbox.cif.g09.slc.cpg/sg12_159_cif.got.tgz:316678.got - 2010.06.28 00:19:55.
