data_PCOD8115617
_publ_section_title
;
Structure prediction by ZEFSAII (Michael W. Deem and Ramdas Pophale) SiO2 
 PCOD8115617
Probable space group: C 2/M
;
_chemical_formula_sum "Si O2"
_cell_formula_units_Z 48
_cell_length_a 9.113848
_cell_length_b 18.887787
_cell_length_c 17.925069
_cell_angle_alpha 90.000000
_cell_angle_beta 128.090980
_cell_angle_gamma 90.000000
_cell_volume 2428.489153
_symmetry_space_group_name_H-M "C 2/M"
_symmetry_group_IT_number 12
_symmetry_cell_setting 'monoclinic'
loop_
_space_group_symop_operation_xyz
x,y,z
-x,y,-z
-x,-y,-z
x,-y,z
1/2+x,1/2+y,z
1/2-x,1/2+y,-z
1/2-x,1/2-y,-z
1/2+x,1/2-y,z
loop_
_atom_site_type_symbol
_atom_site_label
_atom_site_fract_x
_atom_site_fract_y
_atom_site_fract_z
Si Si1 0.011294 0.081081 0.125149
Si Si2 0.694850 0.177767 0.521750
Si Si3 0.783137 0.918110 0.419830
Si Si4 0.697179 0.918803 0.909599
Si Si5 0.355116 0.169334 0.761238
Si Si6 0.510492 0.684424 0.263435
O O1 0.018909 0.130178 0.198718
O O2 0.199276 0.091755 0.136752
O O3 0.994251 0.000000 0.146211
O O4 0.833882 0.102265 0.019664
O O5 0.500000 0.190436 0.500000
O O6 0.750000 0.250000 0.500000
O O7 0.670352 0.116737 0.452548
O O8 0.851546 0.154967 0.629990
O O9 0.724303 0.885803 0.322985
O O10 0.000000 0.903748 0.500000
O O11 0.730692 0.000000 0.402108
O O12 0.521188 0.867227 0.859221
O O13 0.632116 0.000000 0.897651
O O14 0.425991 0.238377 0.741432
O O15 0.198252 0.190471 0.771288
#
# Coordination Sequence:
#
# PCOD8115617 Si02
#       6
#     8   8   8   8   8   8
#     4   9  21  42  66  95 126 162 208 259 314 377
#     4  12  24  42  66  90 128 170 210 254 312 368
#     4  11  24  43  64  92 128 164 207 259 310 374
#     4   9  20  42  68  91 127 168 202 254 322 377
#     4  12  24  40  63  93 124 167 214 252 318 370
#     4  12  25  39  64  94 124 166 210 265 308 369
#
# _framework density 19.765374999999999
#
# number of rings (size 3 to 8) (size 9 to 14) (size 15 to 20)
#    0.000    1.167    3.333    4.000    2.333    3.667 
#    0.000    1.667    0.000    0.000    0.000    0.000 
#    0.000    0.000    0.000    0.000    0.000    0.000 
#
# Total GULP energy -297744.476440 kJ/mol
# GULP energy per Si atom -12406.019852 kJ/mol
# Density = 1.972039 g / cm^3
# Si number density = 19.765375 Si / 1000 Ang^3
#
#
#
# Elastic Constant Matrix: (Units=GPa)
#
#
# Indices 1 2 3 4 5 6 
#
# 1 116.8475 44.9195 29.5222 0.0000 6.0033 0.0000
# 2 44.9195 106.8531 37.3710 0.0000 -6.6752 0.0000
# 3 29.5222 37.3710 87.0492 0.0000 -2.8447 0.0000
# 4 0.0000 0.0000 0.0000 29.5699 0.0000 5.9228
# 5 6.0033 -6.6752 -2.8447 0.0000 37.1655 0.0000
# 6 0.0000 0.0000 0.0000 5.9228 0.0000 26.7090
#
#
#
# Elastic Compliance Matrix: (Units=1/GPa)
#
#
# Indices 1 2 3 4 5 6 
#
# 1 0.010726 -0.003965 -0.002021 0.000000 -0.002599 0.000000
# 2 -0.003965 0.012576 -0.003969 0.000000 0.002595 0.000000
# 3 -0.002021 -0.003969 0.013899 0.000000 0.000677 0.000000
# 4 0.000000 0.000000 0.000000 0.035390 0.000000 -0.007848
# 5 -0.002599 0.002595 0.000677 0.000000 0.027845 0.000000
# 6 0.000000 0.000000 0.000000 -0.007848 0.000000 0.039181
#
#
# Mechanical properties :
#
#
# Convention : Reuss Voigt Hill
#
# Bulk Modulus (GPa) = 57.83127 59.37503 58.60315
# Shear Modulus (GPa) = 30.24973 31.95138 31.10055
#
# Velocity S-wave (km/s) = 3.91633 4.02497 3.97102
# Velocity P-wave (km/s) = 7.05497 7.19067 7.12314
#
# Compressibility (1/GPa) = 0.01729168
#
# Stress axis : x y z
#
# Youngs Moduli (GPa) = 93.22738 79.51745 71.94631
#
# Poissons Ratio (x) = 0.31528 0.14537
# Poissons Ratio (y) = 0.36964 0.28558
# Poissons Ratio (z) = 0.18837 0.31564
#
# Static dielectric constant tensor:
#      x y z
#    x 3.702000 0.000000 0.028980 
#    y 0.000000 3.624790 0.000000 
#    z 0.028980 0.000000 3.715560 
# 
# 
# High freq. dielectric constant tensor:
#      x y z
#    x 1.775200 0.000000 0.001690 
#    y 0.000000 1.775720 0.000000 
#    z 0.001690 0.000000 1.780970 
# 
# From -- ./inp_files/256449.got.cif
#   From: 2010.06.25/outbox.cif.g09.slc.cpg/sg12_129_cif.got.tgz:256449.got - 2010.06.28 00:19:55.
