data_PCOD8115471
_publ_section_title
;
Structure prediction by ZEFSAII (Michael W. Deem and Ramdas Pophale) SiO2 
 PCOD8115471
Probable space group: C 2/M
;
_chemical_formula_sum "Si O2"
_cell_formula_units_Z 48
_cell_length_a 19.625192
_cell_length_b 15.777003
_cell_length_c 15.875780
_cell_angle_alpha 90.000000
_cell_angle_beta 150.187251
_cell_angle_gamma 90.000000
_cell_volume 2443.857174
_symmetry_space_group_name_H-M "C 2/M"
_symmetry_group_IT_number 12
_symmetry_cell_setting 'monoclinic'
loop_
_space_group_symop_operation_xyz
x,y,z
-x,y,-z
-x,-y,-z
x,-y,z
1/2+x,1/2+y,z
1/2-x,1/2+y,-z
1/2-x,1/2-y,-z
1/2+x,1/2-y,z
loop_
_atom_site_type_symbol
_atom_site_label
_atom_site_fract_x
_atom_site_fract_y
_atom_site_fract_z
Si Si1 0.780349 0.290699 0.942788
Si Si2 0.062132 0.656549 0.302801
Si Si3 0.200926 0.794427 0.557104
Si Si4 0.471271 0.591399 0.373545
Si Si5 0.658997 0.319414 0.150923
Si Si6 0.990015 0.500000 0.631185
Si Si7 0.214732 0.500000 0.740235
O O1 0.660720 0.352897 0.787168
O O2 0.795808 0.218747 0.889550
O O3 0.750000 0.250000 0.000000
O O4 0.921529 0.342036 0.099958
O O5 0.094870 0.745131 0.383392
O O6 0.184627 0.649132 0.367343
O O7 0.049314 0.581456 0.356099
O O8 0.259650 0.726841 0.686786
O O9 0.113045 0.867431 0.501534
O O10 0.500000 0.574835 0.500000
O O11 0.450670 0.500000 0.306062
O O12 0.691728 0.418359 0.176949
O O13 0.500000 0.306998 0.000000
O O14 0.902836 0.500000 0.454151
O O15 0.147111 0.500000 0.762780
#
# Coordination Sequence:
#
# PCOD8115471 Si02
#       7
#     8   8   8   8   8   4   4
#     4  12  24  42  67  98 135 177 221 281 336 404
#     4  11  24  42  65 100 131 175 225 273 337 399
#     4  11  23  44  69  92 134 182 224 275 332 408
#     4  11  25  43  66  97 131 174 228 275 333 395
#     4  12  24  45  68 101 138 181 229 274 346 416
#     4  11  24  42  68  99 136 178 226 280 341 411
#     4  11  25  42  70 100 139 177 224 281 347 407
#
# _framework density 19.641082999999998
#
# number of rings (size 3 to 8) (size 9 to 14) (size 15 to 20)
#    0.000    0.667    6.667    1.250    2.333    0.000 
#    1.500    0.000    0.000    4.000    0.000    0.000 
#    0.000    0.000    0.000    0.000    0.000    0.000 
#
# Total GULP energy -297442.010898 kJ/mol
# GULP energy per Si atom -12393.417121 kJ/mol
# Density = 1.959638 g / cm^3
# Si number density = 19.641083 Si / 1000 Ang^3
#
#
#
# Elastic Constant Matrix: (Units=GPa)
#
#
# Indices 1 2 3 4 5 6 
#
# 1 96.7045 63.6669 26.7474 0.0000 11.7404 0.0000
# 2 63.6669 129.9665 54.6601 -0.0002 18.2117 -0.0001
# 3 26.7474 54.6601 104.9406 0.0000 6.9313 0.0000
# 4 0.0000 -0.0002 0.0000 10.4680 0.0000 -14.6481
# 5 11.7404 18.2117 6.9313 0.0000 26.5543 0.0000
# 6 0.0000 -0.0001 0.0000 -14.6481 0.0000 64.3686
#
#
#
# Elastic Compliance Matrix: (Units=1/GPa)
#
#
# Indices 1 2 3 4 5 6 
#
# 1 0.015341 -0.007258 -0.000011 0.000000 -0.001802 0.000000
# 2 -0.007258 0.014149 -0.005180 0.000000 -0.005143 0.000000
# 3 -0.000011 -0.005180 0.012206 0.000000 0.000371 0.000000
# 4 0.000000 0.000000 0.000000 0.140163 0.000000 0.031896
# 5 -0.001802 -0.005143 0.000371 0.000000 0.041886 0.000000
# 6 0.000000 0.000000 0.000000 0.031896 0.000000 0.022794
#
#
# Mechanical properties :
#
#
# Convention : Reuss Voigt Hill
#
# Bulk Modulus (GPa) = 59.53135 69.08447 64.30791
# Shear Modulus (GPa) = 18.04824 32.71398 25.38111
#
# Velocity S-wave (km/s) = 3.03463 4.08559 3.59868
# Velocity P-wave (km/s) = 6.53101 7.58326 7.07672
#
# Compressibility (1/GPa) = 0.01679787
#
# Stress axis : x y z
#
# Youngs Moduli (GPa) = 65.18476 70.67582 81.93003
#
# Poissons Ratio (x) = 0.51298 0.00087
# Poissons Ratio (y) = 0.47312 0.42441
# Poissons Ratio (z) = 0.00069 0.36611
#
# Static dielectric constant tensor:
#      x y z
#    x 4.073860 0.000000 0.050570 
#    y 0.000000 3.647000 0.000000 
#    z 0.050570 0.000000 3.741420 
# 
# 
# High freq. dielectric constant tensor:
#      x y z
#    x 1.782480 0.000000 0.005900 
#    y 0.000000 1.768360 0.000000 
#    z 0.005900 0.000000 1.775880 
# 
# From -- ./inp_files/112760.got.cif
#   From: 2010.06.25/outbox.cif.g09.slc.cpg/sg12_57_cif.got.tgz:112760.got - 2010.06.28 00:19:55.
