data_PCOD8115647
_publ_section_title
;
Structure prediction by ZEFSAII (Michael W. Deem and Ramdas Pophale) SiO2 
 PCOD8115647
Probable space group: C 2/M
;
_chemical_formula_sum "Si O2"
_cell_formula_units_Z 40
_cell_length_a 20.157284
_cell_length_b 14.507502
_cell_length_c 17.800842
_cell_angle_alpha 90.000000
_cell_angle_beta 19.454444
_cell_angle_gamma 90.000000
_cell_volume 1733.740526
_symmetry_space_group_name_H-M "C 2/M"
_symmetry_group_IT_number 12
_symmetry_cell_setting 'monoclinic'
loop_
_space_group_symop_operation_xyz
x,y,z
-x,y,-z
-x,-y,-z
x,-y,z
1/2+x,1/2+y,z
1/2-x,1/2+y,-z
1/2-x,1/2-y,-z
1/2+x,1/2-y,z
loop_
_atom_site_type_symbol
_atom_site_label
_atom_site_fract_x
_atom_site_fract_y
_atom_site_fract_z
Si Si1 0.027661 0.298875 0.156967
Si Si2 0.512702 0.500000 0.214542
Si Si3 0.500000 0.153207 0.500000
Si Si4 0.630553 0.000000 0.250728
Si Si5 0.189398 0.280848 0.753285
Si Si6 0.061822 0.500000 0.703280
Si Si7 0.532959 0.676481 0.288747
O O1 0.971364 0.407642 0.212020
O O2 0.960238 0.256571 0.308992
O O3 0.914495 0.242120 0.211960
O O4 0.264073 0.287849 0.889452
O O5 0.580229 0.586206 0.191978
O O6 0.285420 0.500000 0.434598
O O7 0.628855 0.500000 0.010699
O O8 0.301310 0.207931 0.687076
O O9 0.554125 0.091928 0.370985
O O10 0.575517 0.000000 0.222345
O O11 0.369311 0.345137 0.528790
O O12 0.000000 0.327787 0.000000
#
# Coordination Sequence:
#
# PCOD8115647 Si02
#       7
#     8   4   4   4   8   4   8
#     4  11  24  43  73 102 142 183 249 303 354 420
#     4  12  25  41  75 105 144 176 243 303 358 412
#     4  11  28  46  66 103 156 192 238 279 378 443
#     4  11  26  46  68 106 148 191 228 310 358 440
#     4  12  26  43  68 101 143 192 236 288 355 436
#     4  12  23  43  73 110 136 182 245 304 359 411
#     4  11  24  44  70 107 137 191 242 305 358 418
#
# _framework density 23.071501999999999
#
# number of rings (size 3 to 8) (size 9 to 14) (size 15 to 20)
#    0.000    0.600    4.000    3.000    8.400    0.000 
#    0.000    4.000    0.000    4.800    0.000    0.000 
#    0.000    0.000    0.000    0.000    0.000    0.000 
#
# Total GULP energy -247772.469612 kJ/mol
# GULP energy per Si atom -12388.623481 kJ/mol
# Density = 2.301899 g / cm^3
# Si number density = 23.071502 Si / 1000 Ang^3
#
#
#
# Elastic Constant Matrix: (Units=GPa)
#
#
# Indices 1 2 3 4 5 6 
#
# 1 106.0630 31.3214 39.5141 -0.0778 -20.0152 -0.1250
# 2 31.3214 90.8553 8.6134 -0.1440 4.7761 -0.3575
# 3 39.5141 8.6134 172.2134 -0.0892 14.3837 -0.3023
# 4 -0.0778 -0.1440 -0.0892 7.9447 -0.0005 -34.9735
# 5 -20.0152 4.7761 14.3837 -0.0005 44.8394 0.0465
# 6 -0.1250 -0.3575 -0.3023 -34.9735 0.0465 -48.9525
#
#
#
# Elastic Compliance Matrix: (Units=1/GPa)
#
#
# Indices 1 2 3 4 5 6 
#
# 1 0.013603 -0.004760 -0.003527 0.000033 0.007711 0.000006
# 2 -0.004760 0.012771 0.000765 -0.000048 -0.003731 -0.000055
# 3 -0.003527 0.000765 0.006901 -0.000032 -0.003870 -0.000020
# 4 0.000033 -0.000048 -0.000032 0.030367 0.000053 -0.021695
# 5 0.007711 -0.003731 -0.003870 0.000053 0.027382 0.000020
# 6 0.000006 -0.000055 -0.000020 -0.021695 0.000020 -0.004928
#
#
# Mechanical properties :
#
#
# Convention : Reuss Voigt Hill
#
# Bulk Modulus (GPa) = 54.85480 58.66994 56.76237
# Shear Modulus (GPa) = 46.63382 20.07851 33.35617
#
# Velocity S-wave (km/s) = 4.50074 2.95324 3.80646
# Velocity P-wave (km/s) = 7.12997 6.09210 6.63137
#
# Compressibility (1/GPa) = 0.01822994
#
# Stress axis : x y z
#
# Youngs Moduli (GPa) = 73.51130 78.30281 144.90792
#
# Poissons Ratio (x) = 0.37276 0.51111
# Poissons Ratio (y) = 0.34995 -0.11085
# Poissons Ratio (z) = 0.25929 -0.05990
#
# Static dielectric constant tensor:
#      x y z
#    x 4.180960 0.000020 -0.171320 
#    y 0.000020 4.047350 0.000010 
#    z -0.171320 0.000010 4.512230 
# 
# 
# High freq. dielectric constant tensor:
#      x y z
#    x 1.911470 0.000000 -0.014500 
#    y 0.000000 1.878240 0.000010 
#    z -0.014500 0.000010 1.945620 
# 
# From -- ./inp_files/284458.got.cif
#   From: 2010.06.25/outbox.cif.g09.slc.cpg/sg12_143_cif.got.tgz:284458.got - 2010.06.28 00:19:55.
