data_PCOD8115302
_publ_section_title
;
Structure prediction by ZEFSAII (Michael W. Deem and Ramdas Pophale) SiO2 
 PCOD8115302
Probable space group: C 2/M
;
_chemical_formula_sum "Si O2"
_cell_formula_units_Z 40
_cell_length_a 24.225685
_cell_length_b 8.720321
_cell_length_c 18.529185
_cell_angle_alpha 90.000000
_cell_angle_beta 149.970293
_cell_angle_gamma 90.000000
_cell_volume 1958.955818
_symmetry_space_group_name_H-M "C 2/M"
_symmetry_group_IT_number 12
_symmetry_cell_setting 'monoclinic'
loop_
_space_group_symop_operation_xyz
x,y,z
-x,y,-z
-x,-y,-z
x,-y,z
1/2+x,1/2+y,z
1/2-x,1/2+y,-z
1/2-x,1/2-y,-z
1/2+x,1/2-y,z
loop_
_atom_site_type_symbol
_atom_site_label
_atom_site_fract_x
_atom_site_fract_y
_atom_site_fract_z
Si Si1 0.039328 0.675640 0.353241
Si Si2 0.297081 0.175791 0.125021
Si Si3 0.243279 0.319680 0.346454
Si Si4 0.951708 0.181093 0.790734
Si Si5 0.339591 0.180239 0.905048
O O1 0.071694 0.500000 0.374722
O O2 0.133625 0.757784 0.505730
O O3 0.017122 0.758587 0.252639
O O4 0.929030 0.687140 0.275871
O O5 0.252898 0.266548 0.143777
O O6 0.256919 0.000000 0.083445
O O7 0.250000 0.250000 0.000000
O O8 0.242759 0.500000 0.357969
O O9 0.167191 0.244200 0.321224
O O10 0.200618 0.273037 0.219562
O O11 0.947298 0.000000 0.784424
O O12 0.044057 0.237056 0.951197
O O13 0.358656 0.000000 0.934716
#
# Coordination Sequence:
#
# PCOD8115302 Si02
#       5
#     8   8   8   8   8
#     4  11  24  42  65  93 127 165 208 258 311 371
#     4  11  23  40  66  94 124 163 208 260 310 368
#     4  11  25  43  63  91 129 168 207 257 315 372
#     4  12  24  40  66  94 125 166 211 259 310 372
#     4  11  24  42  65  93 127 166 209 258 312 370
#
# _framework density 20.419039999999999
#
# number of rings (size 3 to 8) (size 9 to 14) (size 15 to 20)
#    0.000    0.800    2.000    5.400    0.000    8.800 
#    0.000    4.000    0.000    0.000    0.000    0.000 
#    0.000    0.000    0.000    0.000    0.000    0.000 
#
# Total GULP energy -248172.133092 kJ/mol
# GULP energy per Si atom -12408.606655 kJ/mol
# Density = 2.037257 g / cm^3
# Si number density = 20.419040 Si / 1000 Ang^3
#
#
#
# Elastic Constant Matrix: (Units=GPa)
#
#
# Indices 1 2 3 4 5 6 
#
# 1 67.7760 16.7316 6.9625 0.0000 6.2070 0.0000
# 2 16.7316 108.8358 43.8616 0.0000 -4.6418 0.0000
# 3 6.9625 43.8616 118.1274 0.0000 8.6594 0.0000
# 4 0.0000 0.0000 0.0000 39.5923 0.0000 1.8916
# 5 6.2070 -4.6418 8.6594 0.0000 34.5270 0.0000
# 6 0.0000 0.0000 0.0000 1.8916 0.0000 35.3121
#
#
#
# Elastic Compliance Matrix: (Units=1/GPa)
#
#
# Indices 1 2 3 4 5 6 
#
# 1 0.015681 -0.002673 0.000307 0.000000 -0.003255 0.000000
# 2 -0.002673 0.011478 -0.004332 0.000000 0.003110 0.000000
# 3 0.000307 -0.004332 0.010292 0.000000 -0.003219 0.000000
# 4 0.000000 0.000000 0.000000 0.025322 0.000000 -0.001356
# 5 -0.003255 0.003110 -0.003219 0.000000 0.030773 0.000000
# 6 0.000000 0.000000 0.000000 -0.001356 0.000000 0.028392
#
#
# Mechanical properties :
#
#
# Convention : Reuss Voigt Hill
#
# Bulk Modulus (GPa) = 41.57368 47.76119 44.66744
# Shear Modulus (GPa) = 34.87903 37.03184 35.95544
#
# Velocity S-wave (km/s) = 4.13748 4.26325 4.20083
# Velocity P-wave (km/s) = 6.57491 6.90471 6.74183
#
# Compressibility (1/GPa) = 0.02405368
#
# Stress axis : x y z
#
# Youngs Moduli (GPa) = 63.77139 87.12573 97.16406
#
# Poissons Ratio (x) = 0.23291 -0.02983
# Poissons Ratio (y) = 0.17048 0.42093
# Poissons Ratio (z) = -0.01958 0.37744
#
# Static dielectric constant tensor:
#      x y z
#    x 3.759350 0.000000 0.132110 
#    y 0.000000 3.893150 0.000000 
#    z 0.132110 0.000000 3.797480 
# 
# 
# High freq. dielectric constant tensor:
#      x y z
#    x 1.805070 0.000000 0.007840 
#    y 0.000000 1.816750 0.000000 
#    z 0.007840 0.000000 1.808390 
# 
# From -- ./inp_files/162722.got.cif
#   From: 2010.06.25/outbox.cif.g09.slc.cpg/sg12_82_cif.got.tgz:162722.got - 2010.06.28 00:19:55.
