data_PCOD8115988
_publ_section_title
;
Structure prediction by ZEFSAII (Michael W. Deem and Ramdas Pophale) SiO2 
 PCOD8115988
Probable space group: C 2/M
;
_chemical_formula_sum "Si O2"
_cell_formula_units_Z 48
_cell_length_a 9.748572
_cell_length_b 20.129979
_cell_length_c 21.107657
_cell_angle_alpha 90.000000
_cell_angle_beta 133.850248
_cell_angle_gamma 90.000000
_cell_volume 2987.113576
_symmetry_space_group_name_H-M "C 2/M"
_symmetry_group_IT_number 12
_symmetry_cell_setting 'monoclinic'
loop_
_space_group_symop_operation_xyz
x,y,z
-x,y,-z
-x,-y,-z
x,-y,z
1/2+x,1/2+y,z
1/2-x,1/2+y,-z
1/2-x,1/2-y,-z
1/2+x,1/2-y,z
loop_
_atom_site_type_symbol
_atom_site_label
_atom_site_fract_x
_atom_site_fract_y
_atom_site_fract_z
Si Si1 0.816418 0.926465 0.268921
Si Si2 0.014853 0.421066 0.075042
Si Si3 0.710275 0.421066 0.075042
Si Si4 0.188773 0.687093 0.398648
Si Si5 0.009655 0.573535 0.731079
Si Si6 0.007172 0.187092 0.398648
O O1 0.718419 0.902600 0.171802
O O2 0.653548 0.930708 0.269032
O O3 0.977539 0.874746 0.341810
O O4 0.908701 0.000000 0.290576
O O5 0.996000 0.500000 0.066858
O O6 0.842146 0.391211 0.061431
O O7 0.000000 0.390210 0.000000
O O8 0.704574 0.500000 0.066856
O O9 0.796984 0.402600 0.171801
O O10 0.500000 0.390209 0.000000
O O11 0.057938 0.750000 0.371958
O O12 0.318065 0.703085 0.378710
O O13 0.319244 0.667943 0.500000
O O14 0.047889 0.625254 0.341809
O O15 0.036972 0.500000 0.709423
#
# Coordination Sequence:
#
# PCOD8115988 Si02
#       6
#     8   8   8   8   8   8
#     4   8  14  25  42  64  86 107 135 172 208 238
#     4   8  13  22  37  57  81 106 131 162 200 240
#     4   8  13  22  37  57  81 106 131 162 200 240
#     4   9  17  29  45  63  83 109 139 169 203 246
#     4   8  14  25  42  64  86 107 135 172 208 238
#     4   9  17  29  45  63  83 109 139 169 203 246
#
# _framework density 16.069023000000001
#
# number of rings (size 3 to 8) (size 9 to 14) (size 15 to 20)
#    0.000    3.667    0.000    2.000    0.000    0.667 
#    0.000    5.000    0.000    4.000    0.000   11.667 
#    0.000    0.000    0.000    0.000    0.000    0.000 
#
# Total GULP energy -297419.692687 kJ/mol
# GULP energy per Si atom -12392.487195 kJ/mol
# Density = 1.603245 g / cm^3
# Si number density = 16.069023 Si / 1000 Ang^3
#
#
#
# Elastic Constant Matrix: (Units=GPa)
#
#
# Indices 1 2 3 4 5 6 
#
# 1 46.1505 34.9557 43.6500 -0.0001 0.0018 -0.0001
# 2 34.9557 86.7492 76.6606 0.0000 0.0022 0.0000
# 3 43.6500 76.6606 125.4713 0.0000 0.0017 -0.0001
# 4 -0.0001 0.0000 0.0000 6.7998 -0.0001 -0.0007
# 5 0.0018 0.0022 0.0017 -0.0001 22.6770 -0.0001
# 6 -0.0001 0.0000 -0.0001 -0.0007 -0.0001 17.0849
#
#
#
# Elastic Compliance Matrix: (Units=1/GPa)
#
#
# Indices 1 2 3 4 5 6 
#
# 1 0.034194 -0.007099 -0.007558 0.000000 -0.000001 0.000000
# 2 -0.007099 0.026530 -0.013739 0.000000 -0.000001 0.000000
# 3 -0.007558 -0.013739 0.018994 0.000000 0.000001 0.000000
# 4 0.000000 0.000000 0.000000 0.147064 0.000000 0.000006
# 5 -0.000001 -0.000001 0.000001 0.000000 0.044098 0.000000
# 6 0.000000 0.000000 0.000000 0.000006 0.000000 0.058531
#
#
# Mechanical properties :
#
#
# Convention : Reuss Voigt Hill
#
# Bulk Modulus (GPa) = 43.62263 63.21151 53.41707
# Shear Modulus (GPa) = 12.69534 16.18598 14.44066
#
# Velocity S-wave (km/s) = 2.81383 3.17721 3.00103
# Velocity P-wave (km/s) = 6.14515 7.27203 6.73221
#
# Compressibility (1/GPa) = 0.02292388
#
# Stress axis : x y z
#
# Youngs Moduli (GPa) = 29.24477 37.69367 52.64875
#
# Poissons Ratio (x) = 0.26760 0.39793
# Poissons Ratio (y) = 0.20762 0.72336
# Poissons Ratio (z) = 0.22104 0.51789
#
# Static dielectric constant tensor:
#      x y z
#    x 2.937350 0.000000 0.000000 
#    y 0.000000 2.951050 0.000000 
#    z 0.000000 0.000000 3.345670 
# 
# 
# High freq. dielectric constant tensor:
#      x y z
#    x 1.584580 0.000000 0.000000 
#    y 0.000000 1.580610 0.000000 
#    z 0.000000 0.000000 1.628900 
# 
# From -- ./inp_files/135544.got.cif
#   From: 2010.06.25/outbox.cif.g09.slc.cpg/sg12_68_cif.got.tgz:135544.got - 2010.06.28 00:19:55.
