data_PCOD8115782
_publ_section_title
;
Structure prediction by ZEFSAII (Michael W. Deem and Ramdas Pophale) SiO2 
 PCOD8115782
Probable space group: C 2/M
;
_chemical_formula_sum "Si O2"
_cell_formula_units_Z 48
_cell_length_a 9.585971
_cell_length_b 24.222523
_cell_length_c 15.075632
_cell_angle_alpha 90.000000
_cell_angle_beta 38.259290
_cell_angle_gamma 90.000000
_cell_volume 2167.588726
_symmetry_space_group_name_H-M "C 2/M"
_symmetry_group_IT_number 12
_symmetry_cell_setting 'monoclinic'
loop_
_space_group_symop_operation_xyz
x,y,z
-x,y,-z
-x,-y,-z
x,-y,z
1/2+x,1/2+y,z
1/2-x,1/2+y,-z
1/2-x,1/2-y,-z
1/2+x,1/2-y,z
loop_
_atom_site_type_symbol
_atom_site_label
_atom_site_fract_x
_atom_site_fract_y
_atom_site_fract_z
Si Si1 0.592327 0.594539 0.042275
Si Si2 0.563575 0.640139 0.371284
Si Si3 0.787797 0.249430 0.265031
Si Si4 0.751024 0.130352 0.361642
Si Si5 0.237257 0.714262 0.094482
Si Si6 0.049224 0.561315 0.878061
O O1 0.400641 0.597430 0.214465
O O2 0.500000 0.565953 0.000000
O O3 0.684779 0.654198 0.969861
O O4 0.802358 0.556619 0.960004
O O5 0.500000 0.619556 0.500000
O O6 0.586885 0.706626 0.355456
O O7 0.375784 0.624291 0.393181
O O8 0.795747 0.608394 0.239390
O O9 0.712637 0.193153 0.349002
O O10 0.863579 0.234328 0.123722
O O11 0.966337 0.280554 0.241300
O O12 0.500000 0.104509 0.500000
O O13 0.250000 0.750000 0.000000
O O14 0.160844 0.500000 0.817889
O O15 0.000000 0.582559 0.000000
#
# Coordination Sequence:
#
# PCOD8115782 Si02
#       6
#     8   8   8   8   8   8
#     4  12  23  42  72 101 130 177 224 279 337 399
#     4  12  27  44  70  99 136 185 226 273 331 400
#     4  12  23  38  63  97 140 182 224 265 316 390
#     4  12  27  42  62 100 150 182 216 266 331 407
#     4  12  21  35  62  99 131 177 226 269 319 384
#     4  11  26  49  76  99 125 168 232 296 344 393
#
# _framework density 22.144421999999999
#
# number of rings (size 3 to 8) (size 9 to 14) (size 15 to 20)
#    0.000    0.167    8.333    1.000    4.667    2.000 
#    0.000    0.000    0.000    1.000    0.000    0.000 
#    0.000    0.000    0.000    0.000    0.000    0.000 
#
# Total GULP energy -297392.419054 kJ/mol
# GULP energy per Si atom -12391.350794 kJ/mol
# Density = 2.209402 g / cm^3
# Si number density = 22.144422 Si / 1000 Ang^3
#
#
#
# Elastic Constant Matrix: (Units=GPa)
#
#
# Indices 1 2 3 4 5 6 
#
# 1 170.3185 8.7470 60.6509 0.0000 14.8201 0.0000
# 2 8.7470 47.8696 26.3325 0.0000 5.8460 0.0000
# 3 60.6509 26.3325 118.3090 0.0000 8.6245 -0.0001
# 4 0.0000 0.0000 0.0000 8.7424 0.0000 1.3517
# 5 14.8201 5.8460 8.6245 0.0000 42.4065 0.0000
# 6 0.0000 0.0000 -0.0001 1.3517 0.0000 25.3464
#
#
#
# Elastic Compliance Matrix: (Units=1/GPa)
#
#
# Indices 1 2 3 4 5 6 
#
# 1 0.007361 0.001013 -0.003859 0.000000 -0.001927 0.000000
# 2 0.001013 0.024155 -0.005712 0.000000 -0.002522 0.000000
# 3 -0.003859 -0.005712 0.011720 0.000000 -0.000248 0.000000
# 4 0.000000 0.000000 0.000000 0.115336 0.000000 -0.006151
# 5 -0.001927 -0.002522 -0.000248 0.000000 0.024653 0.000000
# 6 0.000000 0.000000 0.000000 -0.006151 0.000000 0.039781
#
#
# Mechanical properties :
#
#
# Convention : Reuss Voigt Hill
#
# Bulk Modulus (GPa) = 38.28306 58.66199 48.47253
# Shear Modulus (GPa) = 20.09423 31.35017 25.72220
#
# Velocity S-wave (km/s) = 3.01560 3.76668 3.41187
# Velocity P-wave (km/s) = 5.42684 6.74280 6.12029
#
# Compressibility (1/GPa) = 0.02612121
#
# Stress axis : x y z
#
# Youngs Moduli (GPa) = 135.84921 41.39935 85.32522
#
# Poissons Ratio (x) = -0.04193 0.32924
# Poissons Ratio (y) = -0.13760 0.48735
# Poissons Ratio (z) = 0.52419 0.23646
#
# Static dielectric constant tensor:
#      x y z
#    x 4.210410 0.000000 -0.020590 
#    y 0.000000 3.480080 0.000000 
#    z -0.020590 0.000000 4.157420 
# 
# 
# High freq. dielectric constant tensor:
#      x y z
#    x 1.901630 0.000000 -0.003490 
#    y 0.000000 1.837860 0.000000 
#    z -0.003490 0.000000 1.874770 
# 
# From -- ./inp_files/200147.got.cif
#   From: 2010.06.25/outbox.cif.g09.slc.cpg/sg12_101_cif.got.tgz:200147.got - 2010.06.28 00:19:55.
