data_PCOD8115512
_publ_section_title
;
Structure prediction by ZEFSAII (Michael W. Deem and Ramdas Pophale) SiO2 
 PCOD8115512
Probable space group: C 2/M
;
_chemical_formula_sum "Si O2"
_cell_formula_units_Z 28
_cell_length_a 10.027577
_cell_length_b 13.998655
_cell_length_c 15.016698
_cell_angle_alpha 90.000000
_cell_angle_beta 38.577858
_cell_angle_gamma 90.000000
_cell_volume 1314.459534
_symmetry_space_group_name_H-M "C 2/M"
_symmetry_group_IT_number 12
_symmetry_cell_setting 'monoclinic'
loop_
_space_group_symop_operation_xyz
x,y,z
-x,y,-z
-x,-y,-z
x,-y,z
1/2+x,1/2+y,z
1/2-x,1/2+y,-z
1/2-x,1/2-y,-z
1/2+x,1/2-y,z
loop_
_atom_site_type_symbol
_atom_site_label
_atom_site_fract_x
_atom_site_fract_y
_atom_site_fract_z
Si Si1 0.005591 0.657569 0.755217
Si Si2 0.180962 0.000000 0.979526
Si Si3 0.307592 0.200585 0.162084
Si Si4 0.877599 0.000000 0.788589
Si Si5 0.309624 0.500000 0.528109
O O1 0.131137 0.713684 0.766917
O O2 0.167206 0.594287 0.613170
O O3 0.824288 0.593961 0.896552
O O4 0.902019 0.735760 0.744567
O O5 0.068846 0.000000 0.134641
O O6 0.000000 0.000000 0.000000
O O7 0.264374 0.090081 0.164913
O O8 0.500000 0.238419 0.000000
O O9 0.100232 0.000000 0.618912
O O10 0.500000 0.500000 0.500000
#
# Coordination Sequence:
#
# PCOD8115512 Si02
#       5
#     8   4   8   4   4
#     4  11  25  42  71  99 140 175 229 274 341 400
#     4  11  24  44  70 101 133 179 225 290 331 403
#     4  12  23  41  70 107 131 178 226 284 335 403
#     4  12  24  42  72  93 140 175 230 265 348 388
#     4  11  23  49  66  97 135 191 222 272 332 418
#
# _framework density 21.30153
#
# number of rings (size 3 to 8) (size 9 to 14) (size 15 to 20)
#    0.000    0.571    5.714    3.000    4.000    1.143 
#    0.000    2.857    0.000    0.000    0.000    0.000 
#    0.000    0.000    0.000    0.000    0.000    0.000 
#
# Total GULP energy -173714.891197 kJ/mol
# GULP energy per Si atom -12408.206514 kJ/mol
# Density = 2.125305 g / cm^3
# Si number density = 21.301530 Si / 1000 Ang^3
#
#
#
# Elastic Constant Matrix: (Units=GPa)
#
#
# Indices 1 2 3 4 5 6 
#
# 1 178.9562 60.5457 56.9266 0.0019 -3.8041 -0.0001
# 2 60.5457 110.5870 29.1945 0.0037 -19.8489 0.0011
# 3 56.9266 29.1945 139.3296 0.0140 8.3830 0.0034
# 4 0.0019 0.0037 0.0140 13.0899 -0.0042 -5.0543
# 5 -3.8041 -19.8489 8.3830 -0.0042 32.6549 -0.0008
# 6 -0.0001 0.0011 0.0034 -5.0543 -0.0008 31.1850
#
#
#
# Elastic Compliance Matrix: (Units=1/GPa)
#
#
# Indices 1 2 3 4 5 6 
#
# 1 0.007531 -0.003664 -0.002263 0.000002 -0.000769 0.000001
# 2 -0.003664 0.012900 -0.001678 0.000001 0.007845 0.000000
# 3 -0.002263 -0.001678 0.008665 -0.000011 -0.003508 -0.000003
# 4 0.000002 0.000001 -0.000011 0.081495 0.000014 0.013208
# 5 -0.000769 0.007845 -0.003508 0.000014 0.036203 0.000003
# 6 0.000001 0.000000 -0.000003 0.013208 0.000003 0.034207
#
#
# Mechanical properties :
#
#
# Convention : Reuss Voigt Hill
#
# Bulk Modulus (GPa) = 72.01747 80.24515 76.13131
# Shear Modulus (GPa) = 24.89566 34.19968 29.54767
#
# Velocity S-wave (km/s) = 3.42237 4.01122 3.72844
# Velocity P-wave (km/s) = 7.03554 7.69455 7.37241
#
# Compressibility (1/GPa) = 0.01388552
#
# Stress axis : x y z
#
# Youngs Moduli (GPa) = 132.78365 77.52211 115.41309
#
# Poissons Ratio (x) = 0.28402 0.26119
# Poissons Ratio (y) = 0.48648 0.19366
# Poissons Ratio (z) = 0.30050 0.13008
#
# Static dielectric constant tensor:
#      x y z
#    x 3.867270 0.000000 -0.041450 
#    y 0.000000 3.911790 0.000010 
#    z -0.041450 0.000010 3.953370 
# 
# 
# High freq. dielectric constant tensor:
#      x y z
#    x 1.838870 0.000000 -0.004900 
#    y 0.000000 1.842600 0.000000 
#    z -0.004900 0.000000 1.829620 
# 
# From -- ./inp_files/44595.got.cif
#   From: 2010.06.25/outbox.cif.g09.slc.cpg/sg12_23_cif.got.tgz:44595.got - 2010.06.28 00:19:55.
