data_PCOD8115249
_publ_section_title
;
Structure prediction by ZEFSAII (Michael W. Deem and Ramdas Pophale) SiO2 
 PCOD8115249
Probable space group: C 2/M
;
_chemical_formula_sum "Si O2"
_cell_formula_units_Z 64
_cell_length_a 16.059229
_cell_length_b 8.690833
_cell_length_c 32.396531
_cell_angle_alpha 90.000000
_cell_angle_beta 41.521366
_cell_angle_gamma 90.000000
_cell_volume 2997.313435
_symmetry_space_group_name_H-M "C 2/M"
_symmetry_group_IT_number 12
_symmetry_cell_setting 'monoclinic'
loop_
_space_group_symop_operation_xyz
x,y,z
-x,y,-z
-x,-y,-z
x,-y,z
1/2+x,1/2+y,z
1/2-x,1/2+y,-z
1/2-x,1/2-y,-z
1/2+x,1/2-y,z
loop_
_atom_site_type_symbol
_atom_site_label
_atom_site_fract_x
_atom_site_fract_y
_atom_site_fract_z
Si Si1 0.607548 0.323156 0.426585
Si Si2 0.383586 0.180075 0.129212
Si Si3 0.367142 0.682255 0.360949
Si Si4 0.842791 0.679358 0.998035
Si Si5 0.474508 0.822697 0.628948
Si Si6 0.542836 0.180264 0.751226
Si Si7 0.728229 0.823156 0.119330
Si Si8 0.296987 0.323912 0.242082
O O1 0.500000 0.305682 0.500000
O O2 0.645716 0.500000 0.405052
O O3 0.728328 0.234750 0.399429
O O4 0.552739 0.256045 0.404551
O O5 0.517772 0.239535 0.062997
O O6 0.279963 0.282356 0.145016
O O7 0.366801 0.214160 0.183595
O O8 0.364460 0.000000 0.127490
O O9 0.372996 0.500000 0.359672
O O10 0.407975 0.744648 0.390971
O O11 0.467708 0.748099 0.290507
O O12 0.839706 0.500000 0.992615
O O13 0.750000 0.750000 0.000000
O O14 0.800621 0.719043 0.059681
O O15 0.352905 0.807377 0.703722
O O16 0.507717 0.000000 0.608270
O O17 0.419405 0.213098 0.824494
O O18 0.659535 0.265329 0.729279
O O19 0.568578 0.000000 0.737741
O O20 0.753018 0.000000 0.099053
O O21 0.338655 0.500000 0.219560
#
# Coordination Sequence:
#
# PCOD8115249 Si02
#       8
#     8   8   8   8   8   8   8   8
#     4  11  25  46  72 102 137 178 223 272 328 389
#     4  11  24  40  59  86 120 160 205 258 319 383
#     4  12  25  42  68 101 136 179 225 272 331 393
#     4  11  24  41  60  84 115 155 204 256 316 384
#     4  11  24  43  68 100 137 177 224 276 329 392
#     4  11  23  40  63  92 129 167 211 268 324 385
#     4  11  24  40  60  88 119 158 206 259 320 382
#     4  11  23  39  63  95 127 165 214 265 323 386
#
# _framework density 21.352454999999999
#
# number of rings (size 3 to 8) (size 9 to 14) (size 15 to 20)
#    0.000    0.875    1.250    5.625    0.000   14.500 
#    0.000    0.000    0.000    0.000    0.000    0.000 
#    0.000    0.000    0.000    0.000    0.000    0.000 
#
# Total GULP energy -396957.609445 kJ/mol
# GULP energy per Si atom -12404.925295 kJ/mol
# Density = 2.130386 g / cm^3
# Si number density = 21.352455 Si / 1000 Ang^3
#
#
#
# Elastic Constant Matrix: (Units=GPa)
#
#
# Indices 1 2 3 4 5 6 
#
# 1 128.0355 33.5296 27.8648 0.0027 10.8959 0.0036
# 2 33.5296 91.5017 38.6344 0.0065 -3.6901 0.0072
# 3 27.8648 38.6344 90.5276 0.0011 7.3349 0.0015
# 4 0.0027 0.0065 0.0011 33.6773 0.0014 4.8096
# 5 10.8959 -3.6901 7.3349 0.0014 24.3865 0.0020
# 6 0.0036 0.0072 0.0015 4.8096 0.0020 40.7163
#
#
#
# Elastic Compliance Matrix: (Units=1/GPa)
#
#
# Indices 1 2 3 4 5 6 
#
# 1 0.009228 -0.003046 -0.001198 0.000000 -0.004224 0.000000
# 2 -0.003046 0.014693 -0.005764 -0.000002 0.005318 -0.000002
# 3 -0.001198 -0.005764 0.014250 0.000001 -0.004623 0.000001
# 4 0.000000 -0.000002 0.000001 0.030203 -0.000002 -0.003568
# 5 -0.004224 0.005318 -0.004623 -0.000002 0.045088 -0.000002
# 6 0.000000 -0.000002 0.000001 -0.003568 -0.000002 0.024982
#
#
# Mechanical properties :
#
#
# Convention : Reuss Voigt Hill
#
# Bulk Modulus (GPa) = 55.08255 56.68026 55.88141
# Shear Modulus (GPa) = 30.39296 33.75842 32.07569
#
# Velocity S-wave (km/s) = 3.77688 3.98050 3.88003
# Velocity P-wave (km/s) = 6.69870 6.90859 6.80445
#
# Compressibility (1/GPa) = 0.01815457
#
# Stress axis : x y z
#
# Youngs Moduli (GPa) = 108.36313 68.05968 70.17746
#
# Poissons Ratio (x) = 0.20730 0.08410
# Poissons Ratio (y) = 0.33006 0.40449
# Poissons Ratio (z) = 0.12986 0.39228
#
# Static dielectric constant tensor:
#      x y z
#    x 3.946560 -0.000010 0.094600 
#    y -0.000010 3.823540 0.000000 
#    z 0.094600 0.000000 4.078780 
# 
# 
# High freq. dielectric constant tensor:
#      x y z
#    x 1.849500 0.000000 0.002080 
#    y 0.000000 1.848270 0.000000 
#    z 0.002080 0.000000 1.842060 
# 
# From -- ./inp_files/375404.got.cif
#   From: 2010.06.25/outbox.cif.g09.slc.cpg/sg12_188_cif.got.tgz:375404.got - 2010.06.28 00:19:55.
