data_PCOD8115264
_publ_section_title
;
Structure prediction by ZEFSAII (Michael W. Deem and Ramdas Pophale) SiO2 
 PCOD8115264
Probable space group: C 2/M
;
_chemical_formula_sum "Si O2"
_cell_formula_units_Z 48
_cell_length_a 17.824642
_cell_length_b 19.972735
_cell_length_c 8.600308
_cell_angle_alpha 90.000000
_cell_angle_beta 133.522873
_cell_angle_gamma 90.000000
_cell_volume 2220.086907
_symmetry_space_group_name_H-M "C 2/M"
_symmetry_group_IT_number 12
_symmetry_cell_setting 'monoclinic'
loop_
_space_group_symop_operation_xyz
x,y,z
-x,y,-z
-x,-y,-z
x,-y,z
1/2+x,1/2+y,z
1/2-x,1/2+y,-z
1/2-x,1/2-y,-z
1/2+x,1/2-y,z
loop_
_atom_site_type_symbol
_atom_site_label
_atom_site_fract_x
_atom_site_fract_y
_atom_site_fract_z
Si Si1 0.126887 0.218044 0.573470
Si Si2 0.415424 0.686887 0.145404
Si Si3 0.731426 0.576347 0.178417
Si Si4 0.400806 0.143582 0.582649
Si Si5 0.649432 0.191124 0.161176
Si Si6 0.112712 0.575638 0.882878
O O1 0.144730 0.197033 0.777750
O O2 0.095713 0.296065 0.536238
O O3 0.232654 0.210579 0.628577
O O4 0.036765 0.175880 0.358001
O O5 0.370553 0.620462 0.999929
O O6 0.403342 0.750637 0.015769
O O7 0.694552 0.500000 0.148316
O O8 0.791703 0.603429 0.417155
O O9 0.816846 0.584081 0.167054
O O10 0.414209 0.177654 0.771922
O O11 0.494255 0.094029 0.676086
O O12 0.656748 0.121812 0.080481
O O13 0.116352 0.500000 0.950017
#
# Coordination Sequence:
#
# PCOD8115264 Si02
#       6
#     8   8   8   8   8   8
#     4  11  23  39  65  97 124 165 216 269 311 373
#     4  11  23  41  67  93 125 167 221 268 310 377
#     4  11  24  44  66  91 128 175 218 263 317 379
#     4  12  24  37  64  99 131 165 210 261 328 386
#     4  12  23  41  63  97 134 168 207 263 325 380
#     4  11  24  42  65  94 131 171 213 261 320 386
#
# _framework density 21.620774000000001
#
# number of rings (size 3 to 8) (size 9 to 14) (size 15 to 20)
#    0.000    0.667    5.000    3.500    2.333    3.333 
#    0.000    2.500    0.000    1.000    0.000    0.000 
#    0.000    0.000    0.000    0.000    0.000    0.000 
#
# Total GULP energy -297653.296687 kJ/mol
# GULP energy per Si atom -12402.220695 kJ/mol
# Density = 2.157156 g / cm^3
# Si number density = 21.620774 Si / 1000 Ang^3
#
#
#
# Elastic Constant Matrix: (Units=GPa)
#
#
# Indices 1 2 3 4 5 6 
#
# 1 33.9621 12.3187 12.7940 0.0000 0.5490 0.0000
# 2 12.3187 142.6368 51.4142 0.0000 1.4049 0.0000
# 3 12.7940 51.4142 106.9443 0.0000 8.0343 0.0000
# 4 0.0000 0.0000 0.0000 37.8791 0.0000 10.0108
# 5 0.5490 1.4049 8.0343 0.0000 31.0063 0.0000
# 6 0.0000 0.0000 0.0000 10.0108 0.0000 21.2499
#
#
#
# Elastic Compliance Matrix: (Units=1/GPa)
#
#
# Indices 1 2 3 4 5 6 
#
# 1 0.031147 -0.001623 -0.002968 0.000000 0.000291 0.000000
# 2 -0.001623 0.008579 -0.003981 0.000000 0.000672 0.000000
# 3 -0.002968 -0.003981 0.011832 0.000000 -0.002833 0.000000
# 4 0.000000 0.000000 0.000000 0.030154 0.000000 -0.014206
# 5 0.000291 0.000672 -0.002833 0.000000 0.032950 0.000000
# 6 0.000000 0.000000 0.000000 -0.014206 0.000000 0.053751
#
#
# Mechanical properties :
#
#
# Convention : Reuss Voigt Hill
#
# Bulk Modulus (GPa) = 29.05711 48.51080 38.78396
# Shear Modulus (GPa) = 25.37703 31.82813 28.60258
#
# Velocity S-wave (km/s) = 3.42970 3.84097 3.64114
# Velocity P-wave (km/s) = 5.39929 6.49281 5.97114
#
# Compressibility (1/GPa) = 0.03441498
#
# Stress axis : x y z
#
# Youngs Moduli (GPa) = 32.10625 116.55982 84.51416
#
# Poissons Ratio (x) = 0.18919 0.25081
# Poissons Ratio (y) = 0.05211 0.33644
# Poissons Ratio (z) = 0.09528 0.46400
#
# Static dielectric constant tensor:
#      x y z
#    x 3.703470 0.000000 0.069280 
#    y 0.000000 3.874290 0.000000 
#    z 0.069280 0.000000 4.073050 
# 
# 
# High freq. dielectric constant tensor:
#      x y z
#    x 1.836710 0.000000 0.007040 
#    y 0.000000 1.840120 0.000000 
#    z 0.007040 0.000000 1.863130 
# 
# From -- ./inp_files/77698.got.cif
#   From: 2010.06.25/outbox.cif.g09.slc.cpg/sg12_39_cif.got.tgz:77698.got - 2010.06.28 00:19:55.
