data_PCOD8115538
_publ_section_title
;
Structure prediction by ZEFSAII (Michael W. Deem and Ramdas Pophale) SiO2 
 PCOD8115538
Probable space group: C 2/M
;
_chemical_formula_sum "Si O2"
_cell_formula_units_Z 48
_cell_length_a 18.628524
_cell_length_b 8.833392
_cell_length_c 31.867336
_cell_angle_alpha 90.000000
_cell_angle_beta 28.810245
_cell_angle_gamma 90.000000
_cell_volume 2527.074059
_symmetry_space_group_name_H-M "C 2/M"
_symmetry_group_IT_number 12
_symmetry_cell_setting 'monoclinic'
loop_
_space_group_symop_operation_xyz
x,y,z
-x,y,-z
-x,-y,-z
x,-y,z
1/2+x,1/2+y,z
1/2-x,1/2+y,-z
1/2-x,1/2-y,-z
1/2+x,1/2-y,z
loop_
_atom_site_type_symbol
_atom_site_label
_atom_site_fract_x
_atom_site_fract_y
_atom_site_fract_z
Si Si1 0.883748 0.675090 0.271280
Si Si2 0.427657 0.822788 0.581099
Si Si3 0.448427 0.176021 0.728480
Si Si4 0.910921 0.178363 0.422761
Si Si5 0.818007 0.676876 0.924623
Si Si6 0.163014 0.820757 0.922496
O O1 0.834874 0.500000 0.294496
O O2 0.745607 0.781049 0.331396
O O3 0.948246 0.712964 0.284328
O O4 0.007118 0.710221 0.172357
O O5 0.500000 0.774824 0.500000
O O6 0.511609 0.734532 0.574662
O O7 0.444840 0.000000 0.580967
O O8 0.490992 0.279360 0.667669
O O9 0.276257 0.217386 0.826648
O O10 0.465136 0.000000 0.707738
O O11 0.750000 0.250000 0.500000
O O12 0.893019 0.000000 0.434742
O O13 0.790523 0.500000 0.941447
O O14 0.728129 0.748068 0.931817
O O15 0.750000 0.750000 0.000000
O O16 0.151858 0.000000 0.932696
O O17 0.000000 0.747754 0.000000
#
# Coordination Sequence:
#
# PCOD8115538 Si02
#       6
#     8   8   8   8   8   8
#     4   9  19  36  56  79 111 149 186 227 276 326
#     4  11  24  40  59  84 110 139 182 229 272 325
#     4   9  18  35  58  82 111 147 186 227 272 322
#     4  12  25  40  59  83 113 145 179 221 271 327
#     4   9  18  32  51  78 110 144 183 225 270 320
#     4   8  15  30  53  79 107 142 183 223 264 315
#
# _framework density 18.994299000000002
#
# number of rings (size 3 to 8) (size 9 to 14) (size 15 to 20)
#    0.000    2.333    0.000    5.000    0.000    6.667 
#    0.000    4.167    0.000    1.000    0.000    0.000 
#    0.000    0.000    0.000    0.000    0.000    0.000 
#
# Total GULP energy -297558.162579 kJ/mol
# GULP energy per Si atom -12398.256774 kJ/mol
# Density = 1.895107 g / cm^3
# Si number density = 18.994299 Si / 1000 Ang^3
#
#
#
# Elastic Constant Matrix: (Units=GPa)
#
#
# Indices 1 2 3 4 5 6 
#
# 1 108.5853 53.4767 79.2709 -0.0043 -0.0703 0.0386
# 2 53.4767 83.4505 56.4309 0.0031 4.0335 -0.0153
# 3 79.2709 56.4309 154.5685 -0.0111 1.2028 -0.0072
# 4 -0.0043 0.0031 -0.0111 31.6276 -0.0023 0.2994
# 5 -0.0703 4.0335 1.2028 -0.0023 40.5261 -0.0012
# 6 0.0386 -0.0153 -0.0072 0.2994 -0.0012 25.0716
#
#
#
# Elastic Compliance Matrix: (Units=1/GPa)
#
#
# Indices 1 2 3 4 5 6 
#
# 1 0.017169 -0.006754 -0.006347 0.000001 0.000890 -0.000032
# 2 -0.006754 0.018649 -0.003331 -0.000004 -0.001769 0.000021
# 3 -0.006347 -0.003331 0.010941 0.000003 -0.000004 0.000011
# 4 0.000001 -0.000004 0.000003 0.031621 0.000002 -0.000378
# 5 0.000890 -0.001769 -0.000004 0.000002 0.024853 -0.000001
# 6 -0.000032 0.000021 0.000011 -0.000378 -0.000001 0.039890
#
#
# Mechanical properties :
#
#
# Convention : Reuss Voigt Hill
#
# Bulk Modulus (GPa) = 71.96186 80.55125 76.25656
# Shear Modulus (GPa) = 27.68259 29.94012 28.81135
#
# Velocity S-wave (km/s) = 3.82175 3.97453 3.89889
# Velocity P-wave (km/s) = 7.57909 7.97262 7.77835
#
# Compressibility (1/GPa) = 0.01389625
#
# Stress axis : x y z
#
# Youngs Moduli (GPa) = 58.24371 53.62169 91.40250
#
# Poissons Ratio (x) = 0.36215 0.58009
# Poissons Ratio (y) = 0.39337 0.30447
# Poissons Ratio (z) = 0.36964 0.17862
#
# Static dielectric constant tensor:
#      x y z
#    x 3.224720 -0.000100 -0.180220 
#    y -0.000100 3.250210 -0.000030 
#    z -0.180220 -0.000030 3.702580 
# 
# 
# High freq. dielectric constant tensor:
#      x y z
#    x 1.738530 0.000000 -0.001000 
#    y 0.000000 1.718170 0.000000 
#    z -0.001000 0.000000 1.756070 
# 
# From -- ./inp_files/274076.got.cif
#   From: 2010.06.25/outbox.cif.g09.slc.cpg/sg12_138_cif.got.tgz:274076.got - 2010.06.28 00:19:55.
