data_PCOD8115412
_publ_section_title
;
Structure prediction by ZEFSAII (Michael W. Deem and Ramdas Pophale) SiO2 
 PCOD8115412
Probable space group: C 2/M
;
_chemical_formula_sum "Si O2"
_cell_formula_units_Z 36
_cell_length_a 11.095521
_cell_length_b 14.156050
_cell_length_c 15.016925
_cell_angle_alpha 90.000000
_cell_angle_beta 43.344419
_cell_angle_gamma 90.000000
_cell_volume 1618.962957
_symmetry_space_group_name_H-M "C 2/M"
_symmetry_group_IT_number 12
_symmetry_cell_setting 'monoclinic'
loop_
_space_group_symop_operation_xyz
x,y,z
-x,y,-z
-x,-y,-z
x,-y,z
1/2+x,1/2+y,z
1/2-x,1/2+y,-z
1/2-x,1/2-y,-z
1/2+x,1/2-y,z
loop_
_atom_site_type_symbol
_atom_site_label
_atom_site_fract_x
_atom_site_fract_y
_atom_site_fract_z
Si Si1 0.058440 0.292297 0.070265
Si Si2 0.957832 0.311649 0.432488
Si Si3 0.619308 0.000000 0.098094
Si Si4 0.136294 0.500000 0.293990
Si Si5 0.923133 0.812998 0.299625
Si Si6 0.011019 0.000000 0.171135
O O1 0.046492 0.405482 0.089784
O O2 0.910053 0.241940 0.211947
O O3 0.250000 0.250000 0.000000
O O4 0.000000 0.268303 0.000000
O O5 0.031134 0.255591 0.307620
O O6 0.750837 0.333144 0.548803
O O7 0.000000 0.253127 0.500000
O O8 0.064260 0.408612 0.382180
O O9 0.569873 0.000000 0.228269
O O10 0.828683 0.000000 0.982147
O O11 0.344332 0.500000 0.196159
O O12 0.023058 0.910804 0.230671
#
# Coordination Sequence:
#
# PCOD8115412 Si02
#       6
#     8   8   4   4   8   4
#     4  12  28  48  75 105 146 193 239 300 360 428
#     4  11  23  42  69  99 139 186 232 302 353 429
#     4  12  26  45  68 105 146 188 235 292 369 430
#     4  12  23  43  72 105 140 188 243 298 362 430
#     4  11  25  42  67 103 137 181 244 288 364 418
#     4  12  24  41  70 105 141 185 241 306 350 436
#
# _framework density 22.236457000000001
#
# number of rings (size 3 to 8) (size 9 to 14) (size 15 to 20)
#    0.000    0.444    6.667    1.667    6.222    0.000 
#    0.000    0.556    0.000    0.000    0.000    0.000 
#    0.000    0.000    0.000    0.000    0.000    0.000 
#
# Total GULP energy -223033.243343 kJ/mol
# GULP energy per Si atom -12390.735741 kJ/mol
# Density = 2.218585 g / cm^3
# Si number density = 22.236457 Si / 1000 Ang^3
#
#
#
# Elastic Constant Matrix: (Units=GPa)
#
#
# Indices 1 2 3 4 5 6 
#
# 1 102.9839 30.1083 29.8926 -0.0004 35.1480 0.0003
# 2 30.1083 153.2532 33.1406 -0.0003 20.4264 0.0003
# 3 29.8926 33.1406 96.5866 -0.0006 24.7818 0.0007
# 4 -0.0004 -0.0003 -0.0006 16.5738 0.0005 -9.8721
# 5 35.1480 20.4264 24.7818 0.0005 50.9309 -0.0004
# 6 0.0003 0.0003 0.0007 -9.8721 -0.0004 4.4143
#
#
#
# Elastic Compliance Matrix: (Units=1/GPa)
#
#
# Indices 1 2 3 4 5 6 
#
# 1 0.013216 -0.001191 -0.001673 0.000001 -0.007829 0.000001
# 2 -0.001191 0.007318 -0.001828 0.000000 -0.001223 0.000000
# 3 -0.001673 -0.001828 0.012585 0.000002 -0.004236 0.000003
# 4 0.000001 0.000000 0.000002 -0.181683 -0.000004 -0.406312
# 5 -0.007829 -0.001223 -0.004236 -0.000004 0.027589 -0.000005
# 6 0.000001 0.000000 0.000003 -0.406312 -0.000005 -0.682134
#
#
# Mechanical properties :
#
#
# Convention : Reuss Voigt Hill
#
# Bulk Modulus (GPa) = 42.13321 59.90073 51.01697
# Shear Modulus (GPa) = -6.36284 31.69594 12.66655
#
# Velocity S-wave (km/s) = -1.69342 3.77955 2.38928
# Velocity P-wave (km/s) = 3.89428 6.78551 5.53212
#
# Compressibility (1/GPa) = 0.02373424
#
# Stress axis : x y z
#
# Youngs Moduli (GPa) = 75.66562 136.65746 79.45775
#
# Poissons Ratio (x) = 0.16279 0.13292
# Poissons Ratio (y) = 0.09013 0.14527
# Poissons Ratio (z) = 0.12658 0.24985
#
# Static dielectric constant tensor:
#      x y z
#    x 3.935670 0.000000 0.171700 
#    y 0.000000 4.275050 0.000000 
#    z 0.171700 0.000000 4.263230 
# 
# 
# High freq. dielectric constant tensor:
#      x y z
#    x 1.857650 0.000000 0.014760 
#    y 0.000000 1.881310 0.000000 
#    z 0.014760 0.000000 1.896770 
# 
# From -- ./inp_files/175952.got.cif
#   From: 2010.06.25/outbox.cif.g09.slc.cpg/sg12_88_cif.got.tgz:175952.got - 2010.06.28 00:19:55.
