data_PCOD8115631
_publ_section_title
;
Structure prediction by ZEFSAII (Michael W. Deem and Ramdas Pophale) SiO2 
 PCOD8115631
Probable space group: C 2/M
;
_chemical_formula_sum "Si O2"
_cell_formula_units_Z 24
_cell_length_a 7.848121
_cell_length_b 26.505882
_cell_length_c 8.344457
_cell_angle_alpha 90.000000
_cell_angle_beta 33.620631
_cell_angle_gamma 90.000000
_cell_volume 961.111633
_symmetry_space_group_name_H-M "C 2/M"
_symmetry_group_IT_number 12
_symmetry_cell_setting 'monoclinic'
loop_
_space_group_symop_operation_xyz
x,y,z
-x,y,-z
-x,-y,-z
x,-y,z
1/2+x,1/2+y,z
1/2-x,1/2+y,-z
1/2-x,1/2-y,-z
1/2+x,1/2-y,z
loop_
_atom_site_type_symbol
_atom_site_label
_atom_site_fract_x
_atom_site_fract_y
_atom_site_fract_z
Si Si1 0.191700 0.941582 0.646919
Si Si2 0.555562 0.112110 0.138845
Si Si3 0.174936 0.711656 0.203849
O O1 0.500000 0.923313 0.500000
O O2 0.886671 0.910805 0.930721
O O3 0.117688 0.000000 0.733079
O O4 0.288734 0.928668 0.389038
O O5 0.500000 0.125027 0.000000
O O6 0.482456 0.164242 0.289138
O O7 0.000000 0.735030 0.500000
O O8 0.500000 0.689380 0.000000
O O9 0.250000 0.750000 0.000000
#
# Coordination Sequence:
#
# PCOD8115631 Si02
#       3
#     8   8   8
#     4  11  24  43  67  96 134 182 232 282 341 407
#     4  12  25  42  67 100 137 178 227 283 344 407
#     4  12  26  46  72 101 138 180 229 284 346 414
#
# _framework density 24.971084000000001
#
# number of rings (size 3 to 8) (size 9 to 14) (size 15 to 20)
#    0.000    0.333    0.000   10.000    0.000    9.333 
#    0.000    0.000    0.000    0.000    0.000    0.000 
#    0.000    0.000    0.000    0.000    0.000    0.000 
#
# Total GULP energy -148679.527045 kJ/mol
# GULP energy per Si atom -12389.960587 kJ/mol
# Density = 2.491425 g / cm^3
# Si number density = 24.971084 Si / 1000 Ang^3
#
#
#
# Elastic Constant Matrix: (Units=GPa)
#
#
# Indices 1 2 3 4 5 6 
#
# 1 64.8235 38.9299 21.9141 0.0000 13.3264 0.0000
# 2 38.9299 121.7611 47.5083 0.0000 12.2067 0.0000
# 3 21.9141 47.5083 177.8582 0.0000 23.5126 0.0000
# 4 0.0000 0.0000 0.0000 -8.2190 0.0000 1.2357
# 5 13.3264 12.2067 23.5126 0.0000 51.7134 0.0000
# 6 0.0000 0.0000 0.0000 1.2357 0.0000 17.1456
#
#
#
# Elastic Compliance Matrix: (Units=1/GPa)
#
#
# Indices 1 2 3 4 5 6 
#
# 1 0.019783 -0.005807 -0.000419 0.000000 -0.003537 0.000000
# 2 -0.005807 0.010934 -0.002194 0.000000 -0.000087 0.000000
# 3 -0.000419 -0.002194 0.006572 0.000000 -0.002363 0.000000
# 4 0.000000 0.000000 0.000000 -0.120365 0.000000 0.008675
# 5 -0.003537 -0.000087 -0.002363 0.000000 0.021344 0.000000
# 6 0.000000 0.000000 0.000000 0.008675 0.000000 0.057699
#
#
# Mechanical properties :
#
#
# Convention : Reuss Voigt Hill
#
# Bulk Modulus (GPa) = 48.89924 64.57191 56.73558
# Shear Modulus (GPa) = 254.81697 29.20069 142.00883
#
# Velocity S-wave (km/s) = 10.11268 3.42333 7.54936
# Velocity P-wave (km/s) = 12.48919 6.44518 9.93782
#
# Compressibility (1/GPa) = 0.02045021
#
# Stress axis : x y z
#
# Youngs Moduli (GPa) = 50.54959 91.45727 152.15326
#
# Poissons Ratio (x) = 0.53109 0.06371
# Poissons Ratio (y) = 0.29354 0.33377
# Poissons Ratio (z) = 0.02117 0.20062
#
# Static dielectric constant tensor:
#      x y z
#    x 4.670800 0.000000 0.160180 
#    y 0.000000 4.179710 0.000000 
#    z 0.160180 0.000000 4.848350 
# 
# 
# High freq. dielectric constant tensor:
#      x y z
#    x 2.000690 0.000000 0.011350 
#    y 0.000000 1.987590 0.000000 
#    z 0.011350 0.000000 2.018800 
# 
# From -- ./inp_files/40960.got.cif
#   From: 2010.06.25/outbox.cif.g09.slc.cpg/sg12_21_cif.got.tgz:40960.got - 2010.06.28 00:19:55.
