data_PCOD8115048
_publ_section_title
;
Structure prediction by ZEFSAII (Michael W. Deem and Ramdas Pophale) SiO2 
 PCOD8115048
Probable space group: C 2/M
;
_chemical_formula_sum "Si O2"
_cell_formula_units_Z 48
_cell_length_a 19.217927
_cell_length_b 11.204380
_cell_length_c 11.412567
_cell_angle_alpha 90.000000
_cell_angle_beta 69.115193
_cell_angle_gamma 90.000000
_cell_volume 2295.956261
_symmetry_space_group_name_H-M "C 2/M"
_symmetry_group_IT_number 12
_symmetry_cell_setting 'monoclinic'
loop_
_space_group_symop_operation_xyz
x,y,z
-x,y,-z
-x,-y,-z
x,-y,z
1/2+x,1/2+y,z
1/2-x,1/2+y,-z
1/2-x,1/2-y,-z
1/2+x,1/2-y,z
loop_
_atom_site_type_symbol
_atom_site_label
_atom_site_fract_x
_atom_site_fract_y
_atom_site_fract_z
Si Si1 0.062105 0.756911 0.786980
Si Si2 0.468708 0.000000 0.152848
Si Si3 0.149195 0.262208 0.300989
Si Si4 0.193929 0.136774 0.841366
Si Si5 0.571975 0.365243 0.537181
Si Si6 0.054371 0.500000 0.352570
Si Si7 0.590626 0.638578 0.112084
O O1 0.080936 0.619172 0.805333
O O2 0.128964 0.840683 0.787247
O O3 0.053301 0.777590 0.654548
O O4 0.982104 0.791129 0.892240
O O5 0.522518 0.000000 0.236892
O O6 0.500000 0.000000 0.000000
O O7 0.236158 0.279399 0.224040
O O8 0.142410 0.190921 0.427120
O O9 0.106275 0.385918 0.332803
O O10 0.112975 0.176351 0.227427
O O11 0.219350 0.000000 0.818022
O O12 0.160703 0.168346 0.988141
O O13 0.500000 0.363046 0.500000
O O14 0.590519 0.500000 0.567403
O O15 0.000000 0.500000 0.500000
O O16 0.569400 0.500000 0.124653
#
# Coordination Sequence:
#
# PCOD8115048 Si02
#       7
#     8   4   8   8   8   4   8
#     4  12  24  43  68  98 133 173 225 279 335 405
#     4  12  24  42  68 102 138 178 227 285 338 399
#     4  12  23  42  67  98 135 173 222 280 334 409
#     4  11  25  43  62  96 136 178 218 274 348 398
#     4  11  22  41  71 100 129 168 227 282 332 398
#     4  12  24  44  72 102 135 184 229 280 343 415
#     4  11  22  41  68  95 127 175 228 274 327 401
#
# _framework density 20.906321999999999
#
# number of rings (size 3 to 8) (size 9 to 14) (size 15 to 20)
#    0.000    0.500    4.167    5.500    0.000    2.000 
#    3.000    0.000    0.000    0.000    0.000    0.000 
#    0.000    0.000    0.000    0.000    0.000    0.000 
#
# Total GULP energy -297568.943630 kJ/mol
# GULP energy per Si atom -12398.705985 kJ/mol
# Density = 2.085874 g / cm^3
# Si number density = 20.906322 Si / 1000 Ang^3
#
#
#
# Elastic Constant Matrix: (Units=GPa)
#
#
# Indices 1 2 3 4 5 6 
#
# 1 65.0914 14.7802 28.9747 0.0000 -16.5335 0.0000
# 2 14.7802 96.0534 67.1344 0.0000 -6.6450 0.0000
# 3 28.9747 67.1344 117.9764 0.0000 -5.2059 0.0000
# 4 0.0000 0.0000 0.0000 37.8835 0.0000 2.6899
# 5 -16.5335 -6.6450 -5.2059 0.0000 36.7771 0.0000
# 6 0.0000 0.0000 0.0000 2.6899 0.0000 24.1393
#
#
#
# Elastic Compliance Matrix: (Units=1/GPa)
#
#
# Indices 1 2 3 4 5 6 
#
# 1 0.019446 0.001098 -0.005038 0.000000 0.008227 0.000000
# 2 0.001098 0.017459 -0.010107 0.000000 0.002217 0.000000
# 3 -0.005038 -0.010107 0.015380 0.000000 -0.001914 0.000000
# 4 0.000000 0.000000 0.000000 0.026607 0.000000 -0.002965
# 5 0.008227 0.002217 -0.001914 0.000000 0.031019 0.000000
# 6 0.000000 0.000000 0.000000 -0.002965 0.000000 0.041757
#
#
# Mechanical properties :
#
#
# Convention : Reuss Voigt Hill
#
# Bulk Modulus (GPa) = 41.33556 55.65552 48.49554
# Shear Modulus (GPa) = 26.62031 30.97544 28.79788
#
# Velocity S-wave (km/s) = 3.57222 3.85337 3.71546
# Velocity P-wave (km/s) = 6.06870 6.81741 6.45392
#
# Compressibility (1/GPa) = 0.02419225
#
# Stress axis : x y z
#
# Youngs Moduli (GPa) = 51.42468 57.27561 65.01773
#
# Poissons Ratio (x) = -0.06288 0.32753
# Poissons Ratio (y) = -0.05645 0.65714
# Poissons Ratio (z) = 0.25905 0.57889
#
# Static dielectric constant tensor:
#      x y z
#    x 3.555300 0.000000 -0.018950 
#    y 0.000000 4.032110 0.000000 
#    z -0.018950 0.000000 4.255640 
# 
# 
# High freq. dielectric constant tensor:
#      x y z
#    x 1.795230 0.000000 0.004200 
#    y 0.000000 1.834700 0.000000 
#    z 0.004200 0.000000 1.838060 
# 
# From -- ./inp_files/164742.got.cif
#   From: 2010.06.25/outbox.cif.g09.slc.cpg/sg12_83_cif.got.tgz:164742.got - 2010.06.28 00:19:55.
