data_PCOD8115768
_publ_section_title
;
Structure prediction by ZEFSAII (Michael W. Deem and Ramdas Pophale) SiO2 
 PCOD8115768
Probable space group: C 2/M
;
_chemical_formula_sum "Si O2"
_cell_formula_units_Z 40
_cell_length_a 8.755726
_cell_length_b 18.289825
_cell_length_c 11.975456
_cell_angle_alpha 90.000000
_cell_angle_beta 98.365500
_cell_angle_gamma 90.000000
_cell_volume 1897.353141
_symmetry_space_group_name_H-M "C 2/M"
_symmetry_group_IT_number 12
_symmetry_cell_setting 'monoclinic'
loop_
_space_group_symop_operation_xyz
x,y,z
-x,y,-z
-x,-y,-z
x,-y,z
1/2+x,1/2+y,z
1/2-x,1/2+y,-z
1/2-x,1/2-y,-z
1/2+x,1/2-y,z
loop_
_atom_site_type_symbol
_atom_site_label
_atom_site_fract_x
_atom_site_fract_y
_atom_site_fract_z
Si Si1 0.678355 0.414567 0.513525
Si Si2 0.729080 0.161856 0.692690
Si Si3 0.168549 0.682562 0.048610
Si Si4 0.133579 0.314420 0.302102
Si Si5 0.341193 0.416114 0.920898
O O1 0.500000 0.388709 0.500000
O O2 0.690656 0.500000 0.539765
O O3 0.755228 0.398469 0.401860
O O4 0.778081 0.374677 0.617702
O O5 0.812864 0.234048 0.653366
O O6 0.550400 0.176050 0.704279
O O7 0.824095 0.134214 0.810135
O O8 0.193409 0.675991 0.182763
O O9 0.250000 0.750000 0.000000
O O10 0.212557 0.605097 0.997851
O O11 0.000000 0.702781 0.000000
O O12 0.322365 0.500000 0.883251
O O13 0.500000 0.399449 0.000000
#
# Coordination Sequence:
#
# PCOD8115768 Si02
#       5
#     8   8   8   8   8
#     4  11  27  48  71 100 138 182 228 282 344 407
#     4  12  25  46  70 103 137 178 232 282 342 404
#     4  12  23  43  68 103 138 178 227 278 336 405
#     4  12  25  43  73 101 136 181 228 285 336 405
#     4  11  26  43  67  99 140 183 224 280 345 409
#
# _framework density 21.082000000000001
#
# number of rings (size 3 to 8) (size 9 to 14) (size 15 to 20)
#    0.000    0.400    4.000    3.600    5.600    3.600 
#    0.000    0.000    0.000    0.000    0.000    0.000 
#    0.000    0.000    0.000    0.000    0.000    0.000 
#
# Total GULP energy -248023.184691 kJ/mol
# GULP energy per Si atom -12401.159235 kJ/mol
# Density = 2.103402 g / cm^3
# Si number density = 21.082000 Si / 1000 Ang^3
#
#
#
# Elastic Constant Matrix: (Units=GPa)
#
#
# Indices 1 2 3 4 5 6 
#
# 1 144.7159 64.9510 60.8777 0.0000 5.0000 0.0000
# 2 64.9510 112.9626 48.0011 0.0000 10.9757 0.0000
# 3 60.8777 48.0011 144.5725 0.0000 2.3012 0.0000
# 4 0.0000 0.0000 0.0000 38.5500 0.0000 -2.1128
# 5 5.0000 10.9757 2.3012 0.0000 39.9995 0.0000
# 6 0.0000 0.0000 0.0000 -2.1128 0.0000 38.1936
#
#
#
# Elastic Compliance Matrix: (Units=1/GPa)
#
#
# Indices 1 2 3 4 5 6 
#
# 1 0.010158 -0.004703 -0.002719 0.000000 0.000177 0.000000
# 2 -0.004703 0.012768 -0.002215 0.000000 -0.002788 0.000000
# 3 -0.002719 -0.002215 0.008790 0.000000 0.000442 0.000000
# 4 0.000000 0.000000 0.000000 0.026019 0.000000 0.001439
# 5 0.000177 -0.002788 0.000442 0.000000 0.025718 0.000000
# 6 0.000000 0.000000 0.000000 0.001439 0.000000 0.026262
#
#
# Mechanical properties :
#
#
# Convention : Reuss Voigt Hill
#
# Bulk Modulus (GPa) = 80.35899 83.32340 81.84119
# Shear Modulus (GPa) = 37.55524 38.57670 38.06597
#
# Velocity S-wave (km/s) = 4.22523 4.28230 4.25386
# Velocity P-wave (km/s) = 7.87423 8.00376 7.93926
#
# Compressibility (1/GPa) = 0.01244416
#
# Stress axis : x y z
#
# Youngs Moduli (GPa) = 98.44045 78.31796 113.76299
#
# Poissons Ratio (x) = 0.36830 0.30932
# Poissons Ratio (y) = 0.46293 0.25196
# Poissons Ratio (z) = 0.26766 0.17346
#
# Static dielectric constant tensor:
#      x y z
#    x 4.089700 0.000000 -0.076520 
#    y 0.000000 3.954310 0.000000 
#    z -0.076520 0.000000 4.078640 
# 
# 
# High freq. dielectric constant tensor:
#      x y z
#    x 1.840680 0.000000 0.002280 
#    y 0.000000 1.833100 0.000000 
#    z 0.002280 0.000000 1.842510 
# 
# From -- ./inp_files/119027.got.cif
#   From: 2010.06.25/outbox.cif.g09.slc.cpg/sg12_60_cif.got.tgz:119027.got - 2010.06.28 00:19:55.
