data_PCOD8115579
_publ_section_title
;
Structure prediction by ZEFSAII (Michael W. Deem and Ramdas Pophale) SiO2 
 PCOD8115579
Probable space group: C 2/M
;
_chemical_formula_sum "Si O2"
_cell_formula_units_Z 48
_cell_length_a 25.167575
_cell_length_b 15.684659
_cell_length_c 10.738154
_cell_angle_alpha 90.000000
_cell_angle_beta 30.403879
_cell_angle_gamma 90.000000
_cell_volume 2145.239017
_symmetry_space_group_name_H-M "C 2/M"
_symmetry_group_IT_number 12
_symmetry_cell_setting 'monoclinic'
loop_
_space_group_symop_operation_xyz
x,y,z
-x,y,-z
-x,-y,-z
x,-y,z
1/2+x,1/2+y,z
1/2-x,1/2+y,-z
1/2-x,1/2-y,-z
1/2+x,1/2-y,z
loop_
_atom_site_type_symbol
_atom_site_label
_atom_site_fract_x
_atom_site_fract_y
_atom_site_fract_z
Si Si1 0.060190 0.132038 0.001303
Si Si2 0.054130 0.094760 0.520994
Si Si3 0.711600 0.094050 0.545636
Si Si4 0.121345 0.695668 0.944315
Si Si5 0.295000 0.750272 0.773856
Si Si6 0.927693 0.402486 0.406026
O O1 0.182567 0.111536 0.742651
O O2 0.042556 0.234101 0.045275
O O3 0.000000 0.097106 0.000000
O O4 0.023763 0.088457 0.203443
O O5 0.140445 0.164232 0.382096
O O6 0.000000 0.122551 0.500000
O O7 0.103495 0.000000 0.403083
O O8 0.613722 0.103092 0.650793
O O9 0.713674 0.000000 0.599581
O O10 0.698892 0.158559 0.684276
O O11 0.050782 0.623693 0.154315
O O12 0.194490 0.749146 0.888797
O O13 0.363571 0.836275 0.621004
O O14 0.250000 0.750000 0.000000
O O15 0.917595 0.500000 0.477800
#
# Coordination Sequence:
#
# PCOD8115579 Si02
#       6
#     8   8   8   8   8   8
#     4  12  23  40  70 104 141 180 234 291 356 413
#     4  11  26  47  72 102 140 185 233 291 358 424
#     4  11  24  41  67 104 141 181 229 283 354 431
#     4  12  24  43  69 101 139 186 231 287 355 419
#     4  12  27  46  72 100 138 186 242 291 347 422
#     4  11  25  46  72 104 143 185 229 287 359 426
#
# _framework density 22.375128
#
# number of rings (size 3 to 8) (size 9 to 14) (size 15 to 20)
#    0.000    0.500    3.333    5.000    0.000    6.000 
#    0.000    0.833    0.000    0.000    0.000    0.000 
#    0.000    0.000    0.000    0.000    0.000    0.000 
#
# Total GULP energy -297624.432046 kJ/mol
# GULP energy per Si atom -12401.018002 kJ/mol
# Density = 2.232420 g / cm^3
# Si number density = 22.375128 Si / 1000 Ang^3
#
#
#
# Elastic Constant Matrix: (Units=GPa)
#
#
# Indices 1 2 3 4 5 6 
#
# 1 89.4234 20.4011 36.1458 0.0000 16.3737 0.0000
# 2 20.4011 150.2630 41.8962 0.0000 2.2476 0.0000
# 3 36.1458 41.8962 127.7620 0.0000 11.9309 0.0000
# 4 0.0000 0.0000 0.0000 23.1049 0.0000 -2.5999
# 5 16.3737 2.2476 11.9309 0.0000 41.5448 0.0000
# 6 0.0000 0.0000 0.0000 -2.5999 0.0000 24.7515
#
#
#
# Elastic Compliance Matrix: (Units=1/GPa)
#
#
# Indices 1 2 3 4 5 6 
#
# 1 0.013438 -0.000895 -0.003102 0.000000 -0.004357 0.000000
# 2 -0.000895 0.007388 -0.002225 0.000000 0.000592 0.000000
# 3 -0.003102 -0.002225 0.009565 0.000000 -0.001404 0.000000
# 4 0.000000 0.000000 0.000000 0.043799 0.000000 0.004601
# 5 -0.004357 0.000592 -0.001404 0.000000 0.026159 0.000000
# 6 0.000000 0.000000 0.000000 0.004601 0.000000 0.040885
#
#
# Mechanical properties :
#
#
# Convention : Reuss Voigt Hill
#
# Bulk Modulus (GPa) = 55.71213 62.70385 59.20799
# Shear Modulus (GPa) = 31.31667 35.81390 33.56529
#
# Velocity S-wave (km/s) = 3.74521 4.00511 3.87733
# Velocity P-wave (km/s) = 6.60722 7.03367 6.82378
#
# Compressibility (1/GPa) = 0.01794941
#
# Stress axis : x y z
#
# Youngs Moduli (GPa) = 74.41371 135.35586 104.54468
#
# Poissons Ratio (x) = 0.12108 0.32427
# Poissons Ratio (y) = 0.06657 0.23260
# Poissons Ratio (z) = 0.23081 0.30115
#
# Static dielectric constant tensor:
#      x y z
#    x 3.229950 0.000000 1.240430 
#    y 0.000000 4.612920 0.000000 
#    z 1.240430 0.000000 1.777650 
# 
# 
# High freq. dielectric constant tensor:
#      x y z
#    x 1.871700 0.000000 0.002380 
#    y 0.000000 1.901300 0.000000 
#    z 0.002380 0.000000 1.883410 
# 
# From -- ./inp_files/183661.got.cif
#   From: 2010.06.25/outbox.cif.g09.slc.cpg/sg12_92_cif.got.tgz:183661.got - 2010.06.28 00:19:55.
