data_PCOD8115355
_publ_section_title
;
Structure prediction by ZEFSAII (Michael W. Deem and Ramdas Pophale) SiO2 
 PCOD8115355
Probable space group: C 2/M
;
_chemical_formula_sum "Si O2"
_cell_formula_units_Z 44
_cell_length_a 8.966958
_cell_length_b 25.384806
_cell_length_c 12.595929
_cell_angle_alpha 90.000000
_cell_angle_beta 135.869616
_cell_angle_gamma 90.000000
_cell_volume 1996.372334
_symmetry_space_group_name_H-M "C 2/M"
_symmetry_group_IT_number 12
_symmetry_cell_setting 'monoclinic'
loop_
_space_group_symop_operation_xyz
x,y,z
-x,y,-z
-x,-y,-z
x,-y,z
1/2+x,1/2+y,z
1/2-x,1/2+y,-z
1/2-x,1/2-y,-z
1/2+x,1/2-y,z
loop_
_atom_site_type_symbol
_atom_site_label
_atom_site_fract_x
_atom_site_fract_y
_atom_site_fract_z
Si Si1 0.703064 0.101850 0.043975
Si Si2 0.543376 0.695924 0.739377
Si Si3 0.857968 0.500000 0.237138
Si Si4 0.634091 0.203607 0.667833
Si Si5 0.925924 0.000000 0.119091
Si Si6 0.963972 0.392278 0.709317
Si Si7 0.000000 0.856042 0.500000
O O1 0.769466 0.156675 0.131230
O O2 0.878472 0.055743 0.152264
O O3 0.500000 0.078512 0.000000
O O4 0.642789 0.114263 0.891825
O O5 0.634956 0.754683 0.765813
O O6 0.374662 0.694762 0.749438
O O7 0.446464 0.678062 0.576952
O O8 0.679865 0.500000 0.236852
O O9 0.011704 0.449896 0.329016
O O10 0.727428 0.500000 0.061131
O O11 0.500000 0.226220 0.500000
O O12 0.522954 0.150120 0.649883
O O13 0.720117 0.388834 0.629500
#
# Coordination Sequence:
#
# PCOD8115355 Si02
#       7
#     8   8   4   8   4   8   4
#     4  11  23  41  67 100 130 166 224 273 319 382
#     4  12  25  42  68  95 129 175 223 264 324 390
#     4   9  20  41  66  95 130 170 217 266 321 385
#     4  12  24  43  69  95 130 180 217 261 329 396
#     4   9  19  40  67  91 130 179 211 256 333 390
#     4  11  24  43  69  96 133 171 218 270 324 385
#     4  12  22  43  66  96 132 177 212 264 328 396
#
# _framework density 22.039975999999999
#
# number of rings (size 3 to 8) (size 9 to 14) (size 15 to 20)
#    0.000    0.909    4.545    3.000    0.000    3.273 
#    0.000    1.364    0.000    0.000    0.000    0.000 
#    0.000    0.000    0.000    0.000    0.000    0.000 
#
# Total GULP energy -272747.109921 kJ/mol
# GULP energy per Si atom -12397.595906 kJ/mol
# Density = 2.198981 g / cm^3
# Si number density = 22.039976 Si / 1000 Ang^3
#
#
#
# Elastic Constant Matrix: (Units=GPa)
#
#
# Indices 1 2 3 4 5 6 
#
# 1 154.4852 66.8511 10.8909 0.0000 10.8497 0.0000
# 2 66.8511 175.2513 31.7031 0.0000 7.2502 0.0000
# 3 10.8909 31.7031 50.5524 0.0000 -1.1992 0.0000
# 4 0.0000 0.0000 0.0000 16.4357 0.0000 9.2503
# 5 10.8497 7.2502 -1.1992 0.0000 24.2134 0.0000
# 6 0.0000 0.0000 0.0000 9.2503 0.0000 29.3609
#
#
#
# Elastic Compliance Matrix: (Units=1/GPa)
#
#
# Indices 1 2 3 4 5 6 
#
# 1 0.007921 -0.002922 0.000063 0.000000 -0.002671 0.000000
# 2 -0.002922 0.007626 -0.004181 0.000000 -0.001181 0.000000
# 3 0.000063 -0.004181 0.022445 0.000000 0.002335 0.000000
# 4 0.000000 0.000000 0.000000 0.073957 0.000000 -0.023301
# 5 -0.002671 -0.001181 0.002335 0.000000 0.042966 0.000000
# 6 0.000000 0.000000 0.000000 -0.023301 0.000000 0.041400
#
#
# Mechanical properties :
#
#
# Convention : Reuss Voigt Hill
#
# Bulk Modulus (GPa) = 41.82113 66.57546 54.19830
# Shear Modulus (GPa) = 22.89730 32.05827 27.47778
#
# Velocity S-wave (km/s) = 3.22669 3.81800 3.53473
# Velocity P-wave (km/s) = 5.73571 7.05042 6.42677
#
# Compressibility (1/GPa) = 0.02391136
#
# Stress axis : x y z
#
# Youngs Moduli (GPa) = 126.24867 131.12942 44.55269
#
# Poissons Ratio (x) = 0.38321 -0.00280
# Poissons Ratio (y) = 0.36894 0.18627
# Poissons Ratio (z) = -0.00794 0.54825
#
# Static dielectric constant tensor:
#      x y z
#    x 4.094440 0.000000 -0.051190 
#    y 0.000000 4.010500 0.000000 
#    z -0.051190 0.000000 3.661650 
# 
# 
# High freq. dielectric constant tensor:
#      x y z
#    x 1.881210 0.000000 0.000500 
#    y 0.000000 1.873220 0.000000 
#    z 0.000500 0.000000 1.840580 
# 
# From -- ./inp_files/124491.got.cif
#   From: 2010.06.25/outbox.cif.g09.slc.cpg/sg12_63_cif.got.tgz:124491.got - 2010.06.28 00:19:55.
