data_PCOD8115300
_publ_section_title
;
Structure prediction by ZEFSAII (Michael W. Deem and Ramdas Pophale) SiO2 
 PCOD8115300
Probable space group: C 2/M
;
_chemical_formula_sum "Si O2"
_cell_formula_units_Z 40
_cell_length_a 8.989081
_cell_length_b 21.414543
_cell_length_c 9.493518
_cell_angle_alpha 90.000000
_cell_angle_beta 94.354271
_cell_angle_gamma 90.000000
_cell_volume 1822.199618
_symmetry_space_group_name_H-M "C 2/M"
_symmetry_group_IT_number 12
_symmetry_cell_setting 'monoclinic'
loop_
_space_group_symop_operation_xyz
x,y,z
-x,y,-z
-x,-y,-z
x,-y,z
1/2+x,1/2+y,z
1/2-x,1/2+y,-z
1/2-x,1/2-y,-z
1/2+x,1/2-y,z
loop_
_atom_site_type_symbol
_atom_site_label
_atom_site_fract_x
_atom_site_fract_y
_atom_site_fract_z
Si Si1 0.427863 0.878429 0.638382
Si Si2 0.398768 0.428296 0.356090
Si Si3 0.613523 0.928264 0.893132
Si Si4 0.391524 0.261064 0.606031
Si Si5 0.413538 0.642833 0.854533
O O1 0.500000 0.900240 0.500000
O O2 0.251424 0.889391 0.632864
O O3 0.520512 0.922814 0.745508
O O4 0.457555 0.804769 0.665726
O O5 0.500000 0.419532 0.500000
O O6 0.355786 0.500000 0.329224
O O7 0.483701 0.405954 0.221860
O O8 0.764451 0.889065 0.900650
O O9 0.655549 0.000000 0.927011
O O10 0.500000 0.900474 0.000000
O O11 0.500000 0.294723 0.500000
O O12 0.250000 0.250000 0.500000
O O13 0.367062 0.302068 0.743724
O O14 0.500000 0.668177 0.000000
#
# Coordination Sequence:
#
# PCOD8115300 Si02
#       5
#     8   8   8   8   8
#     4  11  23  41  66  94 125 166 216 266 317 379
#     4  11  23  40  65  97 132 171 217 268 324 387
#     4  11  25  44  64  90 128 171 211 259 324 389
#     4  11  23  43  68  93 128 170 214 266 324 387
#     4  12  25  42  67  97 129 168 217 272 329 387
#
# _framework density 21.95149
#
# number of rings (size 3 to 8) (size 9 to 14) (size 15 to 20)
#    0.000    0.800    0.000    9.000    0.000    7.200 
#    0.000    6.000    0.000    0.000    0.000    0.000 
#    0.000    0.000    0.000    0.000    0.000    0.000 
#
# Total GULP energy -247966.439391 kJ/mol
# GULP energy per Si atom -12398.321970 kJ/mol
# Density = 2.190153 g / cm^3
# Si number density = 21.951490 Si / 1000 Ang^3
#
#
#
# Elastic Constant Matrix: (Units=GPa)
#
#
# Indices 1 2 3 4 5 6 
#
# 1 167.6066 36.5010 66.4074 0.0000 -17.3837 0.0000
# 2 36.5010 82.3782 48.1644 0.0000 -8.4980 0.0000
# 3 66.4074 48.1644 159.4998 0.0000 -4.7923 0.0000
# 4 0.0000 0.0000 0.0000 21.2483 0.0000 -16.0081
# 5 -17.3837 -8.4980 -4.7923 0.0000 48.6719 0.0000
# 6 0.0000 0.0000 0.0000 -16.0081 0.0000 20.6580
#
#
#
# Elastic Compliance Matrix: (Units=1/GPa)
#
#
# Indices 1 2 3 4 5 6 
#
# 1 0.007573 -0.001611 -0.002601 0.000000 0.002167 0.000000
# 2 -0.001611 0.015311 -0.003901 0.000000 0.001714 0.000000
# 3 -0.002601 -0.003901 0.008507 0.000000 -0.000773 0.000000
# 4 0.000000 0.000000 0.000000 0.113077 0.000000 0.087625
# 5 0.002167 0.001714 -0.000773 0.000000 0.021543 0.000000
# 6 0.000000 0.000000 0.000000 0.087625 0.000000 0.116309
#
#
# Mechanical properties :
#
#
# Convention : Reuss Voigt Hill
#
# Bulk Modulus (GPa) = 65.94573 79.07002 72.50787
# Shear Modulus (GPa) = 16.46898 35.34311 25.90604
#
# Velocity S-wave (km/s) = 2.74203 4.01690 3.43906
# Velocity P-wave (km/s) = 6.33496 7.59029 6.99086
#
# Compressibility (1/GPa) = 0.01516398
#
# Stress axis : x y z
#
# Youngs Moduli (GPa) = 132.05507 65.31420 117.54369
#
# Poissons Ratio (x) = 0.10521 0.30576
# Poissons Ratio (y) = 0.21272 0.45856
# Poissons Ratio (z) = 0.34351 0.25480
#
# Static dielectric constant tensor:
#      x y z
#    x 3.999460 0.000000 -0.039610 
#    y 0.000000 4.128840 0.000000 
#    z -0.039610 0.000000 4.021430 
# 
# 
# High freq. dielectric constant tensor:
#      x y z
#    x 1.882390 0.000000 -0.005020 
#    y 0.000000 1.866120 0.000000 
#    z -0.005020 0.000000 1.871270 
# 
# From -- ./inp_files/39179.got.cif
#   From: 2010.06.25/outbox.cif.g09.slc.cpg/sg12_20_cif.got.tgz:39179.got - 2010.06.28 00:19:55.
