data_PCOD8115987
_publ_section_title
;
Structure prediction by ZEFSAII (Michael W. Deem and Ramdas Pophale) SiO2 
 PCOD8115987
Probable space group: C 2/M
;
_chemical_formula_sum "Si O2"
_cell_formula_units_Z 56
_cell_length_a 23.113309
_cell_length_b 9.233174
_cell_length_c 18.661847
_cell_angle_alpha 90.000000
_cell_angle_beta 61.450135
_cell_angle_gamma 90.000000
_cell_volume 3498.330535
_symmetry_space_group_name_H-M "C 2/M"
_symmetry_group_IT_number 12
_symmetry_cell_setting 'monoclinic'
loop_
_space_group_symop_operation_xyz
x,y,z
-x,y,-z
-x,-y,-z
x,-y,z
1/2+x,1/2+y,z
1/2-x,1/2+y,-z
1/2-x,1/2-y,-z
1/2+x,1/2-y,z
loop_
_atom_site_type_symbol
_atom_site_label
_atom_site_fract_x
_atom_site_fract_y
_atom_site_fract_z
Si Si1 0.350138 0.169663 0.951196
Si Si2 0.274297 0.669188 0.880854
Si Si3 0.388528 0.833125 0.232886
Si Si4 0.329213 0.165816 0.409434
Si Si5 0.989227 0.672869 0.926043
Si Si6 0.246020 0.171223 0.268199
Si Si7 0.291588 0.833633 0.579895
O O1 0.332167 0.247181 0.887463
O O2 0.419862 0.231218 0.937170
O O3 0.353176 0.000000 0.933929
O O4 0.296564 0.207397 0.043566
O O5 0.288965 0.500000 0.878119
O O6 0.274267 0.721953 0.798814
O O7 0.390966 0.811802 0.318366
O O8 0.452343 0.760798 0.158252
O O9 0.319840 0.770874 0.241822
O O10 0.391030 0.000000 0.209465
O O11 0.346999 0.187856 0.483640
O O12 0.275529 0.282667 0.417739
O O13 0.302500 0.000000 0.414449
O O14 0.988013 0.500000 0.925964
O O15 0.000000 0.730840 0.000000
O O16 0.195086 0.241285 0.355969
O O17 0.241977 0.000000 0.278789
O O18 0.286190 0.000000 0.606232
#
# Coordination Sequence:
#
# PCOD8115987 Si02
#       7
#     8   8   8   8   8   8   8
#     4   9  17  28  43  63  82 102 133 168 197 228
#     4   9  17  29  43  58  80 109 135 161 197 239
#     4   8  13  22  37  56  79 106 132 158 191 233
#     4   8  14  24  36  52  78 110 136 157 191 241
#     4   9  15  23  39  63  85 103 128 163 196 227
#     4   9  16  26  40  58  80 107 136 162 195 240
#     4   9  15  22  35  56  80 104 131 165 200 232
#
# _framework density 16.007635000000001
#
# number of rings (size 3 to 8) (size 9 to 14) (size 15 to 20)
#    0.000    3.286    0.000    2.143    0.000    4.571 
#    0.000    0.000    0.000    3.857    0.000    1.000 
#    0.000    8.000    0.000    0.000    0.000    0.000 
#
# Total GULP energy -346872.965519 kJ/mol
# GULP energy per Si atom -12388.320197 kJ/mol
# Density = 1.597120 g / cm^3
# Si number density = 16.007635 Si / 1000 Ang^3
#
#
#
# Elastic Constant Matrix: (Units=GPa)
#
#
# Indices 1 2 3 4 5 6 
#
# 1 93.4242 22.3619 66.0819 0.0000 15.0709 0.0000
# 2 22.3619 28.1307 31.2228 -0.0001 9.1732 -0.0002
# 3 66.0819 31.2228 155.7943 0.0000 25.2962 0.0000
# 4 0.0000 -0.0001 0.0000 20.8530 0.0000 6.9806
# 5 15.0709 9.1732 25.2962 0.0000 25.6093 0.0000
# 6 0.0000 -0.0002 0.0000 6.9806 0.0000 16.8440
#
#
#
# Elastic Compliance Matrix: (Units=1/GPa)
#
#
# Indices 1 2 3 4 5 6 
#
# 1 0.016324 -0.006416 -0.005302 0.000000 -0.002071 0.000000
# 2 -0.006416 0.049937 -0.005949 0.000000 -0.008235 0.000000
# 3 -0.005302 -0.005949 0.010728 0.000000 -0.005346 0.000000
# 4 0.000000 0.000000 0.000000 0.055679 0.000000 -0.023075
# 5 -0.002071 -0.008235 -0.005346 0.000000 0.048497 0.000000
# 6 0.000000 0.000000 0.000000 -0.023075 0.000000 0.068931
#
#
# Mechanical properties :
#
#
# Convention : Reuss Voigt Hill
#
# Bulk Modulus (GPa) = 24.00720 57.40917 40.70818
# Shear Modulus (GPa) = 16.70475 23.17344 19.93909
#
# Velocity S-wave (km/s) = 3.23391 3.80893 3.53313
# Velocity P-wave (km/s) = 5.38276 7.43541 6.49074
#
# Compressibility (1/GPa) = 0.04165418
#
# Stress axis : x y z
#
# Youngs Moduli (GPa) = 61.25986 20.02507 93.21592
#
# Poissons Ratio (x) = 0.12849 0.49421
# Poissons Ratio (y) = 0.39307 0.55457
# Poissons Ratio (z) = 0.32478 0.11914
#
# Static dielectric constant tensor:
#      x y z
#    x 2.797370 0.000000 0.137090 
#    y 0.000000 2.790490 0.000000 
#    z 0.137090 0.000000 3.541250 
# 
# 
# High freq. dielectric constant tensor:
#      x y z
#    x 1.565810 0.000000 0.019810 
#    y 0.000000 1.587320 0.000000 
#    z 0.019810 0.000000 1.632490 
# 
# From -- ./inp_files/319044.got.cif
#   From: 2010.06.25/outbox.cif.g09.slc.cpg/sg12_160_cif.got.tgz:319044.got - 2010.06.28 00:19:55.
