data_PCOD8115610
_publ_section_title
;
Structure prediction by ZEFSAII (Michael W. Deem and Ramdas Pophale) SiO2 
 PCOD8115610
Probable space group: C 2/M
;
_chemical_formula_sum "Si O2"
_cell_formula_units_Z 44
_cell_length_a 22.567171
_cell_length_b 15.442667
_cell_length_c 16.007931
_cell_angle_alpha 90.000000
_cell_angle_beta 158.738616
_cell_angle_gamma 90.000000
_cell_volume 2022.973660
_symmetry_space_group_name_H-M "C 2/M"
_symmetry_group_IT_number 12
_symmetry_cell_setting 'monoclinic'
loop_
_space_group_symop_operation_xyz
x,y,z
-x,y,-z
-x,-y,-z
x,-y,z
1/2+x,1/2+y,z
1/2-x,1/2+y,-z
1/2-x,1/2-y,-z
1/2+x,1/2-y,z
loop_
_atom_site_type_symbol
_atom_site_label
_atom_site_fract_x
_atom_site_fract_y
_atom_site_fract_z
Si Si1 0.207955 0.500000 0.120063
Si Si2 0.212847 0.000000 0.597694
Si Si3 0.907032 0.802536 0.000861
Si Si4 0.647112 0.000000 0.402289
Si Si5 0.747313 0.677194 0.371349
Si Si6 0.838279 0.176092 0.244742
Si Si7 0.496026 0.665606 0.701038
O O1 0.162981 0.500000 0.160268
O O2 0.326329 0.577129 0.252015
O O3 0.047909 0.500000 0.851634
O O4 0.302708 0.000000 0.628017
O O5 0.107707 0.913147 0.471428
O O6 0.788707 0.842206 0.774340
O O7 0.826715 0.717615 0.935842
O O8 0.931721 0.864987 0.113940
O O9 0.084719 0.779978 0.197101
O O10 0.713911 0.914561 0.535593
O O11 0.888775 0.747001 0.570702
O O12 0.856080 0.186945 0.168066
O O13 0.000000 0.217188 0.500000
#
# Coordination Sequence:
#
# PCOD8115610 Si02
#       7
#     4   4   8   4   8   8   8
#     4  12  25  44  67 102 139 178 223 286 348 400
#     4  12  24  41  70 101 138 176 225 278 343 403
#     4  11  24  42  69  98 133 182 224 276 341 392
#     4  12  27  45  69 101 138 182 227 288 336 399
#     4  11  25  45  70 100 138 177 235 280 335 409
#     4  12  23  44  71  99 141 180 224 280 344 407
#     4  12  24  44  71 102 140 177 229 279 342 410
#
# _framework density 21.750160000000001
#
# number of rings (size 3 to 8) (size 9 to 14) (size 15 to 20)
#    0.000    0.364    5.455    3.273    2.545    2.182 
#    0.000    0.000    0.000    3.273    0.000    0.000 
#    0.000    0.000    0.000    0.000    0.000    0.000 
#
# Total GULP energy -272705.327497 kJ/mol
# GULP energy per Si atom -12395.696704 kJ/mol
# Density = 2.170066 g / cm^3
# Si number density = 21.750160 Si / 1000 Ang^3
#
#
#
# Elastic Constant Matrix: (Units=GPa)
#
#
# Indices 1 2 3 4 5 6 
#
# 1 175.3181 33.3615 56.2919 0.0000 -11.8176 0.0000
# 2 33.3615 113.2634 37.7653 0.0000 14.1600 0.0000
# 3 56.2919 37.7653 95.9228 -0.0001 -10.2817 -0.0001
# 4 0.0000 0.0000 -0.0001 5.0777 0.0000 2.9670
# 5 -11.8176 14.1600 -10.2817 0.0000 39.7620 0.0000
# 6 0.0000 0.0000 -0.0001 2.9670 0.0000 21.3354
#
#
#
# Elastic Compliance Matrix: (Units=1/GPa)
#
#
# Indices 1 2 3 4 5 6 
#
# 1 0.007181 -0.001113 -0.003604 0.000000 0.001599 0.000000
# 2 -0.001113 0.011306 -0.004387 0.000000 -0.005491 0.000000
# 3 -0.003604 -0.004387 0.014728 0.000000 0.004299 0.000000
# 4 0.000000 0.000000 0.000000 0.214358 0.000000 -0.029809
# 5 0.001599 -0.005491 0.004299 0.000000 0.028692 0.000000
# 6 0.000000 0.000000 0.000000 -0.029809 0.000000 0.051016
#
#
# Mechanical properties :
#
#
# Convention : Reuss Voigt Hill
#
# Bulk Modulus (GPa) = 66.63719 71.03795 68.83757
# Shear Modulus (GPa) = 14.26569 30.37406 22.31988
#
# Velocity S-wave (km/s) = 2.56381 3.74103 3.20690
# Velocity P-wave (km/s) = 6.28238 7.16883 6.74019
#
# Compressibility (1/GPa) = 0.01500664
#
# Stress axis : x y z
#
# Youngs Moduli (GPa) = 139.25992 88.44864 67.89706
#
# Poissons Ratio (x) = 0.09845 0.24473
# Poissons Ratio (y) = 0.15501 0.29784
# Poissons Ratio (z) = 0.50196 0.38799
#
# Static dielectric constant tensor:
#      x y z
#    x 4.344850 0.000000 -0.205600 
#    y 0.000000 3.669660 0.000000 
#    z -0.205600 0.000000 3.989090 
# 
# 
# High freq. dielectric constant tensor:
#      x y z
#    x 1.881440 0.000000 -0.008890 
#    y 0.000000 1.832700 0.000000 
#    z -0.008890 0.000000 1.860140 
# 
# From -- ./inp_files/290200.got.cif
#   From: 2010.06.25/outbox.cif.g09.slc.cpg/sg12_146_cif.got.tgz:290200.got - 2010.06.28 00:19:55.
