data_PCOD8115068
_publ_section_title
;
Structure prediction by ZEFSAII (Michael W. Deem and Ramdas Pophale) SiO2 
 PCOD8115068
Probable space group: C 2/M
;
_chemical_formula_sum "Si O2"
_cell_formula_units_Z 48
_cell_length_a 19.437184
_cell_length_b 14.585119
_cell_length_c 16.395125
_cell_angle_alpha 90.000000
_cell_angle_beta 30.960322
_cell_angle_gamma 90.000000
_cell_volume 2391.092952
_symmetry_space_group_name_H-M "C 2/M"
_symmetry_group_IT_number 12
_symmetry_cell_setting 'monoclinic'
loop_
_space_group_symop_operation_xyz
x,y,z
-x,y,-z
-x,-y,-z
x,-y,z
1/2+x,1/2+y,z
1/2-x,1/2+y,-z
1/2-x,1/2-y,-z
1/2+x,1/2-y,z
loop_
_atom_site_type_symbol
_atom_site_label
_atom_site_fract_x
_atom_site_fract_y
_atom_site_fract_z
Si Si1 0.380003 0.332168 0.565287
Si Si2 0.754527 0.192113 0.413162
Si Si3 0.623018 0.500000 0.073187
Si Si4 0.902669 0.000000 0.431624
Si Si5 0.872223 0.644983 0.076235
Si Si6 0.661824 0.000000 0.567815
Si Si7 0.038111 0.158570 0.049272
Si Si8 0.875300 0.500000 0.934182
O O1 0.500000 0.298826 0.500000
O O2 0.332904 0.242473 0.565726
O O3 0.437853 0.409321 0.446109
O O4 0.260509 0.378369 0.738087
O O5 0.750000 0.250000 0.500000
O O6 0.907191 0.189061 0.230843
O O7 0.696549 0.090200 0.480707
O O8 0.486907 0.500000 0.263027
O O9 0.625830 0.588478 0.012272
O O10 0.749991 0.500000 0.001817
O O11 0.746374 0.000000 0.565807
O O12 0.870844 0.752371 0.057322
O O13 0.871367 0.590353 0.993026
O O14 0.000000 0.615967 0.000000
O O15 0.506387 0.000000 0.745920
O O16 0.000000 0.115141 0.000000
#
# Coordination Sequence:
#
# PCOD8115068 Si02
#       8
#     8   8   4   4   8   4   8   4
#     4  12  24  40  66 100 131 165 211 275 329 375
#     4  12  22  43  68  95 130 171 222 263 313 393
#     4  12  25  42  66  94 128 173 213 270 318 374
#     4  12  22  42  67  95 130 173 217 257 322 397
#     4  11  22  42  66  92 130 171 212 257 324 393
#     4  12  24  40  67  95 128 170 220 261 316 374
#     4  11  22  43  69  91 121 173 227 253 311 392
#     4  12  26  40  62 102 134 159 208 278 334 368
#
# _framework density 20.074501000000001
#
# number of rings (size 3 to 8) (size 9 to 14) (size 15 to 20)
#    0.000    0.333    6.667    4.250    0.000    2.000 
#    0.000    0.417    0.000    0.000    0.000    0.000 
#    0.000    0.000    0.000    0.000    0.000    0.000 
#
# Total GULP energy -297764.358147 kJ/mol
# GULP energy per Si atom -12406.848256 kJ/mol
# Density = 2.002881 g / cm^3
# Si number density = 20.074501 Si / 1000 Ang^3
#
#
#
# Elastic Constant Matrix: (Units=GPa)
#
#
# Indices 1 2 3 4 5 6 
#
# 1 133.4312 50.5826 31.5289 -0.0001 -24.2405 0.0000
# 2 50.5826 118.0599 5.6042 0.0001 -4.6247 -0.0002
# 3 31.5289 5.6042 81.5467 0.0004 -0.5277 -0.0004
# 4 -0.0001 0.0001 0.0004 25.0608 -0.0002 7.2640
# 5 -24.2405 -4.6247 -0.5277 -0.0002 41.0224 0.0001
# 6 0.0000 -0.0002 -0.0004 7.2640 0.0001 32.3128
#
#
#
# Elastic Compliance Matrix: (Units=1/GPa)
#
#
# Indices 1 2 3 4 5 6 
#
# 1 0.011197 -0.004370 -0.003990 0.000000 0.006072 0.000000
# 2 -0.004370 0.010241 0.000977 0.000000 -0.001415 0.000000
# 3 -0.003990 0.000977 0.013725 0.000000 -0.002071 0.000000
# 4 0.000000 0.000000 0.000000 0.042684 0.000000 -0.009595
# 5 0.006072 -0.001415 -0.002071 0.000000 0.027779 0.000000
# 6 0.000000 0.000000 0.000000 -0.009595 0.000000 0.033105
#
#
# Mechanical properties :
#
#
# Convention : Reuss Voigt Hill
#
# Bulk Modulus (GPa) = 49.02719 56.49657 52.76188
# Shear Modulus (GPa) = 31.19242 36.03403 33.61322
#
# Velocity S-wave (km/s) = 3.94614 4.24136 4.09641
# Velocity P-wave (km/s) = 6.72595 7.22427 6.97956
#
# Compressibility (1/GPa) = 0.02039685
#
# Stress axis : x y z
#
# Youngs Moduli (GPa) = 89.30917 97.64824 72.86028
#
# Poissons Ratio (x) = 0.42673 0.29068
# Poissons Ratio (y) = 0.39029 -0.07116
# Poissons Ratio (z) = 0.35630 -0.09537
#
# Static dielectric constant tensor:
#      x y z
#    x 3.727790 0.000000 0.166080 
#    y 0.000000 3.785520 0.000000 
#    z 0.166080 0.000000 3.674820 
# 
# 
# High freq. dielectric constant tensor:
#      x y z
#    x 1.787930 0.000000 0.010890 
#    y 0.000000 1.793170 0.000000 
#    z 0.010890 0.000000 1.787610 
# 
# From -- ./inp_files/278107.got.cif
#   From: 2010.06.25/outbox.cif.g09.slc.cpg/sg12_140_cif.got.tgz:278107.got - 2010.06.28 00:19:55.
