data_PCOD8115275
_publ_section_title
;
Structure prediction by ZEFSAII (Michael W. Deem and Ramdas Pophale) SiO2 
 PCOD8115275
Probable space group: C 2/M
;
_chemical_formula_sum "Si O2"
_cell_formula_units_Z 40
_cell_length_a 11.948795
_cell_length_b 23.709180
_cell_length_c 8.722518
_cell_angle_alpha 90.000000
_cell_angle_beta 128.745349
_cell_angle_gamma 90.000000
_cell_volume 1927.263471
_symmetry_space_group_name_H-M "C 2/M"
_symmetry_group_IT_number 12
_symmetry_cell_setting 'monoclinic'
loop_
_space_group_symop_operation_xyz
x,y,z
-x,y,-z
-x,-y,-z
x,-y,z
1/2+x,1/2+y,z
1/2-x,1/2+y,-z
1/2-x,1/2-y,-z
1/2+x,1/2-y,z
loop_
_atom_site_type_symbol
_atom_site_label
_atom_site_fract_x
_atom_site_fract_y
_atom_site_fract_z
Si Si1 0.404496 0.862746 0.284249
Si Si2 0.621375 0.656885 0.211821
Si Si3 0.844695 0.141178 0.429686
Si Si4 0.079184 0.284812 0.218981
Si Si5 0.653584 0.935226 0.055311
O O1 0.500000 0.891965 0.500000
O O2 0.264481 0.834726 0.237269
O O3 0.499838 0.812834 0.294711
O O4 0.353432 0.909271 0.119853
O O5 0.642192 0.618887 0.382595
O O6 0.566362 0.717868 0.222618
O O7 0.500000 0.628781 0.000000
O O8 0.745253 0.196885 0.350035
O O9 0.774546 0.093231 0.264521
O O10 0.000000 0.158223 0.500000
O O11 0.000000 0.307899 0.000000
O O12 0.697713 0.000000 0.076306
O O13 0.500000 0.927389 0.000000
#
# Coordination Sequence:
#
# PCOD8115275 Si02
#       5
#     8   8   8   8   8
#     4  12  22  41  65  93 136 161 214 268 306 378
#     4  11  26  37  61  97 134 173 206 256 320 369
#     4  12  23  41  64  91 131 164 217 260 310 383
#     4  11  23  40  61  93 128 177 213 244 311 388
#     4  11  23  45  71  92 120 169 220 266 318 374
#
# _framework density 20.754816999999999
#
# number of rings (size 3 to 8) (size 9 to 14) (size 15 to 20)
#    0.000    0.600    6.000    1.800    2.800    2.400 
#    0.000    1.000    0.000    2.400    0.000    0.000 
#    0.000    0.000    0.000    0.000    0.000    0.000 
#
# Total GULP energy -248043.124170 kJ/mol
# GULP energy per Si atom -12402.156209 kJ/mol
# Density = 2.070758 g / cm^3
# Si number density = 20.754817 Si / 1000 Ang^3
#
#
#
# Elastic Constant Matrix: (Units=GPa)
#
#
# Indices 1 2 3 4 5 6 
#
# 1 151.1987 21.9035 56.0267 0.0000 4.5957 0.0000
# 2 21.9035 61.0093 37.2891 0.0000 -14.3716 0.0000
# 3 56.0267 37.2891 200.9940 0.0000 -15.2959 0.0000
# 4 0.0000 0.0000 0.0000 8.9446 0.0000 5.8044
# 5 4.5957 -14.3716 -15.2959 0.0000 43.6204 0.0000
# 6 0.0000 0.0000 0.0000 5.8044 0.0000 16.5439
#
#
#
# Elastic Compliance Matrix: (Units=1/GPa)
#
#
# Indices 1 2 3 4 5 6 
#
# 1 0.007696 -0.002102 -0.001921 0.000000 -0.002177 0.000000
# 2 -0.002102 0.020198 -0.002710 0.000000 0.005926 0.000000
# 3 -0.001921 -0.002710 0.006124 0.000000 0.001457 0.000000
# 4 0.000000 0.000000 0.000000 0.144757 0.000000 -0.050788
# 5 -0.002177 0.005926 0.001457 0.000000 0.025618 0.000000
# 6 0.000000 0.000000 0.000000 -0.050788 0.000000 0.078264
#
#
# Mechanical properties :
#
#
# Convention : Reuss Voigt Hill
#
# Bulk Modulus (GPa) = 48.65632 71.51562 60.08597
# Shear Modulus (GPa) = 16.50302 33.68729 25.09515
#
# Velocity S-wave (km/s) = 2.82288 4.03315 3.48102
# Velocity P-wave (km/s) = 5.84116 7.49804 6.72085
#
# Compressibility (1/GPa) = 0.02055231
#
# Stress axis : x y z
#
# Youngs Moduli (GPa) = 129.93244 49.50994 163.27888
#
# Poissons Ratio (x) = 0.10406 0.31367
# Poissons Ratio (y) = 0.27309 0.44255
# Poissons Ratio (z) = 0.24961 0.13419
#
# Static dielectric constant tensor:
#      x y z
#    x 3.786720 0.000000 -0.113070 
#    y 0.000000 3.353590 0.000000 
#    z -0.113070 0.000000 4.438310 
# 
# 
# High freq. dielectric constant tensor:
#      x y z
#    x 1.821280 0.000000 -0.002700 
#    y 0.000000 1.765280 0.000000 
#    z -0.002700 0.000000 1.847660 
# 
# From -- ./inp_files/52344.got.cif
#   From: 2010.06.25/outbox.cif.g09.slc.cpg/sg12_27_cif.got.tgz:52344.got - 2010.06.28 00:19:55.
