data_PCOD8115682
_publ_section_title
;
Structure prediction by ZEFSAII (Michael W. Deem and Ramdas Pophale) SiO2 
 PCOD8115682
Probable space group: C 2/M
;
_chemical_formula_sum "Si O2"
_cell_formula_units_Z 44
_cell_length_a 11.072670
_cell_length_b 27.044066
_cell_length_c 14.366802
_cell_angle_alpha 90.000000
_cell_angle_beta 150.550323
_cell_angle_gamma 90.000000
_cell_volume 2115.185139
_symmetry_space_group_name_H-M "C 2/M"
_symmetry_group_IT_number 12
_symmetry_cell_setting 'monoclinic'
loop_
_space_group_symop_operation_xyz
x,y,z
-x,y,-z
-x,-y,-z
x,-y,z
1/2+x,1/2+y,z
1/2-x,1/2+y,-z
1/2-x,1/2-y,-z
1/2+x,1/2-y,z
loop_
_atom_site_type_symbol
_atom_site_label
_atom_site_fract_x
_atom_site_fract_y
_atom_site_fract_z
Si Si1 0.794679 0.056283 0.936784
Si Si2 0.450761 0.137953 0.635085
Si Si3 0.719157 0.795112 0.317461
Si Si4 0.000000 0.349993 0.000000
Si Si5 0.627025 0.690368 0.181930
Si Si6 0.547644 0.613963 0.797751
O O1 0.563933 0.092856 0.770244
O O2 0.706572 0.000000 0.864646
O O3 0.000000 0.071267 0.000000
O O4 0.912313 0.063050 0.118424
O O5 0.386509 0.185037 0.656235
O O6 0.631053 0.157965 0.676279
O O7 0.211938 0.114757 0.427210
O O8 0.697392 0.735970 0.295904
O O9 0.000000 0.812208 0.500000
O O10 0.561908 0.816172 0.128278
O O11 0.764257 0.382945 0.867382
O O12 0.436044 0.657829 0.113816
O O13 0.500000 0.707051 0.000000
#
# Coordination Sequence:
#
# PCOD8115682 Si02
#       6
#     8   8   8   4   8   8
#     4  11  24  45  72 102 132 165 218 281 337 390
#     4  12  24  43  69  97 136 174 221 274 329 390
#     4  12  25  40  64  98 136 179 224 266 321 393
#     4  12  24  40  65  90 128 182 219 262 322 386
#     4  12  24  41  65  96 135 180 223 271 322 389
#     4  12  24  43  67  94 134 175 219 274 330 389
#
# _framework density 20.801960999999999
#
# number of rings (size 3 to 8) (size 9 to 14) (size 15 to 20)
#    0.000    0.182    8.182    1.636    2.545    3.636 
#    0.000    2.273    0.000    1.636    0.000    0.000 
#    0.000    0.000    0.000    0.000    0.000    0.000 
#
# Total GULP energy -272878.599994 kJ/mol
# GULP energy per Si atom -12403.572727 kJ/mol
# Density = 2.075461 g / cm^3
# Si number density = 20.801961 Si / 1000 Ang^3
#
#
#
# Elastic Constant Matrix: (Units=GPa)
#
#
# Indices 1 2 3 4 5 6 
#
# 1 102.5746 31.9910 30.4719 -0.0001 14.5198 0.0000
# 2 31.9910 86.6600 38.4520 0.0000 6.3553 0.0000
# 3 30.4719 38.4520 127.2245 -0.0003 4.0072 -0.0002
# 4 -0.0001 0.0000 -0.0003 16.3988 -0.0002 -7.4116
# 5 14.5198 6.3553 4.0072 -0.0002 38.9392 -0.0001
# 6 0.0000 0.0000 -0.0002 -7.4116 -0.0001 20.7788
#
#
#
# Elastic Compliance Matrix: (Units=1/GPa)
#
#
# Indices 1 2 3 4 5 6 
#
# 1 0.011818 -0.003335 -0.001706 0.000000 -0.003687 0.000000
# 2 -0.003335 0.014390 -0.003527 0.000000 -0.000742 0.000000
# 3 -0.001706 -0.003527 0.009327 0.000000 0.000252 0.000000
# 4 0.000000 0.000000 0.000000 0.072700 0.000000 0.025931
# 5 -0.003687 -0.000742 0.000252 0.000000 0.027151 0.000000
# 6 0.000000 0.000000 0.000000 0.025931 0.000000 0.057375
#
#
# Mechanical properties :
#
#
# Convention : Reuss Voigt Hill
#
# Bulk Modulus (GPa) = 54.35473 57.58763 55.97118
# Shear Modulus (GPa) = 23.14489 29.59298 26.36894
#
# Velocity S-wave (km/s) = 3.33923 3.77584 3.56422
# Velocity P-wave (km/s) = 6.40731 6.83762 6.62596
#
# Compressibility (1/GPa) = 0.01839766
#
# Stress axis : x y z
#
# Youngs Moduli (GPa) = 84.61683 69.49314 107.21699
#
# Poissons Ratio (x) = 0.23177 0.18296
# Poissons Ratio (y) = 0.28221 0.37815
# Poissons Ratio (z) = 0.14439 0.24510
#
# Static dielectric constant tensor:
#      x y z
#    x 3.972890 0.000000 -0.033220 
#    y 0.000000 3.516250 0.000000 
#    z -0.033220 0.000000 3.876920 
# 
# 
# High freq. dielectric constant tensor:
#      x y z
#    x 1.817760 0.000000 -0.002020 
#    y 0.000000 1.786820 0.000000 
#    z -0.002020 0.000000 1.832340 
# 
# From -- ./inp_files/209212.got.cif
#   From: 2010.06.25/outbox.cif.g09.slc.cpg/sg12_105_cif.got.tgz:209212.got - 2010.06.28 00:19:55.
