data_PCOD8115758
_publ_section_title
;
Structure prediction by ZEFSAII (Michael W. Deem and Ramdas Pophale) SiO2 
 PCOD8115758
Probable space group: C 2/M
;
_chemical_formula_sum "Si O2"
_cell_formula_units_Z 28
_cell_length_a 4.978680
_cell_length_b 24.697811
_cell_length_c 9.937715
_cell_angle_alpha 90.000000
_cell_angle_beta 111.349505
_cell_angle_gamma 90.000000
_cell_volume 1138.111293
_symmetry_space_group_name_H-M "C 2/M"
_symmetry_group_IT_number 12
_symmetry_cell_setting 'monoclinic'
loop_
_space_group_symop_operation_xyz
x,y,z
-x,y,-z
-x,-y,-z
x,-y,z
1/2+x,1/2+y,z
1/2-x,1/2+y,-z
1/2-x,1/2-y,-z
1/2+x,1/2-y,z
loop_
_atom_site_type_symbol
_atom_site_label
_atom_site_fract_x
_atom_site_fract_y
_atom_site_fract_z
Si Si1 0.758910 0.939761 0.651945
Si Si2 0.450015 0.213631 0.696709
Si Si3 0.000000 0.138780 0.500000
Si Si4 0.329083 0.121133 0.095986
O O1 0.500000 0.940512 0.500000
O O2 0.648050 0.920729 0.776598
O O3 0.994175 0.897974 0.634533
O O4 0.893701 0.000000 0.689143
O O5 0.750825 0.234742 0.691927
O O6 0.523057 0.178583 0.841763
O O7 0.285864 0.175857 0.558293
O O8 0.500000 0.095970 0.000000
O O9 0.000000 0.131676 0.000000
#
# Coordination Sequence:
#
# PCOD8115758 Si02
#       4
#     8   8   4   8
#     4  11  25  47  78 109 144 194 248 306 370 440
#     4  12  26  44  74 108 147 197 247 301 366 435
#     4  12  23  46  74 112 152 186 245 320 364 434
#     4  12  27  49  73 108 156 197 242 304 368 440
#
# _framework density 24.602163999999998
#
# number of rings (size 3 to 8) (size 9 to 14) (size 15 to 20)
#    0.000    0.286    2.857    6.429    0.000    4.571 
#    0.000    0.000    0.000    0.000    0.000    0.000 
#    0.000    0.000    0.000    0.000    0.000    0.000 
#
# Total GULP energy -173663.061877 kJ/mol
# GULP energy per Si atom -12404.504420 kJ/mol
# Density = 2.454617 g / cm^3
# Si number density = 24.602164 Si / 1000 Ang^3
#
#
#
# Elastic Constant Matrix: (Units=GPa)
#
#
# Indices 1 2 3 4 5 6 
#
# 1 106.4617 35.9270 51.3724 0.0000 -7.9126 0.0000
# 2 35.9270 147.5195 63.9196 0.0000 -11.6832 0.0000
# 3 51.3724 63.9196 146.5197 0.0000 -16.8841 0.0000
# 4 0.0000 0.0000 0.0000 -14.2123 0.0000 -19.5056
# 5 -7.9126 -11.6832 -16.8841 0.0000 56.0196 0.0000
# 6 0.0000 0.0000 0.0000 -19.5056 0.0000 9.8479
#
#
#
# Elastic Compliance Matrix: (Units=1/GPa)
#
#
# Indices 1 2 3 4 5 6 
#
# 1 0.011510 -0.001289 -0.003436 0.000000 0.000321 0.000000
# 2 -0.001289 0.008527 -0.003195 0.000000 0.000633 0.000000
# 3 -0.003436 -0.003195 0.009625 0.000000 0.001749 0.000000
# 4 0.000000 0.000000 0.000000 -0.018923 0.000000 -0.037480
# 5 0.000321 0.000633 0.001749 0.000000 0.018556 0.000000
# 6 0.000000 0.000000 0.000000 -0.037480 0.000000 0.027309
#
#
# Mechanical properties :
#
#
# Convention : Reuss Voigt Hill
#
# Bulk Modulus (GPa) = 72.34838 78.10433 75.22636
# Shear Modulus (GPa) = 64.89080 26.94982 45.92031
#
# Velocity S-wave (km/s) = 5.14133 3.31331 4.32501
# Velocity P-wave (km/s) = 8.04460 6.81566 7.45550
#
# Compressibility (1/GPa) = 0.01382201
#
# Stress axis : x y z
#
# Youngs Moduli (GPa) = 86.88064 117.27111 103.89218
#
# Poissons Ratio (x) = 0.15113 0.35701
# Poissons Ratio (y) = 0.11197 0.33196
# Poissons Ratio (z) = 0.29856 0.37470
#
# Static dielectric constant tensor:
#      x y z
#    x 4.416680 0.000000 -0.066660 
#    y 0.000000 4.750920 0.000000 
#    z -0.066660 0.000000 4.784500 
# 
# 
# High freq. dielectric constant tensor:
#      x y z
#    x 1.984240 0.000000 0.001060 
#    y 0.000000 1.982040 0.000000 
#    z 0.001060 0.000000 1.979640 
# 
# From -- ./inp_files/34425.got.cif
#   From: 2010.06.25/outbox.cif.g09.slc.cpg/sg12_18_cif.got.tgz:34425.got - 2010.06.28 00:19:55.
