data_PCOD8115556
_publ_section_title
;
Structure prediction by ZEFSAII (Michael W. Deem and Ramdas Pophale) SiO2 
 PCOD8115556
Probable space group: C 2/M
;
_chemical_formula_sum "Si O2"
_cell_formula_units_Z 40
_cell_length_a 14.162849
_cell_length_b 9.162950
_cell_length_c 15.999533
_cell_angle_alpha 90.000000
_cell_angle_beta 67.004484
_cell_angle_gamma 90.000000
_cell_volume 1911.321549
_symmetry_space_group_name_H-M "C 2/M"
_symmetry_group_IT_number 12
_symmetry_cell_setting 'monoclinic'
loop_
_space_group_symop_operation_xyz
x,y,z
-x,y,-z
-x,-y,-z
x,-y,z
1/2+x,1/2+y,z
1/2-x,1/2+y,-z
1/2-x,1/2-y,-z
1/2+x,1/2-y,z
loop_
_atom_site_type_symbol
_atom_site_label
_atom_site_fract_x
_atom_site_fract_y
_atom_site_fract_z
Si Si1 0.728867 0.833299 0.896967
Si Si2 0.588730 0.833005 0.083684
Si Si3 0.527132 0.669392 0.747538
Si Si4 0.736928 0.327433 0.592114
Si Si5 0.333814 0.334298 0.699641
O O1 0.805150 0.715611 0.910137
O O2 0.733964 0.813543 0.794729
O O3 0.766147 0.000000 0.905024
O O4 0.612829 0.811632 0.975018
O O5 0.493455 0.743207 0.154717
O O6 0.565894 0.000000 0.112840
O O7 0.536332 0.500000 0.762885
O O8 0.630319 0.726973 0.669026
O O9 0.435118 0.707225 0.716249
O O10 0.742748 0.500000 0.577820
O O11 0.750000 0.250000 0.500000
O O12 0.826500 0.273710 0.623437
O O13 0.340705 0.500000 0.663826
#
# Coordination Sequence:
#
# PCOD8115556 Si02
#       5
#     8   8   8   8   8
#     4   8  15  28  47  75 112 149 178 210 261 316
#     4   9  15  25  48  80 109 141 183 222 253 300
#     4   9  20  38  57  78 110 148 178 212 269 329
#     4  11  24  41  59  80 106 137 177 226 277 326
#     4   9  18  36  59  80 107 144 181 216 260 318
#
# _framework density 20.927928000000001
#
# number of rings (size 3 to 8) (size 9 to 14) (size 15 to 20)
#    0.000    2.800    0.000    2.400    0.000    6.400 
#    0.000    5.000    0.000    6.000    0.000    0.000 
#    0.000    0.000    0.000    0.000    0.000    0.000 
#
# Total GULP energy -247832.033838 kJ/mol
# GULP energy per Si atom -12391.601692 kJ/mol
# Density = 2.088030 g / cm^3
# Si number density = 20.927928 Si / 1000 Ang^3
#
#
#
# Elastic Constant Matrix: (Units=GPa)
#
#
# Indices 1 2 3 4 5 6 
#
# 1 17.8758 8.5235 9.2652 0.0000 -9.0526 0.0000
# 2 8.5235 63.4565 37.2896 0.0000 0.2488 0.0000
# 3 9.2652 37.2896 94.0731 0.0000 -1.7425 0.0000
# 4 0.0000 0.0000 0.0000 39.1227 0.0000 -2.1833
# 5 -9.0526 0.2488 -1.7425 0.0000 32.8981 0.0000
# 6 0.0000 0.0000 0.0000 -2.1833 0.0000 21.6296
#
#
#
# Elastic Compliance Matrix: (Units=1/GPa)
#
#
# Indices 1 2 3 4 5 6 
#
# 1 0.071287 -0.007480 -0.003695 0.000000 0.019477 0.000000
# 2 -0.007480 0.021341 -0.007771 0.000000 -0.002631 0.000000
# 3 -0.003695 -0.007771 0.014070 0.000000 -0.000213 0.000000
# 4 0.000000 0.000000 0.000000 0.025705 0.000000 0.002595
# 5 0.019477 -0.002631 -0.000213 0.000000 0.035765 0.000000
# 6 0.000000 0.000000 0.000000 0.002595 0.000000 0.046495
#
#
# Mechanical properties :
#
#
# Convention : Reuss Voigt Hill
#
# Bulk Modulus (GPa) = 14.53385 31.72909 23.13147
# Shear Modulus (GPa) = 18.14939 26.75190 22.45065
#
# Velocity S-wave (km/s) = 2.94808 3.57919 3.27886
# Velocity P-wave (km/s) = 4.30674 5.68110 5.04098
#
# Compressibility (1/GPa) = 0.06880488
#
# Stress axis : x y z
#
# Youngs Moduli (GPa) = 14.02780 46.85913 71.07094
#
# Poissons Ratio (x) = 0.35052 0.26262
# Poissons Ratio (y) = 0.10493 0.55231
# Poissons Ratio (z) = 0.05184 0.36415
#
# Static dielectric constant tensor:
#      x y z
#    x 3.411590 0.000000 -0.268080 
#    y 0.000000 3.693400 0.000000 
#    z -0.268080 0.000000 4.135880 
# 
# 
# High freq. dielectric constant tensor:
#      x y z
#    x 1.789190 0.000000 -0.012870 
#    y 0.000000 1.814600 0.000000 
#    z -0.012870 0.000000 1.831450 
# 
# From -- ./inp_files/211252.got.cif
#   From: 2010.06.25/outbox.cif.g09.slc.cpg/sg12_106_cif.got.tgz:211252.got - 2010.06.28 00:19:55.
