data_PCOD8115463
_publ_section_title
;
Structure prediction by ZEFSAII (Michael W. Deem and Ramdas Pophale) SiO2 
 PCOD8115463
Probable space group: C 2/M
;
_chemical_formula_sum "Si O2"
_cell_formula_units_Z 32
_cell_length_a 8.453335
_cell_length_b 13.756750
_cell_length_c 11.555495
_cell_angle_alpha 90.000000
_cell_angle_beta 69.350375
_cell_angle_gamma 90.000000
_cell_volume 1257.460579
_symmetry_space_group_name_H-M "C 2/M"
_symmetry_group_IT_number 12
_symmetry_cell_setting 'monoclinic'
loop_
_space_group_symop_operation_xyz
x,y,z
-x,y,-z
-x,-y,-z
x,-y,z
1/2+x,1/2+y,z
1/2-x,1/2+y,-z
1/2-x,1/2-y,-z
1/2+x,1/2-y,z
loop_
_atom_site_type_symbol
_atom_site_label
_atom_site_fract_x
_atom_site_fract_y
_atom_site_fract_z
Si Si1 0.523867 0.395028 0.674713
Si Si2 0.251576 0.347754 0.571509
Si Si3 0.994972 0.612936 0.817102
Si Si4 0.363432 0.707478 0.124983
O O1 0.461344 0.500000 0.738862
O O2 0.370231 0.336691 0.655008
O O3 0.666521 0.421723 0.541216
O O4 0.599588 0.329263 0.755618
O O5 0.250000 0.250000 0.500000
O O6 0.069219 0.383076 0.666140
O O7 0.976779 0.500000 0.860292
O O8 0.818217 0.670859 0.869818
O O9 0.119167 0.673778 0.872033
O O10 0.500000 0.664603 0.000000
#
# Coordination Sequence:
#
# PCOD8115463 Si02
#       4
#     8   8   8   8
#     4  11  24  45  75 108 151 200 248 310 384 453
#     4  11  23  43  76 111 152 193 247 317 388 451
#     4  12  27  49  79 114 151 202 256 312 385 453
#     4  12  28  51  78 111 157 204 257 318 372 447
#
# _framework density 25.448114
#
# number of rings (size 3 to 8) (size 9 to 14) (size 15 to 20)
#    0.000    0.500    2.500    6.000    3.500    3.500 
#    0.000    3.750    0.000    0.000    0.000    0.000 
#    0.000    0.000    0.000    0.000    0.000    0.000 
#
# Total GULP energy -198245.798150 kJ/mol
# GULP energy per Si atom -12390.362384 kJ/mol
# Density = 2.539019 g / cm^3
# Si number density = 25.448114 Si / 1000 Ang^3
#
#
#
# Elastic Constant Matrix: (Units=GPa)
#
#
# Indices 1 2 3 4 5 6 
#
# 1 105.6859 62.6880 34.6653 0.0000 -21.1564 0.0000
# 2 62.6880 190.0885 -14.5599 0.0000 -0.4030 0.0000
# 3 34.6653 -14.5599 93.4186 0.0000 -34.6471 0.0000
# 4 0.0000 0.0000 0.0000 9.7649 0.0000 -7.8399
# 5 -21.1564 -0.4030 -34.6471 0.0000 52.6395 0.0000
# 6 0.0000 0.0000 0.0000 -7.8399 0.0000 16.7030
#
#
#
# Elastic Compliance Matrix: (Units=1/GPa)
#
#
# Indices 1 2 3 4 5 6 
#
# 1 0.014888 -0.005325 -0.005491 0.000000 0.002329 0.000000
# 2 -0.005325 0.007253 0.003087 0.000000 -0.000053 0.000000
# 3 -0.005491 0.003087 0.016422 0.000000 0.008626 0.000000
# 4 0.000000 0.000000 0.000000 0.164338 0.000000 0.077136
# 5 0.002329 -0.000053 0.008626 0.000000 0.025610 0.000000
# 6 0.000000 0.000000 0.000000 0.077136 0.000000 0.096075
#
#
# Mechanical properties :
#
#
# Convention : Reuss Voigt Hill
#
# Bulk Modulus (GPa) = 43.28089 61.64221 52.46155
# Shear Modulus (GPa) = 14.37825 36.24811 25.31318
#
# Velocity S-wave (km/s) = 2.37956 3.77821 3.15730
# Velocity P-wave (km/s) = 4.95925 6.58091 5.82677
#
# Compressibility (1/GPa) = 0.02310489
#
# Stress axis : x y z
#
# Youngs Moduli (GPa) = 67.16803 137.86850 60.89273
#
# Poissons Ratio (x) = 0.73421 0.33435
# Poissons Ratio (y) = 0.35770 -0.18797
# Poissons Ratio (z) = 0.36881 -0.42559
#
# Static dielectric constant tensor:
#      x y z
#    x 4.576660 0.000000 -0.542830 
#    y 0.000000 4.816100 0.000000 
#    z -0.542830 0.000000 5.201610 
# 
# 
# High freq. dielectric constant tensor:
#      x y z
#    x 1.999280 0.000000 -0.021650 
#    y 0.000000 2.022490 0.000000 
#    z -0.021650 0.000000 2.032450 
# 
# From -- ./inp_files/117660.got.cif
#   From: 2010.06.25/outbox.cif.g09.slc.cpg/sg12_59_cif.got.tgz:117660.got - 2010.06.28 00:19:55.
