data_PCOD8115038
_publ_section_title
;
Structure prediction by ZEFSAII (Michael W. Deem and Ramdas Pophale) SiO2 
 PCOD8115038
Probable space group: C 2/M
;
_chemical_formula_sum "Si O2"
_cell_formula_units_Z 40
_cell_length_a 13.048636
_cell_length_b 22.731009
_cell_length_c 8.230814
_cell_angle_alpha 90.000000
_cell_angle_beta 50.325982
_cell_angle_gamma 90.000000
_cell_volume 1879.065748
_symmetry_space_group_name_H-M "C 2/M"
_symmetry_group_IT_number 12
_symmetry_cell_setting 'monoclinic'
loop_
_space_group_symop_operation_xyz
x,y,z
-x,y,-z
-x,-y,-z
x,-y,z
1/2+x,1/2+y,z
1/2-x,1/2+y,-z
1/2-x,1/2-y,-z
1/2+x,1/2-y,z
loop_
_atom_site_type_symbol
_atom_site_label
_atom_site_fract_x
_atom_site_fract_y
_atom_site_fract_z
Si Si1 0.651126 0.500000 0.658449
Si Si2 0.269223 0.877003 0.540045
Si Si3 0.767875 0.874775 0.044175
Si Si4 0.017820 0.313744 0.166721
Si Si5 0.853855 0.000000 0.950984
Si Si6 0.519467 0.687913 0.666251
O O1 0.728841 0.442065 0.521022
O O2 0.503975 0.500000 0.728031
O O3 0.637249 0.500000 0.864769
O O4 0.413809 0.864230 0.320460
O O5 0.166085 0.829129 0.577016
O O6 0.279787 0.872656 0.722728
O O7 0.913140 0.845615 0.886279
O O8 0.775886 0.941920 0.971071
O O9 0.665954 0.839265 0.035399
O O10 0.997999 0.257725 0.301685
O O11 0.000000 0.293447 0.000000
O O12 0.500000 0.669099 0.500000
#
# Coordination Sequence:
#
# PCOD8115038 Si02
#       6
#     4   8   8   8   4   8
#     4   9  18  37  66  95 121 157 204 250 301 368
#     4  11  22  41  67  94 124 163 208 253 303 365
#     4  11  22  41  67  94 124 163 208 253 303 365
#     4  12  26  43  60  89 129 166 206 256 313 366
#     4   9  18  37  66  95 121 157 204 250 301 368
#     4  12  24  41  64  93 125 164 208 254 309 366
#
# _framework density 21.287174
#
# number of rings (size 3 to 8) (size 9 to 14) (size 15 to 20)
#    0.000    1.000    2.000    6.000    0.000    0.800 
#    0.000    9.000    0.000    0.000    0.000    0.000 
#    0.000    0.000    0.000    0.000    0.000    0.000 
#
# Total GULP energy -248155.038225 kJ/mol
# GULP energy per Si atom -12407.751911 kJ/mol
# Density = 2.123872 g / cm^3
# Si number density = 21.287174 Si / 1000 Ang^3
#
#
#
# Elastic Constant Matrix: (Units=GPa)
#
#
# Indices 1 2 3 4 5 6 
#
# 1 79.5950 19.7664 0.6760 0.0000 -1.7035 0.0000
# 2 19.7664 137.4873 7.2341 0.0000 -9.5382 0.0000
# 3 0.6760 7.2341 66.9191 0.0000 -3.8969 0.0000
# 4 0.0000 0.0000 0.0000 25.8888 0.0000 -5.5406
# 5 -1.7035 -9.5382 -3.8969 0.0000 31.2966 0.0000
# 6 0.0000 0.0000 0.0000 -5.5406 0.0000 25.0455
#
#
#
# Elastic Compliance Matrix: (Units=1/GPa)
#
#
# Indices 1 2 3 4 5 6 
#
# 1 0.013030 -0.001867 0.000079 0.000000 0.000150 0.000000
# 2 -0.001867 0.007729 -0.000690 0.000000 0.002168 0.000000
# 3 0.000079 -0.000690 0.015115 0.000000 0.001676 0.000000
# 4 0.000000 0.000000 0.000000 0.040547 0.000000 0.008970
# 5 0.000150 0.002168 0.001676 0.000000 0.032830 0.000000
# 6 0.000000 0.000000 0.000000 0.008970 0.000000 0.041912
#
#
# Mechanical properties :
#
#
# Convention : Reuss Voigt Hill
#
# Bulk Modulus (GPa) = 32.34545 37.70606 35.02575
# Shear Modulus (GPa) = 30.04382 33.53450 31.78916
#
# Velocity S-wave (km/s) = 3.76088 3.97336 3.86858
# Velocity P-wave (km/s) = 5.83839 6.22909 6.03690
#
# Compressibility (1/GPa) = 0.03091625
#
# Stress axis : x y z
#
# Youngs Moduli (GPa) = 76.74718 129.39059 66.16012
#
# Poissons Ratio (x) = 0.24158 -0.00522
# Poissons Ratio (y) = 0.14329 0.04568
# Poissons Ratio (z) = -0.00606 0.08933
#
# Static dielectric constant tensor:
#      x y z
#    x 3.697740 0.000000 -0.091420 
#    y 0.000000 3.997860 0.000000 
#    z -0.091420 0.000000 3.672220 
# 
# 
# High freq. dielectric constant tensor:
#      x y z
#    x 1.830430 0.000000 -0.007290 
#    y 0.000000 1.845920 0.000000 
#    z -0.007290 0.000000 1.829520 
# 
# From -- ./inp_files/63186.got.cif
#   From: 2010.06.25/outbox.cif.g09.slc.cpg/sg12_32_cif.got.tgz:63186.got - 2010.06.28 00:19:55.
