data_PCOD8115912
_publ_section_title
;
Structure prediction by ZEFSAII (Michael W. Deem and Ramdas Pophale) SiO2 
 PCOD8115912
Probable space group: C 2/M
;
_chemical_formula_sum "Si O2"
_cell_formula_units_Z 48
_cell_length_a 9.445813
_cell_length_b 15.686989
_cell_length_c 26.079470
_cell_angle_alpha 90.000000
_cell_angle_beta 38.443497
_cell_angle_gamma 90.000000
_cell_volume 2402.637715
_symmetry_space_group_name_H-M "C 2/M"
_symmetry_group_IT_number 12
_symmetry_cell_setting 'monoclinic'
loop_
_space_group_symop_operation_xyz
x,y,z
-x,y,-z
-x,-y,-z
x,-y,z
1/2+x,1/2+y,z
1/2-x,1/2+y,-z
1/2-x,1/2-y,-z
1/2+x,1/2-y,z
loop_
_atom_site_type_symbol
_atom_site_label
_atom_site_fract_x
_atom_site_fract_y
_atom_site_fract_z
Si Si1 0.813747 0.663091 0.008014
Si Si2 0.542471 0.097683 0.138723
Si Si3 0.102357 0.595898 0.663307
Si Si4 0.745950 0.741722 0.560705
Si Si5 0.605983 0.402442 0.318158
Si Si6 0.330293 0.401820 0.148751
O O1 0.573865 0.632152 0.098700
O O2 0.750000 0.750000 0.000000
O O3 0.000000 0.668723 0.000000
O O4 0.907000 0.604023 0.935781
O O5 0.290042 0.132149 0.223970
O O6 0.736913 0.139599 0.121054
O O7 0.533558 0.000000 0.158381
O O8 0.110289 0.500000 0.637070
O O9 0.165901 0.666377 0.603879
O O10 0.281647 0.601185 0.658110
O O11 0.848635 0.615947 0.755424
O O12 0.750000 0.750000 0.500000
O O13 0.599255 0.664274 0.625531
O O14 0.000000 0.716807 0.500000
O O15 0.523828 0.500000 0.329662
O O16 0.368722 0.500000 0.127424
#
# Coordination Sequence:
#
# PCOD8115912 Si02
#       6
#     8   8   8   8   8   8
#     4  12  25  38  55  87 125 162 201 248 296 353
#     4   9  19  39  65  88 117 160 201 244 299 362
#     4   9  20  41  67  91 122 167 209 247 302 377
#     4  12  24  40  63  96 124 157 203 259 312 369
#     4   9  20  41  66  91 125 165 205 250 308 371
#     4   9  19  39  65  89 117 157 203 247 297 360
#
# _framework density 19.978043
#
# number of rings (size 3 to 8) (size 9 to 14) (size 15 to 20)
#    0.000    2.000    1.667    4.000    2.333    4.000 
#    3.000    0.000    0.000    0.000    0.000    0.000 
#    0.000    0.000    0.000    0.000    0.000    0.000 
#
# Total GULP energy -297385.727470 kJ/mol
# GULP energy per Si atom -12391.071978 kJ/mol
# Density = 1.993257 g / cm^3
# Si number density = 19.978043 Si / 1000 Ang^3
#
#
#
# Elastic Constant Matrix: (Units=GPa)
#
#
# Indices 1 2 3 4 5 6 
#
# 1 113.9238 33.2855 60.3631 -0.0019 -22.7939 0.0019
# 2 33.2855 95.1301 60.2187 -0.0054 -15.4523 0.0079
# 3 60.3631 60.2187 130.3785 -0.0031 -28.6775 -0.0053
# 4 -0.0019 -0.0054 -0.0031 40.9888 -0.0083 -1.3957
# 5 -22.7939 -15.4523 -28.6775 -0.0083 34.9764 -0.0101
# 6 0.0019 0.0079 -0.0053 -1.3957 -0.0101 21.8093
#
#
#
# Elastic Compliance Matrix: (Units=1/GPa)
#
#
# Indices 1 2 3 4 5 6 
#
# 1 0.012122 -0.000844 -0.004352 0.000001 0.003959 0.000000
# 2 -0.000844 0.014951 -0.006324 0.000001 0.000871 -0.000006
# 3 -0.004352 -0.006324 0.013868 0.000001 0.005741 0.000009
# 4 0.000001 0.000001 0.000001 0.024450 0.000009 0.001565
# 5 0.003959 0.000871 0.005741 0.000009 0.036263 0.000018
# 6 0.000000 -0.000006 0.000009 0.001565 0.000018 0.045952
#
#
# Mechanical properties :
#
#
# Convention : Reuss Voigt Hill
#
# Bulk Modulus (GPa) = 55.85405 71.90745 63.88075
# Shear Modulus (GPa) = 28.31043 31.92591 30.11817
#
# Velocity S-wave (km/s) = 3.76849 4.00190 3.88695
# Velocity P-wave (km/s) = 6.85228 7.57793 7.22422
#
# Compressibility (1/GPa) = 0.01790381
#
# Stress axis : x y z
#
# Youngs Moduli (GPa) = 82.49246 66.88305 72.10667
#
# Poissons Ratio (x) = 0.05642 0.31381
# Poissons Ratio (y) = 0.06959 0.45597
# Poissons Ratio (z) = 0.35901 0.42294
#
# Static dielectric constant tensor:
#      x y z
#    x 4.337220 -0.000020 -0.226190 
#    y -0.000020 3.774140 -0.000010 
#    z -0.226190 -0.000010 3.197730 
# 
# 
# High freq. dielectric constant tensor:
#      x y z
#    x 1.762480 0.000000 -0.008060 
#    y 0.000000 1.777880 0.000000 
#    z -0.008060 0.000000 1.793490 
# 
# From -- ./inp_files/356287.got.cif
#   From: 2010.06.25/outbox.cif.g09.slc.cpg/sg12_179_cif.got.tgz:356287.got - 2010.06.28 00:19:55.
