data_PCOD8115919
_publ_section_title
;
Structure prediction by ZEFSAII (Michael W. Deem and Ramdas Pophale) SiO2 
 PCOD8115919
Probable space group: C 2/M
;
_chemical_formula_sum "Si O2"
_cell_formula_units_Z 24
_cell_length_a 8.756155
_cell_length_b 5.168778
_cell_length_c 25.413457
_cell_angle_alpha 90.000000
_cell_angle_beta 76.404310
_cell_angle_gamma 90.000000
_cell_volume 1117.948527
_symmetry_space_group_name_H-M "C 2/M"
_symmetry_group_IT_number 12
_symmetry_cell_setting 'monoclinic'
loop_
_space_group_symop_operation_xyz
x,y,z
-x,y,-z
-x,-y,-z
x,-y,z
1/2+x,1/2+y,z
1/2-x,1/2+y,-z
1/2-x,1/2-y,-z
1/2+x,1/2-y,z
loop_
_atom_site_type_symbol
_atom_site_label
_atom_site_fract_x
_atom_site_fract_y
_atom_site_fract_z
Si Si1 0.847013 0.000000 0.977993
Si Si2 0.183360 0.000000 0.477933
Si Si3 0.080144 0.500000 0.312021
Si Si4 0.220536 0.000000 0.352429
Si Si5 0.757508 0.000000 0.188046
Si Si6 0.117168 0.000000 0.147628
O O1 0.897021 0.000000 0.913591
O O2 0.750000 0.250000 0.000000
O O3 0.000000 0.000000 0.000000
O O4 0.250000 0.250000 0.500000
O O5 0.235618 0.000000 0.413560
O O6 0.000000 0.000000 0.500000
O O7 0.124308 0.248901 0.341788
O O8 0.168975 0.500000 0.250049
O O9 0.895046 0.500000 0.314108
O O10 0.713346 0.748696 0.158369
O O11 0.942640 0.000000 0.185859
#
# Coordination Sequence:
#
# PCOD8115919 Si02
#       6
#     4   4   4   4   4   4
#     4  12  25  43  66  94 127 165 208 256 309 372
#     4  12  24  42  64  94 129 168 211 260 313 372
#     4  12  24  43  65  94 126 165 211 260 313 372
#     4  12  24  42  66  94 127 168 211 260 313 372
#     4  12  25  43  66  94 127 165 208 260 313 372
#     4  12  24  43  65  94 126 165 207 256 313 372
#
# _framework density 21.467894000000001
#
# number of rings (size 3 to 8) (size 9 to 14) (size 15 to 20)
#    0.000    0.000    0.000   12.000    0.000    0.000 
#    0.000    0.000    0.000    0.000    0.000    0.000 
#    0.000    0.000    0.000    0.000    0.000    0.000 
#
# Total GULP energy -148916.190583 kJ/mol
# GULP energy per Si atom -12409.682549 kJ/mol
# Density = 2.141903 g / cm^3
# Si number density = 21.467894 Si / 1000 Ang^3
#
#
#
# Elastic Constant Matrix: (Units=GPa)
#
#
# Indices 1 2 3 4 5 6 
#
# 1 129.3494 48.9354 -21.0286 0.0000 -0.0461 0.0000
# 2 48.9354 203.7456 25.1909 0.0000 21.6946 0.0000
# 3 -21.0286 25.1909 108.1162 0.0000 2.3892 0.0000
# 4 0.0000 0.0000 0.0000 36.2269 0.0000 -6.8001
# 5 -0.0461 21.6946 2.3892 0.0000 43.2219 0.0000
# 6 0.0000 0.0000 0.0000 -6.8001 0.0000 41.1365
#
#
#
# Elastic Compliance Matrix: (Units=1/GPa)
#
#
# Indices 1 2 3 4 5 6 
#
# 1 0.009098 -0.002602 0.002350 0.000000 0.001186 0.000000
# 2 -0.002602 0.006077 -0.001857 0.000000 -0.002950 0.000000
# 3 0.002350 -0.001857 0.010131 0.000000 0.000374 0.000000
# 4 0.000000 0.000000 0.000000 0.028488 0.000000 0.004709
# 5 0.001186 -0.002950 0.000374 0.000000 0.024598 0.000000
# 6 0.000000 0.000000 0.000000 0.004709 0.000000 0.025088
#
#
# Mechanical properties :
#
#
# Convention : Reuss Voigt Hill
#
# Bulk Modulus (GPa) = 47.42267 60.82298 54.12283
# Shear Modulus (GPa) = 43.58234 49.99130 46.78682
#
# Velocity S-wave (km/s) = 4.51057 4.83085 4.67345
# Velocity P-wave (km/s) = 7.01890 7.71425 7.37478
#
# Compressibility (1/GPa) = 0.02108696
#
# Stress axis : x y z
#
# Youngs Moduli (GPa) = 109.91781 164.56336 98.71062
#
# Poissons Ratio (x) = 0.42817 -0.23192
# Poissons Ratio (y) = 0.28599 0.18328
# Poissons Ratio (z) = -0.25825 0.30555
#
# Static dielectric constant tensor:
#      x y z
#    x 4.128470 0.000000 0.025340 
#    y 0.000000 4.264260 0.000000 
#    z 0.025340 0.000000 4.114480 
# 
# 
# High freq. dielectric constant tensor:
#      x y z
#    x 1.864850 0.000000 0.000500 
#    y 0.000000 1.869270 0.000000 
#    z 0.000500 0.000000 1.862940 
# 
# From -- ./inp_files/331684.got.cif
#   From: 2010.06.25/outbox.cif.g09.slc.cpg/sg12_166_cif.got.tgz:331684.got - 2010.06.28 00:19:55.
