data_PCOD8115865
_publ_section_title
;
Structure prediction by ZEFSAII (Michael W. Deem and Ramdas Pophale) SiO2 
 PCOD8115865
Probable space group: C 2/M
;
_chemical_formula_sum "Si O2"
_cell_formula_units_Z 44
_cell_length_a 10.375070
_cell_length_b 26.624234
_cell_length_c 9.068444
_cell_angle_alpha 90.000000
_cell_angle_beta 117.518460
_cell_angle_gamma 90.000000
_cell_volume 2221.554582
_symmetry_space_group_name_H-M "C 2/M"
_symmetry_group_IT_number 12
_symmetry_cell_setting 'monoclinic'
loop_
_space_group_symop_operation_xyz
x,y,z
-x,y,-z
-x,-y,-z
x,-y,z
1/2+x,1/2+y,z
1/2-x,1/2+y,-z
1/2-x,1/2-y,-z
1/2+x,1/2-y,z
loop_
_atom_site_type_symbol
_atom_site_label
_atom_site_fract_x
_atom_site_fract_y
_atom_site_fract_z
Si Si1 0.451224 0.556782 0.213725
Si Si2 0.500000 0.629199 0.500000
Si Si3 0.416435 0.764962 0.107882
Si Si4 0.730181 0.556538 0.167900
Si Si5 0.379744 0.153521 0.313858
Si Si6 0.846723 0.795178 0.612021
O O1 0.422823 0.500000 0.253880
O O2 0.427556 0.594607 0.336176
O O3 0.613379 0.561316 0.236511
O O4 0.339471 0.571044 0.025649
O O5 0.628650 0.663851 0.503072
O O6 0.429075 0.819126 0.191200
O O7 0.495136 0.723719 0.252272
O O8 0.500000 0.769441 0.000000
O O9 0.250000 0.750000 0.000000
O O10 0.793001 0.500000 0.196613
O O11 0.860754 0.594663 0.269564
O O12 0.500000 0.161404 0.500000
O O13 0.229925 0.178568 0.289579
O O14 0.750000 0.750000 0.500000
#
# Coordination Sequence:
#
# PCOD8115865 Si02
#       6
#     8   4   8   8   8   8
#     4   9  19  37  63  95 125 160 212 273 334 392
#     4  12  23  34  68  94 130 164 213 274 328 384
#     4  12  27  43  68  97 132 174 224 275 323 393
#     4   9  20  40  63  90 128 167 213 270 330 398
#     4  12  24  42  66  91 129 175 221 266 331 398
#     4  12  25  42  59  93 134 172 215 269 328 388
#
# _framework density 19.805952000000001
#
# number of rings (size 3 to 8) (size 9 to 14) (size 15 to 20)
#    0.000    1.091    5.455    2.455    2.545    0.364 
#    0.000    0.000    0.000    0.545    0.000    0.000 
#    0.000    0.000    0.000    0.000    0.000    0.000 
#
# Total GULP energy -272875.863493 kJ/mol
# GULP energy per Si atom -12403.448341 kJ/mol
# Density = 1.976087 g / cm^3
# Si number density = 19.805952 Si / 1000 Ang^3
#
#
#
# Elastic Constant Matrix: (Units=GPa)
#
#
# Indices 1 2 3 4 5 6 
#
# 1 91.8827 48.5501 51.2115 0.0000 -4.1217 0.0000
# 2 48.5501 136.5594 65.2631 0.0000 -6.3402 0.0000
# 3 51.2115 65.2631 111.6375 0.0000 -4.0617 0.0000
# 4 0.0000 0.0000 0.0000 37.1895 0.0000 0.0512
# 5 -4.1217 -6.3402 -4.0617 0.0000 41.6731 0.0000
# 6 0.0000 0.0000 0.0000 0.0512 0.0000 36.0880
#
#
#
# Elastic Compliance Matrix: (Units=1/GPa)
#
#
# Indices 1 2 3 4 5 6 
#
# 1 0.015428 -0.002895 -0.005364 0.000000 0.000563 0.000000
# 2 -0.002895 0.010745 -0.004921 0.000000 0.000869 0.000000
# 3 -0.005364 -0.004921 0.014300 0.000000 0.000114 0.000000
# 4 0.000000 0.000000 0.000000 0.026889 0.000000 -0.000038
# 5 0.000563 0.000869 0.000114 0.000000 0.024195 0.000000
# 6 0.000000 0.000000 0.000000 -0.000038 0.000000 0.027710
#
#
# Mechanical properties :
#
#
# Convention : Reuss Voigt Hill
#
# Bulk Modulus (GPa) = 70.87082 74.45877 72.66480
# Shear Modulus (GPa) = 33.25947 34.66044 33.95995
#
# Velocity S-wave (km/s) = 4.10233 4.18784 4.14531
# Velocity P-wave (km/s) = 7.63538 7.81407 7.72525
#
# Compressibility (1/GPa) = 0.01411018
#
# Stress axis : x y z
#
# Youngs Moduli (GPa) = 64.81523 93.07072 69.93199
#
# Poissons Ratio (x) = 0.26947 0.37514
# Poissons Ratio (y) = 0.18766 0.34417
# Poissons Ratio (z) = 0.34770 0.45804
#
# Static dielectric constant tensor:
#      x y z
#    x 3.360700 0.000000 -0.150320 
#    y 0.000000 3.807740 0.000000 
#    z -0.150320 0.000000 3.618570 
# 
# 
# High freq. dielectric constant tensor:
#      x y z
#    x 1.751510 0.000000 -0.009940 
#    y 0.000000 1.785770 0.000000 
#    z -0.009940 0.000000 1.777470 
# 
# From -- ./inp_files/51556.got.cif
#   From: 2010.06.25/outbox.cif.g09.slc.cpg/sg12_26_cif.got.tgz:51556.got - 2010.06.28 00:19:55.
