data_PCOD8115419
_publ_section_title
;
Structure prediction by ZEFSAII (Michael W. Deem and Ramdas Pophale) SiO2 
 PCOD8115419
Probable space group: C 2/M
;
_chemical_formula_sum "Si O2"
_cell_formula_units_Z 36
_cell_length_a 8.668194
_cell_length_b 26.697399
_cell_length_c 12.221720
_cell_angle_alpha 90.000000
_cell_angle_beta 36.202601
_cell_angle_gamma 90.000000
_cell_volume 1670.530661
_symmetry_space_group_name_H-M "C 2/M"
_symmetry_group_IT_number 12
_symmetry_cell_setting 'monoclinic'
loop_
_space_group_symop_operation_xyz
x,y,z
-x,y,-z
-x,-y,-z
x,-y,z
1/2+x,1/2+y,z
1/2-x,1/2+y,-z
1/2-x,1/2-y,-z
1/2+x,1/2-y,z
loop_
_atom_site_type_symbol
_atom_site_label
_atom_site_fract_x
_atom_site_fract_y
_atom_site_fract_z
Si Si1 0.742160 0.701588 0.294120
Si Si2 0.000000 0.369864 0.000000
Si Si3 0.730794 0.056636 0.031882
Si Si4 0.687793 0.912423 0.296200
Si Si5 0.199597 0.304442 0.205195
O O1 0.500000 0.679227 0.500000
O O2 0.661659 0.757323 0.305368
O O3 0.766817 0.667121 0.171561
O O4 0.014393 0.701061 0.204991
O O5 0.042814 0.405324 0.078674
O O6 0.015393 0.077756 0.840086
O O7 0.703253 0.000000 0.004130
O O8 0.648399 0.057193 0.206075
O O9 0.500000 0.933019 0.500000
O O10 0.623851 0.854072 0.314897
O O11 0.500000 0.309113 0.000000
#
# Coordination Sequence:
#
# PCOD8115419 Si02
#       5
#     8   4   8   8   8
#     4  12  27  42  68 101 140 181 225 270 334 403
#     4  12  25  44  68  96 140 174 223 276 340 398
#     4  11  25  45  68  97 129 174 227 280 339 395
#     4  11  23  42  70  98 132 171 223 275 331 398
#     4  12  23  44  68 102 138 178 225 272 329 404
#
# _framework density 21.550039999999999
#
# number of rings (size 3 to 8) (size 9 to 14) (size 15 to 20)
#    0.000    0.444    5.556    3.667    6.222    1.778 
#    0.000    0.000    0.000    4.000    0.000    0.000 
#    0.000    0.000    0.000    0.000    0.000    0.000 
#
# Total GULP energy -223186.058827 kJ/mol
# GULP energy per Si atom -12399.225490 kJ/mol
# Density = 2.150099 g / cm^3
# Si number density = 21.550040 Si / 1000 Ang^3
#
#
#
# Elastic Constant Matrix: (Units=GPa)
#
#
# Indices 1 2 3 4 5 6 
#
# 1 66.9310 13.0235 26.1189 0.0000 -7.7824 0.0000
# 2 13.0235 144.1916 21.0380 0.0000 4.5488 0.0000
# 3 26.1189 21.0380 136.1562 0.0000 17.9981 0.0000
# 4 0.0000 0.0000 0.0000 14.8790 0.0000 5.3072
# 5 -7.7824 4.5488 17.9981 0.0000 18.9120 0.0000
# 6 0.0000 0.0000 0.0000 5.3072 0.0000 32.8237
#
#
#
# Elastic Compliance Matrix: (Units=1/GPa)
#
#
# Indices 1 2 3 4 5 6 
#
# 1 0.018675 -0.001352 -0.005070 0.000000 0.012835 0.000000
# 2 -0.001352 0.007203 -0.000630 0.000000 -0.001689 0.000000
# 3 -0.005070 -0.000630 0.009918 0.000000 -0.011373 0.000000
# 4 0.000000 0.000000 0.000000 0.071322 0.000000 -0.011532
# 5 0.012835 -0.001689 -0.011373 0.000000 0.069388 0.000000
# 6 0.000000 0.000000 0.000000 -0.011532 0.000000 0.032330
#
#
# Mechanical properties :
#
#
# Convention : Reuss Voigt Hill
#
# Bulk Modulus (GPa) = 46.10293 51.95994 49.03144
# Shear Modulus (GPa) = 21.72298 32.46283 27.09290
#
# Velocity S-wave (km/s) = 3.17839 3.88544 3.54956
# Velocity P-wave (km/s) = 5.90842 6.65526 6.29293
#
# Compressibility (1/GPa) = 0.02169059
#
# Stress axis : x y z
#
# Youngs Moduli (GPa) = 53.54818 138.83952 100.82757
#
# Poissons Ratio (x) = 0.18769 0.51121
# Poissons Ratio (y) = 0.07239 0.06355
# Poissons Ratio (z) = 0.27150 0.08751
#
# Static dielectric constant tensor:
#      x y z
#    x 3.490890 0.000000 0.148480 
#    y 0.000000 4.093880 0.000000 
#    z 0.148480 0.000000 3.746550 
# 
# 
# High freq. dielectric constant tensor:
#      x y z
#    x 1.836250 0.000000 0.010360 
#    y 0.000000 1.860560 0.000000 
#    z 0.010360 0.000000 1.845730 
# 
# From -- ./inp_files/123343.got.cif
#   From: 2010.06.25/outbox.cif.g09.slc.cpg/sg12_62_cif.got.tgz:123343.got - 2010.06.28 00:19:55.
