data_PCOD8115368
_publ_section_title
;
Structure prediction by ZEFSAII (Michael W. Deem and Ramdas Pophale) SiO2 
 PCOD8115368
Probable space group: C 2/M
;
_chemical_formula_sum "Si O2"
_cell_formula_units_Z 56
_cell_length_a 23.040439
_cell_length_b 14.854557
_cell_length_c 15.684818
_cell_angle_alpha 90.000000
_cell_angle_beta 30.977550
_cell_angle_gamma 90.000000
_cell_volume 2763.032168
_symmetry_space_group_name_H-M "C 2/M"
_symmetry_group_IT_number 12
_symmetry_cell_setting 'monoclinic'
loop_
_space_group_symop_operation_xyz
x,y,z
-x,y,-z
-x,-y,-z
x,-y,z
1/2+x,1/2+y,z
1/2-x,1/2+y,-z
1/2-x,1/2-y,-z
1/2+x,1/2-y,z
loop_
_atom_site_type_symbol
_atom_site_label
_atom_site_fract_x
_atom_site_fract_y
_atom_site_fract_z
Si Si1 0.939052 0.893985 0.907477
Si Si2 0.977318 0.597572 0.271578
Si Si3 0.194105 0.762996 0.804840
Si Si4 0.646148 0.314573 0.154280
Si Si5 0.370869 0.742578 0.306339
Si Si6 0.705338 0.099161 0.905487
Si Si7 0.048325 0.691529 0.530279
O O1 0.879047 0.880584 0.892333
O O2 0.062705 0.847829 0.749803
O O3 0.951394 0.000000 0.911869
O O4 0.860578 0.847679 0.077759
O O5 0.929559 0.500000 0.303722
O O6 0.936434 0.670155 0.255215
O O7 0.939989 0.610658 0.416874
O O8 0.112888 0.598276 0.097439
O O9 0.139265 0.758961 0.781796
O O10 0.163331 0.668746 0.887331
O O11 0.328723 0.767476 0.636920
O O12 0.677562 0.372760 0.197760
O O13 0.532491 0.262745 0.321623
O O14 0.750000 0.250000 0.000000
O O15 0.250000 0.750000 0.500000
O O16 0.718791 0.000000 0.846978
O O17 0.000000 0.658614 0.500000
#
# Coordination Sequence:
#
# PCOD8115368 Si02
#       7
#     8   8   8   8   8   8   8
#     4  12  26  44  70 101 133 176 224 274 335 399
#     4  11  24  43  67  96 130 173 222 268 324 392
#     4  12  24  42  68  97 135 172 215 274 331 391
#     4  12  19  43  70  94 132 177 218 268 338 394
#     4  12  24  46  69  92 133 176 218 270 327 387
#     4  11  23  41  68  98 129 171 222 271 327 398
#     4  12  22  40  70  97 133 173 212 270 336 394
#
# _framework density 20.267589000000001
#
# number of rings (size 3 to 8) (size 9 to 14) (size 15 to 20)
#    0.000    0.286    8.571    0.857    0.000    3.143 
#    0.000    5.000    0.000    0.000    0.000    0.000 
#    0.000    0.000    0.000    0.000    0.000    0.000 
#
# Total GULP energy -347163.106195 kJ/mol
# GULP energy per Si atom -12398.682364 kJ/mol
# Density = 2.022146 g / cm^3
# Si number density = 20.267589 Si / 1000 Ang^3
#
#
#
# Elastic Constant Matrix: (Units=GPa)
#
#
# Indices 1 2 3 4 5 6 
#
# 1 131.5064 58.9921 15.4474 0.0000 13.3669 0.0000
# 2 58.9921 178.3762 50.5002 0.0000 -0.1858 0.0000
# 3 15.4474 50.5002 110.7577 0.0000 -10.9921 0.0000
# 4 0.0000 0.0000 0.0000 16.2618 0.0000 -0.4976
# 5 13.3669 -0.1858 -10.9921 0.0000 36.4163 0.0000
# 6 0.0000 0.0000 0.0000 -0.4976 0.0000 14.6407
#
#
#
# Elastic Compliance Matrix: (Units=1/GPa)
#
#
# Indices 1 2 3 4 5 6 
#
# 1 0.009349 -0.003017 -0.000279 0.000000 -0.003531 0.000000
# 2 -0.003017 0.007438 -0.002945 0.000000 0.000256 0.000000
# 3 -0.000279 -0.002945 0.010741 0.000000 0.003329 0.000000
# 4 0.000000 0.000000 0.000000 0.061558 0.000000 0.002092
# 5 -0.003531 0.000256 0.003329 0.000000 0.029763 0.000000
# 6 0.000000 0.000000 0.000000 0.002092 0.000000 0.068374
#
#
# Mechanical properties :
#
#
# Convention : Reuss Voigt Hill
#
# Bulk Modulus (GPa) = 66.46093 74.50221 70.48157
# Shear Modulus (GPa) = 24.42369 33.17713 28.80041
#
# Velocity S-wave (km/s) = 3.47517 4.05032 3.77372
# Velocity P-wave (km/s) = 6.99752 7.66241 7.33750
#
# Compressibility (1/GPa) = 0.01504643
#
# Stress axis : x y z
#
# Youngs Moduli (GPa) = 106.96204 134.44747 93.10209
#
# Poissons Ratio (x) = 0.40558 0.02597
# Poissons Ratio (y) = 0.32266 0.27420
# Poissons Ratio (z) = 0.02984 0.39597
#
# Static dielectric constant tensor:
#      x y z
#    x 3.889510 0.000000 -0.109760 
#    y 0.000000 3.276180 0.000000 
#    z -0.109760 0.000000 3.948000 
# 
# 
# High freq. dielectric constant tensor:
#      x y z
#    x 1.802700 0.000000 -0.002340 
#    y 0.000000 1.783840 0.000000 
#    z -0.002340 0.000000 1.799450 
# 
# From -- ./inp_files/240903.got.cif
#   From: 2010.06.25/outbox.cif.g09.slc.cpg/sg12_121_cif.got.tgz:240903.got - 2010.06.28 00:19:55.
