data_PCOD8115477
_publ_section_title
;
Structure prediction by ZEFSAII (Michael W. Deem and Ramdas Pophale) SiO2 
 PCOD8115477
Probable space group: C 2/M
;
_chemical_formula_sum "Si O2"
_cell_formula_units_Z 56
_cell_length_a 11.582157
_cell_length_b 27.735229
_cell_length_c 9.059629
_cell_angle_alpha 90.000000
_cell_angle_beta 55.709255
_cell_angle_gamma 90.000000
_cell_volume 2404.424743
_symmetry_space_group_name_H-M "C 2/M"
_symmetry_group_IT_number 12
_symmetry_cell_setting 'monoclinic'
loop_
_space_group_symop_operation_xyz
x,y,z
-x,y,-z
-x,-y,-z
x,-y,z
1/2+x,1/2+y,z
1/2-x,1/2+y,-z
1/2-x,1/2-y,-z
1/2+x,1/2-y,z
loop_
_atom_site_type_symbol
_atom_site_label
_atom_site_fract_x
_atom_site_fract_y
_atom_site_fract_z
Si Si1 0.582283 0.500000 0.288118
Si Si2 0.882202 0.719223 0.708728
Si Si3 0.155186 0.174285 0.321927
Si Si4 0.620114 0.000000 0.792972
Si Si5 0.455672 0.163128 0.197110
Si Si6 0.693568 0.630809 0.767239
Si Si7 0.416284 0.919970 0.421565
Si Si8 0.908120 0.898873 0.865477
O O1 0.500000 0.500000 0.500000
O O2 0.744903 0.500000 0.203515
O O3 0.545665 0.452223 0.220395
O O4 0.825670 0.773440 0.765665
O O5 0.754827 0.683697 0.758613
O O6 0.000000 0.714615 0.500000
O O7 0.955178 0.709205 0.814709
O O8 0.287247 0.169875 0.338512
O O9 0.180393 0.130031 0.192474
O O10 0.000000 0.168488 0.500000
O O11 0.617982 0.044940 0.686541
O O12 0.500000 0.000000 0.000000
O O13 0.505559 0.122775 0.280552
O O14 0.500000 0.149158 0.000000
O O15 0.774239 0.600938 0.586445
O O16 0.539745 0.635630 0.807794
O O17 0.686800 0.597648 0.919772
O O18 0.500000 0.942965 0.500000
#
# Coordination Sequence:
#
# PCOD8115477 Si02
#       8
#     4   8   8   4   8   8   8   8
#     4  12  26  51  74  99 152 189 240 296 378 429
#     4  11  24  45  70 102 145 198 236 301 366 443
#     4  11  26  42  71 103 149 189 250 294 371 437
#     4  12  29  44  74 113 143 185 243 312 356 435
#     4  12  24  42  70 101 140 189 238 299 360 431
#     4  11  23  44  71 100 143 188 247 295 359 437
#     4  12  24  45  71  98 144 187 236 290 372 427
#     4  11  26  43  72 106 139 192 244 306 354 439
#
# _framework density 23.290392000000001
#
# number of rings (size 3 to 8) (size 9 to 14) (size 15 to 20)
#    0.000    0.571    2.857    4.500    4.000    5.143 
#    0.000    0.000    0.000    0.000    0.000    0.000 
#    0.000    0.000    0.000    0.000    0.000    0.000 
#
# Total GULP energy -347120.929454 kJ/mol
# GULP energy per Si atom -12397.176052 kJ/mol
# Density = 2.323738 g / cm^3
# Si number density = 23.290392 Si / 1000 Ang^3
#
#
#
# Elastic Constant Matrix: (Units=GPa)
#
#
# Indices 1 2 3 4 5 6 
#
# 1 115.2932 28.3492 11.9079 0.0000 2.3383 0.0000
# 2 28.3492 138.9632 43.5202 0.0000 9.9828 0.0000
# 3 11.9079 43.5202 131.1671 0.0000 7.0230 0.0000
# 4 0.0000 0.0000 0.0000 46.4243 0.0000 22.9317
# 5 2.3383 9.9828 7.0230 0.0000 37.2088 0.0000
# 6 0.0000 0.0000 0.0000 22.9317 0.0000 36.5395
#
#
#
# Elastic Compliance Matrix: (Units=1/GPa)
#
#
# Indices 1 2 3 4 5 6 
#
# 1 0.009138 -0.001787 -0.000234 0.000000 -0.000051 0.000000
# 2 -0.001787 0.008484 -0.002563 0.000000 -0.001680 0.000000
# 3 -0.000234 -0.002563 0.008544 0.000000 -0.000910 0.000000
# 4 0.000000 0.000000 0.000000 0.031218 0.000000 -0.019592
# 5 -0.000051 -0.001680 -0.000910 0.000000 0.027501 0.000000
# 6 0.000000 0.000000 0.000000 -0.019592 0.000000 0.039663
#
#
# Mechanical properties :
#
#
# Convention : Reuss Voigt Hill
#
# Bulk Modulus (GPa) = 58.82869 61.44202 60.13536
# Shear Modulus (GPa) = 35.87231 44.14424 40.00827
#
# Velocity S-wave (km/s) = 3.92882 4.35832 4.14913
# Velocity P-wave (km/s) = 6.77454 7.19477 6.98782
#
# Compressibility (1/GPa) = 0.01699851
#
# Stress axis : x y z
#
# Youngs Moduli (GPa) = 109.43058 117.86792 117.03939
#
# Poissons Ratio (x) = 0.21067 0.02737
# Poissons Ratio (y) = 0.19559 0.29994
# Poissons Ratio (z) = 0.02559 0.30206
#
# Static dielectric constant tensor:
#      x y z
#    x 4.343330 0.000000 0.061650 
#    y 0.000000 3.799490 0.000000 
#    z 0.061650 0.000000 4.286590 
# 
# 
# High freq. dielectric constant tensor:
#      x y z
#    x 1.934750 0.000000 0.002900 
#    y 0.000000 1.911580 0.000000 
#    z 0.002900 0.000000 1.933620 
# 
# From -- ./inp_files/54648.got.cif
#   From: 2010.06.25/outbox.cif.g09.slc.cpg/sg12_28_cif.got.tgz:54648.got - 2010.06.28 00:19:55.
