data_PCOD8115090
_publ_section_title
;
Structure prediction by ZEFSAII (Michael W. Deem and Ramdas Pophale) SiO2 
 PCOD8115090
Probable space group: C 2/M
;
_chemical_formula_sum "Si O2"
_cell_formula_units_Z 56
_cell_length_a 9.861422
_cell_length_b 27.391822
_cell_length_c 18.444914
_cell_angle_alpha 90.000000
_cell_angle_beta 36.369984
_cell_angle_gamma 90.000000
_cell_volume 2954.538799
_symmetry_space_group_name_H-M "C 2/M"
_symmetry_group_IT_number 12
_symmetry_cell_setting 'monoclinic'
loop_
_space_group_symop_operation_xyz
x,y,z
-x,y,-z
-x,-y,-z
x,-y,z
1/2+x,1/2+y,z
1/2-x,1/2+y,-z
1/2-x,1/2-y,-z
1/2+x,1/2-y,z
loop_
_atom_site_type_symbol
_atom_site_label
_atom_site_fract_x
_atom_site_fract_y
_atom_site_fract_z
Si Si1 0.016398 0.945243 0.373240
Si Si2 0.999665 0.801119 0.163395
Si Si3 0.958828 0.691962 0.883585
Si Si4 0.672182 0.295836 0.488346
Si Si5 0.614390 0.848934 0.236209
Si Si6 0.872349 0.554842 0.346433
Si Si7 0.074127 0.849604 0.280042
O O1 0.772290 0.940606 0.517597
O O2 0.213900 0.932538 0.345976
O O3 0.034178 0.908248 0.297091
O O4 0.047838 0.000000 0.329190
O O5 0.932504 0.744082 0.187824
O O6 0.960936 0.822326 0.260584
O O7 0.841603 0.832915 0.179511
O O8 0.265222 0.803665 0.027850
O O9 0.847547 0.664712 0.863580
O O10 0.157122 0.660690 0.834785
O O11 0.500000 0.278376 0.500000
O O12 0.750000 0.250000 0.500000
O O13 0.540839 0.333322 0.595843
O O14 0.891697 0.321837 0.361124
O O15 0.582304 0.907180 0.258384
O O16 0.971841 0.500000 0.296699
#
# Coordination Sequence:
#
# PCOD8115090 Si02
#       7
#     8   8   8   8   8   8   8
#     4   9  17  34  60  87 113 150 198 240 288 356
#     4  11  26  39  58  87 116 165 199 240 288 350
#     4  11  22  43  62  79 116 161 213 236 274 348
#     4  12  24  36  57  87 122 156 187 240 306 358
#     4  12  22  38  61  87 120 150 196 248 294 348
#     4   9  17  34  60  87 113 150 198 240 288 356
#     4  12  22  38  61  87 120 150 196 248 294 348
#
# _framework density 18.953889
#
# number of rings (size 3 to 8) (size 9 to 14) (size 15 to 20)
#    0.000    1.143    4.286    4.286    2.000    2.286 
#    0.000    0.714    0.000    6.857    0.000    0.000 
#    0.000    0.000    0.000    0.000    0.000    0.000 
#
# Total GULP energy -347262.915249 kJ/mol
# GULP energy per Si atom -12402.246973 kJ/mol
# Density = 1.891075 g / cm^3
# Si number density = 18.953889 Si / 1000 Ang^3
#
#
#
# Elastic Constant Matrix: (Units=GPa)
#
#
# Indices 1 2 3 4 5 6 
#
# 1 67.7074 25.9663 -1.5514 0.0000 3.7250 0.0000
# 2 25.9663 141.6824 19.8512 0.0000 3.3677 0.0000
# 3 -1.5514 19.8512 42.7305 0.0001 2.5919 0.0000
# 4 0.0000 0.0000 0.0001 23.9404 0.0000 0.4180
# 5 3.7250 3.3677 2.5919 0.0000 25.2501 0.0000
# 6 0.0000 0.0000 0.0000 0.4180 0.0000 21.3757
#
#
#
# Elastic Compliance Matrix: (Units=1/GPa)
#
#
# Indices 1 2 3 4 5 6 
#
# 1 0.016177 -0.003223 0.002217 0.000000 -0.002184 0.000000
# 2 -0.003223 0.008202 -0.003914 0.000000 -0.000217 0.000000
# 3 0.002217 -0.003914 0.025448 0.000000 -0.002417 0.000000
# 4 0.000000 0.000000 0.000000 0.041785 0.000000 -0.000817
# 5 -0.002184 -0.000217 -0.002417 0.000000 0.040203 0.000000
# 6 0.000000 0.000000 0.000000 -0.000817 0.000000 0.046798
#
#
# Mechanical properties :
#
#
# Convention : Reuss Voigt Hill
#
# Bulk Modulus (GPa) = 25.00880 37.85029 31.42955
# Shear Modulus (GPa) = 24.77911 27.97017 26.37464
#
# Velocity S-wave (km/s) = 3.61963 3.84565 3.73435
# Velocity P-wave (km/s) = 5.54005 6.30331 5.93396
#
# Compressibility (1/GPa) = 0.03998592
#
# Stress axis : x y z
#
# Youngs Moduli (GPa) = 61.81754 121.91523 39.29562
#
# Poissons Ratio (x) = 0.39299 -0.08713
# Poissons Ratio (y) = 0.19927 0.15382
# Poissons Ratio (z) = -0.13707 0.47723
#
# Static dielectric constant tensor:
#      x y z
#    x 3.041990 0.000000 0.073360 
#    y 0.000000 3.627730 0.000000 
#    z 0.073360 0.000000 3.390700 
# 
# 
# High freq. dielectric constant tensor:
#      x y z
#    x 1.721590 0.000000 0.001070 
#    y 0.000000 1.741600 0.000000 
#    z 0.001070 0.000000 1.726660 
# 
# From -- ./inp_files/124269.got.cif
#   From: 2010.06.25/outbox.cif.g09.slc.cpg/sg12_63_cif.got.tgz:124269.got - 2010.06.28 00:19:55.
