data_PCOD8115669
_publ_section_title
;
Structure prediction by ZEFSAII (Michael W. Deem and Ramdas Pophale) SiO2 
 PCOD8115669
Probable space group: C 2/M
;
_chemical_formula_sum "Si O2"
_cell_formula_units_Z 40
_cell_length_a 9.176967
_cell_length_b 16.034541
_cell_length_c 13.470315
_cell_angle_alpha 90.000000
_cell_angle_beta 115.374933
_cell_angle_gamma 90.000000
_cell_volume 1790.905220
_symmetry_space_group_name_H-M "C 2/M"
_symmetry_group_IT_number 12
_symmetry_cell_setting 'monoclinic'
loop_
_space_group_symop_operation_xyz
x,y,z
-x,y,-z
-x,-y,-z
x,-y,z
1/2+x,1/2+y,z
1/2-x,1/2+y,-z
1/2-x,1/2-y,-z
1/2+x,1/2-y,z
loop_
_atom_site_type_symbol
_atom_site_label
_atom_site_fract_x
_atom_site_fract_y
_atom_site_fract_z
Si Si1 0.132595 0.671696 0.963922
Si Si2 0.040490 0.685121 0.285928
Si Si3 0.317233 0.402053 0.472996
Si Si4 0.249512 0.839793 0.331728
Si Si5 0.208438 0.000000 0.973022
Si Si6 0.361041 0.500000 0.815700
O O1 0.201325 0.585372 0.028477
O O2 0.065808 0.650083 0.835322
O O3 0.250000 0.750000 0.000000
O O4 0.000000 0.704059 0.000000
O O5 0.193366 0.624501 0.350386
O O6 0.108530 0.773792 0.270086
O O7 0.925323 0.693871 0.349157
O O8 0.500000 0.374222 0.500000
O O9 0.310089 0.500000 0.488052
O O10 0.251045 0.356747 0.551404
O O11 0.215862 0.920802 0.258122
O O12 0.171724 0.000000 0.078070
O O13 0.052421 0.000000 0.856756
#
# Coordination Sequence:
#
# PCOD8115669 Si02
#       6
#     8   8   8   8   4   4
#     4  12  27  47  72 109 145 191 242 300 360 430
#     4  12  26  43  75 102 146 182 243 291 359 423
#     4  11  26  46  71 106 145 185 240 297 359 426
#     4  12  24  47  71 107 138 193 232 294 357 427
#     4  11  25  46  69 104 147 189 241 299 361 426
#     4  11  24  44  75 101 144 188 241 291 360 427
#
# _framework density 22.335073000000001
#
# number of rings (size 3 to 8) (size 9 to 14) (size 15 to 20)
#    0.000    0.400    3.000    5.100    5.600    2.400 
#    0.000    0.000    0.000    0.000    0.000    0.000 
#    0.000    0.000    0.000    0.000    0.000    0.000 
#
# Total GULP energy -248034.105568 kJ/mol
# GULP energy per Si atom -12401.705278 kJ/mol
# Density = 2.228424 g / cm^3
# Si number density = 22.335073 Si / 1000 Ang^3
#
#
#
# Elastic Constant Matrix: (Units=GPa)
#
#
# Indices 1 2 3 4 5 6 
#
# 1 178.2625 55.8223 38.8260 0.0000 2.6391 0.0000
# 2 55.8223 119.2729 -1.0282 0.0000 11.8121 0.0000
# 3 38.8260 -1.0282 80.5966 0.0000 10.6193 0.0000
# 4 0.0000 0.0000 0.0000 25.0325 0.0000 -1.5732
# 5 2.6391 11.8121 10.6193 0.0000 39.6260 0.0000
# 6 0.0000 0.0000 0.0000 -1.5732 0.0000 38.9121
#
#
#
# Elastic Compliance Matrix: (Units=1/GPa)
#
#
# Indices 1 2 3 4 5 6 
#
# 1 0.007623 -0.003767 -0.003940 0.000000 0.001671 0.000000
# 2 -0.003767 0.010518 0.002414 0.000000 -0.003531 0.000000
# 3 -0.003940 0.002414 0.014924 0.000000 -0.004457 0.000000
# 4 0.000000 0.000000 0.000000 0.040050 0.000000 0.001619
# 5 0.001671 -0.003531 -0.004457 0.000000 0.027372 0.000000
# 6 0.000000 0.000000 0.000000 0.001619 0.000000 0.025764
#
#
# Mechanical properties :
#
#
# Convention : Reuss Voigt Hill
#
# Bulk Modulus (GPa) = 44.48872 62.81914 53.65393
# Shear Modulus (GPa) = 34.64295 39.68157 37.16226
#
# Velocity S-wave (km/s) = 3.94262 4.21960 4.08346
# Velocity P-wave (km/s) = 6.37869 7.20603 6.80495
#
# Compressibility (1/GPa) = 0.02247761
#
# Stress axis : x y z
#
# Youngs Moduli (GPa) = 131.18411 95.07711 67.00745
#
# Poissons Ratio (x) = 0.35817 0.26404
# Poissons Ratio (y) = 0.49419 -0.16177
# Poissons Ratio (z) = 0.51692 -0.22954
#
# Static dielectric constant tensor:
#      x y z
#    x 4.239920 0.000000 0.044690 
#    y 0.000000 4.834620 0.000000 
#    z 0.044690 0.000000 3.972440 
# 
# 
# High freq. dielectric constant tensor:
#      x y z
#    x 1.895870 0.000000 0.003450 
#    y 0.000000 1.891550 0.000000 
#    z 0.003450 0.000000 1.880440 
# 
# From -- ./inp_files/194683.got.cif
#   From: 2010.06.25/outbox.cif.g09.slc.cpg/sg12_98_cif.got.tgz:194683.got - 2010.06.28 00:19:55.
