data_PCOD8115156
_publ_section_title
;
Structure prediction by ZEFSAII (Michael W. Deem and Ramdas Pophale) SiO2 
 PCOD8115156
Probable space group: C 2/M
;
_chemical_formula_sum "Si O2"
_cell_formula_units_Z 52
_cell_length_a 17.505432
_cell_length_b 13.640631
_cell_length_c 18.529819
_cell_angle_alpha 90.000000
_cell_angle_beta 139.386297
_cell_angle_gamma 90.000000
_cell_volume 2880.248529
_symmetry_space_group_name_H-M "C 2/M"
_symmetry_group_IT_number 12
_symmetry_cell_setting 'monoclinic'
loop_
_space_group_symop_operation_xyz
x,y,z
-x,y,-z
-x,-y,-z
x,-y,z
1/2+x,1/2+y,z
1/2-x,1/2+y,-z
1/2-x,1/2-y,-z
1/2+x,1/2-y,z
loop_
_atom_site_type_symbol
_atom_site_label
_atom_site_fract_x
_atom_site_fract_y
_atom_site_fract_z
Si Si1 0.386459 0.385421 0.693215
Si Si2 0.037198 0.887804 0.402266
Si Si3 0.777067 0.109594 0.155474
Si Si4 0.875737 0.886207 0.073323
Si Si5 0.707172 0.113569 0.683499
Si Si6 0.500000 0.751602 0.500000
Si Si7 0.862131 0.793492 0.914735
O O1 0.415448 0.500000 0.709677
O O2 0.382421 0.349555 0.607086
O O3 0.496871 0.339695 0.815505
O O4 0.265808 0.363053 0.647760
O O5 0.901830 0.877648 0.283310
O O6 0.066170 0.817722 0.490149
O O7 0.067372 0.000000 0.445421
O O8 0.788093 0.129499 0.077673
O O9 0.684273 0.182544 0.125718
O O10 0.729273 0.000000 0.134355
O O11 0.886740 0.000000 0.060857
O O12 0.826423 0.830612 0.968389
O O13 0.592279 0.180036 0.608090
O O14 0.799096 0.136567 0.812156
O O15 0.670763 0.000000 0.662747
O O16 0.000000 0.798019 0.000000
#
# Coordination Sequence:
#
# PCOD8115156 Si02
#       7
#     8   8   8   8   8   4   8
#     4   8  16  33  54  77 104 137 173 215 261 306
#     4   9  18  35  59  80 101 134 181 225 257 301
#     4   9  19  36  53  76 109 142 173 212 264 317
#     4   9  17  31  54  79 106 138 173 214 258 306
#     4  11  23  37  52  77 112 142 174 214 262 316
#     4  12  22  36  56  80 106 140 176 216 272 308
#     4  12  21  32  55  84 107 139 176 215 259 309
#
# _framework density 18.053998
#
# number of rings (size 3 to 8) (size 9 to 14) (size 15 to 20)
#    0.000    2.154    3.077    3.231    0.000    1.538 
#    0.000    0.000    0.000    0.000    0.000    1.077 
#    0.000    0.000    0.000    0.000    0.000    0.000 
#
# Total GULP energy -322355.064642 kJ/mol
# GULP energy per Si atom -12398.271717 kJ/mol
# Density = 1.801291 g / cm^3
# Si number density = 18.053998 Si / 1000 Ang^3
#
#
#
# Elastic Constant Matrix: (Units=GPa)
#
#
# Indices 1 2 3 4 5 6 
#
# 1 48.6832 30.4851 15.9414 0.0000 -12.2340 0.0000
# 2 30.4851 85.3832 24.3318 0.0000 -6.0206 0.0000
# 3 15.9414 24.3318 46.2757 0.0000 -5.6397 0.0000
# 4 0.0000 0.0000 0.0000 24.4876 0.0000 -4.3187
# 5 -12.2340 -6.0206 -5.6397 0.0000 27.9260 0.0000
# 6 0.0000 0.0000 0.0000 -4.3187 0.0000 22.5394
#
#
#
# Elastic Compliance Matrix: (Units=1/GPa)
#
#
# Indices 1 2 3 4 5 6 
#
# 1 0.030094 -0.008726 -0.004512 0.000000 0.010391 0.000000
# 2 -0.008726 0.016372 -0.005780 0.000000 -0.001461 0.000000
# 3 -0.004512 -0.005780 0.026462 0.000000 0.002121 0.000000
# 4 0.000000 0.000000 0.000000 0.042265 0.000000 0.008098
# 5 0.010391 -0.001461 0.002121 0.000000 0.040475 0.000000
# 6 0.000000 0.000000 0.000000 0.008098 0.000000 0.045918
#
#
# Mechanical properties :
#
#
# Convention : Reuss Voigt Hill
#
# Bulk Modulus (GPa) = 28.66145 35.76207 32.21176
# Shear Modulus (GPa) = 19.90022 22.29619 21.09820
#
# Velocity S-wave (km/s) = 3.32363 3.51803 3.42221
# Velocity P-wave (km/s) = 5.53521 6.02938 5.78757
#
# Compressibility (1/GPa) = 0.03489006
#
# Stress axis : x y z
#
# Youngs Moduli (GPa) = 33.22907 61.08112 37.79031
#
# Poissons Ratio (x) = 0.53300 0.17053
# Poissons Ratio (y) = 0.28996 0.21843
# Poissons Ratio (z) = 0.14995 0.35306
#
# Static dielectric constant tensor:
#      x y z
#    x 3.333330 0.000000 -0.187470 
#    y 0.000000 3.228550 0.000000 
#    z -0.187470 0.000000 3.111050 
# 
# 
# High freq. dielectric constant tensor:
#      x y z
#    x 1.694720 0.000000 -0.017790 
#    y 0.000000 1.689490 0.000000 
#    z -0.017790 0.000000 1.683030 
# 
# From -- ./inp_files/277661.got.cif
#   From: 2010.06.25/outbox.cif.g09.slc.cpg/sg12_139_cif.got.tgz:277661.got - 2010.06.28 00:19:55.
