data_PCOD8115843
_publ_section_title
;
Structure prediction by ZEFSAII (Michael W. Deem and Ramdas Pophale) SiO2 
 PCOD8115843
Probable space group: C 2/M
;
_chemical_formula_sum "Si O2"
_cell_formula_units_Z 36
_cell_length_a 13.179455
_cell_length_b 19.769999
_cell_length_c 6.692225
_cell_angle_alpha 90.000000
_cell_angle_beta 103.886797
_cell_angle_gamma 90.000000
_cell_volume 1692.745979
_symmetry_space_group_name_H-M "C 2/M"
_symmetry_group_IT_number 12
_symmetry_cell_setting 'monoclinic'
loop_
_space_group_symop_operation_xyz
x,y,z
-x,y,-z
-x,-y,-z
x,-y,z
1/2+x,1/2+y,z
1/2-x,1/2+y,-z
1/2-x,1/2-y,-z
1/2+x,1/2-y,z
loop_
_atom_site_type_symbol
_atom_site_label
_atom_site_fract_x
_atom_site_fract_y
_atom_site_fract_z
Si Si1 0.757410 0.175136 0.422110
Si Si2 0.439509 0.730080 0.283882
Si Si3 0.718944 0.422616 0.192373
Si Si4 0.500000 0.632919 0.000000
Si Si5 0.614525 0.143019 0.006005
O O1 0.750000 0.250000 0.500000
O O2 0.854278 0.175292 0.315968
O O3 0.766994 0.121508 0.603337
O O4 0.654872 0.158781 0.246496
O O5 0.500000 0.763468 0.500000
O O6 0.518156 0.682927 0.196649
O O7 0.389288 0.788361 0.125650
O O8 0.727376 0.500000 0.262856
O O9 0.605310 0.411238 0.036877
O O10 0.810563 0.408739 0.074905
O O11 0.500000 0.112332 0.000000
#
# Coordination Sequence:
#
# PCOD8115843 Si02
#       5
#     8   8   8   4   8
#     4  12  23  43  71 104 139 181 239 289 344 407
#     4  12  22  39  73 111 135 174 231 297 353 402
#     4  12  28  47  70 101 144 190 231 283 349 423
#     4  12  23  46  70 104 139 178 230 290 347 410
#     4  12  26  42  70 104 141 183 231 290 349 409
#
# _framework density 21.267219000000001
#
# number of rings (size 3 to 8) (size 9 to 14) (size 15 to 20)
#    0.000    0.000    7.778    3.667    0.000    1.333 
#    0.000    2.222    0.000    0.000    0.000    0.000 
#    0.000    0.000    0.000    0.000    0.000    0.000 
#
# Total GULP energy -223186.647913 kJ/mol
# GULP energy per Si atom -12399.258217 kJ/mol
# Density = 2.121881 g / cm^3
# Si number density = 21.267219 Si / 1000 Ang^3
#
#
#
# Elastic Constant Matrix: (Units=GPa)
#
#
# Indices 1 2 3 4 5 6 
#
# 1 151.3838 41.2506 51.1719 0.0000 -3.5047 0.0000
# 2 41.2506 139.1876 56.4232 0.0000 -2.5268 0.0000
# 3 51.1719 56.4232 127.1937 0.0000 13.2652 0.0000
# 4 0.0000 0.0000 0.0000 28.1284 0.0000 -1.3611
# 5 -3.5047 -2.5268 13.2652 0.0000 43.5884 0.0000
# 6 0.0000 0.0000 0.0000 -1.3611 0.0000 21.0831
#
#
#
# Elastic Compliance Matrix: (Units=1/GPa)
#
#
# Indices 1 2 3 4 5 6 
#
# 1 0.007909 -0.001180 -0.002806 0.000000 0.001422 0.000000
# 2 -0.001180 0.009067 -0.003710 0.000000 0.001560 0.000000
# 3 -0.002806 -0.003710 0.011033 0.000000 -0.003798 0.000000
# 4 0.000000 0.000000 0.000000 0.035663 0.000000 0.002302
# 5 0.001422 0.001560 -0.003798 0.000000 0.024303 0.000000
# 6 0.000000 0.000000 0.000000 0.002302 0.000000 0.047580
#
#
# Mechanical properties :
#
#
# Convention : Reuss Voigt Hill
#
# Bulk Modulus (GPa) = 79.26996 79.49515 79.38256
# Shear Modulus (GPa) = 32.22651 36.48794 34.35723
#
# Velocity S-wave (km/s) = 3.89693 4.14658 4.02369
# Velocity P-wave (km/s) = 7.58962 7.77083 7.68076
#
# Compressibility (1/GPa) = 0.01261512
#
# Stress axis : x y z
#
# Youngs Moduli (GPa) = 126.43857 110.29601 90.63844
#
# Poissons Ratio (x) = 0.13020 0.25438
# Poissons Ratio (y) = 0.14926 0.33624
# Poissons Ratio (z) = 0.35485 0.40916
#
# Static dielectric constant tensor:
#      x y z
#    x 4.858630 0.000000 -0.407620 
#    y 0.000000 3.631120 0.000000 
#    z -0.407620 0.000000 4.156200 
# 
# 
# High freq. dielectric constant tensor:
#      x y z
#    x 1.857080 0.000000 -0.004600 
#    y 0.000000 1.798680 0.000000 
#    z -0.004600 0.000000 1.852950 
# 
# From -- ./inp_files/10842.got.cif
#   From: 2010.06.25/outbox.cif.g09.slc.cpg/sg12_6_cif.got.tgz:10842.got - 2010.06.28 00:19:55.
