data_PCOD8115182
_publ_section_title
;
Structure prediction by ZEFSAII (Michael W. Deem and Ramdas Pophale) SiO2 
 PCOD8115182
Probable space group: C 2/M
;
_chemical_formula_sum "Si O2"
_cell_formula_units_Z 48
_cell_length_a 20.214518
_cell_length_b 8.825777
_cell_length_c 13.931926
_cell_angle_alpha 90.000000
_cell_angle_beta 89.335865
_cell_angle_gamma 90.000000
_cell_volume 2485.411612
_symmetry_space_group_name_H-M "C 2/M"
_symmetry_group_IT_number 12
_symmetry_cell_setting 'monoclinic'
loop_
_space_group_symop_operation_xyz
x,y,z
-x,y,-z
-x,-y,-z
x,-y,z
1/2+x,1/2+y,z
1/2-x,1/2+y,-z
1/2-x,1/2-y,-z
1/2+x,1/2-y,z
loop_
_atom_site_type_symbol
_atom_site_label
_atom_site_fract_x
_atom_site_fract_y
_atom_site_fract_z
Si Si1 0.076502 0.175177 0.607904
Si Si2 0.494101 0.325518 0.887623
Si Si3 0.617682 0.822895 0.791372
Si Si4 0.422457 0.324534 0.608954
Si Si5 0.761569 0.823744 0.102032
Si Si6 0.873328 0.324195 0.792219
O O1 0.120779 0.273217 0.679839
O O2 0.093434 0.226634 0.499401
O O3 0.999350 0.202287 0.631095
O O4 0.094424 0.000000 0.621849
O O5 0.506136 0.500000 0.858069
O O6 0.546460 0.220243 0.833792
O O7 0.421249 0.276383 0.856917
O O8 0.500000 0.300995 0.000000
O O9 0.672801 0.740215 0.851810
O O10 0.629505 0.000000 0.799315
O O11 0.404325 0.500000 0.623740
O O12 0.378881 0.222740 0.680699
O O13 0.700806 0.789048 0.173475
O O14 0.771884 0.000000 0.084755
O O15 0.750000 0.750000 0.000000
O O16 0.891420 0.500000 0.804600
#
# Coordination Sequence:
#
# PCOD8115182 Si02
#       6
#     8   8   8   8   8   8
#     4   9  18  35  59  89 121 156 196 240 292 349
#     4  11  23  38  59  85 115 153 196 244 297 352
#     4  12  24  38  60  90 120 155 199 246 295 351
#     4   9  18  34  60  89 120 157 195 238 293 354
#     4  11  25  44  63  85 119 161 201 246 298 355
#     4  11  23  38  59  89 120 151 194 247 298 350
#
# _framework density 19.312695000000001
#
# number of rings (size 3 to 8) (size 9 to 14) (size 15 to 20)
#    0.000    1.500    1.667    5.000    0.000    7.333 
#    0.000    2.500    0.000    0.000    0.000    0.000 
#    0.000    0.000    0.000    0.000    0.000    0.000 
#
# Total GULP energy -297711.547206 kJ/mol
# GULP energy per Si atom -12404.647800 kJ/mol
# Density = 1.926874 g / cm^3
# Si number density = 19.312695 Si / 1000 Ang^3
#
#
#
# Elastic Constant Matrix: (Units=GPa)
#
#
# Indices 1 2 3 4 5 6 
#
# 1 43.4406 28.1665 27.4483 0.0000 8.5916 0.0000
# 2 28.1665 82.8158 48.2096 0.0000 -3.5474 0.0000
# 3 27.4483 48.2096 120.8347 0.0000 5.4234 0.0000
# 4 0.0000 0.0000 0.0000 36.1866 0.0000 1.0150
# 5 8.5916 -3.5474 5.4234 0.0000 34.2225 0.0000
# 6 0.0000 0.0000 0.0000 1.0150 0.0000 31.1335
#
#
#
# Elastic Compliance Matrix: (Units=1/GPa)
#
#
# Indices 1 2 3 4 5 6 
#
# 1 0.033141 -0.009765 -0.003236 0.000000 -0.008819 0.000000
# 2 -0.009765 0.018846 -0.005538 0.000000 0.005283 0.000000
# 3 -0.003236 -0.005538 0.011290 0.000000 -0.001551 0.000000
# 4 0.000000 0.000000 0.000000 0.027660 0.000000 -0.000902
# 5 -0.008819 0.005283 -0.001551 0.000000 0.032228 0.000000
# 6 0.000000 0.000000 0.000000 -0.000902 0.000000 0.032149
#
#
# Mechanical properties :
#
#
# Convention : Reuss Voigt Hill
#
# Bulk Modulus (GPa) = 38.17081 50.52666 44.34874
# Shear Modulus (GPa) = 24.86001 29.85966 27.35984
#
# Velocity S-wave (km/s) = 3.59170 3.93633 3.76796
# Velocity P-wave (km/s) = 6.08342 6.84681 6.47637
#
# Compressibility (1/GPa) = 0.02619803
#
# Stress axis : x y z
#
# Youngs Moduli (GPa) = 30.17425 53.06031 88.57405
#
# Poissons Ratio (x) = 0.51816 0.28664
# Poissons Ratio (y) = 0.29467 0.49053
# Poissons Ratio (z) = 0.09765 0.29385
#
# Static dielectric constant tensor:
#      x y z
#    x 3.351000 0.000000 -0.030690 
#    y 0.000000 3.538520 0.000000 
#    z -0.030690 0.000000 3.723340 
# 
# 
# High freq. dielectric constant tensor:
#      x y z
#    x 1.733480 0.000000 0.002430 
#    y 0.000000 1.755250 0.000000 
#    z 0.002430 0.000000 1.772350 
# 
# From -- ./inp_files/229288.got.cif
#   From: 2010.06.25/outbox.cif.g09.slc.cpg/sg12_115_cif.got.tgz:229288.got - 2010.06.28 00:19:55.
