data_PCOD8115853
_publ_section_title
;
Structure prediction by ZEFSAII (Michael W. Deem and Ramdas Pophale) SiO2 
 PCOD8115853
Probable space group: C 2/M
;
_chemical_formula_sum "Si O2"
_cell_formula_units_Z 40
_cell_length_a 16.125767
_cell_length_b 21.350991
_cell_length_c 8.933201
_cell_angle_alpha 90.000000
_cell_angle_beta 142.103225
_cell_angle_gamma 90.000000
_cell_volume 1889.227127
_symmetry_space_group_name_H-M "C 2/M"
_symmetry_group_IT_number 12
_symmetry_cell_setting 'monoclinic'
loop_
_space_group_symop_operation_xyz
x,y,z
-x,y,-z
-x,-y,-z
x,-y,z
1/2+x,1/2+y,z
1/2-x,1/2+y,-z
1/2-x,1/2-y,-z
1/2+x,1/2-y,z
loop_
_atom_site_type_symbol
_atom_site_label
_atom_site_fract_x
_atom_site_fract_y
_atom_site_fract_z
Si Si1 0.000000 0.206061 0.000000
Si Si2 0.500000 0.282299 0.500000
Si Si3 0.015225 0.303486 0.780158
Si Si4 0.648713 0.500000 0.771282
Si Si5 0.251872 0.377044 0.598944
Si Si6 0.145827 0.000000 0.124622
Si Si7 0.767825 0.874623 0.268489
O O1 0.042937 0.249465 0.197732
O O2 0.131108 0.164204 0.158135
O O3 0.428696 0.234882 0.281830
O O4 0.388304 0.326634 0.412379
O O5 0.891720 0.348390 0.561088
O O6 0.128675 0.343011 0.024041
O O7 0.500000 0.500000 0.500000
O O8 0.722247 0.438021 0.814050
O O9 0.634419 0.500000 0.929475
O O10 0.262435 0.442525 0.696297
O O11 0.268270 0.388577 0.445241
O O12 0.000000 0.000000 0.000000
#
# Coordination Sequence:
#
# PCOD8115853 Si02
#       7
#     4   4   8   4   8   4   8
#     4  12  22  43  72 101 138 180 228 278 330 412
#     4  12  26  41  70 105 146 180 222 284 340 410
#     4  12  26  44  70 105 143 179 227 278 349 406
#     4  12  28  47  72  99 137 178 234 286 341 402
#     4  12  25  46  74 100 138 183 234 281 334 410
#     4  12  28  47  72 101 131 184 234 284 337 406
#     4  12  25  47  71 102 140 183 228 284 340 404
#
# _framework density 21.172678000000001
#
# number of rings (size 3 to 8) (size 9 to 14) (size 15 to 20)
#    0.000    0.000    6.000    4.200    5.600    0.800 
#    0.000    3.000    0.000    0.000    0.000    0.000 
#    0.000    0.000    0.000    0.000    0.000    0.000 
#
# Total GULP energy -248019.520993 kJ/mol
# GULP energy per Si atom -12400.976050 kJ/mol
# Density = 2.112449 g / cm^3
# Si number density = 21.172678 Si / 1000 Ang^3
#
#
#
# Elastic Constant Matrix: (Units=GPa)
#
#
# Indices 1 2 3 4 5 6 
#
# 1 74.3088 42.1436 30.6907 0.0000 -14.0451 0.0000
# 2 42.1436 153.5989 61.6246 0.0000 -4.4672 0.0000
# 3 30.6907 61.6246 120.0646 0.0000 2.6150 0.0000
# 4 0.0000 0.0000 0.0000 56.6682 0.0000 -18.6885
# 5 -14.0451 -4.4672 2.6150 0.0000 54.0319 0.0000
# 6 0.0000 0.0000 0.0000 -18.6885 0.0000 27.9988
#
#
#
# Elastic Compliance Matrix: (Units=1/GPa)
#
#
# Indices 1 2 3 4 5 6 
#
# 1 0.017427 -0.003563 -0.002721 0.000000 0.004367 0.000000
# 2 -0.003563 0.008969 -0.003693 0.000000 -0.000006 0.000000
# 3 -0.002721 -0.003693 0.010953 0.000000 -0.001543 0.000000
# 4 0.000000 0.000000 0.000000 0.022627 0.000000 0.015103
# 5 0.004367 -0.000006 -0.001543 0.000000 0.019717 0.000000
# 6 0.000000 0.000000 0.000000 0.015103 0.000000 0.045797
#
#
# Mechanical properties :
#
#
# Convention : Reuss Voigt Hill
#
# Bulk Modulus (GPa) = 57.48289 68.54333 63.01311
# Shear Modulus (GPa) = 33.05920 41.97402 37.51661
#
# Velocity S-wave (km/s) = 3.95575 4.45731 4.21400
# Velocity P-wave (km/s) = 6.93343 7.67685 7.31459
#
# Compressibility (1/GPa) = 0.01739648
#
# Stress axis : x y z
#
# Youngs Moduli (GPa) = 57.38118 111.48999 91.29576
#
# Poissons Ratio (x) = 0.39722 0.24843
# Poissons Ratio (y) = 0.20444 0.33714
# Poissons Ratio (z) = 0.15614 0.41171
#
# Static dielectric constant tensor:
#      x y z
#    x 4.325760 0.000000 -0.397400 
#    y 0.000000 3.684190 0.000000 
#    z -0.397400 0.000000 4.405420 
# 
# 
# High freq. dielectric constant tensor:
#      x y z
#    x 1.826580 0.000000 -0.009250 
#    y 0.000000 1.850720 0.000000 
#    z -0.009250 0.000000 1.845370 
# 
# From -- ./inp_files/77829.got.cif
#   From: 2010.06.25/outbox.cif.g09.slc.cpg/sg12_39_cif.got.tgz:77829.got - 2010.06.28 00:19:55.
