data_PCOD8115157
_publ_section_title
;
Structure prediction by ZEFSAII (Michael W. Deem and Ramdas Pophale) SiO2 
 PCOD8115157
Probable space group: C 2/M
;
_chemical_formula_sum "Si O2"
_cell_formula_units_Z 44
_cell_length_a 13.579098
_cell_length_b 24.484528
_cell_length_c 7.391787
_cell_angle_alpha 90.000000
_cell_angle_beta 72.978603
_cell_angle_gamma 90.000000
_cell_volume 2349.950964
_symmetry_space_group_name_H-M "C 2/M"
_symmetry_group_IT_number 12
_symmetry_cell_setting 'monoclinic'
loop_
_space_group_symop_operation_xyz
x,y,z
-x,y,-z
-x,-y,-z
x,-y,z
1/2+x,1/2+y,z
1/2-x,1/2+y,-z
1/2-x,1/2-y,-z
1/2+x,1/2-y,z
loop_
_atom_site_type_symbol
_atom_site_label
_atom_site_fract_x
_atom_site_fract_y
_atom_site_fract_z
Si Si1 0.580787 0.287193 0.220903
Si Si2 0.000000 0.406855 0.500000
Si Si3 0.913149 0.560642 0.186173
Si Si4 0.661962 0.175301 0.263641
Si Si5 0.364746 0.275767 0.225364
Si Si6 0.783438 0.661561 0.181857
O O1 0.601069 0.231678 0.317028
O O2 0.457613 0.297476 0.305156
O O3 0.657937 0.333614 0.259038
O O4 0.605798 0.279734 0.998691
O O5 0.965817 0.444518 0.353215
O O6 0.901184 0.371708 0.607688
O O7 0.872884 0.500000 0.153518
O O8 0.819233 0.603671 0.243979
O O9 0.000000 0.581582 0.000000
O O10 0.769581 0.183619 0.313994
O O11 0.680493 0.162281 0.044395
O O12 0.335204 0.211510 0.268794
#
# Coordination Sequence:
#
# PCOD8115157 Si02
#       6
#     8   4   8   8   8   8
#     4   8  14  26  47  73 104 138 165 200 242 300
#     4  12  21  34  54  76 108 132 163 210 262 300
#     4  11  23  37  53  73  98 134 176 216 255 295
#     4   9  17  28  46  76 105 137 164 199 250 306
#     4   8  14  25  48  77 106 134 167 196 244 306
#     4   9  16  31  51  72 102 135 168 206 251 291
#
# _framework density 18.723794999999999
#
# number of rings (size 3 to 8) (size 9 to 14) (size 15 to 20)
#    0.000    2.727    1.818    3.545    2.545    0.000 
#    0.000    8.182    0.000    0.000    0.000   14.000 
#    0.000    0.000    0.000    0.000    0.000    0.000 
#
# Total GULP energy -272595.525841 kJ/mol
# GULP energy per Si atom -12390.705720 kJ/mol
# Density = 1.868118 g / cm^3
# Si number density = 18.723795 Si / 1000 Ang^3
#
#
#
# Elastic Constant Matrix: (Units=GPa)
#
#
# Indices 1 2 3 4 5 6 
#
# 1 162.5008 52.3138 16.7202 0.0000 -4.1398 0.0000
# 2 52.3138 88.1999 4.3953 0.0000 -2.6781 0.0000
# 3 16.7202 4.3953 33.5536 0.0000 -1.2934 0.0000
# 4 0.0000 0.0000 0.0000 -4.1642 0.0000 10.0506
# 5 -4.1398 -2.6781 -1.2934 0.0000 21.9676 0.0000
# 6 0.0000 0.0000 0.0000 10.0506 0.0000 19.4365
#
#
#
# Elastic Compliance Matrix: (Units=1/GPa)
#
#
# Indices 1 2 3 4 5 6 
#
# 1 0.007981 -0.004544 -0.003353 0.000000 0.000753 0.000000
# 2 -0.004544 0.014037 0.000459 0.000000 0.000882 0.000000
# 3 -0.003353 0.000459 0.031463 0.000000 0.001277 0.000000
# 4 0.000000 0.000000 0.000000 -0.106822 0.000000 0.055238
# 5 0.000753 0.000882 0.001277 0.000000 0.045846 0.000000
# 6 0.000000 0.000000 0.000000 0.055238 0.000000 0.022886
#
#
# Mechanical properties :
#
#
# Convention : Reuss Voigt Hill
#
# Bulk Modulus (GPa) = 25.90244 47.90142 36.90193
# Shear Modulus (GPa) = 115.92095 21.50300 68.71197
#
# Velocity S-wave (km/s) = 7.87689 3.39253 6.06443
# Velocity P-wave (km/s) = 9.82808 6.40190 8.29384
#
# Compressibility (1/GPa) = 0.03860641
#
# Stress axis : x y z
#
# Youngs Moduli (GPa) = 125.30256 71.24171 31.78363
#
# Poissons Ratio (x) = 0.32370 0.10656
# Poissons Ratio (y) = 0.56933 -0.01460
# Poissons Ratio (z) = 0.42010 -0.03273
#
# Static dielectric constant tensor:
#      x y z
#    x 4.020780 0.000000 -0.029200 
#    y 0.000000 3.026260 0.000000 
#    z -0.029200 0.000000 3.356930 
# 
# 
# High freq. dielectric constant tensor:
#      x y z
#    x 1.731790 0.000000 0.007850 
#    y 0.000000 1.676020 0.000000 
#    z 0.007850 0.000000 1.730660 
# 
# From -- ./inp_files/64350.got.cif
#   From: 2010.06.25/outbox.cif.g09.slc.cpg/sg12_33_cif.got.tgz:64350.got - 2010.06.28 00:19:55.
