data_PCOD8115270
_publ_section_title
;
Structure prediction by ZEFSAII (Michael W. Deem and Ramdas Pophale) SiO2 
 PCOD8115270
Probable space group: C 2/M
;
_chemical_formula_sum "Si O2"
_cell_formula_units_Z 36
_cell_length_a 16.431569
_cell_length_b 22.796088
_cell_length_c 12.005794
_cell_angle_alpha 90.000000
_cell_angle_beta 156.357412
_cell_angle_gamma 90.000000
_cell_volume 1803.462718
_symmetry_space_group_name_H-M "C 2/M"
_symmetry_group_IT_number 12
_symmetry_cell_setting 'monoclinic'
loop_
_space_group_symop_operation_xyz
x,y,z
-x,y,-z
-x,-y,-z
x,-y,z
1/2+x,1/2+y,z
1/2-x,1/2+y,-z
1/2-x,1/2-y,-z
1/2+x,1/2-y,z
loop_
_atom_site_type_symbol
_atom_site_label
_atom_site_fract_x
_atom_site_fract_y
_atom_site_fract_z
Si Si1 0.260019 0.564399 0.064880
Si Si2 0.000000 0.663460 0.000000
Si Si3 0.147468 0.326522 0.787175
Si Si4 0.006025 0.745664 0.205909
Si Si5 0.280229 0.435395 0.351745
O O1 0.168738 0.500000 0.923254
O O2 0.493197 0.566259 0.320682
O O3 0.252797 0.576701 0.186493
O O4 0.142909 0.612555 0.847880
O O5 0.081361 0.704042 0.001757
O O6 0.833638 0.619704 0.735097
O O7 0.000000 0.336178 0.500000
O O8 0.043253 0.277923 0.733755
O O9 0.375394 0.306390 0.034331
O O10 0.250000 0.750000 0.500000
O O11 0.188986 0.500000 0.267609
#
# Coordination Sequence:
#
# PCOD8115270 Si02
#       5
#     8   4   8   8   8
#     4   9  18  36  57  82 113 150 192 236 291 344
#     4  12  19  34  58  84 111 146 190 246 294 336
#     4  11  23  40  59  84 121 156 193 239 288 350
#     4  11  24  39  57  86 115 158 198 238 289 345
#     4   9  18  32  57  87 114 142 187 249 294 336
#
# _framework density 19.961599
#
# number of rings (size 3 to 8) (size 9 to 14) (size 15 to 20)
#    0.000    1.778    2.222    4.333    0.000    2.222 
#    0.000    0.000    0.000    0.000    0.000    7.000 
#    0.000    0.000    0.000    0.000    0.000    0.000 
#
# Total GULP energy -223022.180250 kJ/mol
# GULP energy per Si atom -12390.121125 kJ/mol
# Density = 1.991617 g / cm^3
# Si number density = 19.961599 Si / 1000 Ang^3
#
#
#
# Elastic Constant Matrix: (Units=GPa)
#
#
# Indices 1 2 3 4 5 6 
#
# 1 45.4593 12.7844 16.0857 0.0000 -1.0519 0.0000
# 2 12.7844 103.4521 25.4849 0.0000 -9.4379 0.0000
# 3 16.0857 25.4849 91.1996 0.0000 -0.4654 0.0000
# 4 0.0000 0.0000 0.0000 19.4390 0.0000 3.8138
# 5 -1.0519 -9.4379 -0.4654 0.0000 39.4722 0.0000
# 6 0.0000 0.0000 0.0000 3.8138 0.0000 18.4433
#
#
#
# Elastic Compliance Matrix: (Units=1/GPa)
#
#
# Indices 1 2 3 4 5 6 
#
# 1 0.023862 -0.002043 -0.003637 0.000000 0.000104 0.000000
# 2 -0.002043 0.010798 -0.002644 0.000000 0.002496 0.000000
# 3 -0.003637 -0.002644 0.012342 0.000000 -0.000584 0.000000
# 4 0.000000 0.000000 0.000000 0.053618 0.000000 -0.011087
# 5 0.000104 0.002496 -0.000584 0.000000 0.025927 0.000000
# 6 0.000000 0.000000 0.000000 -0.011087 0.000000 0.056513
#
#
# Mechanical properties :
#
#
# Convention : Reuss Voigt Hill
#
# Bulk Modulus (GPa) = 32.94601 38.75788 35.85195
# Shear Modulus (GPa) = 23.82912 27.85464 25.84188
#
# Velocity S-wave (km/s) = 3.45881 3.73957 3.60193
# Velocity P-wave (km/s) = 5.70015 6.17286 5.94121
#
# Compressibility (1/GPa) = 0.03035269
#
# Stress axis : x y z
#
# Youngs Moduli (GPa) = 41.90805 92.61029 81.02138
#
# Poissons Ratio (x) = 0.18922 0.29469
# Poissons Ratio (y) = 0.08563 0.21424
# Poissons Ratio (z) = 0.15243 0.24489
#
# Static dielectric constant tensor:
#      x y z
#    x 3.553950 0.000000 0.239000 
#    y 0.000000 3.907530 0.000000 
#    z 0.239000 0.000000 3.505410 
# 
# 
# High freq. dielectric constant tensor:
#      x y z
#    x 1.761500 0.000000 0.016400 
#    y 0.000000 1.790900 0.000000 
#    z 0.016400 0.000000 1.764260 
# 
# From -- ./inp_files/135032.got.cif
#   From: 2010.06.25/outbox.cif.g09.slc.cpg/sg12_68_cif.got.tgz:135032.got - 2010.06.28 00:19:55.
