data_PCOD8115527
_publ_section_title
;
Structure prediction by ZEFSAII (Michael W. Deem and Ramdas Pophale) SiO2 
 PCOD8115527
Probable space group: C 2/M
;
_chemical_formula_sum "Si O2"
_cell_formula_units_Z 64
_cell_length_a 14.288211
_cell_length_b 17.830360
_cell_length_c 18.962913
_cell_angle_alpha 90.000000
_cell_angle_beta 39.216006
_cell_angle_gamma 90.000000
_cell_volume 3054.421359
_symmetry_space_group_name_H-M "C 2/M"
_symmetry_group_IT_number 12
_symmetry_cell_setting 'monoclinic'
loop_
_space_group_symop_operation_xyz
x,y,z
-x,y,-z
-x,-y,-z
x,-y,z
1/2+x,1/2+y,z
1/2-x,1/2+y,-z
1/2-x,1/2-y,-z
1/2+x,1/2-y,z
loop_
_atom_site_type_symbol
_atom_site_label
_atom_site_fract_x
_atom_site_fract_y
_atom_site_fract_z
Si Si1 0.877574 0.666651 0.134772
Si Si2 0.338421 0.676585 0.365426
Si Si3 0.541319 0.581401 0.896220
Si Si4 0.078209 0.669594 0.621469
Si Si5 0.511253 0.912046 0.193689
Si Si6 0.274068 0.815523 0.724634
Si Si7 0.218226 0.837517 0.012649
Si Si8 0.361502 0.588423 0.804892
O O1 0.944778 0.635349 0.167950
O O2 0.815546 0.750107 0.182818
O O3 0.731253 0.614995 0.208869
O O4 0.000000 0.666484 0.000000
O O5 0.226851 0.651813 0.492073
O O6 0.413010 0.755570 0.337827
O O7 0.246570 0.686251 0.347309
O O8 0.469113 0.615560 0.288041
O O9 0.515748 0.500000 0.874120
O O10 0.711321 0.605240 0.789568
O O11 0.500000 0.573440 0.000000
O O12 0.450480 0.648037 0.911508
O O13 0.062866 0.602415 0.687029
O O14 0.946393 0.682337 0.642881
O O15 0.678439 0.880290 0.104039
O O16 0.506346 0.000000 0.179348
O O17 0.250000 0.750000 0.000000
O O18 0.241277 0.875970 0.074407
O O19 0.362617 0.500000 0.808448
#
# Coordination Sequence:
#
# PCOD8115527 Si02
#       8
#     8   8   8   8   8   8   8   8
#     4  12  25  40  68 102 142 184 227 278 344 420
#     4  11  24  46  71  96 134 179 230 285 341 403
#     4  11  24  39  60  94 135 174 216 271 336 405
#     4  11  25  45  70  99 132 178 231 285 339 405
#     4  12  25  43  66  99 141 179 226 283 346 407
#     4  12  23  42  71 102 133 178 226 284 342 409
#     4  12  24  40  65  95 137 181 224 275 340 415
#     4  12  25  43  67  99 138 180 226 282 346 409
#
# _framework density 20.953233000000001
#
# number of rings (size 3 to 8) (size 9 to 14) (size 15 to 20)
#    0.000    0.375    5.000    4.500    1.750    2.500 
#    0.000    0.625    0.000    3.750    0.000    0.000 
#    0.000    0.000    0.000    0.000    0.000    0.000 
#
# Total GULP energy -396729.301339 kJ/mol
# GULP energy per Si atom -12397.790667 kJ/mol
# Density = 2.090554 g / cm^3
# Si number density = 20.953233 Si / 1000 Ang^3
#
#
#
# Elastic Constant Matrix: (Units=GPa)
#
#
# Indices 1 2 3 4 5 6 
#
# 1 104.8571 31.5020 22.8514 -0.0009 -1.6420 0.0005
# 2 31.5020 137.3656 40.0586 0.0007 -3.1044 -0.0001
# 3 22.8514 40.0586 83.5608 0.0006 2.9763 0.0001
# 4 -0.0009 0.0007 0.0006 22.1757 -0.0007 -1.3700
# 5 -1.6420 -3.1044 2.9763 -0.0007 31.1419 -0.0001
# 6 0.0005 -0.0001 0.0001 -1.3700 -0.0001 27.4979
#
#
#
# Elastic Compliance Matrix: (Units=1/GPa)
#
#
# Indices 1 2 3 4 5 6 
#
# 1 0.010532 -0.001810 -0.002033 0.000001 0.000569 0.000000
# 2 -0.001810 0.008822 -0.003775 0.000000 0.001145 0.000000
# 3 -0.002033 -0.003775 0.014399 0.000000 -0.001860 0.000000
# 4 0.000001 0.000000 0.000000 0.045234 0.000001 0.002254
# 5 0.000569 0.001145 -0.001860 0.000001 0.032433 0.000000
# 6 0.000000 0.000000 0.000000 0.002254 0.000000 0.036479
#
#
# Mechanical properties :
#
#
# Convention : Reuss Voigt Hill
#
# Bulk Modulus (GPa) = 54.00145 57.17859 55.59002
# Shear Modulus (GPa) = 29.53229 31.58789 30.56009
#
# Velocity S-wave (km/s) = 3.75832 3.88692 3.82316
# Velocity P-wave (km/s) = 6.68294 6.89145 6.78799
#
# Compressibility (1/GPa) = 0.01851802
#
# Stress axis : x y z
#
# Youngs Moduli (GPa) = 94.94483 113.35864 69.44824
#
# Poissons Ratio (x) = 0.20514 0.14119
# Poissons Ratio (y) = 0.17182 0.26216
# Poissons Ratio (z) = 0.19303 0.42792
#
# Static dielectric constant tensor:
#      x y z
#    x 4.170190 0.000000 -0.023740 
#    y 0.000000 3.974090 0.000000 
#    z -0.023740 0.000000 3.761080 
# 
# 
# High freq. dielectric constant tensor:
#      x y z
#    x 1.839520 0.000000 -0.000490 
#    y 0.000000 1.822210 0.000000 
#    z -0.000490 0.000000 1.815930 
# 
# From -- ./inp_files/271696.got.cif
#   From: 2010.06.25/outbox.cif.g09.slc.cpg/sg12_136_cif.got.tgz:271696.got - 2010.06.28 00:19:55.
