data_PCOD8115293
_publ_section_title
;
Structure prediction by ZEFSAII (Michael W. Deem and Ramdas Pophale) SiO2 
 PCOD8115293
Probable space group: C 2/M
;
_chemical_formula_sum "Si O2"
_cell_formula_units_Z 56
_cell_length_a 16.410638
_cell_length_b 16.581377
_cell_length_c 11.673915
_cell_angle_alpha 90.000000
_cell_angle_beta 119.479996
_cell_angle_gamma 90.000000
_cell_volume 2765.318211
_symmetry_space_group_name_H-M "C 2/M"
_symmetry_group_IT_number 12
_symmetry_cell_setting 'monoclinic'
loop_
_space_group_symop_operation_xyz
x,y,z
-x,y,-z
-x,-y,-z
x,-y,z
1/2+x,1/2+y,z
1/2-x,1/2+y,-z
1/2-x,1/2-y,-z
1/2+x,1/2-y,z
loop_
_atom_site_type_symbol
_atom_site_label
_atom_site_fract_x
_atom_site_fract_y
_atom_site_fract_z
Si Si1 0.392250 0.593777 0.409642
Si Si2 0.300941 0.704328 0.707723
Si Si3 0.853772 0.832221 0.151612
Si Si4 0.025881 0.906438 0.147574
Si Si5 0.301680 0.160203 0.134871
Si Si6 0.390467 0.000000 0.558668
Si Si7 0.779152 0.357373 0.569151
Si Si8 0.888780 0.500000 0.296326
O O1 0.500000 0.623413 0.500000
O O2 0.392399 0.500000 0.378340
O O3 0.342119 0.644903 0.275781
O O4 0.325927 0.610554 0.473361
O O5 0.390001 0.648138 0.751695
O O6 0.264585 0.692500 0.810218
O O7 0.223386 0.682717 0.558599
O O8 0.322736 0.798089 0.696094
O O9 0.870825 0.735158 0.152477
O O10 0.939162 0.884867 0.166176
O O11 0.761192 0.859284 0.019056
O O12 0.053206 0.000000 0.182634
O O13 0.000000 0.886472 0.000000
O O14 0.354997 0.079639 0.207309
O O15 0.355652 0.926148 0.610152
O O16 0.349557 0.000000 0.399744
O O17 0.500868 0.000000 0.628059
#
# Coordination Sequence:
#
# PCOD8115293 Si02
#       8
#     8   8   8   8   8   4   8   4
#     4  11  23  40  64  98 135 171 212 264 331 400
#     4  11  23  41  63  96 128 171 214 269 330 382
#     4  11  24  43  64  98 131 173 214 268 331 396
#     4  11  24  39  67  99 129 163 213 271 328 388
#     4  11  24  43  68  93 130 173 222 268 327 388
#     4  11  24  44  68  96 131 172 230 271 317 390
#     4  11  23  41  66  93 129 174 216 270 325 388
#     4  11  26  44  67  95 129 177 225 279 318 373
#
# _framework density 20.250834000000001
#
# number of rings (size 3 to 8) (size 9 to 14) (size 15 to 20)
#    0.000    1.000    5.000    1.286    6.000    1.143 
#    2.571    0.000    0.000    0.857    0.000    0.000 
#    0.000    0.000    0.000    0.000    0.000    0.000 
#
# Total GULP energy -347180.588066 kJ/mol
# GULP energy per Si atom -12399.306717 kJ/mol
# Density = 2.020474 g / cm^3
# Si number density = 20.250834 Si / 1000 Ang^3
#
#
#
# Elastic Constant Matrix: (Units=GPa)
#
#
# Indices 1 2 3 4 5 6 
#
# 1 75.6443 27.8361 21.7428 0.0000 -0.4240 0.0000
# 2 27.8361 127.2240 47.4501 0.0000 13.9801 0.0000
# 3 21.7428 47.4501 107.1757 0.0000 0.4221 0.0000
# 4 0.0000 0.0000 0.0000 38.9131 0.0000 3.5911
# 5 -0.4240 13.9801 0.4221 0.0000 25.6224 0.0000
# 6 0.0000 0.0000 0.0000 3.5911 0.0000 38.5205
#
#
#
# Elastic Compliance Matrix: (Units=1/GPa)
#
#
# Indices 1 2 3 4 5 6 
#
# 1 0.014757 -0.002761 -0.001778 0.000000 0.001780 0.000000
# 2 -0.002761 0.010639 -0.004127 0.000000 -0.005783 0.000000
# 3 -0.001778 -0.004127 0.011511 0.000000 0.002033 0.000000
# 4 0.000000 0.000000 0.000000 0.025921 0.000000 -0.002417
# 5 0.001780 -0.005783 0.002033 0.000000 0.042179 0.000000
# 6 0.000000 0.000000 0.000000 -0.002417 0.000000 0.026186
#
#
# Mechanical properties :
#
#
# Convention : Reuss Voigt Hill
#
# Bulk Modulus (GPa) = 51.09072 56.01129 53.55101
# Shear Modulus (GPa) = 32.24753 34.81218 33.52986
#
# Velocity S-wave (km/s) = 3.99482 4.15064 4.07348
# Velocity P-wave (km/s) = 6.82363 7.11964 6.97320
#
# Compressibility (1/GPa) = 0.01957302
#
# Stress axis : x y z
#
# Youngs Moduli (GPa) = 67.76468 93.99350 86.87696
#
# Poissons Ratio (x) = 0.25953 0.15450
# Poissons Ratio (y) = 0.18710 0.35857
# Poissons Ratio (z) = 0.12051 0.38794
#
# Static dielectric constant tensor:
#      x y z
#    x 3.615110 0.000000 -0.269800 
#    y 0.000000 3.903190 0.000000 
#    z -0.269800 0.000000 3.957220 
# 
# 
# High freq. dielectric constant tensor:
#      x y z
#    x 1.781450 0.000000 -0.013180 
#    y 0.000000 1.804700 0.000000 
#    z -0.013180 0.000000 1.793680 
# 
# From -- ./inp_files/156784.got.cif
#   From: 2010.06.25/outbox.cif.g09.slc.cpg/sg12_79_cif.got.tgz:156784.got - 2010.06.28 00:19:55.
