data_PCOD8115509
_publ_section_title
;
Structure prediction by ZEFSAII (Michael W. Deem and Ramdas Pophale) SiO2 
 PCOD8115509
Probable space group: C 2/M
;
_chemical_formula_sum "Si O2"
_cell_formula_units_Z 40
_cell_length_a 8.775618
_cell_length_b 18.080448
_cell_length_c 15.477470
_cell_angle_alpha 90.000000
_cell_angle_beta 135.446937
_cell_angle_gamma 90.000000
_cell_volume 1722.890127
_symmetry_space_group_name_H-M "C 2/M"
_symmetry_group_IT_number 12
_symmetry_cell_setting 'monoclinic'
loop_
_space_group_symop_operation_xyz
x,y,z
-x,y,-z
-x,-y,-z
x,-y,z
1/2+x,1/2+y,z
1/2-x,1/2+y,-z
1/2-x,1/2-y,-z
1/2+x,1/2-y,z
loop_
_atom_site_type_symbol
_atom_site_label
_atom_site_fract_x
_atom_site_fract_y
_atom_site_fract_z
Si Si1 0.577395 0.000000 0.274845
Si Si2 0.231549 0.353412 0.059290
Si Si3 0.749584 0.500000 0.484129
Si Si4 0.677953 0.720464 0.256133
Si Si5 0.500000 0.872592 0.500000
Si Si6 0.682440 0.500000 0.802282
Si Si7 0.594087 0.845651 0.813748
O O1 0.437093 0.927139 0.238545
O O2 0.784268 0.000000 0.425139
O O3 0.635784 0.000000 0.197742
O O4 0.424631 0.300081 0.164926
O O5 0.286654 0.431944 0.122423
O O6 0.233260 0.355840 0.956653
O O7 0.000000 0.323178 0.000000
O O8 0.886275 0.574628 0.523405
O O9 0.544709 0.500000 0.339173
O O10 0.822646 0.681260 0.386535
O O11 0.646422 0.808758 0.262932
O O12 0.770460 0.703336 0.199556
#
# Coordination Sequence:
#
# PCOD8115509 Si02
#       7
#     4   8   4   8   4   4   8
#     4  12  25  49  75 109 151 197 251 320 363 463
#     4  12  24  46  75 109 153 201 248 313 375 452
#     4  11  23  47  75 110 150 202 252 315 370 459
#     4  12  27  49  76 111 153 202 250 320 379 449
#     4  11  24  48  78 107 152 196 260 309 382 448
#     4  12  24  45  77 111 152 200 256 310 384 438
#     4  12  27  47  75 111 154 197 257 306 383 449
#
# _framework density 23.216802999999999
#
# number of rings (size 3 to 8) (size 9 to 14) (size 15 to 20)
#    0.000    0.200    6.000    3.600    0.000    1.600 
#    3.600    2.000    0.000    0.000    0.000    0.000 
#    0.000    0.000    0.000    0.000    0.000    0.000 
#
# Total GULP energy -247895.658438 kJ/mol
# GULP energy per Si atom -12394.782922 kJ/mol
# Density = 2.316396 g / cm^3
# Si number density = 23.216803 Si / 1000 Ang^3
#
#
#
# Elastic Constant Matrix: (Units=GPa)
#
#
# Indices 1 2 3 4 5 6 
#
# 1 103.0194 44.1566 41.7229 -0.0002 -3.5897 0.0000
# 2 44.1566 127.7635 52.7708 0.0003 -0.6103 -0.0004
# 3 41.7229 52.7708 170.1367 0.0004 -1.2283 -0.0009
# 4 -0.0002 0.0003 0.0004 113.2404 0.0000 -92.6653
# 5 -3.5897 -0.6103 -1.2283 0.0000 47.0151 -0.0002
# 6 0.0000 -0.0004 -0.0009 -92.6653 -0.0002 139.0958
#
#
#
# Elastic Compliance Matrix: (Units=1/GPa)
#
#
# Indices 1 2 3 4 5 6 
#
# 1 0.011930 -0.003341 -0.001883 0.000000 0.000818 0.000000
# 2 -0.003341 0.009913 -0.002257 0.000000 -0.000185 0.000000
# 3 -0.001883 -0.002257 0.007039 0.000000 0.000011 0.000000
# 4 0.000000 0.000000 0.000000 0.019415 0.000000 0.012934
# 5 0.000818 -0.000185 0.000011 0.000000 0.021330 0.000000
# 6 0.000000 0.000000 0.000000 0.012934 0.000000 0.015806
#
#
# Mechanical properties :
#
#
# Convention : Reuss Voigt Hill
#
# Bulk Modulus (GPa) = 71.83913 75.35779 73.59846
# Shear Modulus (GPa) = 47.60238 77.35486 62.47862
#
# Velocity S-wave (km/s) = 4.53298 5.77848 5.19320
# Velocity P-wave (km/s) = 7.64246 8.77780 8.22973
#
# Compressibility (1/GPa) = 0.01391999
#
# Stress axis : x y z
#
# Youngs Moduli (GPa) = 83.81917 100.87783 142.05577
#
# Poissons Ratio (x) = 0.33708 0.26755
# Poissons Ratio (y) = 0.28008 0.32056
# Poissons Ratio (z) = 0.15786 0.22764
#
# Static dielectric constant tensor:
#      x y z
#    x 4.077140 0.000000 -0.056310 
#    y 0.000000 4.857670 0.000000 
#    z -0.056310 0.000000 4.288700 
# 
# 
# High freq. dielectric constant tensor:
#      x y z
#    x 1.909150 0.000000 -0.015490 
#    y 0.000000 1.935470 0.000000 
#    z -0.015490 0.000000 1.932850 
# 
# From -- ./inp_files/197356.got.cif
#   From: 2010.06.25/outbox.cif.g09.slc.cpg/sg12_99_cif.got.tgz:197356.got - 2010.06.28 00:19:55.
