data_PCOD8115960
_publ_section_title
;
Structure prediction by ZEFSAII (Michael W. Deem and Ramdas Pophale) SiO2 
 PCOD8115960
Probable space group: C 2/M
;
_chemical_formula_sum "Si O2"
_cell_formula_units_Z 56
_cell_length_a 13.865911
_cell_length_b 32.985414
_cell_length_c 7.542865
_cell_angle_alpha 90.000000
_cell_angle_beta 90.000062
_cell_angle_gamma 90.000000
_cell_volume 3449.901397
_symmetry_space_group_name_H-M "C 2/M"
_symmetry_group_IT_number 12
_symmetry_cell_setting 'monoclinic'
loop_
_space_group_symop_operation_xyz
x,y,z
-x,y,-z
-x,-y,-z
x,-y,z
1/2+x,1/2+y,z
1/2-x,1/2+y,-z
1/2-x,1/2-y,-z
1/2+x,1/2-y,z
loop_
_atom_site_type_symbol
_atom_site_label
_atom_site_fract_x
_atom_site_fract_y
_atom_site_fract_z
Si Si1 0.106168 0.730808 0.789087
Si Si2 0.886688 0.893662 0.796177
Si Si3 0.606169 0.769192 0.210913
Si Si4 0.613311 0.393662 0.796178
Si Si5 0.385934 0.455034 0.500000
Si Si6 0.706055 0.311330 0.789846
Si Si7 0.206055 0.188670 0.210155
O O1 0.138852 0.774930 0.717426
O O2 0.183523 0.696832 0.726825
O O3 1.000000 0.720324 0.712562
O O4 0.103827 0.732079 1.000000
O O5 0.852682 0.931564 0.677420
O O6 0.831248 0.854375 0.718827
O O7 1.000000 0.885154 0.776162
O O8 0.859583 0.903200 1.000000
O O9 0.683524 0.803168 0.273175
O O10 0.638852 0.725070 0.282575
O O11 0.647318 0.431564 0.677421
O O12 0.668751 0.354375 0.718827
O O13 0.500000 0.458817 0.500000
O O14 0.339256 0.500000 0.500000
O O15 0.699269 0.311766 0.000000
#
# Coordination Sequence:
#
# PCOD8115960 Si02
#       7
#     8   8   8   8   8   8   8
#     4   8  12  18  30  50  78 109 138 168 197 224
#     4   9  16  26  41  59  80 106 133 162 194 230
#     4   8  12  18  30  50  78 109 138 168 197 224
#     4   9  16  26  41  59  80 106 133 162 194 230
#     4   9  18  30  42  59  81 103 129 159 196 244
#     4   8  13  20  32  53  78 105 138 167 192 229
#     4   8  13  20  32  53  78 105 138 167 192 229
#
# _framework density 16.232348999999999
#
# number of rings (size 3 to 8) (size 9 to 14) (size 15 to 20)
#    0.000    3.571    0.000    2.571    0.000    4.000 
#    0.000    2.857    0.000    3.429    0.000    3.000 
#    0.000    2.286    0.000   11.143    0.000    0.286 
#
# Total GULP energy -346931.300769 kJ/mol
# GULP energy per Si atom -12390.403599 kJ/mol
# Density = 1.619540 g / cm^3
# Si number density = 16.232349 Si / 1000 Ang^3
#
#
#
# Elastic Constant Matrix: (Units=GPa)
#
#
# Indices 1 2 3 4 5 6 
#
# 1 91.0576 49.8539 19.8915 0.0000 13.1766 0.0000
# 2 49.8539 144.8669 43.2014 0.0000 1.2760 0.0000
# 3 19.8915 43.2014 51.5345 0.0000 -5.5954 0.0000
# 4 0.0000 0.0000 0.0000 -75.8291 0.0000 17.4921
# 5 13.1766 1.2760 -5.5954 0.0000 4.8383 0.0000
# 6 0.0000 0.0000 0.0000 17.4921 0.0000 15.3601
#
#
#
# Elastic Compliance Matrix: (Units=1/GPa)
#
#
# Indices 1 2 3 4 5 6 
#
# 1 0.037799 -0.004356 -0.025148 0.000000 -0.130875 0.000000
# 2 -0.004356 0.010478 -0.006993 0.000000 0.001011 0.000000
# 3 -0.025148 -0.006993 0.048728 0.000000 0.126686 0.000000
# 4 0.000000 0.000000 0.000000 -0.010444 0.000000 0.011894
# 5 -0.130875 0.001011 0.126686 0.000000 0.709348 0.000000
# 6 0.000000 0.000000 0.000000 0.011894 0.000000 0.051559
#
#
# Mechanical properties :
#
#
# Convention : Reuss Voigt Hill
#
# Bulk Modulus (GPa) = 41.64597 57.03918 49.34258
# Shear Modulus (GPa) = 5.38522 0.50802 2.94662
#
# Velocity S-wave (km/s) = 1.82340 0.56004 1.34878
# Velocity P-wave (km/s) = 5.49044 5.96940 5.73492
#
# Compressibility (1/GPa) = 0.02401193
#
# Stress axis : x y z
#
# Youngs Moduli (GPa) = 26.45583 95.43524 20.52190
#
# Poissons Ratio (x) = 0.41568 0.51609
# Poissons Ratio (y) = 0.11523 0.14351
# Poissons Ratio (z) = 0.66532 0.66738
#
# Static dielectric constant tensor:
#      x y z
#    x 3.180840 0.000000 0.061250 
#    y 0.000000 3.204220 0.000000 
#    z 0.061250 0.000000 2.861510 
# 
# 
# High freq. dielectric constant tensor:
#      x y z
#    x 1.595680 0.000000 -0.003020 
#    y 0.000000 1.600880 0.000000 
#    z -0.003020 0.000000 1.611410 
# 
# From -- ./inp_files/66578.got.cif
#   From: 2010.06.25/outbox.cif.g09.slc.cpg/sg12_34_cif.got.tgz:66578.got - 2010.06.28 00:19:55.
