data_PCOD8115720
_publ_section_title
;
Structure prediction by ZEFSAII (Michael W. Deem and Ramdas Pophale) SiO2 
 PCOD8115720
Probable space group: C 2/M
;
_chemical_formula_sum "Si O2"
_cell_formula_units_Z 24
_cell_length_a 13.733135
_cell_length_b 14.646125
_cell_length_c 7.934651
_cell_angle_alpha 90.000000
_cell_angle_beta 136.633434
_cell_angle_gamma 90.000000
_cell_volume 1095.882932
_symmetry_space_group_name_H-M "C 2/M"
_symmetry_group_IT_number 12
_symmetry_cell_setting 'monoclinic'
loop_
_space_group_symop_operation_xyz
x,y,z
-x,y,-z
-x,-y,-z
x,-y,z
1/2+x,1/2+y,z
1/2-x,1/2+y,-z
1/2-x,1/2-y,-z
1/2+x,1/2-y,z
loop_
_atom_site_type_symbol
_atom_site_label
_atom_site_fract_x
_atom_site_fract_y
_atom_site_fract_z
Si Si1 0.435285 0.500000 0.601952
Si Si2 0.119615 0.350427 0.770194
Si Si3 0.070206 0.820795 0.918423
Si Si4 0.357535 0.000000 0.923428
O O1 0.500000 0.500000 0.500000
O O2 0.484335 0.411356 0.764295
O O3 0.265863 0.500000 0.371205
O O4 0.058316 0.253112 0.754327
O O5 0.000000 0.395392 0.500000
O O6 0.263277 0.341156 0.842444
O O7 0.154443 0.411047 0.975967
O O8 0.000000 0.780833 0.000000
O O9 0.500000 0.000000 0.000000
#
# Coordination Sequence:
#
# PCOD8115720 Si02
#       4
#     4   8   8   4
#     4  12  23  46  70  94 137 174 218 270 328 398
#     4  11  25  44  67  98 137 169 221 277 324 387
#     4  11  25  43  70  99 128 179 222 267 330 390
#     4  12  27  44  68 102 133 174 218 273 334 386
#
# _framework density 21.900151999999999
#
# number of rings (size 3 to 8) (size 9 to 14) (size 15 to 20)
#    0.000    0.667    3.333    3.000    9.333    1.333 
#    0.000    0.000    0.000    0.000    0.000    0.000 
#    0.000    0.000    0.000    0.000    0.000    0.000 
#
# Total GULP energy -148870.561616 kJ/mol
# GULP energy per Si atom -12405.880135 kJ/mol
# Density = 2.185031 g / cm^3
# Si number density = 21.900152 Si / 1000 Ang^3
#
#
#
# Elastic Constant Matrix: (Units=GPa)
#
#
# Indices 1 2 3 4 5 6 
#
# 1 169.7826 16.7373 47.2663 0.0000 26.6325 0.0000
# 2 16.7373 113.3325 38.4748 0.0000 9.7371 0.0000
# 3 47.2663 38.4748 147.4676 0.0000 25.6255 0.0000
# 4 0.0000 0.0000 0.0000 16.7342 0.0000 9.7547
# 5 26.6325 9.7371 25.6255 0.0000 32.6131 0.0000
# 6 0.0000 0.0000 0.0000 9.7547 0.0000 13.7983
#
#
#
# Elastic Compliance Matrix: (Units=1/GPa)
#
#
# Indices 1 2 3 4 5 6 
#
# 1 0.007016 -0.000164 -0.001412 0.000000 -0.004571 0.000000
# 2 -0.000164 0.009716 -0.002318 0.000000 -0.000945 0.000000
# 3 -0.001412 -0.002318 0.008707 0.000000 -0.004996 0.000000
# 4 0.000000 0.000000 0.000000 0.101645 0.000000 -0.071858
# 5 -0.004571 -0.000945 -0.004996 0.000000 0.038604 0.000000
# 6 0.000000 0.000000 0.000000 -0.071858 0.000000 0.123273
#
#
# Mechanical properties :
#
#
# Convention : Reuss Voigt Hill
#
# Bulk Modulus (GPa) = 56.65379 70.61550 63.63464
# Shear Modulus (GPa) = 16.52175 34.50274 25.51224
#
# Velocity S-wave (km/s) = 2.74964 3.97351 3.41682
# Velocity P-wave (km/s) = 6.00050 7.30520 6.68476
#
# Compressibility (1/GPa) = 0.01765107
#
# Stress axis : x y z
#
# Youngs Moduli (GPa) = 142.52886 102.92289 114.85543
#
# Poissons Ratio (x) = 0.01690 0.16213
# Poissons Ratio (y) = 0.02340 0.26624
# Poissons Ratio (z) = 0.20119 0.23858
#
# Static dielectric constant tensor:
#      x y z
#    x 4.207470 0.000000 -0.351870 
#    y 0.000000 4.023750 0.000000 
#    z -0.351870 0.000000 5.371190 
# 
# 
# High freq. dielectric constant tensor:
#      x y z
#    x 1.868640 0.000000 0.011110 
#    y 0.000000 1.869330 0.000000 
#    z 0.011110 0.000000 1.863860 
# 
# From -- ./inp_files/44694.got.cif
#   From: 2010.06.25/outbox.cif.g09.slc.cpg/sg12_23_cif.got.tgz:44694.got - 2010.06.28 00:19:55.
