data_PCOD8115581
_publ_section_title
;
Structure prediction by ZEFSAII (Michael W. Deem and Ramdas Pophale) SiO2 
 PCOD8115581
Probable space group: C 2/M
;
_chemical_formula_sum "Si O2"
_cell_formula_units_Z 40
_cell_length_a 5.008517
_cell_length_b 26.206297
_cell_length_c 14.636292
_cell_angle_alpha 90.000000
_cell_angle_beta 115.532405
_cell_angle_gamma 90.000000
_cell_volume 1733.472203
_symmetry_space_group_name_H-M "C 2/M"
_symmetry_group_IT_number 12
_symmetry_cell_setting 'monoclinic'
loop_
_space_group_symop_operation_xyz
x,y,z
-x,y,-z
-x,-y,-z
x,-y,z
1/2+x,1/2+y,z
1/2-x,1/2+y,-z
1/2-x,1/2-y,-z
1/2+x,1/2-y,z
loop_
_atom_site_type_symbol
_atom_site_label
_atom_site_fract_x
_atom_site_fract_y
_atom_site_fract_z
Si Si1 0.559685 0.716968 0.277231
Si Si2 0.664719 0.058457 0.303702
Si Si3 0.756479 0.054891 0.110339
Si Si4 0.767159 0.387244 0.385336
Si Si5 0.653553 0.661442 0.930832
O O1 0.289697 0.737027 0.298384
O O2 0.717165 0.671600 0.354250
O O3 0.435791 0.700062 0.161129
O O4 0.610108 0.064657 0.187563
O O5 0.383217 0.082800 0.313172
O O6 0.963523 0.087870 0.375396
O O7 0.696027 0.000000 0.338834
O O8 0.955031 0.103998 0.113161
O O9 0.934995 0.000000 0.137648
O O10 0.500000 0.049321 0.000000
O O11 0.000000 0.392106 0.500000
O O12 0.500000 0.680309 0.000000
O O13 0.000000 0.661783 0.000000
#
# Coordination Sequence:
#
# PCOD8115581 Si02
#       5
#     8   8   8   8   8
#     4  12  27  46  71  97 133 175 232 290 343 397
#     4  11  24  44  72 105 142 180 220 269 336 412
#     4   9  20  38  66 103 140 179 216 260 324 408
#     4  12  27  47  71 100 135 176 231 287 343 400
#     4  11  24  41  68  99 137 180 220 270 331 405
#
# _framework density 23.075074999999998
#
# number of rings (size 3 to 8) (size 9 to 14) (size 15 to 20)
#    0.000    1.000    2.000    3.600    5.600    6.000 
#    0.000    0.000    0.000    0.000    0.000    0.000 
#    0.000    0.000    0.000    0.000    0.000    0.000 
#
# Total GULP energy -248048.458608 kJ/mol
# GULP energy per Si atom -12402.422930 kJ/mol
# Density = 2.302256 g / cm^3
# Si number density = 23.075075 Si / 1000 Ang^3
#
#
#
# Elastic Constant Matrix: (Units=GPa)
#
#
# Indices 1 2 3 4 5 6 
#
# 1 74.9209 8.9146 -6.1339 0.0000 0.0207 0.0000
# 2 8.9146 112.9388 16.1277 0.0000 4.7119 0.0000
# 3 -6.1339 16.1277 83.5027 0.0000 -1.9741 0.0000
# 4 0.0000 0.0000 0.0000 35.0113 0.0000 14.5599
# 5 0.0207 4.7119 -1.9741 0.0000 20.0149 0.0000
# 6 0.0000 0.0000 0.0000 14.5599 0.0000 40.9984
#
#
#
# Elastic Compliance Matrix: (Units=1/GPa)
#
#
# Indices 1 2 3 4 5 6 
#
# 1 0.013601 -0.001270 0.001254 0.000000 0.000409 0.000000
# 2 -0.001270 0.009333 -0.001952 0.000000 -0.002388 0.000000
# 3 0.001254 -0.001952 0.012485 0.000000 0.001690 0.000000
# 4 0.000000 0.000000 0.000000 0.033511 0.000000 -0.011901
# 5 0.000409 -0.002388 0.001690 0.000000 0.050691 0.000000
# 6 0.000000 0.000000 0.000000 -0.011901 0.000000 0.028618
#
#
# Mechanical properties :
#
#
# Convention : Reuss Voigt Hill
#
# Bulk Modulus (GPa) = 31.76334 34.35323 33.05829
# Shear Modulus (GPa) = 30.73718 36.03518 33.38618
#
# Velocity S-wave (km/s) = 3.65369 3.95606 3.80788
# Velocity P-wave (km/s) = 5.62088 5.98223 5.80437
#
# Compressibility (1/GPa) = 0.03148283
#
# Stress axis : x y z
#
# Youngs Moduli (GPa) = 73.52381 107.14662 80.09745
#
# Poissons Ratio (x) = 0.13604 -0.10044
# Poissons Ratio (y) = 0.09335 0.15637
# Poissons Ratio (z) = -0.09220 0.20918
#
# Static dielectric constant tensor:
#      x y z
#    x 3.984520 0.000000 -0.097360 
#    y 0.000000 4.715780 0.000000 
#    z -0.097360 0.000000 4.111000 
# 
# 
# High freq. dielectric constant tensor:
#      x y z
#    x 1.903240 0.000000 -0.000070 
#    y 0.000000 1.928840 0.000000 
#    z -0.000070 0.000000 1.917280 
# 
# From -- ./inp_files/192005.got.cif
#   From: 2010.06.25/outbox.cif.g09.slc.cpg/sg12_97_cif.got.tgz:192005.got - 2010.06.28 00:19:55.
