data_PCOD8115705
_publ_section_title
;
Structure prediction by ZEFSAII (Michael W. Deem and Ramdas Pophale) SiO2 
 PCOD8115705
Probable space group: C 2/M
;
_chemical_formula_sum "Si O2"
_cell_formula_units_Z 56
_cell_length_a 13.693197
_cell_length_b 20.697014
_cell_length_c 9.359398
_cell_angle_alpha 90.000000
_cell_angle_beta 90.000000
_cell_angle_gamma 90.000000
_cell_volume 2652.530983
_symmetry_space_group_name_H-M "C 2/M"
_symmetry_group_IT_number 12
_symmetry_cell_setting 'monoclinic'
loop_
_space_group_symop_operation_xyz
x,y,z
-x,y,-z
-x,-y,-z
x,-y,z
1/2+x,1/2+y,z
1/2-x,1/2+y,-z
1/2-x,1/2-y,-z
1/2+x,1/2-y,z
loop_
_atom_site_type_symbol
_atom_site_label
_atom_site_fract_x
_atom_site_fract_y
_atom_site_fract_z
Si Si1 0.461548 0.817509 0.839424
Si Si2 0.250000 0.072834 0.498268
Si Si3 0.961548 0.817509 0.160576
Si Si4 0.250000 0.854393 0.787465
Si Si5 0.088065 0.425227 0.735451
Si Si6 0.250000 0.426436 0.941375
Si Si7 0.088065 0.074773 0.264549
O O1 0.500000 0.750000 0.775405
O O2 0.344416 0.812545 0.829152
O O3 0.494554 0.877897 0.738396
O O4 0.500000 0.826900 0.000000
O O5 0.250000 0.124526 0.624004
O O6 0.348104 0.083772 0.406883
O O7 0.151896 0.083772 0.406883
O O8 0.250000 0.000000 0.558929
O O9 0.844415 0.812545 0.170848
O O10 0.994554 0.877897 0.261604
O O11 0.000000 0.826900 0.000000
O O12 0.250000 0.917566 0.889369
O O13 0.053210 0.500000 0.750809
O O14 0.151627 0.398966 0.869944
O O15 0.250000 0.500000 0.892869
O O16 0.348373 0.398966 0.869944
O O17 0.053210 0.000000 0.249191
#
# Coordination Sequence:
#
# PCOD8115705 Si02
#       7
#     8   8   8   8   8   8   8
#     4  11  25  42  64  95 127 167 213 268 323 371
#     4   9  21  40  66  98 135 168 204 260 321 377
#     4  11  25  42  64  95 127 167 213 268 323 371
#     4  12  23  39  62  96 122 163 215 268 304 377
#     4   9  19  40  64  90 127 172 205 250 322 378
#     4   9  17  32  61  92 120 155 209 257 298 365
#     4   9  19  40  64  90 127 172 205 250 322 378
#
# _framework density 21.111910000000002
#
# number of rings (size 3 to 8) (size 9 to 14) (size 15 to 20)
#    0.000    2.000    2.857    2.143    0.000    8.571 
#    0.000    7.143    0.000    0.000    0.000    0.000 
#    0.000    0.000    0.000    0.000    0.000    0.000 
#
# Total GULP energy -347079.348389 kJ/mol
# GULP energy per Si atom -12395.691014 kJ/mol
# Density = 2.106386 g / cm^3
# Si number density = 21.111910 Si / 1000 Ang^3
#
#
#
# Elastic Constant Matrix: (Units=GPa)
#
#
# Indices 1 2 3 4 5 6 
#
# 1 154.2176 65.3878 32.0296 0.0000 0.0000 0.0000
# 2 65.3878 119.5063 39.6826 0.0000 0.0000 0.0000
# 3 32.0296 39.6826 92.9118 0.0000 0.0000 0.0000
# 4 0.0000 0.0000 0.0000 17.4090 0.0000 0.0000
# 5 0.0000 0.0000 0.0000 0.0000 13.9283 0.0000
# 6 0.0000 0.0000 0.0000 0.0000 0.0000 23.6567
#
#
#
# Elastic Compliance Matrix: (Units=1/GPa)
#
#
# Indices 1 2 3 4 5 6 
#
# 1 0.008539 -0.004305 -0.001105 0.000000 0.000000 0.000000
# 2 -0.004305 0.011921 -0.003607 0.000000 0.000000 0.000000
# 3 -0.001105 -0.003607 0.012685 0.000000 0.000000 0.000000
# 4 0.000000 0.000000 0.000000 0.057441 0.000000 0.000000
# 5 0.000000 0.000000 0.000000 0.000000 0.071796 0.000000
# 6 0.000000 0.000000 0.000000 0.000000 0.000000 0.042271
#
#
# Mechanical properties :
#
#
# Convention : Reuss Voigt Hill
#
# Bulk Modulus (GPa) = 66.18261 71.20398 68.69329
# Shear Modulus (GPa) = 21.95618 26.30117 24.12867
#
# Velocity S-wave (km/s) = 3.22839 3.53342 3.38434
# Velocity P-wave (km/s) = 6.73151 7.10259 6.91954
#
# Compressibility (1/GPa) = 0.01510971
#
# Stress axis : x y z
#
# Youngs Moduli (GPa) = 117.10562 83.88347 78.83630
#
# Poissons Ratio (x) = 0.36115 0.08711
# Poissons Ratio (y) = 0.50418 0.28439
# Poissons Ratio (z) = 0.12939 0.30260
#
# Static dielectric constant tensor:
#      x y z
#    x 3.972310 0.000000 0.000000 
#    y 0.000000 3.626480 0.000000 
#    z 0.000000 0.000000 3.513590 
# 
# 
# High freq. dielectric constant tensor:
#      x y z
#    x 1.835400 0.000000 0.000000 
#    y 0.000000 1.810740 0.000000 
#    z 0.000000 0.000000 1.812360 
# 
# From -- ./inp_files/64082.got.cif
#   From: 2010.06.25/outbox.cif.g09.slc.cpg/sg12_33_cif.got.tgz:64082.got - 2010.06.28 00:19:55.
