data_PCOD8115736
_publ_section_title
;
Structure prediction by ZEFSAII (Michael W. Deem and Ramdas Pophale) SiO2 
 PCOD8115736
Probable space group: C 2/M
;
_chemical_formula_sum "Si O2"
_cell_formula_units_Z 40
_cell_length_a 8.708540
_cell_length_b 16.605989
_cell_length_c 12.783418
_cell_angle_alpha 90.000000
_cell_angle_beta 108.714139
_cell_angle_gamma 90.000000
_cell_volume 1750.923607
_symmetry_space_group_name_H-M "C 2/M"
_symmetry_group_IT_number 12
_symmetry_cell_setting 'monoclinic'
loop_
_space_group_symop_operation_xyz
x,y,z
-x,y,-z
-x,-y,-z
x,-y,z
1/2+x,1/2+y,z
1/2-x,1/2+y,-z
1/2-x,1/2-y,-z
1/2+x,1/2-y,z
loop_
_atom_site_type_symbol
_atom_site_label
_atom_site_fract_x
_atom_site_fract_y
_atom_site_fract_z
Si Si1 0.058876 0.153960 0.268238
Si Si2 0.984019 0.685434 0.120024
Si Si3 0.338157 0.590397 0.910477
Si Si4 0.816282 0.337110 0.495198
Si Si5 0.259868 0.092399 0.706304
O O1 0.102806 0.085178 0.195594
O O2 0.205658 0.133823 0.377363
O O3 0.043971 0.240506 0.206178
O O4 0.893576 0.145184 0.295069
O O5 0.799391 0.657678 0.100449
O O6 0.095909 0.611313 0.180854
O O7 0.000000 0.704074 0.000000
O O8 0.286504 0.500000 0.936156
O O9 0.500000 0.622950 0.000000
O O10 0.750000 0.250000 0.500000
O O11 0.805705 0.391340 0.596329
O O12 0.000000 0.335243 0.500000
O O13 0.214492 0.000000 0.709220
#
# Coordination Sequence:
#
# PCOD8115736 Si02
#       5
#     8   8   8   8   8
#     4  12  25  45  74 102 141 187 238 293 349 428
#     4  12  26  45  71 103 142 189 242 295 352 425
#     4  11  25  45  68  99 142 188 233 293 360 418
#     4  12  26  47  74 104 142 187 234 291 354 424
#     4  12  27  46  74 110 144 185 238 298 359 420
#
# _framework density 22.845085000000001
#
# number of rings (size 3 to 8) (size 9 to 14) (size 15 to 20)
#    0.000    0.200    2.000    7.200    0.000    8.400 
#    0.000    0.000    0.000    0.000    0.000    0.000 
#    0.000    0.000    0.000    0.000    0.000    0.000 
#
# Total GULP energy -247874.526377 kJ/mol
# GULP energy per Si atom -12393.726319 kJ/mol
# Density = 2.279309 g / cm^3
# Si number density = 22.845085 Si / 1000 Ang^3
#
#
#
# Elastic Constant Matrix: (Units=GPa)
#
#
# Indices 1 2 3 4 5 6 
#
# 1 183.3549 23.9585 70.8540 0.0000 3.7677 0.0000
# 2 23.9585 78.3732 26.8016 0.0000 -1.5869 0.0000
# 3 70.8540 26.8016 168.3968 0.0000 8.3265 0.0000
# 4 0.0000 0.0000 0.0000 44.9531 0.0000 -1.1107
# 5 3.7677 -1.5869 8.3265 0.0000 48.6369 0.0000
# 6 0.0000 0.0000 0.0000 -1.1107 0.0000 25.5935
#
#
#
# Elastic Compliance Matrix: (Units=1/GPa)
#
#
# Indices 1 2 3 4 5 6 
#
# 1 0.006607 -0.001135 -0.002594 0.000000 -0.000105 0.000000
# 2 -0.001135 0.013721 -0.001748 0.000000 0.000835 0.000000
# 3 -0.002594 -0.001748 0.007363 0.000000 -0.001117 0.000000
# 4 0.000000 0.000000 0.000000 0.022269 0.000000 0.000966
# 5 -0.000105 0.000835 -0.001117 0.000000 0.020787 0.000000
# 6 0.000000 0.000000 0.000000 0.000966 0.000000 0.039114
#
#
# Mechanical properties :
#
#
# Convention : Reuss Voigt Hill
#
# Bulk Modulus (GPa) = 59.74409 74.81700 67.28054
# Shear Modulus (GPa) = 39.55897 44.40410 41.98153
#
# Velocity S-wave (km/s) = 4.16579 4.41353 4.29145
# Velocity P-wave (km/s) = 7.02474 7.66767 7.35323
#
# Compressibility (1/GPa) = 0.01673806
#
# Stress axis : x y z
#
# Youngs Moduli (GPa) = 151.36045 72.88164 135.81090
#
# Poissons Ratio (x) = 0.08270 0.35230
# Poissons Ratio (y) = 0.17175 0.23735
# Poissons Ratio (z) = 0.39264 0.12737
#
# Static dielectric constant tensor:
#      x y z
#    x 4.193960 0.000000 -0.105670 
#    y 0.000000 3.915860 0.000000 
#    z -0.105670 0.000000 3.938280 
# 
# 
# High freq. dielectric constant tensor:
#      x y z
#    x 1.916100 0.000000 0.004060 
#    y 0.000000 1.900370 0.000000 
#    z 0.004060 0.000000 1.926970 
# 
# From -- ./inp_files/119130.got.cif
#   From: 2010.06.25/outbox.cif.g09.slc.cpg/sg12_60_cif.got.tgz:119130.got - 2010.06.28 00:19:55.
