data_PCOD8115052
_publ_section_title
;
Structure prediction by ZEFSAII (Michael W. Deem and Ramdas Pophale) SiO2 
 PCOD8115052
Probable space group: C 2/M
;
_chemical_formula_sum "Si O2"
_cell_formula_units_Z 40
_cell_length_a 12.561566
_cell_length_b 29.772945
_cell_length_c 5.036310
_cell_angle_alpha 90.000000
_cell_angle_beta 78.617319
_cell_angle_gamma 90.000000
_cell_volume 1846.505967
_symmetry_space_group_name_H-M "C 2/M"
_symmetry_group_IT_number 12
_symmetry_cell_setting 'monoclinic'
loop_
_space_group_symop_operation_xyz
x,y,z
-x,y,-z
-x,-y,-z
x,-y,z
1/2+x,1/2+y,z
1/2-x,1/2+y,-z
1/2-x,1/2-y,-z
1/2+x,1/2-y,z
loop_
_atom_site_type_symbol
_atom_site_label
_atom_site_fract_x
_atom_site_fract_y
_atom_site_fract_z
Si Si1 0.243010 0.300244 0.400438
Si Si2 0.746729 0.450121 0.561669
Si Si3 0.423443 0.371719 0.288292
Si Si4 0.881821 0.428739 0.982623
Si Si5 0.619086 0.826049 0.961404
O O1 0.250000 0.250000 0.500000
O O2 0.359381 0.324483 0.327019
O O3 0.170429 0.328048 0.643639
O O4 0.190428 0.297863 0.134197
O O5 0.694193 0.500000 0.578095
O O6 0.657071 0.413919 0.689915
O O7 0.794181 0.438922 0.251028
O O8 0.843613 0.450858 0.727940
O O9 0.500000 0.376653 0.500000
O O10 0.500000 0.371947 0.000000
O O11 0.890477 0.375966 0.921287
O O12 0.000000 0.448447 0.000000
O O13 0.500000 0.803673 0.000000
#
# Coordination Sequence:
#
# PCOD8115052 Si02
#       5
#     8   8   8   8   8
#     4  12  25  44  69 101 133 170 221 274 336 407
#     4  12  25  43  68  99 137 180 232 283 331 399
#     4  12  26  46  69  93 135 181 226 280 334 386
#     4  11  22  41  69 100 137 177 217 271 348 409
#     4  11  22  42  70  97 133 172 212 268 337 409
#
# _framework density 21.662534000000001
#
# number of rings (size 3 to 8) (size 9 to 14) (size 15 to 20)
#    0.000    0.400    4.000    4.800    0.000    8.800 
#    0.000    0.000    0.000    0.000    0.000    0.000 
#    0.000    0.000    0.000    0.000    0.000    0.000 
#
# Total GULP energy -248108.743042 kJ/mol
# GULP energy per Si atom -12405.437152 kJ/mol
# Density = 2.161323 g / cm^3
# Si number density = 21.662534 Si / 1000 Ang^3
#
#
#
# Elastic Constant Matrix: (Units=GPa)
#
#
# Indices 1 2 3 4 5 6 
#
# 1 129.2637 39.9956 33.6420 0.0000 6.2835 0.0000
# 2 39.9956 131.5583 5.5702 0.0000 -6.4433 0.0000
# 3 33.6420 5.5702 111.5660 0.0000 -0.8805 0.0000
# 4 0.0000 0.0000 0.0000 -0.3189 0.0000 0.8685
# 5 6.2835 -6.4433 -0.8805 0.0000 48.1088 0.0000
# 6 0.0000 0.0000 0.0000 0.8685 0.0000 10.2161
#
#
#
# Elastic Compliance Matrix: (Units=1/GPa)
#
#
# Indices 1 2 3 4 5 6 
#
# 1 0.009394 -0.002822 -0.002705 0.000000 -0.001654 0.000000
# 2 -0.002822 0.008515 0.000438 0.000000 0.001517 0.000000
# 3 -0.002705 0.000438 0.009762 0.000000 0.000591 0.000000
# 4 0.000000 0.000000 0.000000 -2.546297 0.000000 0.216473
# 5 -0.001654 0.001517 0.000591 0.000000 0.021216 0.000000
# 6 0.000000 0.000000 0.000000 0.216473 0.000000 0.079481
#
#
# Mechanical properties :
#
#
# Convention : Reuss Voigt Hill
#
# Bulk Modulus (GPa) = 57.16894 58.97820 58.07357
# Shear Modulus (GPa) = -2.08167 31.14655 14.53244
#
# Velocity S-wave (km/s) = -0.98135 3.79596 2.59290
# Velocity P-wave (km/s) = 5.01637 6.81890 5.98587
#
# Compressibility (1/GPa) = 0.01749202
#
# Stress axis : x y z
#
# Youngs Moduli (GPa) = 106.45374 117.44001 102.44109
#
# Poissons Ratio (x) = 0.33146 0.27708
# Poissons Ratio (y) = 0.30045 -0.04486
# Poissons Ratio (z) = 0.28793 -0.05143
#
# Static dielectric constant tensor:
#      x y z
#    x 4.096320 0.000000 0.026150 
#    y 0.000000 3.948990 0.000000 
#    z 0.026150 0.000000 4.038980 
# 
# 
# High freq. dielectric constant tensor:
#      x y z
#    x 1.853650 0.000000 0.007400 
#    y 0.000000 1.854130 0.000000 
#    z 0.007400 0.000000 1.868410 
# 
# From -- ./inp_files/8319.got.cif
#   From: 2010.06.25/outbox.cif.g09.slc.cpg/sg12_5_cif.got.tgz:8319.got - 2010.06.28 00:19:55.
