data_PCOD8115065
_publ_section_title
;
Structure prediction by ZEFSAII (Michael W. Deem and Ramdas Pophale) SiO2 
 PCOD8115065
Probable space group: C 2/M
;
_chemical_formula_sum "Si O2"
_cell_formula_units_Z 48
_cell_length_a 11.162915
_cell_length_b 26.140268
_cell_length_c 14.401772
_cell_angle_alpha 90.000000
_cell_angle_beta 148.531061
_cell_angle_gamma 90.000000
_cell_volume 2193.836472
_symmetry_space_group_name_H-M "C 2/M"
_symmetry_group_IT_number 12
_symmetry_cell_setting 'monoclinic'
loop_
_space_group_symop_operation_xyz
x,y,z
-x,y,-z
-x,-y,-z
x,-y,z
1/2+x,1/2+y,z
1/2-x,1/2+y,-z
1/2-x,1/2-y,-z
1/2+x,1/2-y,z
loop_
_atom_site_type_symbol
_atom_site_label
_atom_site_fract_x
_atom_site_fract_y
_atom_site_fract_z
Si Si1 0.110683 0.156747 0.870902
Si Si2 0.517844 0.056526 0.359023
Si Si3 0.196463 0.705031 0.694088
Si Si4 0.126106 0.943541 0.240824
Si Si5 0.014521 0.185428 0.411101
Si Si6 0.487563 0.839960 0.253303
O O1 0.936847 0.198759 0.799119
O O2 0.065976 0.100139 0.881851
O O3 0.094243 0.156042 0.748231
O O4 0.369367 0.170815 0.075084
O O5 0.707317 0.064355 0.562587
O O6 0.266687 0.061925 0.238460
O O7 0.555182 0.100150 0.306401
O O8 0.542469 0.000000 0.329923
O O9 0.000000 0.679230 0.500000
O O10 0.134968 0.763796 0.672583
O O11 0.201701 0.674634 0.794267
O O12 0.010610 0.000000 0.168215
O O13 0.288290 0.195445 0.579385
O O14 0.000000 0.153859 0.500000
#
# Coordination Sequence:
#
# PCOD8115065 Si02
#       6
#     8   8   8   8   8   8
#     4  12  24  41  66  96 130 163 205 265 318 379
#     4   9  17  32  60  96 130 162 200 247 313 387
#     4  11  22  42  65  88 124 165 204 258 320 372
#     4   9  17  33  61  97 131 163 196 247 318 383
#     4  11  27  46  63  85 123 172 220 264 305 367
#     4  12  23  40  65  95 128 168 203 256 322 373
#
# _framework density 21.879479
#
# number of rings (size 3 to 8) (size 9 to 14) (size 15 to 20)
#    0.000    1.333    5.000    2.000    2.333    2.000 
#    6.000    1.667    0.000    2.000    0.000    2.333 
#    0.000    0.000    0.000    0.000    0.000    0.000 
#
# Total GULP energy -297460.992503 kJ/mol
# GULP energy per Si atom -12394.208021 kJ/mol
# Density = 2.182968 g / cm^3
# Si number density = 21.879479 Si / 1000 Ang^3
#
#
#
# Elastic Constant Matrix: (Units=GPa)
#
#
# Indices 1 2 3 4 5 6 
#
# 1 68.3644 22.7096 16.8416 0.0000 -18.3853 0.0000
# 2 22.7096 113.0030 23.1171 0.0000 6.4987 0.0000
# 3 16.8416 23.1171 102.1176 0.0000 -17.9182 -0.0001
# 4 0.0000 0.0000 0.0000 16.3866 0.0000 -0.9450
# 5 -18.3853 6.4987 -17.9182 0.0000 25.4638 -0.0001
# 6 0.0000 0.0000 -0.0001 -0.9450 -0.0001 17.9202
#
#
#
# Elastic Compliance Matrix: (Units=1/GPa)
#
#
# Indices 1 2 3 4 5 6 
#
# 1 0.020728 -0.005283 0.000730 0.000000 0.016828 0.000000
# 2 -0.005283 0.011076 -0.003196 0.000000 -0.008890 0.000000
# 3 0.000730 -0.003196 0.012129 0.000000 0.009878 0.000000
# 4 0.000000 0.000000 0.000000 0.061212 0.000000 0.003228
# 5 0.016828 -0.008890 0.009878 0.000000 0.060641 0.000000
# 6 0.000000 0.000000 0.000000 0.003228 0.000000 0.055973
#
#
# Mechanical properties :
#
#
# Convention : Reuss Voigt Hill
#
# Bulk Modulus (GPa) = 35.16705 45.42460 40.29582
# Shear Modulus (GPa) = 20.26470 26.67523 23.46996
#
# Velocity S-wave (km/s) = 3.04665 3.49548 3.27875
# Velocity P-wave (km/s) = 5.33705 6.09077 5.72632
#
# Compressibility (1/GPa) = 0.02843571
#
# Stress axis : x y z
#
# Youngs Moduli (GPa) = 48.24392 90.28519 82.44762
#
# Poissons Ratio (x) = 0.47695 -0.06019
# Poissons Ratio (y) = 0.25486 0.26350
# Poissons Ratio (z) = -0.03522 0.28855
#
# Static dielectric constant tensor:
#      x y z
#    x 3.875130 0.000000 -0.194680 
#    y 0.000000 4.012760 0.000000 
#    z -0.194680 0.000000 3.879770 
# 
# 
# High freq. dielectric constant tensor:
#      x y z
#    x 1.821610 0.000000 -0.016150 
#    y 0.000000 1.853460 0.000000 
#    z -0.016150 0.000000 1.861580 
# 
# From -- ./inp_files/209905.got.cif
#   From: 2010.06.25/outbox.cif.g09.slc.cpg/sg12_105_cif.got.tgz:209905.got - 2010.06.28 00:19:55.
