data_PCOD8115742
_publ_section_title
;
Structure prediction by ZEFSAII (Michael W. Deem and Ramdas Pophale) SiO2 
 PCOD8115742
Probable space group: C 2/M
;
_chemical_formula_sum "Si O2"
_cell_formula_units_Z 56
_cell_length_a 9.104938
_cell_length_b 15.211259
_cell_length_c 24.073278
_cell_angle_alpha 90.000000
_cell_angle_beta 125.439468
_cell_angle_gamma 90.000000
_cell_volume 2716.378780
_symmetry_space_group_name_H-M "C 2/M"
_symmetry_group_IT_number 12
_symmetry_cell_setting 'monoclinic'
loop_
_space_group_symop_operation_xyz
x,y,z
-x,y,-z
-x,-y,-z
x,-y,z
1/2+x,1/2+y,z
1/2-x,1/2+y,-z
1/2-x,1/2-y,-z
1/2+x,1/2-y,z
loop_
_atom_site_type_symbol
_atom_site_label
_atom_site_fract_x
_atom_site_fract_y
_atom_site_fract_z
Si Si1 0.131774 0.901447 0.369794
Si Si2 0.922173 0.251905 0.268096
Si Si3 0.322394 0.655808 0.498526
Si Si4 0.962146 0.400763 0.366187
Si Si5 0.077604 0.599488 0.929945
Si Si6 0.712712 0.400217 0.916581
Si Si7 0.524816 0.243179 0.171611
O O1 0.136421 0.899022 0.437282
O O2 0.328426 0.877359 0.387961
O O3 0.983159 0.833837 0.315265
O O4 0.074811 0.000000 0.339353
O O5 0.921331 0.337035 0.306378
O O6 0.730059 0.236332 0.196286
O O7 0.049352 0.268481 0.243220
O O8 0.500000 0.663808 0.500000
O O9 0.250000 0.750000 0.500000
O O10 0.168449 0.606995 0.430138
O O11 0.928373 0.500000 0.338173
O O12 0.089522 0.500000 0.909868
O O13 0.889415 0.616039 0.919084
O O14 0.095174 0.666173 0.882236
O O15 0.240108 0.617872 0.008487
O O16 0.644531 0.500000 0.894158
O O17 0.552499 0.337812 0.861924
#
# Coordination Sequence:
#
# PCOD8115742 Si02
#       7
#     8   8   8   8   8   8   8
#     4  11  25  46  69  94 127 170 216 262 320 381
#     4  12  26  41  62  93 128 173 210 260 310 377
#     4  12  25  42  71 100 129 164 212 269 321 371
#     4  11  25  46  68  94 129 169 213 263 323 380
#     4   9  19  38  64  94 123 161 211 262 310 372
#     4   9  19  38  65  92 123 164 211 257 312 377
#     4  12  23  40  63  92 129 165 213 255 318 371
#
# _framework density 20.615683000000001
#
# number of rings (size 3 to 8) (size 9 to 14) (size 15 to 20)
#    0.000    1.143    4.286    3.000    2.000    4.571 
#    0.000    0.000    0.000    1.714    0.000    0.000 
#    0.000    0.000    0.000    0.000    0.000    0.000 
#
# Total GULP energy -347270.249054 kJ/mol
# GULP energy per Si atom -12402.508895 kJ/mol
# Density = 2.056876 g / cm^3
# Si number density = 20.615683 Si / 1000 Ang^3
#
#
#
# Elastic Constant Matrix: (Units=GPa)
#
#
# Indices 1 2 3 4 5 6 
#
# 1 77.9486 42.7885 37.9590 0.0000 12.2310 0.0000
# 2 42.7885 141.5514 60.9221 0.0000 -3.1413 0.0000
# 3 37.9590 60.9221 107.5630 0.0000 -6.5385 0.0000
# 4 0.0000 0.0000 0.0000 14.1797 0.0000 -2.8622
# 5 12.2310 -3.1413 -6.5385 0.0000 32.5226 0.0000
# 6 0.0000 0.0000 0.0000 -2.8622 0.0000 27.2325
#
#
#
# Elastic Compliance Matrix: (Units=1/GPa)
#
#
# Indices 1 2 3 4 5 6 
#
# 1 0.018574 -0.003650 -0.004994 0.000000 -0.008342 0.000000
# 2 -0.003650 0.010060 -0.004320 0.000000 0.001476 0.000000
# 3 -0.004994 -0.004320 0.013763 0.000000 0.004228 0.000000
# 4 0.000000 0.000000 0.000000 0.072052 0.000000 0.007573
# 5 -0.008342 0.001476 0.004228 0.000000 0.034878 0.000000
# 6 0.000000 0.000000 0.000000 0.007573 0.000000 0.037517
#
#
# Mechanical properties :
#
#
# Convention : Reuss Voigt Hill
#
# Bulk Modulus (GPa) = 60.72414 67.82248 64.27331
# Shear Modulus (GPa) = 22.90834 27.14652 25.02743
#
# Velocity S-wave (km/s) = 3.33710 3.63270 3.48803
# Velocity P-wave (km/s) = 6.66090 7.11092 6.88959
#
# Compressibility (1/GPa) = 0.01646791
#
# Stress axis : x y z
#
# Youngs Moduli (GPa) = 53.83966 99.40407 72.65763
#
# Poissons Ratio (x) = 0.36283 0.36288
# Poissons Ratio (y) = 0.19652 0.31388
# Poissons Ratio (z) = 0.26890 0.42942
#
# Static dielectric constant tensor:
#      x y z
#    x 3.674730 0.000000 -0.007460 
#    y 0.000000 3.840280 0.000000 
#    z -0.007460 0.000000 3.731520 
# 
# 
# High freq. dielectric constant tensor:
#      x y z
#    x 1.797760 0.000000 -0.001370 
#    y 0.000000 1.816520 0.000000 
#    z -0.001370 0.000000 1.809820 
# 
# From -- ./inp_files/332819.got.cif
#   From: 2010.06.25/outbox.cif.g09.slc.cpg/sg12_167_cif.got.tgz:332819.got - 2010.06.28 00:19:55.
