data_PCOD8115415
_publ_section_title
;
Structure prediction by ZEFSAII (Michael W. Deem and Ramdas Pophale) SiO2 
 PCOD8115415
Probable space group: C 2/M
;
_chemical_formula_sum "Si O2"
_cell_formula_units_Z 48
_cell_length_a 8.500252
_cell_length_b 28.577363
_cell_length_c 16.232494
_cell_angle_alpha 90.000000
_cell_angle_beta 30.806727
_cell_angle_gamma 90.000000
_cell_volume 2019.440431
_symmetry_space_group_name_H-M "C 2/M"
_symmetry_group_IT_number 12
_symmetry_cell_setting 'monoclinic'
loop_
_space_group_symop_operation_xyz
x,y,z
-x,y,-z
-x,-y,-z
x,-y,z
1/2+x,1/2+y,z
1/2-x,1/2+y,-z
1/2-x,1/2-y,-z
1/2+x,1/2-y,z
loop_
_atom_site_type_symbol
_atom_site_label
_atom_site_fract_x
_atom_site_fract_y
_atom_site_fract_z
Si Si1 0.361120 0.052756 0.850527
Si Si2 0.637662 0.552498 0.651705
Si Si3 0.254684 0.611876 0.947159
Si Si4 0.311199 0.241534 0.377520
Si Si5 0.248156 0.609339 0.550094
Si Si6 0.257495 0.816648 0.734770
O O1 0.514837 0.074566 0.700949
O O2 0.484396 0.000000 0.808510
O O3 0.431490 0.084510 0.898651
O O4 0.000000 0.052683 0.000000
O O5 0.507953 0.500000 0.703696
O O6 0.485479 0.576584 0.798680
O O7 0.557039 0.580039 0.604356
O O8 0.000000 0.552807 0.500000
O O9 0.449575 0.655308 0.896304
O O10 0.000000 0.632527 0.000000
O O11 0.250000 0.250000 0.500000
O O12 0.640495 0.214461 0.230055
O O13 0.313477 0.286890 0.316512
O O14 0.000000 0.211341 0.500000
O O15 0.500000 0.630135 0.500000
O O16 0.052989 0.649246 0.589909
#
# Coordination Sequence:
#
# PCOD8115415 Si02
#       6
#     8   8   8   8   8   8
#     4  11  23  46  70  99 148 200 236 275 339 418
#     4  11  23  42  70 107 145 189 241 299 346 393
#     4  12  26  44  71 102 146 194 234 283 344 425
#     4   9  21  40  72 100 133 174 218 285 366 429
#     4  12  25  41  73 108 143 183 236 300 343 406
#     4  11  23  46  67 104 135 175 230 291 348 426
#
# _framework density 23.768961000000001
#
# number of rings (size 3 to 8) (size 9 to 14) (size 15 to 20)
#    0.000    1.000    3.333    2.500    7.000    6.667 
#    6.000    0.833    0.000    0.000    0.000    0.000 
#    0.000    0.000    0.000    0.000    0.000    0.000 
#
# Total GULP energy -297324.641700 kJ/mol
# GULP energy per Si atom -12388.526737 kJ/mol
# Density = 2.371486 g / cm^3
# Si number density = 23.768961 Si / 1000 Ang^3
#
#
#
# Elastic Constant Matrix: (Units=GPa)
#
#
# Indices 1 2 3 4 5 6 
#
# 1 137.9790 67.7882 22.3539 0.0000 -10.8313 0.0000
# 2 67.7882 153.2831 42.3296 0.0000 -3.1727 0.0000
# 3 22.3539 42.3296 74.0807 0.0000 1.7720 0.0000
# 4 0.0000 0.0000 0.0000 7.3240 0.0000 11.2995
# 5 -10.8313 -3.1727 1.7720 0.0000 45.9858 0.0000
# 6 0.0000 0.0000 0.0000 11.2995 0.0000 32.1756
#
#
#
# Elastic Compliance Matrix: (Units=1/GPa)
#
#
# Indices 1 2 3 4 5 6 
#
# 1 0.009453 -0.003964 -0.000635 0.000000 0.001977 0.000000
# 2 -0.003964 0.009432 -0.004190 0.000000 -0.000122 0.000000
# 3 -0.000635 -0.004190 0.016110 0.000000 -0.001059 0.000000
# 4 0.000000 0.000000 0.000000 0.297991 0.000000 -0.104649
# 5 0.001977 -0.000122 -0.001059 0.000000 0.022244 0.000000
# 6 0.000000 0.000000 0.000000 -0.104649 0.000000 0.067830
#
#
# Mechanical properties :
#
#
# Convention : Reuss Voigt Hill
#
# Bulk Modulus (GPa) = 57.41647 70.03179 63.72413
# Shear Modulus (GPa) = 11.19962 32.62182 21.91072
#
# Velocity S-wave (km/s) = 2.17304 3.70868 3.03944
# Velocity P-wave (km/s) = 5.52310 6.91857 6.25984
#
# Compressibility (1/GPa) = 0.01741661
#
# Stress axis : x y z
#
# Youngs Moduli (GPa) = 105.78407 106.02539 62.07397
#
# Poissons Ratio (x) = 0.42033 0.03939
# Poissons Ratio (y) = 0.41938 0.26009
# Poissons Ratio (z) = 0.06712 0.44425
#
# Static dielectric constant tensor:
#      x y z
#    x 4.105910 0.000000 0.003740 
#    y 0.000000 5.147880 0.000000 
#    z 0.003740 0.000000 4.201120 
# 
# 
# High freq. dielectric constant tensor:
#      x y z
#    x 1.964810 0.000000 -0.020140 
#    y 0.000000 1.938760 0.000000 
#    z -0.020140 0.000000 1.925800 
# 
# From -- ./inp_files/260233.got.cif
#   From: 2010.06.25/outbox.cif.g09.slc.cpg/sg12_131_cif.got.tgz:260233.got - 2010.06.28 00:19:55.
