data_PCOD8115014
_publ_section_title
;
Structure prediction by ZEFSAII (Michael W. Deem and Ramdas Pophale) SiO2 
 PCOD8115014
Probable space group: C 2/M
;
_chemical_formula_sum "Si O2"
_cell_formula_units_Z 40
_cell_length_a 13.659484
_cell_length_b 25.199983
_cell_length_c 8.398757
_cell_angle_alpha 90.000000
_cell_angle_beta 139.270459
_cell_angle_gamma 90.000000
_cell_volume 1886.352650
_symmetry_space_group_name_H-M "C 2/M"
_symmetry_group_IT_number 12
_symmetry_cell_setting 'monoclinic'
loop_
_space_group_symop_operation_xyz
x,y,z
-x,y,-z
-x,-y,-z
x,-y,z
1/2+x,1/2+y,z
1/2-x,1/2+y,-z
1/2-x,1/2-y,-z
1/2+x,1/2-y,z
loop_
_atom_site_type_symbol
_atom_site_label
_atom_site_fract_x
_atom_site_fract_y
_atom_site_fract_z
Si Si1 0.180400 0.195620 0.370755
Si Si2 0.644118 0.399529 0.764468
Si Si3 0.407268 0.500000 0.088417
Si Si4 0.749223 0.000000 0.586605
Si Si5 0.830585 0.800285 0.011822
Si Si6 0.158532 0.596352 0.273148
O O1 0.250000 0.250000 0.500000
O O2 0.214888 0.189945 0.226155
O O3 0.265778 0.148963 0.565910
O O4 0.010856 0.200289 0.225053
O O5 0.500000 0.374598 0.500000
O O6 0.596026 0.446265 0.819111
O O7 0.749869 0.426008 0.763380
O O8 0.724519 0.351595 0.957561
O O9 0.573352 0.500000 0.222991
O O10 0.259226 0.500000 0.791095
O O11 0.659983 0.051230 0.410972
O O12 0.750000 0.750000 0.000000
O O13 0.000000 0.610417 0.000000
#
# Coordination Sequence:
#
# PCOD8115014 Si02
#       6
#     8   8   4   4   8   8
#     4  11  25  44  66  94 134 173 221 273 332 396
#     4  12  22  42  68  99 130 170 227 272 322 397
#     4  11  22  40  74 100 128 174 223 276 329 392
#     4  11  22  43  68 101 134 171 220 274 333 395
#     4  11  25  43  68  97 128 172 224 280 328 385
#     4  12  26  43  66  98 139 176 216 273 337 395
#
# _framework density 21.204944999999999
#
# number of rings (size 3 to 8) (size 9 to 14) (size 15 to 20)
#    0.000    0.600    4.000    3.600    5.600    3.200 
#    0.000    4.000    0.000    0.000    0.000    0.000 
#    0.000    0.000    0.000    0.000    0.000    0.000 
#
# Total GULP energy -247802.406880 kJ/mol
# GULP energy per Si atom -12390.120344 kJ/mol
# Density = 2.115668 g / cm^3
# Si number density = 21.204945 Si / 1000 Ang^3
#
#
#
# Elastic Constant Matrix: (Units=GPa)
#
#
# Indices 1 2 3 4 5 6 
#
# 1 69.5292 8.7538 36.1158 0.0000 -9.7248 0.0000
# 2 8.7538 146.5526 55.1532 0.0000 -8.4687 0.0000
# 3 36.1158 55.1532 150.4959 0.0000 -7.1751 0.0000
# 4 0.0000 0.0000 0.0000 -156.3538 0.0000 80.3537
# 5 -9.7248 -8.4687 -7.1751 0.0000 29.0960 0.0000
# 6 0.0000 0.0000 0.0000 80.3537 0.0000 -6.5909
#
#
#
# Elastic Compliance Matrix: (Units=1/GPa)
#
#
# Indices 1 2 3 4 5 6 
#
# 1 0.017142 0.000836 -0.004185 0.000000 0.004941 0.000000
# 2 0.000836 0.008031 -0.003055 0.000000 0.001864 0.000000
# 3 -0.004185 -0.003055 0.008762 0.000000 -0.000127 0.000000
# 4 0.000000 0.000000 0.000000 0.001215 0.000000 0.014808
# 5 0.004941 0.001864 -0.000127 0.000000 0.036532 0.000000
# 6 0.000000 0.000000 0.000000 0.014808 0.000000 0.028815
#
#
# Mechanical properties :
#
#
# Convention : Reuss Voigt Hill
#
# Bulk Modulus (GPa) = 47.32879 62.95815 55.14347
# Shear Modulus (GPa) = 41.54706 -8.99942 16.27382
#
# Velocity S-wave (km/s) = 4.43121 -2.06234 2.77330
# Velocity P-wave (km/s) = 6.96771 4.90752 6.02631
#
# Compressibility (1/GPa) = 0.02112879
#
# Stress axis : x y z
#
# Youngs Moduli (GPa) = 58.33675 124.51845 114.12308
#
# Poissons Ratio (x) = -0.10415 0.47757
# Poissons Ratio (y) = -0.04880 0.34865
# Poissons Ratio (z) = 0.24412 0.38041
#
# Static dielectric constant tensor:
#      x y z
#    x 4.078620 0.000000 -0.150820 
#    y 0.000000 3.919550 0.000000 
#    z -0.150820 0.000000 4.149700 
# 
# 
# High freq. dielectric constant tensor:
#      x y z
#    x 1.832720 0.000000 -0.018180 
#    y 0.000000 1.842360 0.000000 
#    z -0.018180 0.000000 1.844320 
# 
# From -- ./inp_files/65618.got.cif
#   From: 2010.06.25/outbox.cif.g09.slc.cpg/sg12_33_cif.got.tgz:65618.got - 2010.06.28 00:19:55.
