data_PCOD8115591
_publ_section_title
;
Structure prediction by ZEFSAII (Michael W. Deem and Ramdas Pophale) SiO2 
 PCOD8115591
Probable space group: C 2/M
;
_chemical_formula_sum "Si O2"
_cell_formula_units_Z 48
_cell_length_a 14.118996
_cell_length_b 19.871527
_cell_length_c 12.441916
_cell_angle_alpha 90.000000
_cell_angle_beta 42.426700
_cell_angle_gamma 90.000000
_cell_volume 2355.041433
_symmetry_space_group_name_H-M "C 2/M"
_symmetry_group_IT_number 12
_symmetry_cell_setting 'monoclinic'
loop_
_space_group_symop_operation_xyz
x,y,z
-x,y,-z
-x,-y,-z
x,-y,z
1/2+x,1/2+y,z
1/2-x,1/2+y,-z
1/2-x,1/2-y,-z
1/2+x,1/2-y,z
loop_
_atom_site_type_symbol
_atom_site_label
_atom_site_fract_x
_atom_site_fract_y
_atom_site_fract_z
Si Si1 0.641358 0.222054 0.322018
Si Si2 0.273868 0.632279 0.808630
Si Si3 0.311061 0.077962 0.342255
Si Si4 0.555553 0.825358 0.172290
Si Si5 0.430847 0.304650 0.172443
Si Si6 0.533751 0.576433 0.704101
O O1 0.500000 0.202438 0.500000
O O2 0.649446 0.301517 0.298045
O O3 0.647730 0.183541 0.202563
O O4 0.764170 0.197246 0.297395
O O5 0.193988 0.595228 0.779339
O O6 0.390545 0.582062 0.756922
O O7 0.158296 0.651130 0.992927
O O8 0.435838 0.119389 0.293261
O O9 0.163862 0.097856 0.520264
O O10 0.345735 0.000000 0.329037
O O11 0.482014 0.754402 0.207835
O O12 0.474269 0.376031 0.185382
O O13 0.500000 0.293436 0.000000
O O14 0.549821 0.500000 0.731084
#
# Coordination Sequence:
#
# PCOD8115591 Si02
#       6
#     8   8   8   8   8   8
#     4  12  24  38  64  97 123 161 208 258 310 365
#     4  12  22  39  65  95 127 159 207 260 316 367
#     4  11  24  42  64  94 129 165 207 257 314 376
#     4  12  24  42  64  95 129 164 206 258 316 368
#     4  12  23  42  65  91 128 165 211 260 305 373
#     4  11  25  42  63  92 129 169 208 256 312 368
#
# _framework density 20.381806999999998
#
# number of rings (size 3 to 8) (size 9 to 14) (size 15 to 20)
#    0.000    0.333    5.000    5.000    0.000    5.000 
#    0.000    0.833    0.000    3.000    0.000    0.000 
#    0.000    0.000    0.000    0.000    0.000    0.000 
#
# Total GULP energy -297796.442727 kJ/mol
# GULP energy per Si atom -12408.185114 kJ/mol
# Density = 2.033542 g / cm^3
# Si number density = 20.381807 Si / 1000 Ang^3
#
#
#
# Elastic Constant Matrix: (Units=GPa)
#
#
# Indices 1 2 3 4 5 6 
#
# 1 67.2714 26.7948 8.0847 0.0011 -3.4288 -0.0008
# 2 26.7948 105.2346 16.6860 0.0009 -2.0359 -0.0008
# 3 8.0847 16.6860 54.3331 0.0021 -10.8237 -0.0019
# 4 0.0011 0.0009 0.0021 27.2822 -0.0013 3.9168
# 5 -3.4288 -2.0359 -10.8237 -0.0013 32.6767 0.0012
# 6 -0.0008 -0.0008 -0.0019 3.9168 0.0012 28.2137
#
#
#
# Elastic Compliance Matrix: (Units=1/GPa)
#
#
# Indices 1 2 3 4 5 6 
#
# 1 0.016662 -0.004061 -0.001000 0.000000 0.001164 0.000000
# 2 -0.004061 0.010984 -0.002910 0.000000 -0.000706 0.000000
# 3 -0.001000 -0.002910 0.020760 -0.000001 0.006590 0.000001
# 4 0.000000 0.000000 -0.000001 0.037399 0.000001 -0.005192
# 5 0.001164 -0.000706 0.006590 0.000001 0.032864 -0.000001
# 6 0.000000 0.000000 0.000001 -0.005192 -0.000001 0.036165
#
#
# Mechanical properties :
#
#
# Convention : Reuss Voigt Hill
#
# Bulk Modulus (GPa) = 30.80276 36.66333 33.73304
# Shear Modulus (GPa) = 27.53321 29.31943 28.42632
#
# Velocity S-wave (km/s) = 3.67941 3.79688 3.73861
# Velocity P-wave (km/s) = 5.76163 6.10320 5.93488
#
# Compressibility (1/GPa) = 0.03246463
#
# Stress axis : x y z
#
# Youngs Moduli (GPa) = 60.01535 91.03821 48.16905
#
# Poissons Ratio (x) = 0.36975 0.04818
# Poissons Ratio (y) = 0.24375 0.14015
# Poissons Ratio (z) = 0.06002 0.26488
#
# Static dielectric constant tensor:
#      x y z
#    x 3.964090 0.000000 -0.101210 
#    y 0.000000 3.658880 0.000000 
#    z -0.101210 0.000000 3.690550 
# 
# 
# High freq. dielectric constant tensor:
#      x y z
#    x 1.805410 0.000000 -0.008800 
#    y 0.000000 1.791680 0.000000 
#    z -0.008800 0.000000 1.805410 
# 
# From -- ./inp_files/77277.got.cif
#   From: 2010.06.25/outbox.cif.g09.slc.cpg/sg12_39_cif.got.tgz:77277.got - 2010.06.28 00:19:55.
