data_PCOD8115192
_publ_section_title
;
Structure prediction by ZEFSAII (Michael W. Deem and Ramdas Pophale) SiO2 
 PCOD8115192
Probable space group: C 2/M
;
_chemical_formula_sum "Si O2"
_cell_formula_units_Z 48
_cell_length_a 19.589542
_cell_length_b 8.707904
_cell_length_c 26.295706
_cell_angle_alpha 90.000000
_cell_angle_beta 33.016569
_cell_angle_gamma 90.000000
_cell_volume 2444.133067
_symmetry_space_group_name_H-M "C 2/M"
_symmetry_group_IT_number 12
_symmetry_cell_setting 'monoclinic'
loop_
_space_group_symop_operation_xyz
x,y,z
-x,y,-z
-x,-y,-z
x,-y,z
1/2+x,1/2+y,z
1/2-x,1/2+y,-z
1/2-x,1/2-y,-z
1/2+x,1/2-y,z
loop_
_atom_site_type_symbol
_atom_site_label
_atom_site_fract_x
_atom_site_fract_y
_atom_site_fract_z
Si Si1 0.354621 0.681553 0.470613
Si Si2 0.310861 0.180442 0.888596
Si Si3 0.144327 0.321996 0.422598
Si Si4 0.611791 0.181649 0.270831
Si Si5 0.207709 0.317420 0.763109
Si Si6 0.073366 0.318913 0.079293
O O1 0.354116 0.500000 0.466585
O O2 0.250000 0.750000 0.500000
O O3 0.320406 0.730987 0.548779
O O4 0.489754 0.744097 0.371184
O O5 0.379480 0.228755 0.793740
O O6 0.394581 0.240301 0.883592
O O7 0.292662 0.000000 0.902236
O O8 0.172715 0.253286 0.977013
O O9 0.178579 0.500000 0.408014
O O10 0.224168 0.249117 0.328223
O O11 0.000000 0.298924 0.500000
O O12 0.734070 0.246704 0.222346
O O13 0.604159 0.000000 0.283642
O O14 0.221403 0.500000 0.755050
O O15 0.063906 0.262639 0.850834
O O16 0.081386 0.500000 0.072604
#
# Coordination Sequence:
#
# PCOD8115192 Si02
#       6
#     8   8   8   8   8   8
#     4  12  26  43  64  91 124 161 204 249 302 360
#     4   9  20  39  62  86 116 156 197 246 304 358
#     4  11  23  41  64  90 123 161 203 250 300 356
#     4  11  23  40  61  88 123 159 201 252 301 357
#     4  11  23  38  61  90 121 161 203 248 304 360
#     4   9  20  39  61  88 117 152 198 247 301 363
#
# _framework density 19.638864999999999
#
# number of rings (size 3 to 8) (size 9 to 14) (size 15 to 20)
#    0.000    1.500    1.667    3.000    2.333    4.000 
#    0.000    3.333    0.000    0.000    0.000    0.000 
#    0.000    0.000    0.000    0.000    0.000    0.000 
#
# Total GULP energy -297701.844328 kJ/mol
# GULP energy per Si atom -12404.243514 kJ/mol
# Density = 1.959417 g / cm^3
# Si number density = 19.638865 Si / 1000 Ang^3
#
#
#
# Elastic Constant Matrix: (Units=GPa)
#
#
# Indices 1 2 3 4 5 6 
#
# 1 103.3601 38.3172 20.2903 -0.0001 -10.1203 0.0012
# 2 38.3172 89.1159 20.7231 -0.0003 -2.0675 0.0031
# 3 20.2903 20.7231 56.7807 0.0000 -10.1589 0.0003
# 4 -0.0001 -0.0003 0.0000 28.9563 0.0000 0.6549
# 5 -10.1203 -2.0675 -10.1589 0.0000 36.7130 0.0001
# 6 0.0012 0.0031 0.0003 0.6549 0.0001 35.2951
#
#
#
# Elastic Compliance Matrix: (Units=1/GPa)
#
#
# Indices 1 2 3 4 5 6 
#
# 1 0.012057 -0.004619 -0.002182 0.000000 0.002459 0.000000
# 2 -0.004619 0.014044 -0.003747 0.000000 -0.001519 -0.000001
# 3 -0.002182 -0.003747 0.020635 0.000000 0.004897 0.000000
# 4 0.000000 0.000000 0.000000 0.034549 0.000000 -0.000641
# 5 0.002459 -0.001519 0.004897 0.000000 0.029186 0.000000
# 6 0.000000 -0.000001 0.000000 -0.000641 0.000000 0.028344
#
#
# Mechanical properties :
#
#
# Convention : Reuss Voigt Hill
#
# Bulk Modulus (GPa) = 39.00380 45.32419 42.16400
# Shear Modulus (GPa) = 29.68106 31.52131 30.60118
#
# Velocity S-wave (km/s) = 3.89182 4.01065 3.95168
# Velocity P-wave (km/s) = 6.33235 6.67653 6.50671
#
# Compressibility (1/GPa) = 0.02563853
#
# Stress axis : x y z
#
# Youngs Moduli (GPa) = 82.94183 71.20715 48.46130
#
# Poissons Ratio (x) = 0.32894 0.10576
# Poissons Ratio (y) = 0.38314 0.18156
# Poissons Ratio (z) = 0.18101 0.26678
#
# Static dielectric constant tensor:
#      x y z
#    x 4.039990 0.000000 -0.128480 
#    y 0.000000 4.091700 0.000000 
#    z -0.128480 0.000000 3.700870 
# 
# 
# High freq. dielectric constant tensor:
#      x y z
#    x 1.776680 0.000000 0.001340 
#    y 0.000000 1.772400 0.000000 
#    z 0.001340 0.000000 1.771550 
# 
# From -- ./inp_files/365385.got.cif
#   From: 2010.06.25/outbox.cif.g09.slc.cpg/sg12_183_cif.got.tgz:365385.got - 2010.06.28 00:19:55.
