data_PCOD8115424
_publ_section_title
;
Structure prediction by ZEFSAII (Michael W. Deem and Ramdas Pophale) SiO2 
 PCOD8115424
Probable space group: C 2/M
;
_chemical_formula_sum "Si O2"
_cell_formula_units_Z 52
_cell_length_a 10.381156
_cell_length_b 22.094215
_cell_length_c 14.757341
_cell_angle_alpha 90.000000
_cell_angle_beta 133.091077
_cell_angle_gamma 90.000000
_cell_volume 2471.809969
_symmetry_space_group_name_H-M "C 2/M"
_symmetry_group_IT_number 12
_symmetry_cell_setting 'monoclinic'
loop_
_space_group_symop_operation_xyz
x,y,z
-x,y,-z
-x,-y,-z
x,-y,z
1/2+x,1/2+y,z
1/2-x,1/2+y,-z
1/2-x,1/2-y,-z
1/2+x,1/2-y,z
loop_
_atom_site_type_symbol
_atom_site_label
_atom_site_fract_x
_atom_site_fract_y
_atom_site_fract_z
Si Si1 0.203191 0.569203 0.361262
Si Si2 0.000000 0.837401 0.500000
Si Si3 0.224980 0.000000 0.013423
Si Si4 0.587397 0.896240 0.635786
Si Si5 0.576023 0.769595 0.865616
Si Si6 0.479866 0.897150 0.095204
Si Si7 0.323901 0.500000 0.799588
Si Si8 0.318959 0.240357 0.283767
O O1 0.266296 0.500000 0.408661
O O2 0.350519 0.617046 0.465926
O O3 0.153133 0.575378 0.229470
O O4 0.032224 0.584121 0.337753
O O5 0.092628 0.794163 0.617063
O O6 0.317824 0.942169 0.016345
O O7 0.237945 0.000000 0.126867
O O8 0.029728 0.000000 0.883406
O O9 0.500000 0.913768 0.500000
O O10 0.760390 0.937882 0.723097
O O11 0.632795 0.825420 0.655850
O O12 0.573935 0.841362 0.868328
O O13 0.594582 0.748483 0.771788
O O14 0.393922 0.744294 0.820705
O O15 0.750000 0.750000 0.000000
O O16 0.500000 0.877515 0.000000
#
# Coordination Sequence:
#
# PCOD8115424 Si02
#       8
#     8   4   4   8   8   8   4   8
#     4  12  25  49  71 100 143 187 238 291 351 423
#     4  12  27  46  72 107 140 184 240 286 362 419
#     4  11  23  42  72  97 134 182 238 295 359 407
#     4  12  24  44  71 100 141 185 229 289 356 421
#     4  12  27  46  71 104 142 185 236 292 356 424
#     4  12  23  45  70  99 142 186 230 294 354 417
#     4  11  23  44  66 103 138 178 236 301 349 421
#     4  12  25  46  73 107 142 185 234 296 357 427
#
# _framework density 21.037215
#
# number of rings (size 3 to 8) (size 9 to 14) (size 15 to 20)
#    0.000    0.154    6.923    2.077    4.308    1.231 
#    2.769    0.000    0.000    0.000    0.000    0.000 
#    0.000    0.000    0.000    0.000    0.000    0.000 
#
# Total GULP energy -322341.609731 kJ/mol
# GULP energy per Si atom -12397.754220 kJ/mol
# Density = 2.098933 g / cm^3
# Si number density = 21.037215 Si / 1000 Ang^3
#
#
#
# Elastic Constant Matrix: (Units=GPa)
#
#
# Indices 1 2 3 4 5 6 
#
# 1 91.8705 38.6724 39.9533 0.0000 10.7665 0.0001
# 2 38.6724 142.2830 32.9797 0.0000 47.1770 0.0001
# 3 39.9533 32.9797 106.9539 0.0000 30.9970 0.0002
# 4 0.0000 0.0000 0.0000 49.4534 0.0000 17.0032
# 5 10.7665 47.1770 30.9970 0.0000 0.8138 0.0000
# 6 0.0001 0.0001 0.0002 17.0032 0.0000 33.1798
#
#
#
# Elastic Compliance Matrix: (Units=1/GPa)
#
#
# Indices 1 2 3 4 5 6 
#
# 1 0.013271 -0.000983 -0.002960 0.000000 -0.005845 0.000000
# 2 -0.000983 0.003348 -0.005161 0.000000 0.015514 0.000000
# 3 -0.002960 -0.005161 0.008569 0.000000 0.012003 0.000000
# 4 0.000000 0.000000 0.000000 0.024546 0.000000 -0.012579
# 5 -0.005845 0.015514 0.012003 0.000000 -0.050387 0.000000
# 6 0.000000 0.000000 0.000000 -0.012579 0.000000 0.036585
#
#
# Mechanical properties :
#
#
# Convention : Reuss Voigt Hill
#
# Bulk Modulus (GPa) = 143.29511 62.70202 102.99856
# Shear Modulus (GPa) = 88.54877 31.98952 60.26915
#
# Velocity S-wave (km/s) = 6.49483 3.90374 5.35827
# Velocity P-wave (km/s) = 11.15826 7.08441 9.34601
#
# Compressibility (1/GPa) = 0.00697861
#
# Stress axis : x y z
#
# Youngs Moduli (GPa) = 75.35217 298.70084 116.70556
#
# Poissons Ratio (x) = 0.29354 0.34549
# Poissons Ratio (y) = 0.07405 0.60235
# Poissons Ratio (z) = 0.22307 1.54168
#
# Static dielectric constant tensor:
#      x y z
#    x 3.788090 0.000000 0.001250 
#    y 0.000000 4.639120 0.000000 
#    z 0.001250 0.000000 3.967660 
# 
# 
# High freq. dielectric constant tensor:
#      x y z
#    x 1.815540 0.000000 0.003350 
#    y 0.000000 1.847160 0.000000 
#    z 0.003350 0.000000 1.835380 
# 
# From -- ./inp_files/207784.got.cif
#   From: 2010.06.25/outbox.cif.g09.slc.cpg/sg12_104_cif.got.tgz:207784.got - 2010.06.28 00:19:55.
