data_PCOD8115597
_publ_section_title
;
Structure prediction by ZEFSAII (Michael W. Deem and Ramdas Pophale) SiO2 
 PCOD8115597
Probable space group: C 2/M
;
_chemical_formula_sum "Si O2"
_cell_formula_units_Z 32
_cell_length_a 10.606103
_cell_length_b 27.610465
_cell_length_c 7.720748
_cell_angle_alpha 90.000000
_cell_angle_beta 39.346612
_cell_angle_gamma 90.000000
_cell_volume 1433.458713
_symmetry_space_group_name_H-M "C 2/M"
_symmetry_group_IT_number 12
_symmetry_cell_setting 'monoclinic'
loop_
_space_group_symop_operation_xyz
x,y,z
-x,y,-z
-x,-y,-z
x,-y,z
1/2+x,1/2+y,z
1/2-x,1/2+y,-z
1/2-x,1/2-y,-z
1/2+x,1/2-y,z
loop_
_atom_site_type_symbol
_atom_site_label
_atom_site_fract_x
_atom_site_fract_y
_atom_site_fract_z
Si Si1 0.747805 0.168817 0.484278
Si Si2 0.000000 0.096649 0.000000
Si Si3 0.000000 0.614191 0.000000
Si Si4 0.358294 0.943817 0.810211
Si Si5 0.474156 0.749781 0.712717
O O1 0.544380 0.194172 0.636252
O O2 0.904071 0.212880 0.297886
O O3 0.688356 0.146690 0.735647
O O4 0.829607 0.127039 0.275944
O O5 0.126098 0.065378 0.005446
O O6 0.078972 0.583675 0.080597
O O7 0.500000 0.928085 0.500000
O O8 0.385625 0.000000 0.822785
O O9 0.500000 0.725604 0.500000
O O10 0.250000 0.750000 0.000000
#
# Coordination Sequence:
#
# PCOD8115597 Si02
#       5
#     8   4   4   8   8
#     4  11  26  41  66 107 136 187 243 289 350 419
#     4  12  25  45  76 104 142 190 240 291 359 432
#     4  12  25  47  76 108 144 186 240 297 353 430
#     4  11  26  50  75 108 146 185 231 301 370 431
#     4  11  24  42  66  93 146 187 233 294 348 411
#
# _framework density 22.323627999999999
#
# number of rings (size 3 to 8) (size 9 to 14) (size 15 to 20)
#    0.000    0.750    2.500    3.750   10.500    4.000 
#    0.000    1.250    0.000    0.000    0.000    0.000 
#    0.000    0.000    0.000    0.000    0.000    0.000 
#
# Total GULP energy -198245.073958 kJ/mol
# GULP energy per Si atom -12390.317122 kJ/mol
# Density = 2.227282 g / cm^3
# Si number density = 22.323628 Si / 1000 Ang^3
#
#
#
# Elastic Constant Matrix: (Units=GPa)
#
#
# Indices 1 2 3 4 5 6 
#
# 1 129.7573 42.3724 54.3252 0.0000 -6.4030 0.0000
# 2 42.3724 98.8421 57.4256 0.0000 -5.5615 0.0000
# 3 54.3252 57.4256 172.4110 0.0000 -8.0691 0.0000
# 4 0.0000 0.0000 0.0000 37.2728 0.0000 5.9262
# 5 -6.4030 -5.5615 -8.0691 0.0000 41.5117 0.0000
# 6 0.0000 0.0000 0.0000 5.9262 0.0000 23.5732
#
#
#
# Elastic Compliance Matrix: (Units=1/GPa)
#
#
# Indices 1 2 3 4 5 6 
#
# 1 0.009521 -0.002875 -0.002010 0.000000 0.000693 0.000000
# 2 -0.002875 0.013444 -0.003541 0.000000 0.000670 0.000000
# 3 -0.002010 -0.003541 0.007646 0.000000 0.000702 0.000000
# 4 0.000000 0.000000 0.000000 0.027946 0.000000 -0.007026
# 5 0.000693 0.000670 0.000702 0.000000 0.024423 0.000000
# 6 0.000000 0.000000 0.000000 -0.007026 0.000000 0.044187
#
#
# Mechanical properties :
#
#
# Convention : Reuss Voigt Hill
#
# Bulk Modulus (GPa) = 72.67554 78.80629 75.74091
# Shear Modulus (GPa) = 33.64618 36.93069 35.28844
#
# Velocity S-wave (km/s) = 3.88648 4.07176 3.98020
# Velocity P-wave (km/s) = 7.26400 7.58182 7.42461
#
# Compressibility (1/GPa) = 0.01375979
#
# Stress axis : x y z
#
# Youngs Moduli (GPa) = 105.02857 74.38060 130.79331
#
# Poissons Ratio (x) = 0.21383 0.26291
# Poissons Ratio (y) = 0.30194 0.46311
# Poissons Ratio (z) = 0.21112 0.26337
#
# Static dielectric constant tensor:
#      x y z
#    x 3.967200 0.000000 0.011940 
#    y 0.000000 4.207680 0.000000 
#    z 0.011940 0.000000 4.119450 
# 
# 
# High freq. dielectric constant tensor:
#      x y z
#    x 1.875700 0.000000 -0.003450 
#    y 0.000000 1.886890 0.000000 
#    z -0.003450 0.000000 1.893620 
# 
# From -- ./inp_files/54547.got.cif
#   From: 2010.06.25/outbox.cif.g09.slc.cpg/sg12_28_cif.got.tgz:54547.got - 2010.06.28 00:19:55.
