data_PCOD8115441
_publ_section_title
;
Structure prediction by ZEFSAII (Michael W. Deem and Ramdas Pophale) SiO2 
 PCOD8115441
Probable space group: C 2/M
;
_chemical_formula_sum "Si O2"
_cell_formula_units_Z 48
_cell_length_a 19.912994
_cell_length_b 8.309752
_cell_length_c 13.495305
_cell_angle_alpha 90.000000
_cell_angle_beta 90.966313
_cell_angle_gamma 90.000000
_cell_volume 2232.778089
_symmetry_space_group_name_H-M "C 2/M"
_symmetry_group_IT_number 12
_symmetry_cell_setting 'monoclinic'
loop_
_space_group_symop_operation_xyz
x,y,z
-x,y,-z
-x,-y,-z
x,-y,z
1/2+x,1/2+y,z
1/2-x,1/2+y,-z
1/2-x,1/2-y,-z
1/2+x,1/2-y,z
loop_
_atom_site_type_symbol
_atom_site_label
_atom_site_fract_x
_atom_site_fract_y
_atom_site_fract_z
Si Si1 0.950252 0.686066 0.085861
Si Si2 0.807146 0.813278 0.073032
Si Si3 0.744990 0.813757 0.725961
Si Si4 0.989590 0.814645 0.293938
Si Si5 0.873675 0.685614 0.632540
Si Si6 0.862179 0.186286 0.416125
O O1 0.959965 0.500000 0.114322
O O2 0.874599 0.717063 0.047972
O O3 0.965773 0.794880 0.181019
O O4 0.000000 0.738713 0.000000
O O5 0.787432 0.786985 0.186309
O O6 0.819885 0.000000 0.054062
O O7 0.750000 0.750000 0.000000
O O8 0.819924 0.751176 0.709605
O O9 0.700210 0.788646 0.626722
O O10 0.747047 0.000000 0.755649
O O11 0.930576 0.756082 0.365429
O O12 0.053717 0.704725 0.316511
O O13 0.007935 0.000000 0.314688
O O14 0.859932 0.500000 0.608229
O O15 0.868621 0.788064 0.532751
O O16 0.848286 0.000000 0.393203
#
# Coordination Sequence:
#
# PCOD8115441 Si02
#       6
#     8   8   8   8   8   8
#     4  11  25  45  70 100 135 173 219 271 326 389
#     4  12  26  46  71 100 134 173 219 271 329 392
#     4  12  25  44  69  97 133 174 221 274 331 392
#     4  11  24  43  68  97 134 175 221 274 329 390
#     4  12  26  42  65  97 135 177 224 273 326 391
#     4  11  23  43  68  97 133 173 221 273 331 393
#
# _framework density 21.497882000000001
#
# number of rings (size 3 to 8) (size 9 to 14) (size 15 to 20)
#    0.000    0.500    1.667    7.000    2.333    5.333 
#    0.000    0.000    0.000    0.000    0.000    0.000 
#    0.000    0.000    0.000    0.000    0.000    0.000 
#
# Total GULP energy -297868.277952 kJ/mol
# GULP energy per Si atom -12411.178248 kJ/mol
# Density = 2.144895 g / cm^3
# Si number density = 21.497882 Si / 1000 Ang^3
#
#
#
# Elastic Constant Matrix: (Units=GPa)
#
#
# Indices 1 2 3 4 5 6 
#
# 1 131.8526 15.8885 39.1872 0.0000 -6.5885 0.0000
# 2 15.8885 76.0294 9.0556 0.0000 -8.5294 0.0000
# 3 39.1872 9.0556 86.5787 0.0000 -6.8576 0.0000
# 4 0.0000 0.0000 0.0000 35.2167 0.0000 4.6411
# 5 -6.5885 -8.5294 -6.8576 0.0000 44.9173 0.0000
# 6 0.0000 0.0000 0.0000 4.6411 0.0000 35.2321
#
#
#
# Elastic Compliance Matrix: (Units=1/GPa)
#
#
# Indices 1 2 3 4 5 6 
#
# 1 0.008917 -0.001352 -0.003858 0.000000 0.000462 0.000000
# 2 -0.001352 0.013772 -0.000645 0.000000 0.002318 0.000000
# 3 -0.003858 -0.000645 0.013472 0.000000 0.001368 0.000000
# 4 0.000000 0.000000 0.000000 0.028897 0.000000 -0.003807
# 5 0.000462 0.002318 0.001368 0.000000 0.022980 0.000000
# 6 0.000000 0.000000 0.000000 -0.003807 0.000000 0.028885
#
#
# Mechanical properties :
#
#
# Convention : Reuss Voigt Hill
#
# Bulk Modulus (GPa) = 40.89720 46.96926 43.93323
# Shear Modulus (GPa) = 36.55409 38.42851 37.49130
#
# Velocity S-wave (km/s) = 4.12801 4.23253 4.18060
# Velocity P-wave (km/s) = 6.46419 6.76620 6.61692
#
# Compressibility (1/GPa) = 0.02445155
#
# Stress axis : x y z
#
# Youngs Moduli (GPa) = 112.14736 72.60974 74.22698
#
# Poissons Ratio (x) = 0.09817 0.28636
# Poissons Ratio (y) = 0.15163 0.04787
# Poissons Ratio (z) = 0.43265 0.04683
#
# Static dielectric constant tensor:
#      x y z
#    x 4.104640 0.000000 -0.072390 
#    y 0.000000 3.821750 0.000000 
#    z -0.072390 0.000000 3.800950 
# 
# 
# High freq. dielectric constant tensor:
#      x y z
#    x 1.860820 0.000000 -0.002850 
#    y 0.000000 1.853160 0.000000 
#    z -0.002850 0.000000 1.846440 
# 
# From -- ./inp_files/221516.got.cif
#   From: 2010.06.25/outbox.cif.g09.slc.cpg/sg12_111_cif.got.tgz:221516.got - 2010.06.28 00:19:55.
