data_PCOD8115824
_publ_section_title
;
Structure prediction by ZEFSAII (Michael W. Deem and Ramdas Pophale) SiO2 
 PCOD8115824
Probable space group: C 2/M
;
_chemical_formula_sum "Si O2"
_cell_formula_units_Z 52
_cell_length_a 11.611543
_cell_length_b 24.778521
_cell_length_c 11.319801
_cell_angle_alpha 90.000000
_cell_angle_beta 127.448784
_cell_angle_gamma 90.000000
_cell_volume 2585.641863
_symmetry_space_group_name_H-M "C 2/M"
_symmetry_group_IT_number 12
_symmetry_cell_setting 'monoclinic'
loop_
_space_group_symop_operation_xyz
x,y,z
-x,y,-z
-x,-y,-z
x,-y,z
1/2+x,1/2+y,z
1/2-x,1/2+y,-z
1/2-x,1/2-y,-z
1/2+x,1/2-y,z
loop_
_atom_site_type_symbol
_atom_site_label
_atom_site_fract_x
_atom_site_fract_y
_atom_site_fract_z
Si Si1 0.261776 0.939451 0.334972
Si Si2 0.492281 0.060340 0.684986
Si Si3 0.498814 0.850286 0.864081
Si Si4 0.291460 0.694382 0.969580
Si Si5 0.208384 0.247944 0.278192
Si Si6 0.000000 0.811130 0.500000
Si Si7 0.062569 0.155396 0.288113
O O1 0.350450 0.923130 0.271767
O O2 0.372816 0.937512 0.510565
O O3 0.130310 0.899027 0.278248
O O4 0.197626 0.000000 0.281664
O O5 0.432922 0.100369 0.748818
O O6 0.503300 0.000000 0.744632
O O7 0.658813 0.845409 0.910531
O O8 0.407211 0.795953 0.793332
O O9 0.500000 0.868161 0.000000
O O10 0.317029 0.707626 0.848523
O O11 0.250000 0.750000 0.000000
O O12 0.429718 0.668905 0.119492
O O13 0.368585 0.270968 0.387637
O O14 0.174212 0.206480 0.363313
O O15 0.980573 0.850631 0.600628
#
# Coordination Sequence:
#
# PCOD8115824 Si02
#       7
#     8   8   8   8   8   4   8
#     4   9  20  41  64  86 113 152 197 246 299 343
#     4   9  20  39  62  87 116 149 197 249 291 348
#     4  12  21  36  60  84 117 159 195 236 293 351
#     4  12  22  40  56  83 121 161 199 233 290 352
#     4  12  23  39  58  84 120 160 195 238 293 353
#     4  12  24  36  53  92 125 144 194 246 290 354
#     4  12  23  37  61  86 117 159 195 243 294 350
#
# _framework density 20.111059000000001
#
# number of rings (size 3 to 8) (size 9 to 14) (size 15 to 20)
#    0.000    0.923    4.615    3.692    0.000    2.769 
#    0.000    1.154    0.000    6.462    0.000    0.000 
#    0.000    0.000    0.000    0.000    0.000    0.000 
#
# Total GULP energy -322305.956416 kJ/mol
# GULP energy per Si atom -12396.382939 kJ/mol
# Density = 2.006529 g / cm^3
# Si number density = 20.111059 Si / 1000 Ang^3
#
#
#
# Elastic Constant Matrix: (Units=GPa)
#
#
# Indices 1 2 3 4 5 6 
#
# 1 104.3738 67.2044 45.1176 0.0000 1.0194 0.0000
# 2 67.2044 106.7454 47.9790 0.0000 -6.5328 0.0000
# 3 45.1176 47.9790 76.2004 0.0000 1.4472 0.0000
# 4 0.0000 0.0000 0.0000 30.0297 0.0000 -5.3967
# 5 1.0194 -6.5328 1.4472 0.0000 42.1572 0.0000
# 6 0.0000 0.0000 0.0000 -5.3967 0.0000 74.7083
#
#
#
# Elastic Compliance Matrix: (Units=1/GPa)
#
#
# Indices 1 2 3 4 5 6 
#
# 1 0.017355 -0.008958 -0.004604 0.000000 -0.001650 0.000000
# 2 -0.008958 0.017918 -0.006039 0.000000 0.003201 0.000000
# 3 -0.004604 -0.006039 0.019680 0.000000 -0.001500 0.000000
# 4 0.000000 0.000000 0.000000 0.033738 0.000000 0.002437
# 5 -0.001650 0.003201 -0.001500 0.000000 0.024308 0.000000
# 6 0.000000 0.000000 0.000000 0.002437 0.000000 0.013561
#
#
# Mechanical properties :
#
#
# Convention : Reuss Voigt Hill
#
# Bulk Modulus (GPa) = 63.48627 67.54684 65.51655
# Shear Modulus (GPa) = 29.23749 37.84695 33.54222
#
# Velocity S-wave (km/s) = 3.81701 4.34279 4.08836
# Velocity P-wave (km/s) = 7.14580 7.66852 7.41177
#
# Compressibility (1/GPa) = 0.01575144
#
# Stress axis : x y z
#
# Youngs Moduli (GPa) = 57.61982 55.81015 50.81262
#
# Poissons Ratio (x) = 0.49994 0.23395
# Poissons Ratio (y) = 0.51615 0.30685
# Poissons Ratio (z) = 0.26529 0.33702
#
# Static dielectric constant tensor:
#      x y z
#    x 3.836220 0.000000 -0.071790 
#    y 0.000000 3.645330 0.000000 
#    z -0.071790 0.000000 3.559500 
# 
# 
# High freq. dielectric constant tensor:
#      x y z
#    x 1.796180 0.000000 -0.005860 
#    y 0.000000 1.775140 0.000000 
#    z -0.005860 0.000000 1.782660 
# 
# From -- ./inp_files/136008.got.cif
#   From: 2010.06.25/outbox.cif.g09.slc.cpg/sg12_69_cif.got.tgz:136008.got - 2010.06.28 00:19:55.
