data_PCOD8115382
_publ_section_title
;
Structure prediction by ZEFSAII (Michael W. Deem and Ramdas Pophale) SiO2 
 PCOD8115382
Probable space group: C 2/M
;
_chemical_formula_sum "Si O2"
_cell_formula_units_Z 64
_cell_length_a 15.516756
_cell_length_b 8.679557
_cell_length_c 23.620891
_cell_angle_alpha 90.000000
_cell_angle_beta 90.534830
_cell_angle_gamma 90.000000
_cell_volume 3181.089183
_symmetry_space_group_name_H-M "C 2/M"
_symmetry_group_IT_number 12
_symmetry_cell_setting 'monoclinic'
loop_
_space_group_symop_operation_xyz
x,y,z
-x,y,-z
-x,-y,-z
x,-y,z
1/2+x,1/2+y,z
1/2-x,1/2+y,-z
1/2-x,1/2-y,-z
1/2+x,1/2-y,z
loop_
_atom_site_type_symbol
_atom_site_label
_atom_site_fract_x
_atom_site_fract_y
_atom_site_fract_z
Si Si1 0.663716 0.679571 0.328815
Si Si2 0.002012 0.683065 0.135059
Si Si3 0.102302 0.677251 0.437643
Si Si4 0.659396 0.817675 0.935778
Si Si5 0.661939 0.182297 0.064533
Si Si6 0.599663 0.177274 0.565390
Si Si7 0.997923 0.681711 0.735917
Si Si8 0.659196 0.320824 0.675675
O O1 0.678212 0.500000 0.319752
O O2 0.655393 0.714774 0.395649
O O3 0.578179 0.732820 0.296729
O O4 0.745891 0.769124 0.303598
O O5 0.001033 0.500000 0.131438
O O6 0.086335 0.748106 0.103830
O O7 0.002528 0.739642 0.199507
O O8 0.917549 0.749050 0.103139
O O9 0.125785 0.500000 0.425278
O O10 0.127350 0.722258 0.501894
O O11 0.001482 0.703908 0.426895
O O12 0.748391 0.750292 0.912271
O O13 0.663730 0.000000 0.932223
O O14 0.643922 0.762909 0.000200
O O15 0.666752 0.000000 0.068046
O O16 0.650633 0.286597 0.608678
O O17 0.623070 0.000000 0.578245
O O18 0.983053 0.500000 0.730663
O O19 0.089338 0.723369 0.709574
O O20 0.645601 0.500000 0.687891
#
# Coordination Sequence:
#
# PCOD8115382 Si02
#       8
#     8   8   8   8   8   8   8   8
#     4  12  25  41  62  87 115 153 197 241 292 349
#     4   9  19  35  58  83 109 150 193 230 280 339
#     4   9  18  35  61  90 120 152 185 229 288 349
#     4   9  17  32  55  84 117 150 186 228 276 333
#     4   9  17  32  55  84 117 150 186 228 276 333
#     4   9  18  35  61  90 120 152 185 229 288 349
#     4  11  23  42  62  83 116 152 195 249 296 343
#     4  12  25  41  62  87 115 153 197 241 292 349
#
# _framework density 20.118894999999998
#
# number of rings (size 3 to 8) (size 9 to 14) (size 15 to 20)
#    0.000    2.000    1.250    3.750    0.000    3.500 
#    0.000    6.875    0.000    3.000    0.000    0.000 
#    0.000    0.000    0.000    0.000    0.000    0.000 
#
# Total GULP energy -396887.949069 kJ/mol
# GULP energy per Si atom -12402.748408 kJ/mol
# Density = 2.007310 g / cm^3
# Si number density = 20.118895 Si / 1000 Ang^3
#
#
#
# Elastic Constant Matrix: (Units=GPa)
#
#
# Indices 1 2 3 4 5 6 
#
# 1 126.0981 12.4391 59.6074 0.0000 -10.1155 0.0000
# 2 12.4391 48.5085 18.9302 0.0000 -0.1273 0.0000
# 3 59.6074 18.9302 113.9048 0.0000 -6.3121 0.0000
# 4 0.0000 0.0000 0.0000 19.4127 0.0000 -0.3948
# 5 -10.1155 -0.1273 -6.3121 0.0000 9.8909 0.0000
# 6 0.0000 0.0000 0.0000 -0.3948 0.0000 32.5754
#
#
#
# Elastic Compliance Matrix: (Units=1/GPa)
#
#
# Indices 1 2 3 4 5 6 
#
# 1 0.011134 -0.000785 -0.005251 0.000000 0.008025 0.000000
# 2 -0.000785 0.022143 -0.003419 0.000000 -0.002700 0.000000
# 3 -0.005251 -0.003419 0.012228 0.000000 0.002389 0.000000
# 4 0.000000 0.000000 0.000000 0.051525 0.000000 0.000625
# 5 0.008025 -0.002700 0.002389 0.000000 0.110801 0.000000
# 6 0.000000 0.000000 0.000000 0.000625 0.000000 0.030706
#
#
# Mechanical properties :
#
#
# Convention : Reuss Voigt Hill
#
# Bulk Modulus (GPa) = 37.60102 52.27386 44.93744
# Shear Modulus (GPa) = 18.77496 25.54476 22.15986
#
# Velocity S-wave (km/s) = 3.05815 3.56714 3.32240
# Velocity P-wave (km/s) = 5.58567 6.55781 6.09116
#
# Compressibility (1/GPa) = 0.02659502
#
# Stress axis : x y z
#
# Youngs Moduli (GPa) = 89.81609 45.16032 81.78013
#
# Poissons Ratio (x) = 0.03544 0.42945
# Poissons Ratio (y) = 0.07048 0.27961
# Poissons Ratio (z) = 0.47165 0.15440
#
# Static dielectric constant tensor:
#      x y z
#    x 3.746660 0.000000 -0.013620 
#    y 0.000000 3.378310 0.000000 
#    z -0.013620 0.000000 3.796280 
# 
# 
# High freq. dielectric constant tensor:
#      x y z
#    x 1.795240 0.000000 -0.001240 
#    y 0.000000 1.764090 0.000000 
#    z -0.001240 0.000000 1.782540 
# 
# From -- ./inp_files/338846.got.cif
#   From: 2010.06.25/outbox.cif.g09.slc.cpg/sg12_170_cif.got.tgz:338846.got - 2010.06.28 00:19:55.
