data_PCOD8115829
_publ_section_title
;
Structure prediction by ZEFSAII (Michael W. Deem and Ramdas Pophale) SiO2 
 PCOD8115829
Probable space group: C 2/M
;
_chemical_formula_sum "Si O2"
_cell_formula_units_Z 40
_cell_length_a 8.741374
_cell_length_b 30.913602
_cell_length_c 14.370775
_cell_angle_alpha 90.000000
_cell_angle_beta 34.045275
_cell_angle_gamma 90.000000
_cell_volume 2174.099940
_symmetry_space_group_name_H-M "C 2/M"
_symmetry_group_IT_number 12
_symmetry_cell_setting 'monoclinic'
loop_
_space_group_symop_operation_xyz
x,y,z
-x,y,-z
-x,-y,-z
x,-y,z
1/2+x,1/2+y,z
1/2-x,1/2+y,-z
1/2-x,1/2-y,-z
1/2+x,1/2-y,z
loop_
_atom_site_type_symbol
_atom_site_label
_atom_site_fract_x
_atom_site_fract_y
_atom_site_fract_z
Si Si1 0.482222 0.784091 0.902029
Si Si2 0.815343 0.431491 0.345455
Si Si3 0.178445 0.500000 0.816411
Si Si4 0.819985 0.652013 0.838286
Si Si5 0.190525 0.500000 0.495155
Si Si6 0.024779 0.725948 0.385642
O O1 0.409784 0.829472 0.892097
O O2 0.757968 0.764584 0.722314
O O3 0.500000 0.795032 0.000000
O O4 0.250000 0.750000 0.000000
O O5 0.500000 0.416504 0.500000
O O6 0.884440 0.458128 0.216380
O O7 0.871115 0.458647 0.410291
O O8 0.012330 0.391269 0.260500
O O9 0.491089 0.500000 0.693807
O O10 0.000000 0.500000 0.000000
O O11 0.890647 0.687860 0.725801
O O12 0.500000 0.641213 0.000000
O O13 0.000000 0.500000 0.500000
O O14 0.000000 0.704730 0.500000
O O15 0.750000 0.750000 0.500000
#
# Coordination Sequence:
#
# PCOD8115829 Si02
#       6
#     8   8   4   8   4   8
#     4  12  21  41  59  78 115 159 203 253 304 347
#     4   9  22  42  62  91 126 161 194 244 299 357
#     4   9  19  41  70  94 124 157 197 233 300 370
#     4  12  25  40  59  88 124 158 206 255 298 355
#     4   9  19  41  70  94 124 157 193 241 298 362
#     4  12  23  37  59  84 111 155 209 253 302 353
#
# _framework density 18.398417999999999
#
# number of rings (size 3 to 8) (size 9 to 14) (size 15 to 20)
#    0.000    1.200    6.000    1.200    2.800    3.200 
#    0.000    6.000    0.000    0.000    0.000    0.000 
#    0.000    0.000    0.000    0.000    0.000    0.000 
#
# Total GULP energy -247966.680535 kJ/mol
# GULP energy per Si atom -12398.334027 kJ/mol
# Density = 1.835654 g / cm^3
# Si number density = 18.398418 Si / 1000 Ang^3
#
#
#
# Elastic Constant Matrix: (Units=GPa)
#
#
# Indices 1 2 3 4 5 6 
#
# 1 151.1348 55.0720 68.5451 0.0000 3.5735 0.0000
# 2 55.0720 119.6731 63.1609 0.0000 -15.6739 0.0000
# 3 68.5451 63.1609 136.4398 0.0000 -8.3014 0.0000
# 4 0.0000 0.0000 0.0000 32.1086 0.0000 -7.0416
# 5 3.5735 -15.6739 -8.3014 0.0000 44.9470 0.0000
# 6 0.0000 0.0000 0.0000 -7.0416 0.0000 19.1215
#
#
#
# Elastic Compliance Matrix: (Units=1/GPa)
#
#
# Indices 1 2 3 4 5 6 
#
# 1 0.009263 -0.002696 -0.003547 0.000000 -0.002332 0.000000
# 2 -0.002696 0.012241 -0.004086 0.000000 0.003729 0.000000
# 3 -0.003547 -0.004086 0.011057 0.000000 0.000900 0.000000
# 4 0.000000 0.000000 0.000000 0.033881 0.000000 0.012477
# 5 -0.002332 0.003729 0.000900 0.000000 0.023900 0.000000
# 6 0.000000 0.000000 0.000000 0.012477 0.000000 0.056892
#
#
# Mechanical properties :
#
#
# Convention : Reuss Voigt Hill
#
# Bulk Modulus (GPa) = 84.00536 86.75595 85.38065
# Shear Modulus (GPa) = 29.09345 33.93339 31.51342
#
# Velocity S-wave (km/s) = 3.98087 4.29927 4.14313
# Velocity P-wave (km/s) = 8.17850 8.47946 8.33034
#
# Compressibility (1/GPa) = 0.01190400
#
# Stress axis : x y z
#
# Youngs Moduli (GPa) = 107.95657 81.69078 90.43654
#
# Poissons Ratio (x) = 0.22022 0.32082
# Poissons Ratio (y) = 0.29103 0.36949
# Poissons Ratio (z) = 0.38298 0.33375
#
# Static dielectric constant tensor:
#      x y z
#    x 3.473570 0.000000 0.007980 
#    y 0.000000 3.071170 0.000000 
#    z 0.007980 0.000000 3.526970 
# 
# 
# High freq. dielectric constant tensor:
#      x y z
#    x 1.730660 0.000000 -0.001550 
#    y 0.000000 1.702230 0.000000 
#    z -0.001550 0.000000 1.727190 
# 
# From -- ./inp_files/68481.got.cif
#   From: 2010.06.25/outbox.cif.g09.slc.cpg/sg12_35_cif.got.tgz:68481.got - 2010.06.28 00:19:55.
