data_PCOD8115701
_publ_section_title
;
Structure prediction by ZEFSAII (Michael W. Deem and Ramdas Pophale) SiO2 
 PCOD8115701
Probable space group: C 2/M
;
_chemical_formula_sum "Si O2"
_cell_formula_units_Z 48
_cell_length_a 16.313650
_cell_length_b 16.148118
_cell_length_c 19.969493
_cell_angle_alpha 90.000000
_cell_angle_beta 152.213013
_cell_angle_gamma 90.000000
_cell_volume 2452.443791
_symmetry_space_group_name_H-M "C 2/M"
_symmetry_group_IT_number 12
_symmetry_cell_setting 'monoclinic'
loop_
_space_group_symop_operation_xyz
x,y,z
-x,y,-z
-x,-y,-z
x,-y,z
1/2+x,1/2+y,z
1/2-x,1/2+y,-z
1/2-x,1/2-y,-z
1/2+x,1/2-y,z
loop_
_atom_site_type_symbol
_atom_site_label
_atom_site_fract_x
_atom_site_fract_y
_atom_site_fract_z
Si Si1 0.047826 0.851114 0.214454
Si Si2 0.019373 0.663087 0.158848
Si Si3 0.642352 0.595266 0.655957
Si Si4 0.292016 0.000000 0.359961
Si Si5 0.294391 0.500000 0.851627
Si Si6 0.815236 0.177023 0.169603
Si Si7 0.212412 0.638701 0.885493
O O1 0.089142 0.758115 0.217039
O O2 0.977675 0.848707 0.239845
O O3 0.213687 0.914678 0.336156
O O4 0.892776 0.883440 0.054361
O O5 0.173628 0.603146 0.248551
O O6 0.948177 0.632411 0.178862
O O7 0.869372 0.646942 0.994710
O O8 0.500000 0.630203 0.500000
O O9 0.603679 0.500000 0.645472
O O10 0.644725 0.645403 0.727055
O O11 0.500000 0.000000 0.500000
O O12 0.226382 0.000000 0.239847
O O13 0.193931 0.576635 0.811464
O O14 0.500000 0.500000 0.000000
O O15 0.792390 0.274707 0.155326
#
# Coordination Sequence:
#
# PCOD8115701 Si02
#       7
#     8   8   8   4   4   8   8
#     4   9  19  40  62  88 123 152 201 252 303 354
#     4   9  20  39  65  89 116 153 204 259 294 355
#     4  11  25  41  56  86 125 161 201 245 302 361
#     4  12  26  40  56  93 128 165 203 242 299 374
#     4  12  22  36  62  89 124 161 195 254 315 350
#     4   9  20  39  66  89 113 157 204 255 300 354
#     4   9  19  38  63  93 116 152 200 252 310 353
#
# _framework density 19.572315
#
# number of rings (size 3 to 8) (size 9 to 14) (size 15 to 20)
#    0.000    2.167    1.667    2.500    4.667    2.000 
#    3.000    1.667    0.000    0.000    0.000    0.000 
#    0.000    0.000    0.000    0.000    0.000    0.000 
#
# Total GULP energy -297329.863325 kJ/mol
# GULP energy per Si atom -12388.744305 kJ/mol
# Density = 1.952777 g / cm^3
# Si number density = 19.572315 Si / 1000 Ang^3
#
#
#
# Elastic Constant Matrix: (Units=GPa)
#
#
# Indices 1 2 3 4 5 6 
#
# 1 104.6576 41.6477 48.3933 0.0079 -0.3746 0.0263
# 2 41.6477 70.5750 32.0292 0.0006 6.8215 0.0408
# 3 48.3933 32.0292 91.7592 -0.0281 3.4981 -0.0002
# 4 0.0079 0.0006 -0.0281 26.8263 -0.0067 1.0402
# 5 -0.3746 6.8215 3.4981 -0.0067 30.2468 0.0016
# 6 0.0263 0.0408 -0.0002 1.0402 0.0016 34.9521
#
#
#
# Elastic Compliance Matrix: (Units=1/GPa)
#
#
# Indices 1 2 3 4 5 6 
#
# 1 0.014681 -0.006332 -0.005618 -0.000009 0.002260 -0.000004
# 2 -0.006332 0.019868 -0.003437 -0.000002 -0.004162 -0.000018
# 3 -0.005618 -0.003437 0.015101 0.000017 -0.001041 0.000008
# 4 -0.000009 -0.000002 0.000017 0.037320 0.000007 -0.001111
# 5 0.002260 -0.004162 -0.001041 0.000007 0.034148 0.000001
# 6 -0.000004 -0.000018 0.000008 -0.001111 0.000001 0.028644
#
#
# Mechanical properties :
#
#
# Convention : Reuss Voigt Hill
#
# Bulk Modulus (GPa) = 52.98134 56.79246 54.88690
# Shear Modulus (GPa) = 26.76263 28.06649 27.41456
#
# Velocity S-wave (km/s) = 3.70181 3.79091 3.74663
# Velocity P-wave (km/s) = 6.73792 6.94558 6.84254
#
# Compressibility (1/GPa) = 0.01887457
#
# Stress axis : x y z
#
# Youngs Moduli (GPa) = 68.11622 50.33217 66.22241
#
# Poissons Ratio (x) = 0.31870 0.37207
# Poissons Ratio (y) = 0.43131 0.22760
# Poissons Ratio (z) = 0.38271 0.17299
#
# Static dielectric constant tensor:
#      x y z
#    x 3.703340 -0.000020 -0.000240 
#    y -0.000020 3.683400 -0.000100 
#    z -0.000240 -0.000100 3.349600 
# 
# 
# High freq. dielectric constant tensor:
#      x y z
#    x 1.778050 0.000000 -0.000110 
#    y 0.000000 1.764770 0.000000 
#    z -0.000110 0.000000 1.736430 
# 
# From -- ./inp_files/271824.got.cif
#   From: 2010.06.25/outbox.cif.g09.slc.cpg/sg12_136_cif.got.tgz:271824.got - 2010.06.28 00:19:55.
