data_PCOD8115322
_publ_section_title
;
Structure prediction by ZEFSAII (Michael W. Deem and Ramdas Pophale) SiO2 
 PCOD8115322
Probable space group: C 2/M
;
_chemical_formula_sum "Si O2"
_cell_formula_units_Z 64
_cell_length_a 10.931419
_cell_length_b 18.374907
_cell_length_c 14.984122
_cell_angle_alpha 90.000000
_cell_angle_beta 107.578383
_cell_angle_gamma 90.000000
_cell_volume 2869.225728
_symmetry_space_group_name_H-M "C 2/M"
_symmetry_group_IT_number 12
_symmetry_cell_setting 'monoclinic'
loop_
_space_group_symop_operation_xyz
x,y,z
-x,y,-z
-x,-y,-z
x,-y,z
1/2+x,1/2+y,z
1/2-x,1/2+y,-z
1/2-x,1/2-y,-z
1/2+x,1/2-y,z
loop_
_atom_site_type_symbol
_atom_site_label
_atom_site_fract_x
_atom_site_fract_y
_atom_site_fract_z
Si Si1 0.149285 0.835285 0.550817
Si Si2 0.678528 0.915131 0.283431
Si Si3 0.766352 0.866334 0.117751
Si Si4 0.409670 0.857568 0.263198
Si Si5 0.762938 0.918295 0.925534
Si Si6 0.249195 0.177233 0.389826
Si Si7 0.617053 0.269660 0.082800
Si Si8 0.501229 0.292208 0.764333
O O1 0.191625 0.884670 0.643613
O O2 0.238533 0.858583 0.485712
O O3 0.173733 0.752149 0.583830
O O4 0.000000 0.848646 0.500000
O O5 0.679010 0.896674 0.178358
O O6 0.556896 0.880303 0.307729
O O7 0.672594 0.000000 0.296357
O O8 0.735204 0.782500 0.083490
O O9 0.916573 0.861427 0.180393
O O10 0.735189 0.916683 0.025664
O O11 0.357646 0.901024 0.165178
O O12 0.323956 0.873318 0.333471
O O13 0.400859 0.770397 0.247567
O O14 0.866575 0.855637 0.930587
O O15 0.812732 0.000000 0.913842
O O16 0.097904 0.185104 0.333766
O O17 0.589175 0.257526 0.180228
O O18 0.500000 0.239945 0.000000
#
# Coordination Sequence:
#
# PCOD8115322 Si02
#       8
#     8   8   8   8   8   8   8   8
#     4  11  24  44  71 106 135 168 225 282 341 399
#     4  12  27  46  67  97 140 180 222 279 342 406
#     4  12  24  43  70  98 130 187 235 277 330 394
#     4  12  23  43  67 100 138 176 225 279 339 398
#     4  12  26  42  62  97 142 181 226 279 335 399
#     4  11  23  40  74 105 132 170 221 288 339 398
#     4  12  22  39  64  96 132 175 228 280 331 386
#     4  12  20  41  70 100 132 169 228 290 331 389
#
# _framework density 22.305669999999999
#
# number of rings (size 3 to 8) (size 9 to 14) (size 15 to 20)
#    0.000    0.250    6.250    4.125    1.750    0.500 
#    0.000    3.125    0.000    0.000    0.000    0.000 
#    0.000    0.000    0.000    0.000    0.000    0.000 
#
# Total GULP energy -396693.155127 kJ/mol
# GULP energy per Si atom -12396.661098 kJ/mol
# Density = 2.225490 g / cm^3
# Si number density = 22.305670 Si / 1000 Ang^3
#
#
#
# Elastic Constant Matrix: (Units=GPa)
#
#
# Indices 1 2 3 4 5 6 
#
# 1 86.5157 24.8790 37.5614 0.0000 1.5249 0.0000
# 2 24.8790 66.3577 18.0292 0.0000 -2.1286 0.0000
# 3 37.5614 18.0292 123.9719 0.0000 -8.8835 0.0000
# 4 0.0000 0.0000 0.0000 18.5762 0.0000 1.4732
# 5 1.5249 -2.1286 -8.8835 0.0000 46.2616 0.0000
# 6 0.0000 0.0000 0.0000 1.4732 0.0000 23.4112
#
#
#
# Elastic Compliance Matrix: (Units=1/GPa)
#
#
# Indices 1 2 3 4 5 6 
#
# 1 0.014539 -0.004448 -0.003860 0.000000 -0.001425 0.000000
# 2 -0.004448 0.017054 -0.001081 0.000000 0.000724 0.000000
# 3 -0.003860 -0.001081 0.009530 0.000000 0.001908 0.000000
# 4 0.000000 0.000000 0.000000 0.054102 0.000000 -0.003405
# 5 -0.001425 0.000724 0.001908 0.000000 0.022063 0.000000
# 6 0.000000 0.000000 0.000000 -0.003405 0.000000 0.042929
#
#
# Mechanical properties :
#
#
# Convention : Reuss Voigt Hill
#
# Bulk Modulus (GPa) = 44.75233 48.64274 46.69754
# Shear Modulus (GPa) = 26.81787 30.74149 28.77968
#
# Velocity S-wave (km/s) = 3.47117 3.71643 3.59589
# Velocity P-wave (km/s) = 6.01432 6.34590 6.18234
#
# Compressibility (1/GPa) = 0.02234520
#
# Stress axis : x y z
#
# Youngs Moduli (GPa) = 68.78186 58.63638 104.93402
#
# Poissons Ratio (x) = 0.26080 0.40507
# Poissons Ratio (y) = 0.30593 0.11341
# Poissons Ratio (z) = 0.26552 0.06337
#
# Static dielectric constant tensor:
#      x y z
#    x 3.872660 0.000000 -0.104780 
#    y 0.000000 3.617480 0.000000 
#    z -0.104780 0.000000 3.991790 
# 
# 
# High freq. dielectric constant tensor:
#      x y z
#    x 1.879010 0.000000 -0.000620 
#    y 0.000000 1.836550 0.000000 
#    z -0.000620 0.000000 1.902790 
# 
# From -- ./inp_files/207726.got.cif
#   From: 2010.06.25/outbox.cif.g09.slc.cpg/sg12_104_cif.got.tgz:207726.got - 2010.06.28 00:19:55.
