data_PCOD8115194
_publ_section_title
;
Structure prediction by ZEFSAII (Michael W. Deem and Ramdas Pophale) SiO2 
 PCOD8115194
Probable space group: C 2/M
;
_chemical_formula_sum "Si O2"
_cell_formula_units_Z 40
_cell_length_a 22.484732
_cell_length_b 8.777369
_cell_length_c 15.086657
_cell_angle_alpha 90.000000
_cell_angle_beta 138.575136
_cell_angle_gamma 90.000000
_cell_volume 1969.994813
_symmetry_space_group_name_H-M "C 2/M"
_symmetry_group_IT_number 12
_symmetry_cell_setting 'monoclinic'
loop_
_space_group_symop_operation_xyz
x,y,z
-x,y,-z
-x,-y,-z
x,-y,z
1/2+x,1/2+y,z
1/2-x,1/2+y,-z
1/2-x,1/2-y,-z
1/2+x,1/2-y,z
loop_
_atom_site_type_symbol
_atom_site_label
_atom_site_fract_x
_atom_site_fract_y
_atom_site_fract_z
Si Si1 0.487290 0.820227 0.725385
Si Si2 0.053198 0.826409 0.969247
Si Si3 0.804055 0.820173 0.478915
Si Si4 0.823604 0.678663 0.146756
Si Si5 0.260330 0.822231 0.785945
O O1 0.402251 0.752897 0.578740
O O2 0.576796 0.774747 0.772391
O O3 0.476177 0.000000 0.724193
O O4 0.488170 0.742646 0.822514
O O5 0.141689 0.725092 0.072038
O O6 0.079718 0.000000 0.976198
O O7 0.000000 0.815997 0.000000
O O8 0.750000 0.750000 0.500000
O O9 0.752233 0.778168 0.330611
O O10 0.812049 0.000000 0.501853
O O11 0.809827 0.500000 0.128289
O O12 0.812900 0.737404 0.235161
O O13 0.750000 0.750000 0.000000
O O14 0.248127 0.000000 0.788222
#
# Coordination Sequence:
#
# PCOD8115194 Si02
#       5
#     8   8   8   8   8
#     4  11  24  41  64  93 126 166 210 260 318 377
#     4  11  23  38  61  92 123 162 212 263 317 377
#     4  11  25  44  66  93 129 170 212 262 318 378
#     4  11  23  40  65  95 128 166 210 265 318 374
#     4  11  24  41  63  92 126 167 211 260 319 377
#
# _framework density 20.304621999999998
#
# number of rings (size 3 to 8) (size 9 to 14) (size 15 to 20)
#    0.000    1.000    2.000    4.200    0.000   11.200 
#    0.000    4.000    0.000    0.000    0.000    0.000 
#    0.000    0.000    0.000    0.000    0.000    0.000 
#
# Total GULP energy -248135.852224 kJ/mol
# GULP energy per Si atom -12406.792611 kJ/mol
# Density = 2.025841 g / cm^3
# Si number density = 20.304622 Si / 1000 Ang^3
#
#
#
# Elastic Constant Matrix: (Units=GPa)
#
#
# Indices 1 2 3 4 5 6 
#
# 1 101.4585 47.7819 23.7896 0.0000 -0.9359 0.0000
# 2 47.7819 84.1618 24.3940 0.0000 -1.9978 0.0000
# 3 23.7896 24.3940 65.5106 0.0000 2.6188 0.0000
# 4 0.0000 0.0000 0.0000 37.6094 0.0000 0.9512
# 5 -0.9359 -1.9978 2.6188 0.0000 37.4686 0.0000
# 6 0.0000 0.0000 0.0000 0.9512 0.0000 35.9715
#
#
#
# Elastic Compliance Matrix: (Units=1/GPa)
#
#
# Indices 1 2 3 4 5 6 
#
# 1 0.013767 -0.007132 -0.002349 0.000000 0.000128 0.000000
# 2 -0.007132 0.017057 -0.003801 0.000000 0.000997 0.000000
# 3 -0.002349 -0.003801 0.017593 0.000000 -0.001491 0.000000
# 4 0.000000 0.000000 0.000000 0.026607 0.000000 -0.000704
# 5 0.000128 0.000997 -0.001491 0.000000 0.026850 0.000000
# 6 0.000000 0.000000 0.000000 -0.000704 0.000000 0.027818
#
#
# Mechanical properties :
#
#
# Convention : Reuss Voigt Hill
#
# Bulk Modulus (GPa) = 45.76224 49.22908 47.49566
# Shear Modulus (GPa) = 30.57367 32.55426 31.56397
#
# Velocity S-wave (km/s) = 3.88461 4.00846 3.94702
# Velocity P-wave (km/s) = 6.53506 6.76177 6.64938
#
# Compressibility (1/GPa) = 0.02185207
#
# Stress axis : x y z
#
# Youngs Moduli (GPa) = 72.63695 58.62842 56.84201
#
# Poissons Ratio (x) = 0.41816 0.13350
# Poissons Ratio (y) = 0.51807 0.21606
# Poissons Ratio (z) = 0.17060 0.22285
#
# Static dielectric constant tensor:
#      x y z
#    x 3.815960 0.000000 -0.162570 
#    y 0.000000 3.865640 0.000000 
#    z -0.162570 0.000000 3.631700 
# 
# 
# High freq. dielectric constant tensor:
#      x y z
#    x 1.807680 0.000000 -0.001630 
#    y 0.000000 1.809580 0.000000 
#    z -0.001630 0.000000 1.795400 
# 
# From -- ./inp_files/230615.got.cif
#   From: 2010.06.25/outbox.cif.g09.slc.cpg/sg12_116_cif.got.tgz:230615.got - 2010.06.28 00:19:55.
