data_PCOD8116264
_publ_section_title
;
Structure prediction by ZEFSAII (Michael W. Deem and Ramdas Pophale) SiO2 
 PCOD8116264
Probable space group: C 2/M
;
_chemical_formula_sum "Si O2"
_cell_formula_units_Z 32
_cell_length_a 18.000000
_cell_length_b 9.000000
_cell_length_c 30.000000
_cell_angle_alpha 90.000000
_cell_angle_beta 40.000000
_cell_angle_gamma 90.000000
_cell_volume 3123.947783
_symmetry_space_group_name_H-M "C 2/M"
_symmetry_group_IT_number 12
_symmetry_cell_setting 'monoclinic'
loop_
_space_group_symop_operation_xyz
x,y,z
-x,y,-z
-x,-y,-z
x,-y,z
1/2+x,1/2+y,z
1/2-x,1/2+y,-z
1/2-x,1/2-y,-z
1/2+x,1/2-y,z
loop_
_atom_site_type_symbol
_atom_site_label
_atom_site_fract_x
_atom_site_fract_y
_atom_site_fract_z
Si Si1 0.423056 0.670003 0.638972
Si Si2 0.666863 0.327407 0.503975
Si Si3 0.580070 0.675676 0.001994
Si Si4 0.338649 0.825009 0.862391
Si Si5 0.934364 0.832273 0.734012
Si Si6 0.349108 0.166824 0.352813
Si Si7 0.510656 0.324243 0.131074
Si Si8 0.181689 0.670876 0.733440
O O1 0.440416 0.500000 0.617610
O O2 0.540420 0.749490 0.568108
O O3 0.382189 0.685795 0.709094
O O4 0.311010 0.733481 0.665449
O O5 0.660735 0.500000 0.519435
O O6 0.750000 0.250000 0.500000
O O7 0.717997 0.302988 0.430353
O O8 0.565080 0.500000 0.009855
O O9 0.545352 0.738452 0.066531
O O10 0.500000 0.744882 0.000000
O O11 0.708500 0.724315 0.931249
O O12 0.371287 0.774827 0.797748
O O13 0.411292 0.748169 0.867214
O O14 0.357658 0.000000 0.857276
O O15 0.067216 0.787199 0.663761
O O16 0.926952 0.000000 0.755559
O O17 0.375540 0.183336 0.288427
O O18 0.383788 0.000000 0.351762
O O19 0.522689 0.500000 0.127968
O O20 0.380546 0.273533 0.201465
O O21 0.181888 0.500000 0.750293
#
# Coordination Sequence:
#
# PCOD8116264 Si02
#       8
#     8   8   8   8   8   8   8   8
#     4   9  20  36  55  81 115 152 188 236 290 336
#     4  10  19  34  55  81 110 148 194 238 287 338
#     4   9  21  40  60  86 118 150 187 232 281 332
#     4  11  22  38  62  86 114 152 191 234 279 333
#     4  11  21  35  57  84 116 150 189 236 284 336
#     4  10  20  34  57  84 111 147 194 238 280 340
#     4  11  22  38  62  87 114 151 192 233 280 336
#     4  10  21  38  57  82 117 152 189 234 286 339
#
# _framework density 10.243449
#
# number of rings (size 3 to 8) (size 9 to 14) (size 15 to 20)
#    0.000    1.875    2.500    1.500    1.750    0.500 
#    0.000    5.625    0.000    3.000    0.000    2.625 
#    0.000    0.000    0.000    0.000    0.000    0.000 
#
# Total GULP energy -396531.164353 kJ/mol
# GULP energy per Si atom -12391.598886 kJ/mol
# Density = 1.022013 g / cm^3
# Si number density = 10.243449 Si / 1000 Ang^3
#
#
#
# Elastic Constant Matrix: (Units=GPa)
#
#
# Indices 1 2 3 4 5 6 
#
# 1 22.0617 16.0618 18.3175 0.0017 -7.7312 0.0054
# 2 16.0618 48.7412 31.6738 0.0027 1.8449 0.0031
# 3 18.3175 31.6738 132.8924 0.0010 -1.7176 0.0014
# 4 0.0017 0.0027 0.0010 18.5702 0.0002 1.4693
# 5 -7.7312 1.8449 -1.7176 0.0002 26.1091 0.0008
# 6 0.0054 0.0031 0.0014 1.4693 0.0008 13.0747
#
#
#
# Elastic Compliance Matrix: (Units=1/GPa)
#
#
# Indices 1 2 3 4 5 6 
#
# 1 0.073167 -0.022029 -0.004538 -0.000001 0.022924 -0.000026
# 2 -0.022029 0.031025 -0.004474 -0.000002 -0.009010 0.000003
# 3 -0.004538 -0.004474 0.009211 0.000000 -0.000422 0.000002
# 4 -0.000001 -0.000002 0.000000 0.054333 0.000000 -0.006106
# 5 0.022924 -0.009010 -0.000422 0.000000 0.045698 -0.000010
# 6 -0.000026 0.000003 0.000002 -0.006106 -0.000010 0.077170
#
#
# Mechanical properties :
#
#
# Convention : Reuss Voigt Hill
#
# Bulk Modulus (GPa) = 19.48601 37.31127 28.39864
# Shear Modulus (GPa) = 13.52103 20.72695 17.12399
#
# Velocity S-wave (km/s) = 2.57180 3.18420 2.89424
# Velocity P-wave (km/s) = 4.28381 5.63655 5.00608
#
# Compressibility (1/GPa) = 0.05131887
#
# Stress axis : x y z
#
# Youngs Moduli (GPa) = 13.66731 32.23250 108.56081
#
# Poissons Ratio (x) = 0.71006 0.49268
# Poissons Ratio (y) = 0.30108 0.48575
# Poissons Ratio (z) = 0.06203 0.14422
#
# Static dielectric constant tensor:
#      x y z
#    x 3.640470 0.000000 -0.024450 
#    y 0.000000 3.446350 0.000000 
#    z -0.024450 0.000000 4.356750 
# 
# 
# High freq. dielectric constant tensor:
#      x y z
#    x 1.784910 0.000000 0.002180 
#    y 0.000000 1.765810 0.000000 
#    z 0.002180 0.000000 1.821450 
# 
# From -- ./inp_files/378097.got.cif
#   From: 2010.06.25/outbox.ucp.g09.slc.cvg/sg12_190_cif.got.tgz:378097.got - 2010.06.28 13:50:54.
