data_PCOD8116870
_publ_section_title
;
Structure prediction by ZEFSAII (Michael W. Deem and Ramdas Pophale) SiO2 
 PCOD8116870
Probable space group: P 2/C
;
_chemical_formula_sum "Si O2"
_cell_formula_units_Z 24
_cell_length_a 16.156029
_cell_length_b 5.263146
_cell_length_c 25.019974
_cell_angle_alpha 90.000000
_cell_angle_beta 30.144972
_cell_angle_gamma 90.000000
_cell_volume 1068.401900
_symmetry_space_group_name_H-M "P 2/C"
_symmetry_group_IT_number 13
_symmetry_cell_setting 'monoclinic'
loop_
_space_group_symop_operation_xyz
x,y,z
-x,y,1/2-z
-x,-y,-z
x,-y,1/2+z
loop_
_atom_site_type_symbol
_atom_site_label
_atom_site_fract_x
_atom_site_fract_y
_atom_site_fract_z
Si Si1 0.332459 0.697076 0.482655
Si Si2 0.315902 0.292580 0.660274
Si Si3 0.679426 0.392991 0.633920
Si Si4 0.654025 0.798687 0.479297
Si Si5 0.817834 0.889353 0.603359
Si Si6 0.281970 0.796208 0.722884
O O1 0.524834 0.675964 0.390780
O O2 0.305530 0.704923 0.434770
O O3 0.245089 0.442524 0.554419
O O4 0.250450 0.942735 0.557562
O O5 0.374509 0.240530 0.567495
O O6 0.215021 0.554372 0.725996
O O7 0.204189 0.055208 0.741852
O O8 0.500000 0.496620 0.750000
O O9 0.797950 0.640175 0.576191
O O10 0.708111 0.137137 0.652290
O O11 0.478696 0.823195 0.606848
O O12 0.770963 0.771612 0.686617
O O13 0.000000 0.000000 0.500000
#
# Coordination Sequence:
#
# PCOD8116870 Si02
#       6
#     4   4   4   4   4   4
#     4  10  18  29  49  80 116 149 186 241 309 359
#     4  10  18  30  52  86 121 150 189 255 314 362
#     4  12  23  40  64  92 123 164 217 277 323 371
#     4  10  17  30  51  86 123 150 186 254 315 364
#     4  12  26  43  61  88 129 175 216 259 322 400
#     4  10  18  32  51  76 111 154 199 242 294 360
#
# _framework density 22.463456999999998
#
# number of rings (size 3 to 8) (size 9 to 14) (size 15 to 20)
#    0.000    1.333    0.000   12.000    0.000    0.000 
#    0.000    0.000    0.000    0.000    0.000   28.000 
#    0.000    0.000    0.000    0.000    0.000    0.000 
#
# Total GULP energy -297341.704642 kJ/mol
# GULP energy per Si atom -12389.237693 kJ/mol
# Density = 2.241233 g / cm^3
# Si number density = 22.463457 Si / 1000 Ang^3
#
#
#
# Elastic Constant Matrix: (Units=GPa)
#
#
# Indices 1 2 3 4 5 6 
#
# 1 69.7594 42.8233 53.3916 0.0000 23.4490 0.0000
# 2 42.8233 242.4899 28.2810 0.0000 18.0734 0.0000
# 3 53.3916 28.2810 63.8731 0.0000 28.3766 0.0000
# 4 0.0000 0.0000 0.0000 28.9315 0.0000 15.2665
# 5 23.4490 18.0734 28.3766 0.0000 28.4659 0.0000
# 6 0.0000 0.0000 0.0000 15.2665 0.0000 34.4689
#
#
#
# Elastic Compliance Matrix: (Units=1/GPa)
#
#
# Indices 1 2 3 4 5 6 
#
# 1 0.042562 -0.003598 -0.034863 0.000000 0.001977 0.000000
# 2 -0.003598 0.004689 0.001682 0.000000 -0.001690 0.000000
# 3 -0.034863 0.001682 0.057023 0.000000 -0.029193 0.000000
# 4 0.000000 0.000000 0.000000 0.045106 0.000000 -0.019978
# 5 0.001977 -0.001690 -0.029193 0.000000 0.063676 0.000000
# 6 0.000000 0.000000 0.000000 -0.019978 0.000000 0.037860
#
#
# Mechanical properties :
#
#
# Convention : Reuss Voigt Hill
#
# Bulk Modulus (GPa) = 32.55566 69.45713 51.00639
# Shear Modulus (GPa) = 14.93823 35.14837 25.04330
#
# Velocity S-wave (km/s) = 2.58156 3.95991 3.34255
# Velocity P-wave (km/s) = 4.83840 7.20382 6.13617
#
# Compressibility (1/GPa) = 0.03071663
#
# Stress axis : x y z
#
# Youngs Moduli (GPa) = 23.49517 213.26340 17.53687
#
# Poissons Ratio (x) = 0.76727 0.61139
# Poissons Ratio (y) = 0.08453 -0.02950
# Poissons Ratio (z) = 0.81911 -0.35874
#
# Static dielectric constant tensor:
#      x y z
#    x 3.734540 0.000000 0.345850 
#    y 0.000000 6.575880 0.000000 
#    z 0.345850 0.000000 3.570770 
# 
# 
# High freq. dielectric constant tensor:
#      x y z
#    x 1.849170 0.000000 0.046570 
#    y 0.000000 1.940020 0.000000 
#    z 0.046570 0.000000 1.839860 
# 
# From -- ./inp_files/79237.got.cif
#   From: 2010.06.25/outbox.cif.g09.slc.cpg/sg13_40_cif.got.tgz:79237.got - 2010.06.28 04:50:58.
