data_PCOD8116779
_publ_section_title
;
Structure prediction by ZEFSAII (Michael W. Deem and Ramdas Pophale) SiO2 
 PCOD8116779
Probable space group: P 2/C
;
_chemical_formula_sum "Si O2"
_cell_formula_units_Z 24
_cell_length_a 8.995933
_cell_length_b 7.411810
_cell_length_c 19.635103
_cell_angle_alpha 90.000000
_cell_angle_beta 80.288587
_cell_angle_gamma 90.000000
_cell_volume 1290.432115
_symmetry_space_group_name_H-M "P 2/C"
_symmetry_group_IT_number 13
_symmetry_cell_setting 'monoclinic'
loop_
_space_group_symop_operation_xyz
x,y,z
-x,y,1/2-z
-x,-y,-z
x,-y,1/2+z
loop_
_atom_site_type_symbol
_atom_site_label
_atom_site_fract_x
_atom_site_fract_y
_atom_site_fract_z
Si Si1 0.616696 0.306034 0.798999
Si Si2 0.394996 0.517105 0.416750
Si Si3 0.442730 0.198411 0.025455
Si Si4 0.000000 0.223011 0.250000
Si Si5 0.223277 0.448346 0.309024
Si Si6 0.713258 0.051976 0.339253
Si Si7 0.500000 0.792367 0.750000
O O1 0.500000 0.231552 0.750000
O O2 0.533790 0.450398 0.853758
O O3 0.757814 0.395539 0.748696
O O4 0.695777 0.163934 0.844379
O O5 0.425990 0.326967 0.452795
O O6 0.375296 0.689288 0.467723
O O7 0.235846 0.513425 0.386888
O O8 0.305856 0.158666 0.088477
O O9 0.500000 0.000000 0.000000
O O10 0.931740 0.344902 0.194485
O O11 0.871966 0.100505 0.293236
O O12 0.368140 0.322084 0.292891
O O13 0.567850 0.089745 0.304668
#
# Coordination Sequence:
#
# PCOD8116779 Si02
#       7
#     4   4   4   2   4   4   2
#     4  10  18  32  60  88 111 141 197 253 294 329
#     4  10  19  34  56  90 114 151 190 251 287 331
#     4  11  21  33  58  89 117 150 197 242 287 344
#     4  10  24  36  58  80 122 156 186 244 296 356
#     4  10  18  36  55  85 113 151 193 240 293 340
#     4  11  20  35  53  89 112 149 194 239 295 344
#     4  10  16  30  58  78 108 140 192 252 278 326
#
# _framework density 18.598420999999998
#
# number of rings (size 3 to 8) (size 9 to 14) (size 15 to 20)
#    0.000    1.667    6.667    1.000    0.000    0.667 
#    0.000    0.833    0.000    1.000    0.000    0.000 
#    0.000    0.000    0.000    0.000    0.000    0.000 
#
# Total GULP energy -297322.782293 kJ/mol
# GULP energy per Si atom -12388.449262 kJ/mol
# Density = 1.855609 g / cm^3
# Si number density = 18.598421 Si / 1000 Ang^3
#
#
#
# Elastic Constant Matrix: (Units=GPa)
#
#
# Indices 1 2 3 4 5 6 
#
# 1 79.6387 33.7862 25.2689 0.0000 9.7761 0.0000
# 2 33.7862 113.1719 36.9159 0.0000 9.2285 0.0000
# 3 25.2689 36.9159 92.3108 0.0000 11.7955 0.0000
# 4 0.0000 0.0000 0.0000 33.0041 0.0000 4.8277
# 5 9.7761 9.2285 11.7955 0.0000 24.5865 0.0000
# 6 0.0000 0.0000 0.0000 4.8277 0.0000 21.3925
#
#
#
# Elastic Compliance Matrix: (Units=1/GPa)
#
#
# Indices 1 2 3 4 5 6 
#
# 1 0.015216 -0.003495 -0.002303 0.000000 -0.003633 0.000000
# 2 -0.003495 0.011056 -0.003315 0.000000 -0.001170 0.000000
# 3 -0.002303 -0.003315 0.013330 0.000000 -0.004235 0.000000
# 4 0.000000 0.000000 0.000000 0.031334 0.000000 -0.007071
# 5 -0.003633 -0.001170 -0.004235 0.000000 0.044588 0.000000
# 6 0.000000 0.000000 0.000000 -0.007071 0.000000 0.048341
#
#
# Mechanical properties :
#
#
# Convention : Reuss Voigt Hill
#
# Bulk Modulus (GPa) = 46.78195 53.00705 49.89450
# Shear Modulus (GPa) = 26.42443 28.40664 27.41553
#
# Velocity S-wave (km/s) = 3.77342 3.91240 3.84354
# Velocity P-wave (km/s) = 6.64780 6.99799 6.82514
#
# Compressibility (1/GPa) = 0.02137576
#
# Stress axis : x y z
#
# Youngs Moduli (GPa) = 65.71892 90.44573 75.01617
#
# Poissons Ratio (x) = 0.31611 0.17278
# Poissons Ratio (y) = 0.22969 0.24870
# Poissons Ratio (z) = 0.15137 0.29986
#
# Static dielectric constant tensor:
#      x y z
#    x 2.992370 0.000000 0.198640 
#    y 0.000000 3.586620 0.000000 
#    z 0.198640 0.000000 3.617530 
# 
# 
# High freq. dielectric constant tensor:
#      x y z
#    x 1.677270 0.000000 0.017260 
#    y 0.000000 1.735950 0.000000 
#    z 0.017260 0.000000 1.722520 
# 
# From -- ./inp_files/74970.got.cif
#   From: 2010.06.25/outbox.cif.g09.slc.cpg/sg13_38_cif.got.tgz:74970.got - 2010.06.28 04:50:58.
