data_PCOD8116275
_publ_section_title
;
Structure prediction by ZEFSAII (Michael W. Deem and Ramdas Pophale) SiO2 
 PCOD8116275
Probable space group: C 2/M
;
_chemical_formula_sum "Si O2"
_cell_formula_units_Z 24
_cell_length_a 21.000000
_cell_length_b 9.000000
_cell_length_c 27.000000
_cell_angle_alpha 90.000000
_cell_angle_beta 30.000000
_cell_angle_gamma 90.000000
_cell_volume 2551.500000
_symmetry_space_group_name_H-M "C 2/M"
_symmetry_group_IT_number 12
_symmetry_cell_setting 'monoclinic'
loop_
_space_group_symop_operation_xyz
x,y,z
-x,y,-z
-x,-y,-z
x,-y,z
1/2+x,1/2+y,z
1/2-x,1/2+y,-z
1/2-x,1/2-y,-z
1/2+x,1/2-y,z
loop_
_atom_site_type_symbol
_atom_site_label
_atom_site_fract_x
_atom_site_fract_y
_atom_site_fract_z
Si Si1 0.776487 0.830527 0.532892
Si Si2 0.626075 0.329897 0.064830
Si Si3 0.529234 0.667924 0.923279
Si Si4 0.995386 0.325682 0.446375
Si Si5 0.243173 0.169695 0.273149
Si Si6 0.899216 0.665702 0.261329
O O1 0.750000 0.750000 0.500000
O O2 0.646299 0.820532 0.651726
O O3 0.886722 0.752575 0.488900
O O4 0.815856 0.000000 0.496328
O O5 0.653429 0.500000 0.055071
O O6 0.592794 0.295038 0.029525
O O7 0.508707 0.284271 0.178589
O O8 0.750000 0.250000 0.000000
O O9 0.575225 0.500000 0.879513
O O10 0.636681 0.788421 0.840989
O O11 0.500000 0.683619 0.000000
O O12 0.974947 0.500000 0.455692
O O13 0.129450 0.276650 0.332748
O O14 0.000000 0.271034 0.500000
O O15 0.278602 0.197186 0.306838
O O16 0.204299 0.000000 0.289370
O O17 0.952233 0.500000 0.214580
#
# Coordination Sequence:
#
# PCOD8116275 Si02
#       6
#     8   8   8   8   8   8
#     4  11  23  40  59  83 117 153 189 233 287 338
#     4  10  20  35  58  83 108 142 186 230 275 332
#     4   9  19  37  58  81 111 146 182 228 282 333
#     4  11  22  36  59  87 114 148 192 236 276 334
#     4  10  19  34  58  86 113 145 187 234 281 332
#     4   9  19  36  58  81 110 147 185 228 281 335
#
# _framework density 9.4062319999999993
#
# number of rings (size 3 to 8) (size 9 to 14) (size 15 to 20)
#    0.000    2.000    1.667    2.000    0.000    3.667 
#    3.000    0.000    0.000    0.000    0.000    0.000 
#    0.000    0.000    0.000    0.000    0.000    0.000 
#
# Total GULP energy -297565.516523 kJ/mol
# GULP energy per Si atom -12398.563188 kJ/mol
# Density = 0.938482 g / cm^3
# Si number density = 9.406232 Si / 1000 Ang^3
#
#
#
# Elastic Constant Matrix: (Units=GPa)
#
#
# Indices 1 2 3 4 5 6 
#
# 1 137.1335 79.9110 63.2168 0.0044 -3.6116 -0.0094
# 2 79.9110 96.4381 49.9487 0.0053 -7.4056 -0.0075
# 3 63.2168 49.9487 61.1943 -0.0009 -5.0779 0.0007
# 4 0.0044 0.0053 -0.0009 30.5375 -0.0041 -7.0783
# 5 -3.6116 -7.4056 -5.0779 -0.0041 29.4380 0.0081
# 6 -0.0094 -0.0075 0.0007 -7.0783 0.0081 32.6629
#
#
#
# Elastic Compliance Matrix: (Units=1/GPa)
#
#
# Indices 1 2 3 4 5 6 
#
# 1 0.017528 -0.009031 -0.010901 -0.000001 -0.002002 0.000004
# 2 -0.009031 0.022736 -0.008974 -0.000002 0.003064 0.000002
# 3 -0.010901 -0.008974 0.035132 0.000003 0.002465 -0.000006
# 4 -0.000001 -0.000002 0.000003 0.034478 0.000003 0.007472
# 5 -0.002002 0.003064 0.002465 0.000003 0.034920 -0.000008
# 6 0.000004 0.000002 -0.000006 0.007472 -0.000008 0.032235
#
#
# Mechanical properties :
#
#
# Convention : Reuss Voigt Hill
#
# Bulk Modulus (GPa) = 56.87333 75.65766 66.26549
# Shear Modulus (GPa) = 20.77242 25.30697 23.03969
#
# Velocity S-wave (km/s) = 3.32653 3.67171 3.50337
# Velocity P-wave (km/s) = 6.71206 7.63409 7.18788
#
# Compressibility (1/GPa) = 0.01758293
#
# Stress axis : x y z
#
# Youngs Moduli (GPa) = 57.05283 43.98298 28.46373
#
# Poissons Ratio (x) = 0.39722 0.31029
# Poissons Ratio (y) = 0.51526 0.25543
# Poissons Ratio (z) = 0.62196 0.39470
#
# Static dielectric constant tensor:
#      x y z
#    x 3.187410 0.000100 -0.237120 
#    y 0.000100 3.698030 0.000130 
#    z -0.237120 0.000130 3.364830 
# 
# 
# High freq. dielectric constant tensor:
#      x y z
#    x 1.723050 0.000000 -0.004440 
#    y 0.000000 1.739420 0.000000 
#    z -0.004440 0.000000 1.710400 
# 
# From -- ./inp_files/248801.got.cif
#   From: 2010.06.25/outbox.ucp.g09.slc.cvg/sg12_125_cif.got.tgz:248801.got - 2010.06.28 13:50:54.
