data_PCOD8116334
_publ_section_title
;
Structure prediction by ZEFSAII (Michael W. Deem and Ramdas Pophale) SiO2 
 PCOD8116334
Probable space group: C 2/M
;
_chemical_formula_sum "Si O2"
_cell_formula_units_Z 32
_cell_length_a 30.000000
_cell_length_b 9.000000
_cell_length_c 15.000000
_cell_angle_alpha 90.000000
_cell_angle_beta 50.000000
_cell_angle_gamma 90.000000
_cell_volume 3102.479995
_symmetry_space_group_name_H-M "C 2/M"
_symmetry_group_IT_number 12
_symmetry_cell_setting 'monoclinic'
loop_
_space_group_symop_operation_xyz
x,y,z
-x,y,-z
-x,-y,-z
x,-y,z
1/2+x,1/2+y,z
1/2-x,1/2+y,-z
1/2-x,1/2-y,-z
1/2+x,1/2-y,z
loop_
_atom_site_type_symbol
_atom_site_label
_atom_site_fract_x
_atom_site_fract_y
_atom_site_fract_z
Si Si1 0.476382 0.170319 0.892373
Si Si2 0.885930 0.668484 0.850778
Si Si3 0.434916 0.175732 0.605681
Si Si4 0.902926 0.832014 0.284583
Si Si5 0.185297 0.672049 0.318840
Si Si6 0.791037 0.677434 0.105041
Si Si7 0.201899 0.326172 0.499951
Si Si8 0.619520 0.668097 0.887149
O O1 0.436905 0.181258 0.856321
O O2 0.535562 0.252559 0.795332
O O3 0.488217 0.000000 0.904634
O O4 0.442628 0.253286 0.015366
O O5 0.872380 0.500000 0.842602
O O6 0.909548 0.747022 0.730511
O O7 0.825483 0.733164 0.971001
O O8 0.500000 0.242391 0.500000
O O9 0.383894 0.215147 0.599145
O O10 0.443204 0.000000 0.604481
O O11 0.861748 0.739295 0.401945
O O12 0.871614 0.834933 0.229505
O O13 0.910710 0.000000 0.310224
O O14 0.191925 0.500000 0.285543
O O15 0.224985 0.761394 0.195801
O O16 0.211716 0.704446 0.382465
O O17 0.791053 0.500000 0.110417
O O18 0.827058 0.739244 0.142590
O O19 0.202600 0.500000 0.520765
O O20 0.250000 0.250000 0.500000
O O21 0.619104 0.500000 0.926469
#
# Coordination Sequence:
#
# PCOD8116334 Si02
#       8
#     8   8   8   8   8   8   8   8
#     4  10  20  33  54  83 116 150 189 237 288 345
#     4   8  17  33  54  84 116 146 188 235 282 340
#     4   9  18  34  60  87 115 150 190 238 290 342
#     4  11  23  36  53  78 110 151 196 241 288 344
#     4  10  22  38  59  89 115 146 197 245 287 347
#     4  10  20  35  57  84 116 152 188 234 291 349
#     4  11  24  40  58  83 114 148 192 243 293 347
#     4  10  20  35  54  79 114 151 192 241 286 337
#
# _framework density 10.314329000000001
#
# number of rings (size 3 to 8) (size 9 to 14) (size 15 to 20)
#    0.000    2.125    0.000    3.750    1.750    8.000 
#    0.000    0.000    0.000    4.125    0.000    0.000 
#    0.000    0.000    0.000    0.000    0.000    0.000 
#
# Total GULP energy -396628.042091 kJ/mol
# GULP energy per Si atom -12394.626315 kJ/mol
# Density = 1.029085 g / cm^3
# Si number density = 10.314329 Si / 1000 Ang^3
#
#
#
# Elastic Constant Matrix: (Units=GPa)
#
#
# Indices 1 2 3 4 5 6 
#
# 1 83.4089 29.5853 51.9816 0.0000 -20.4409 0.0001
# 2 29.5853 100.9266 47.3064 0.0000 -8.7549 0.0002
# 3 51.9816 47.3064 135.1242 0.0000 -23.4321 0.0000
# 4 0.0000 0.0000 0.0000 31.5082 0.0000 -12.8356
# 5 -20.4409 -8.7549 -23.4321 0.0000 42.7543 0.0000
# 6 0.0001 0.0002 0.0000 -12.8356 0.0000 24.1399
#
#
#
# Elastic Compliance Matrix: (Units=1/GPa)
#
#
# Indices 1 2 3 4 5 6 
#
# 1 0.017081 -0.002273 -0.004906 0.000000 0.005012 0.000000
# 2 -0.002273 0.012157 -0.003468 0.000000 -0.000498 0.000000
# 3 -0.004906 -0.003468 0.011020 0.000000 0.002984 0.000000
# 4 0.000000 0.000000 0.000000 0.040513 0.000000 0.021542
# 5 0.005012 -0.000498 0.002984 0.000000 0.027319 0.000000
# 6 0.000000 0.000000 0.000000 0.021542 0.000000 0.052879
#
#
# Mechanical properties :
#
#
# Convention : Reuss Voigt Hill
#
# Bulk Modulus (GPa) = 52.73278 64.13402 58.43340
# Shear Modulus (GPa) = 26.51332 32.38624 29.44978
#
# Velocity S-wave (km/s) = 3.58895 3.96658 3.78248
# Velocity P-wave (km/s) = 6.54159 7.22050 6.88941
#
# Compressibility (1/GPa) = 0.01896354
#
# Stress axis : x y z
#
# Youngs Moduli (GPa) = 58.54379 82.25873 90.74779
#
# Poissons Ratio (x) = 0.18695 0.44523
# Poissons Ratio (y) = 0.13305 0.31472
# Poissons Ratio (z) = 0.28723 0.28528
#
# Static dielectric constant tensor:
#      x y z
#    x 3.706990 0.000000 -0.109520 
#    y 0.000000 3.686150 0.000000 
#    z -0.109520 0.000000 4.193580 
# 
# 
# High freq. dielectric constant tensor:
#      x y z
#    x 1.810350 0.000000 -0.014260 
#    y 0.000000 1.785610 0.000000 
#    z -0.014260 0.000000 1.819560 
# 
# From -- ./inp_files/249893.got.cif
#   From: 2010.06.25/outbox.ucp.g09.slc.cvg/sg12_125_cif.got.tgz:249893.got - 2010.06.28 13:50:54.
