data_PCOD8116357
_publ_section_title
;
Structure prediction by ZEFSAII (Michael W. Deem and Ramdas Pophale) SiO2 
 PCOD8116357
Probable space group: C 2/M
;
_chemical_formula_sum "Si O2"
_cell_formula_units_Z 28
_cell_length_a 30.000000
_cell_length_b 9.000000
_cell_length_c 18.000000
_cell_angle_alpha 90.000000
_cell_angle_beta 40.000000
_cell_angle_gamma 90.000000
_cell_volume 3123.947783
_symmetry_space_group_name_H-M "C 2/M"
_symmetry_group_IT_number 12
_symmetry_cell_setting 'monoclinic'
loop_
_space_group_symop_operation_xyz
x,y,z
-x,y,-z
-x,-y,-z
x,-y,z
1/2+x,1/2+y,z
1/2-x,1/2+y,-z
1/2-x,1/2-y,-z
1/2+x,1/2-y,z
loop_
_atom_site_type_symbol
_atom_site_label
_atom_site_fract_x
_atom_site_fract_y
_atom_site_fract_z
Si Si1 0.104821 0.676110 0.239862
Si Si2 0.687293 0.822129 0.846435
Si Si3 0.051173 0.327303 0.576441
Si Si4 0.468417 0.173597 0.233770
Si Si5 0.331476 0.823135 0.682563
Si Si6 0.927520 0.674875 0.124629
Si Si7 0.612841 0.677362 0.076953
O O1 0.107204 0.500000 0.222191
O O2 0.148065 0.718359 0.258543
O O3 0.135807 0.759927 0.128380
O O4 0.025107 0.733401 0.347818
O O5 0.765083 0.763971 0.735976
O O6 0.638293 0.767112 0.839709
O O7 0.685621 0.000000 0.855882
O O8 0.665245 0.745288 0.950878
O O9 0.049944 0.500000 0.562077
O O10 0.071369 0.295038 0.637461
O O11 0.108064 0.259859 0.448476
O O12 0.422371 0.216953 0.219613
O O13 0.537012 0.272247 0.147656
O O14 0.490367 0.000000 0.200898
O O15 0.319954 0.000000 0.689857
O O16 0.929127 0.500000 0.113092
O O17 0.000000 0.741067 0.000000
O O18 0.618089 0.500000 0.071067
#
# Coordination Sequence:
#
# PCOD8116357 Si02
#       7
#     8   8   8   8   8   8   8
#     4   9  18  34  57  78 100 137 179 213 251 306
#     4  11  22  36  53  74 105 142 177 210 255 315
#     4   8  15  30  56  82 102 131 174 217 252 296
#     4   9  16  32  57  81 103 133 175 215 253 301
#     4  10  20  35  53  77 107 137 174 218 258 299
#     4   9  16  30  55  80 100 131 177 216 246 301
#     4  11  21  33  51  79 109 133 166 217 269 309
#
# _framework density 8.9630179999999999
#
# number of rings (size 3 to 8) (size 9 to 14) (size 15 to 20)
#    0.000    2.429    1.429    3.000    0.000    2.857 
#    0.000    5.714    0.000    4.286    0.000    0.000 
#    0.000    0.000    0.000    0.000    0.000    0.000 
#
# Total GULP energy -347001.786045 kJ/mol
# GULP energy per Si atom -12392.920930 kJ/mol
# Density = 0.894262 g / cm^3
# Si number density = 8.963018 Si / 1000 Ang^3
#
#
#
# Elastic Constant Matrix: (Units=GPa)
#
#
# Indices 1 2 3 4 5 6 
#
# 1 163.0765 29.6089 49.4646 -0.0019 8.8724 0.0032
# 2 29.6089 64.6706 21.3958 0.0054 2.5591 0.0001
# 3 49.4646 21.3958 72.8338 -0.0008 6.1005 0.0053
# 4 -0.0019 0.0054 -0.0008 20.8053 -0.0007 -5.0432
# 5 8.8724 2.5591 6.1005 -0.0007 30.6479 0.0001
# 6 0.0032 0.0001 0.0053 -5.0432 0.0001 25.0241
#
#
#
# Elastic Compliance Matrix: (Units=1/GPa)
#
#
# Indices 1 2 3 4 5 6 
#
# 1 0.008006 -0.002052 -0.004734 0.000001 -0.001204 0.000000
# 2 -0.002052 0.017659 -0.003783 -0.000005 -0.000127 0.000000
# 3 -0.004734 -0.003783 0.018219 0.000000 -0.001940 -0.000003
# 4 0.000001 -0.000005 0.000000 0.050533 0.000001 0.010184
# 5 -0.001204 -0.000127 -0.001940 0.000001 0.033374 0.000001
# 6 0.000000 0.000000 -0.000003 0.010184 0.000001 0.042014
#
#
# Mechanical properties :
#
#
# Convention : Reuss Voigt Hill
#
# Bulk Modulus (GPa) = 43.96364 55.72440 49.84402
# Shear Modulus (GPa) = 25.18576 28.63621 26.91098
#
# Velocity S-wave (km/s) = 3.75238 4.00117 3.87877
# Velocity P-wave (km/s) = 6.58423 7.24562 6.92282
#
# Compressibility (1/GPa) = 0.02274607
#
# Stress axis : x y z
#
# Youngs Moduli (GPa) = 124.90745 56.62794 54.88882
#
# Poissons Ratio (x) = 0.11619 0.25982
# Poissons Ratio (y) = 0.25628 0.20767
# Poissons Ratio (z) = 0.59126 0.21425
#
# Static dielectric constant tensor:
#      x y z
#    x 3.679330 -0.000010 0.186600 
#    y -0.000010 3.066860 0.000020 
#    z 0.186600 0.000020 3.504110 
# 
# 
# High freq. dielectric constant tensor:
#      x y z
#    x 1.713930 0.000000 0.017850 
#    y 0.000000 1.666890 0.000000 
#    z 0.017850 0.000000 1.688560 
# 
# From -- ./inp_files/288241.got.cif
#   From: 2010.06.25/outbox.ucp.g09.slc.cvg/sg12_145_cif.got.tgz:288241.got - 2010.06.28 13:50:54.
