data_PCOD8116737
_publ_section_title
;
Structure prediction by ZEFSAII (Michael W. Deem and Ramdas Pophale) SiO2 
 PCOD8116737
Probable space group: P 2/C
;
_chemical_formula_sum "Si O2"
_cell_formula_units_Z 30
_cell_length_a 26.882871
_cell_length_b 13.546569
_cell_length_c 5.184376
_cell_angle_alpha 90.000000
_cell_angle_beta 101.683696
_cell_angle_gamma 90.000000
_cell_volume 1848.879252
_symmetry_space_group_name_H-M "P 2/C"
_symmetry_group_IT_number 13
_symmetry_cell_setting 'monoclinic'
loop_
_space_group_symop_operation_xyz
x,y,z
-x,y,1/2-z
-x,-y,-z
x,-y,1/2+z
loop_
_atom_site_type_symbol
_atom_site_label
_atom_site_fract_x
_atom_site_fract_y
_atom_site_fract_z
Si Si1 0.284346 0.565452 0.031406
Si Si2 0.394212 0.437416 0.727652
Si Si3 0.500000 0.567425 0.250000
Si Si4 0.776512 0.046694 0.070539
Si Si5 0.059376 0.561488 0.317481
Si Si6 0.135846 0.735475 0.364792
Si Si7 0.111134 0.039458 0.841574
Si Si8 0.798512 0.730440 0.572266
O O1 0.277292 0.517969 0.742298
O O2 0.243406 0.649543 0.032764
O O3 0.340429 0.616600 0.116883
O O4 0.395364 0.530139 0.528622
O O5 0.445828 0.372750 0.714460
O O6 0.500000 0.500000 0.500000
O O7 0.771107 0.163894 0.047466
O O8 0.749203 0.005503 0.299072
O O9 0.835149 0.014616 0.158619
O O10 0.075551 0.507421 0.596791
O O11 0.087687 0.664853 0.329310
O O12 0.000000 0.585665 0.250000
O O13 0.116185 0.845145 0.397530
O O14 0.176336 0.706629 0.626055
O O15 0.159754 0.727231 0.107726
O O16 0.081273 0.014035 0.545179
#
# Coordination Sequence:
#
# PCOD8116737 Si02
#       8
#     4   4   2   4   4   4   4   4
#     4  10  21  33  40  58  97 131 147 181 224 260
#     4   8  14  25  39  53  77 112 148 183 223 251
#     4   8  12  20  38  58  68  96 154 194 208 254
#     4  10  16  30  46  66  90 117 145 179 219 254
#     4  10  23  42  57  71  94 121 149 186 223 250
#     4  12  21  32  55  75  88 117 156 182 215 266
#     4  10  16  30  48  71  93 114 137 178 225 259
#     4  12  21  30  49  73  92 123 154 176 216 271
#
# _framework density 16.226046
#
# number of rings (size 3 to 8) (size 9 to 14) (size 15 to 20)
#    0.000    1.867    5.333    1.600    0.000    3.200 
#    0.000    0.000    0.000    0.800    0.000    0.000 
#    0.000    0.000    0.000    1.200    0.000    0.400 
#
# Total GULP energy -371655.816871 kJ/mol
# GULP energy per Si atom -12388.527229 kJ/mol
# Density = 1.618911 g / cm^3
# Si number density = 16.226046 Si / 1000 Ang^3
#
#
#
# Elastic Constant Matrix: (Units=GPa)
#
#
# Indices 1 2 3 4 5 6 
#
# 1 44.7396 33.7373 19.7889 0.0000 2.0934 0.0000
# 2 33.7373 65.5685 9.0838 0.0000 8.7479 0.0000
# 3 19.7889 9.0838 89.4484 0.0000 -21.5324 0.0000
# 4 0.0000 0.0000 0.0000 18.3028 0.0000 -5.8634
# 5 2.0934 8.7479 -21.5324 0.0000 19.0833 0.0000
# 6 0.0000 0.0000 0.0000 -5.8634 0.0000 1.1729
#
#
#
# Elastic Compliance Matrix: (Units=1/GPa)
#
#
# Indices 1 2 3 4 5 6 
#
# 1 0.040641 -0.019096 -0.008262 0.000000 -0.005027 0.000000
# 2 -0.019096 0.026816 -0.001309 0.000000 -0.011675 0.000000
# 3 -0.008262 -0.001309 0.018538 0.000000 0.022424 0.000000
# 4 0.000000 0.000000 0.000000 -0.090838 0.000000 -0.454100
# 5 -0.005027 -0.011675 0.022424 0.000000 0.083607 0.000000
# 6 0.000000 0.000000 0.000000 -0.454100 0.000000 -1.417480
#
#
# Mechanical properties :
#
#
# Convention : Reuss Voigt Hill
#
# Bulk Modulus (GPa) = 34.89016 36.10849 35.49932
# Shear Modulus (GPa) = -3.93135 16.85491 6.46178
#
# Velocity S-wave (km/s) = -1.55824 3.22647 1.99775
# Velocity P-wave (km/s) = 4.27922 6.01514 5.21985
#
# Compressibility (1/GPa) = 0.02866138
#
# Stress axis : x y z
#
# Youngs Moduli (GPa) = 24.60566 37.29152 53.94230
#
# Poissons Ratio (x) = 0.71212 0.44567
# Poissons Ratio (y) = 0.46987 0.07061
# Poissons Ratio (z) = 0.20329 0.04881
#
# Static dielectric constant tensor:
#      x y z
#    x 3.180000 0.000000 -0.216320 
#    y 0.000000 2.791680 0.000000 
#    z -0.216320 0.000000 3.983110 
# 
# 
# High freq. dielectric constant tensor:
#      x y z
#    x 1.597720 0.000000 -0.020530 
#    y 0.000000 1.585450 0.000000 
#    z -0.020530 0.000000 1.658210 
# 
# From -- ./inp_files/7467.got.cif
#   From: 2010.06.25/outbox.cif.g09.slc.cpg/sg13_4_cif.got.tgz:7467.got - 2010.06.28 04:50:58.
