data_PCOD8116699
_publ_section_title
;
Structure prediction by ZEFSAII (Michael W. Deem and Ramdas Pophale) SiO2 
 PCOD8116699
Probable space group: P 2/C
;
_chemical_formula_sum "Si O2"
_cell_formula_units_Z 16
_cell_length_a 18.061378
_cell_length_b 8.597724
_cell_length_c 5.354715
_cell_angle_alpha 90.000000
_cell_angle_beta 63.606092
_cell_angle_gamma 90.000000
_cell_volume 744.838193
_symmetry_space_group_name_H-M "P 2/C"
_symmetry_group_IT_number 13
_symmetry_cell_setting 'monoclinic'
loop_
_space_group_symop_operation_xyz
x,y,z
-x,y,1/2-z
-x,-y,-z
x,-y,1/2+z
loop_
_atom_site_type_symbol
_atom_site_label
_atom_site_fract_x
_atom_site_fract_y
_atom_site_fract_z
Si Si1 0.592399 0.935474 0.861401
Si Si2 0.096145 0.681774 0.606034
Si Si3 0.357155 0.592575 0.714521
Si Si4 0.835837 0.338100 0.995955
O O1 0.590347 0.749863 0.864381
O O2 0.638204 0.000045 0.542750
O O3 0.500000 0.000000 0.000000
O O4 0.112404 0.497514 0.581861
O O5 0.138382 0.755618 0.293681
O O6 0.000000 0.720207 0.750000
O O7 0.138275 0.755657 0.792022
O O8 0.381719 0.499882 0.427801
O O9 0.260682 0.629523 0.859076
#
# Coordination Sequence:
#
# PCOD8116699 Si02
#       4
#     4   4   4   4
#     4  10  23  45  64  85 122 158 191 242 300 374
#     4  10  16  25  41  68 120 158 174 218 304 355
#     4  12  21  37  62  92 117 153 197 259 294 340
#     4  10  16  27  41  73 112 146 184 232 282 338
#
# _framework density 21.481176000000001
#
# number of rings (size 3 to 8) (size 9 to 14) (size 15 to 20)
#    0.000    1.500    5.000    5.250    0.000    0.000 
#    0.000   15.000    0.000    0.000    0.000    0.000 
#    0.000   34.000    0.000    0.000    0.000    0.000 
#
# Total GULP energy -198290.414924 kJ/mol
# GULP energy per Si atom -12393.150933 kJ/mol
# Density = 2.143228 g / cm^3
# Si number density = 21.481176 Si / 1000 Ang^3
#
#
#
# Elastic Constant Matrix: (Units=GPa)
#
#
# Indices 1 2 3 4 5 6 
#
# 1 62.2257 48.8477 73.4057 0.0000 25.1940 0.0000
# 2 48.8477 104.9424 59.6865 0.0000 9.0770 0.0000
# 3 73.4057 59.6865 178.6903 0.0000 75.0698 0.0000
# 4 0.0000 0.0000 0.0000 30.2196 0.0000 -11.9218
# 5 25.1940 9.0770 75.0698 0.0000 52.1756 0.0000
# 6 0.0000 0.0000 0.0000 -11.9218 0.0000 43.6373
#
#
#
# Elastic Compliance Matrix: (Units=1/GPa)
#
#
# Indices 1 2 3 4 5 6 
#
# 1 0.039931 -0.010974 -0.013752 0.000000 0.002415 0.000000
# 2 -0.010974 0.016789 -0.005307 0.000000 0.010013 0.000000
# 3 -0.013752 -0.005307 0.024878 0.000000 -0.028231 0.000000
# 4 0.000000 0.000000 0.000000 0.037089 0.000000 0.010133
# 5 0.002415 0.010013 -0.028231 0.000000 0.056877 0.000000
# 6 0.000000 0.000000 0.000000 0.010133 0.000000 0.025684
#
#
# Mechanical properties :
#
#
# Convention : Reuss Voigt Hill
#
# Bulk Modulus (GPa) = 46.44082 78.85981 62.65031
# Shear Modulus (GPa) = 18.62263 36.13439 27.37851
#
# Velocity S-wave (km/s) = 2.94756 4.10584 3.57394
# Velocity P-wave (km/s) = 5.76631 7.69858 6.80141
#
# Compressibility (1/GPa) = 0.02153278
#
# Stress axis : x y z
#
# Youngs Moduli (GPa) = 25.04348 59.56292 40.19537
#
# Poissons Ratio (x) = 0.65362 0.55279
# Poissons Ratio (y) = 0.27482 0.21330
# Poissons Ratio (z) = 0.34441 0.31607
#
# Static dielectric constant tensor:
#      x y z
#    x 4.762390 0.000000 1.990960 
#    y 0.000000 3.429010 0.000000 
#    z 1.990960 0.000000 7.057880 
# 
# 
# High freq. dielectric constant tensor:
#      x y z
#    x 1.843410 0.000000 0.030630 
#    y 0.000000 1.768840 0.000000 
#    z 0.030630 0.000000 1.878820 
# 
# From -- ./inp_files/4635.got.cif
#   From: 2010.06.25/outbox.cif.g09.slc.cpg/sg13_3_cif.got.tgz:4635.got - 2010.06.28 04:50:58.
