data_PCOD8116251
_publ_section_title
;
Structure prediction by ZEFSAII (Michael W. Deem and Ramdas Pophale) SiO2 
 PCOD8116251
Probable space group: C 2/M
;
_chemical_formula_sum "Si O2"
_cell_formula_units_Z 28
_cell_length_a 30.000000
_cell_length_b 9.000000
_cell_length_c 18.000000
_cell_angle_alpha 90.000000
_cell_angle_beta 40.000000
_cell_angle_gamma 90.000000
_cell_volume 3123.947783
_symmetry_space_group_name_H-M "C 2/M"
_symmetry_group_IT_number 12
_symmetry_cell_setting 'monoclinic'
loop_
_space_group_symop_operation_xyz
x,y,z
-x,y,-z
-x,-y,-z
x,-y,z
1/2+x,1/2+y,z
1/2-x,1/2+y,-z
1/2-x,1/2-y,-z
1/2+x,1/2-y,z
loop_
_atom_site_type_symbol
_atom_site_label
_atom_site_fract_x
_atom_site_fract_y
_atom_site_fract_z
Si Si1 0.694089 0.327316 0.293335
Si Si2 0.556890 0.666276 0.863798
Si Si3 0.546064 0.173442 0.103456
Si Si4 0.451514 0.324286 0.743768
Si Si5 0.803368 0.828831 0.878546
Si Si6 0.842156 0.672571 0.164687
Si Si7 0.548293 0.176177 0.507165
O O1 0.674713 0.500000 0.328542
O O2 0.716935 0.295001 0.179945
O O3 0.761634 0.282852 0.255499
O O4 0.627288 0.231240 0.399864
O O5 0.571096 0.500000 0.814827
O O6 0.526837 0.773244 0.838517
O O7 0.628859 0.733014 0.803042
O O8 0.500000 0.659991 0.000000
O O9 0.558089 0.269819 0.160667
O O10 0.540188 0.000000 0.130225
O O11 0.611832 0.206348 0.966860
O O12 0.463616 0.500000 0.726250
O O13 0.382107 0.274483 0.789301
O O14 0.516870 0.244993 0.622188
O O15 0.797793 0.000000 0.906028
O O16 0.750000 0.750000 0.000000
O O17 0.848799 0.500000 0.176583
O O18 0.500000 0.229064 0.500000
O O19 0.549102 0.000000 0.512492
#
# Coordination Sequence:
#
# PCOD8116251 Si02
#       7
#     8   8   8   8   8   8   8
#     4  10  20  36  55  76 105 141 180 220 264 316
#     4   9  17  30  50  77 110 143 178 217 260 315
#     4  10  19  33  54  80 112 143 177 219 264 317
#     4  11  22  36  55  77 105 141 180 221 266 316
#     4  10  21  34  51  76 107 141 174 212 261 315
#     4   9  18  32  53  80 110 144 178 215 265 319
#     4  11  23  38  56  77 101 136 184 230 269 312
#
# _framework density 8.9630179999999999
#
# number of rings (size 3 to 8) (size 9 to 14) (size 15 to 20)
#    0.000    2.000    1.429    2.571    0.000    6.286 
#    0.000    0.000    0.000    0.857    0.000    0.000 
#    0.000    0.000    0.000    0.000    0.000    0.000 
#
# Total GULP energy -347226.625135 kJ/mol
# GULP energy per Si atom -12400.950898 kJ/mol
# Density = 0.894262 g / cm^3
# Si number density = 8.963018 Si / 1000 Ang^3
#
#
#
# Elastic Constant Matrix: (Units=GPa)
#
#
# Indices 1 2 3 4 5 6 
#
# 1 91.3654 38.7744 19.3497 -0.0067 -27.7160 0.0050
# 2 38.7744 74.6572 40.3083 -0.0163 -14.6089 0.0169
# 3 19.3497 40.3083 75.8190 -0.0078 -23.4416 0.0068
# 4 -0.0067 -0.0163 -0.0078 32.7219 0.0025 -1.1831
# 5 -27.7160 -14.6089 -23.4416 0.0025 26.5558 -0.0026
# 6 0.0050 0.0169 0.0068 -1.1831 -0.0026 32.6464
#
#
#
# Elastic Compliance Matrix: (Units=1/GPa)
#
#
# Indices 1 2 3 4 5 6 
#
# 1 0.020352 -0.010013 0.006868 -0.000001 0.021795 0.000002
# 2 -0.010013 0.023798 -0.012763 0.000007 -0.008625 -0.000009
# 3 0.006868 -0.012763 0.025124 -0.000001 0.022325 0.000002
# 4 -0.000001 0.000007 -0.000001 0.030601 0.000000 0.001109
# 5 0.021795 -0.008625 0.022325 0.000000 0.075365 0.000003
# 6 0.000002 -0.000009 0.000002 0.001109 0.000003 0.030671
#
#
# Mechanical properties :
#
#
# Convention : Reuss Voigt Hill
#
# Bulk Modulus (GPa) = 26.69733 48.74517 37.72125
# Shear Modulus (GPa) = 19.98285 27.94543 23.96414
#
# Velocity S-wave (km/s) = 3.34239 3.95261 3.66024
# Velocity P-wave (km/s) = 5.46085 6.93414 6.24112
#
# Compressibility (1/GPa) = 0.03745693
#
# Stress axis : x y z
#
# Youngs Moduli (GPa) = 49.13631 42.01960 39.80203
#
# Poissons Ratio (x) = 0.42075 -0.27336
# Poissons Ratio (y) = 0.49201 0.50801
# Poissons Ratio (z) = -0.33747 0.53632
#
# Static dielectric constant tensor:
#      x y z
#    x 3.935560 -0.000010 -0.080020 
#    y -0.000010 3.400350 0.000020 
#    z -0.080020 0.000020 3.135660 
# 
# 
# High freq. dielectric constant tensor:
#      x y z
#    x 1.699540 0.000000 -0.013010 
#    y 0.000000 1.702350 0.000000 
#    z -0.013010 0.000000 1.673180 
# 
# From -- ./inp_files/280925.got.cif
#   From: 2010.06.25/outbox.ucp.g09.slc.cvg/sg12_141_cif.got.tgz:280925.got - 2010.06.28 13:50:54.
