data_PCOD8116240
_publ_section_title
;
Structure prediction by ZEFSAII (Michael W. Deem and Ramdas Pophale) SiO2 
 PCOD8116240
Probable space group: C 2/M
;
_chemical_formula_sum "Si O2"
_cell_formula_units_Z 28
_cell_length_a 21.000000
_cell_length_b 9.000000
_cell_length_c 30.000000
_cell_angle_alpha 90.000000
_cell_angle_beta 30.000000
_cell_angle_gamma 90.000000
_cell_volume 2835.000000
_symmetry_space_group_name_H-M "C 2/M"
_symmetry_group_IT_number 12
_symmetry_cell_setting 'monoclinic'
loop_
_space_group_symop_operation_xyz
x,y,z
-x,y,-z
-x,-y,-z
x,-y,z
1/2+x,1/2+y,z
1/2-x,1/2+y,-z
1/2-x,1/2-y,-z
1/2+x,1/2-y,z
loop_
_atom_site_type_symbol
_atom_site_label
_atom_site_fract_x
_atom_site_fract_y
_atom_site_fract_z
Si Si1 0.713606 0.830506 0.667254
Si Si2 0.851444 0.170879 0.676338
Si Si3 0.673043 0.674196 0.847444
Si Si4 0.929769 0.337402 0.496498
Si Si5 0.533047 0.676098 0.183850
Si Si6 0.457586 0.177373 0.919065
Si Si7 0.752538 0.825617 0.096628
O O1 0.752705 0.809975 0.695347
O O2 0.826885 0.791699 0.565163
O O3 0.611877 0.706462 0.714904
O O4 0.668971 0.000000 0.686168
O O5 0.790888 0.233094 0.757812
O O6 0.975014 0.272243 0.597432
O O7 0.890817 0.000000 0.657926
O O8 0.680510 0.500000 0.830747
O O9 0.548291 0.741932 0.900121
O O10 0.680953 0.697148 0.895773
O O11 0.878004 0.500000 0.512204
O O12 0.000000 0.361537 0.500000
O O13 0.562752 0.500000 0.162882
O O14 0.540357 0.757739 0.131640
O O15 0.610746 0.760467 0.176129
O O16 0.483452 0.000000 0.902518
O O17 0.318888 0.218836 0.020433
O O18 0.757104 0.000000 0.080915
#
# Coordination Sequence:
#
# PCOD8116240 Si02
#       7
#     8   8   8   8   8   8   8
#     4  10  19  33  54  83 116 150 189 235 285 337
#     4  10  19  32  54  83 116 151 189 235 283 337
#     4  11  23  39  61  86 116 153 193 238 287 343
#     4   9  17  29  49  79 115 150 187 234 282 334
#     4  12  24  39  61  86 116 153 194 239 287 344
#     4  12  24  40  62  87 115 149 192 242 290 341
#     4  11  25  43  60  83 116 153 193 239 291 344
#
# _framework density 9.8765429999999999
#
# number of rings (size 3 to 8) (size 9 to 14) (size 15 to 20)
#    0.000    1.286    1.429    5.571    0.000    6.857 
#    0.000    0.000    0.000    0.857    0.000    0.000 
#    0.000    0.000    0.000    0.000    0.000    0.000 
#
# Total GULP energy -346958.142621 kJ/mol
# GULP energy per Si atom -12391.362236 kJ/mol
# Density = 0.985406 g / cm^3
# Si number density = 9.876543 Si / 1000 Ang^3
#
#
#
# Elastic Constant Matrix: (Units=GPa)
#
#
# Indices 1 2 3 4 5 6 
#
# 1 69.4423 33.5694 -3.2798 -0.0045 -10.5824 0.0087
# 2 33.5694 145.8529 13.6281 -0.0085 -1.0491 0.0066
# 3 -3.2798 13.6281 43.0485 -0.0010 -0.8321 0.0037
# 4 -0.0045 -0.0085 -0.0010 44.6175 -0.0016 -0.8970
# 5 -10.5824 -1.0491 -0.8321 -0.0016 9.9640 -0.0028
# 6 0.0087 0.0066 0.0037 -0.8970 -0.0028 34.8305
#
#
#
# Elastic Compliance Matrix: (Units=1/GPa)
#
#
# Indices 1 2 3 4 5 6 
#
# 1 0.020104 -0.004798 0.003459 0.000002 0.021136 -0.000003
# 2 -0.004798 0.008214 -0.003053 0.000001 -0.004486 0.000000
# 3 0.003459 -0.003053 0.024564 0.000000 0.005404 -0.000002
# 4 0.000002 0.000001 0.000000 0.022424 0.000006 0.000578
# 5 0.021136 -0.004486 0.005404 0.000006 0.122788 0.000005
# 6 -0.000003 0.000000 -0.000002 0.000578 0.000005 0.028725
#
#
# Mechanical properties :
#
#
# Convention : Reuss Voigt Hill
#
# Bulk Modulus (GPa) = 22.67643 38.46437 30.57040
# Shear Modulus (GPa) = 19.97587 32.17746 26.07667
#
# Velocity S-wave (km/s) = 3.18351 4.04045 3.63730
# Velocity P-wave (km/s) = 5.00178 6.42509 5.75759
#
# Compressibility (1/GPa) = 0.04409865
#
# Stress axis : x y z
#
# Youngs Moduli (GPa) = 49.74057 121.74971 40.71002
#
# Poissons Ratio (x) = 0.58420 -0.14083
# Poissons Ratio (y) = 0.23868 0.12427
# Poissons Ratio (z) = -0.17207 0.37164
#
# Static dielectric constant tensor:
#      x y z
#    x 3.431400 -0.000030 -0.146500 
#    y -0.000030 3.823450 0.000000 
#    z -0.146500 0.000000 3.639660 
# 
# 
# High freq. dielectric constant tensor:
#      x y z
#    x 1.741600 0.000000 -0.008650 
#    y 0.000000 1.797540 0.000000 
#    z -0.008650 0.000000 1.765340 
# 
# From -- ./inp_files/380622.got.cif
#   From: 2010.06.25/outbox.ucp.g09.slc.cvg/sg12_191_cif.got.tgz:380622.got - 2010.06.28 13:50:54.
