data_PCOD8116965
_publ_section_title
;
Structure prediction by ZEFSAII (Michael W. Deem and Ramdas Pophale) SiO2 
 PCOD8116965
Probable space group: P 2/C
;
_chemical_formula_sum "Si O2"
_cell_formula_units_Z 32
_cell_length_a 9.160735
_cell_length_b 15.964892
_cell_length_c 13.281051
_cell_angle_alpha 90.000000
_cell_angle_beta 57.074098
_cell_angle_gamma 90.000000
_cell_volume 1630.363251
_symmetry_space_group_name_H-M "P 2/C"
_symmetry_group_IT_number 13
_symmetry_cell_setting 'monoclinic'
loop_
_space_group_symop_operation_xyz
x,y,z
-x,y,1/2-z
-x,-y,-z
x,-y,1/2+z
loop_
_atom_site_type_symbol
_atom_site_label
_atom_site_fract_x
_atom_site_fract_y
_atom_site_fract_z
Si Si1 0.863610 0.864785 0.715666
Si Si2 0.257346 0.187273 0.573886
Si Si3 0.680216 0.310779 0.634864
Si Si4 0.474592 0.597721 0.496198
Si Si5 0.815317 0.657898 0.285660
Si Si6 0.814210 0.955320 0.268682
Si Si7 0.066011 0.160589 0.944221
Si Si8 0.433823 0.268403 0.165534
O O1 0.738207 0.785700 0.754232
O O2 0.000000 0.843207 0.750000
O O3 0.973131 0.882099 0.573744
O O4 0.748678 0.949181 0.778521
O O5 0.204889 0.241584 0.692729
O O6 0.299500 0.095882 0.605974
O O7 0.428591 0.215240 0.450876
O O8 0.088748 0.197216 0.566553
O O9 0.500000 0.276339 0.750000
O O10 0.640872 0.372478 0.556150
O O11 0.778411 0.366049 0.683453
O O12 0.805098 0.232938 0.560821
O O13 0.500000 0.500000 0.500000
O O14 0.674852 0.622583 0.414643
O O15 0.391729 0.644212 0.624234
O O16 0.000000 0.621237 0.250000
O O17 0.822915 0.909131 0.157229
O O18 0.000000 0.962122 0.250000
O O19 0.500000 0.293740 0.250000
#
# Coordination Sequence:
#
# PCOD8116965 Si02
#       8
#     4   4   4   4   4   4   4   4
#     4  11  23  38  55  88 129 172 205 255 308 372
#     4  10  18  35  64  88 117 161 210 256 304 365
#     4  10  20  35  63  93 119 150 201 259 315 361
#     4  10  24  42  60  88 126 160 199 258 321 382
#     4  10  17  35  65  92 112 149 202 256 306 366
#     4   9  19  34  58  89 121 163 214 260 307 348
#     4  11  18  35  62  87 121 160 210 252 309 365
#     4  11  23  41  63  84 121 169 212 246 323 388
#
# _framework density 19.627528999999999
#
# number of rings (size 3 to 8) (size 9 to 14) (size 15 to 20)
#    0.000    1.750    3.750    1.500    0.000    2.000 
#    0.000    3.125    0.000    0.000    0.000    0.000 
#    0.000    0.000    0.000    0.000    0.000    0.000 
#
# Total GULP energy -396526.897317 kJ/mol
# GULP energy per Si atom -12391.465541 kJ/mol
# Density = 1.958286 g / cm^3
# Si number density = 19.627529 Si / 1000 Ang^3
#
#
#
# Elastic Constant Matrix: (Units=GPa)
#
#
# Indices 1 2 3 4 5 6 
#
# 1 108.6660 36.8076 33.6143 0.0000 18.3228 0.0000
# 2 36.8076 116.5019 31.1518 0.0000 16.5559 0.0000
# 3 33.6143 31.1518 86.7804 0.0000 21.6404 0.0000
# 4 0.0000 0.0000 0.0000 13.4696 0.0000 -3.5154
# 5 18.3228 16.5559 21.6404 0.0000 33.0762 0.0000
# 6 0.0000 0.0000 0.0000 -3.5154 0.0000 -47.0619
#
#
#
# Elastic Compliance Matrix: (Units=1/GPa)
#
#
# Indices 1 2 3 4 5 6 
#
# 1 0.011424 -0.002405 -0.002729 0.000000 -0.003339 0.000000
# 2 -0.002405 0.010260 -0.002154 0.000000 -0.002393 0.000000
# 3 -0.002729 -0.002154 0.015186 0.000000 -0.007345 0.000000
# 4 0.000000 0.000000 0.000000 0.072822 0.000000 -0.005440
# 5 -0.003339 -0.002393 -0.007345 0.000000 0.038087 0.000000
# 6 0.000000 0.000000 0.000000 -0.005440 0.000000 -0.020842
#
#
# Mechanical properties :
#
#
# Convention : Reuss Voigt Hill
#
# Bulk Modulus (GPa) = 44.85906 57.23286 51.04596
# Shear Modulus (GPa) = 33.56968 13.92174 23.74571
#
# Velocity S-wave (km/s) = 4.14011 2.66615 3.48201
# Velocity P-wave (km/s) = 6.76452 6.22098 6.49844
#
# Compressibility (1/GPa) = 0.02229204
#
# Stress axis : x y z
#
# Youngs Moduli (GPa) = 87.53146 97.46924 65.85228
#
# Poissons Ratio (x) = 0.23443 0.17972
# Poissons Ratio (y) = 0.21053 0.14188
# Poissons Ratio (z) = 0.23889 0.20999
#
# Static dielectric constant tensor:
#      x y z
#    x 3.983360 0.000000 0.137260 
#    y 0.000000 3.851530 0.000000 
#    z 0.137260 0.000000 3.732940 
# 
# 
# High freq. dielectric constant tensor:
#      x y z
#    x 1.763100 0.000000 0.013830 
#    y 0.000000 1.742450 0.000000 
#    z 0.013830 0.000000 1.767740 
# 
# From -- ./inp_files/47687.got.cif
#   From: 2010.06.25/outbox.cif.g09.slc.cpg/sg13_24_cif.got.tgz:47687.got - 2010.06.28 04:50:58.
