data_PCOD8116067
_publ_section_title
;
Structure prediction by ZEFSAII (Michael W. Deem and Ramdas Pophale) SiO2 
 PCOD8116067
Probable space group: C 2/M
;
_chemical_formula_sum "Si O2"
_cell_formula_units_Z 64
_cell_length_a 14.158287
_cell_length_b 9.345181
_cell_length_c 29.509603
_cell_angle_alpha 90.000000
_cell_angle_beta 75.416258
_cell_angle_gamma 90.000000
_cell_volume 3778.667982
_symmetry_space_group_name_H-M "C 2/M"
_symmetry_group_IT_number 12
_symmetry_cell_setting 'monoclinic'
loop_
_space_group_symop_operation_xyz
x,y,z
-x,y,-z
-x,-y,-z
x,-y,z
1/2+x,1/2+y,z
1/2-x,1/2+y,-z
1/2-x,1/2-y,-z
1/2+x,1/2-y,z
loop_
_atom_site_type_symbol
_atom_site_label
_atom_site_fract_x
_atom_site_fract_y
_atom_site_fract_z
Si Si1 0.603565 0.333421 0.006785
Si Si2 0.716590 0.669591 0.751697
Si Si3 0.092869 0.330584 0.322344
Si Si4 0.478534 0.831102 0.248926
Si Si5 0.038654 0.669515 0.426345
Si Si6 0.329985 0.830838 0.824686
Si Si7 0.794833 0.667542 0.929191
Si Si8 0.347723 0.169174 0.500013
O O1 0.601059 0.500000 0.019782
O O2 0.625515 0.246702 0.049701
O O3 0.500000 0.281431 0.000000
O O4 0.685494 0.299932 0.959280
O O5 0.700002 0.500000 0.752592
O O6 0.798860 0.717426 0.705553
O O7 0.618263 0.747935 0.751225
O O8 0.751067 0.722493 0.797324
O O9 0.090963 0.500000 0.325537
O O10 0.065906 0.261755 0.374334
O O11 0.013515 0.282353 0.294667
O O12 0.561173 0.784332 0.202836
O O13 0.459056 0.000000 0.249297
O O14 0.040302 0.500000 0.423385
O O15 0.117846 0.717974 0.454087
O O16 0.930322 0.717829 0.454095
O O17 0.304053 0.769377 0.877321
O O18 0.324595 0.000000 0.826005
O O19 0.818765 0.500000 0.928189
O O20 0.250000 0.250000 0.500000
O O21 0.329891 0.000000 0.500039
#
# Coordination Sequence:
#
# PCOD8116067 Si02
#       8
#     8   8   8   8   8   8   8   8
#     4   9  18  31  46  67  93 116 141 179 224 260
#     4   9  17  30  48  68  89 115 147 181 218 262
#     4   8  15  29  47  64  87 120 151 177 213 266
#     4   9  17  30  47  66  88 114 146 183 218 255
#     4   8  15  29  46  63  86 120 154 177 210 268
#     4   8  16  31  47  63  87 120 150 173 210 265
#     4   9  17  31  49  65  86 118 151 179 209 256
#     4   9  17  29  46  66  88 115 149 186 220 259
#
# _framework density 16.937184999999999
#
# number of rings (size 3 to 8) (size 9 to 14) (size 15 to 20)
#    0.000    3.375    0.000    2.250    0.000    2.250 
#    0.000    6.250    0.000    1.500    0.000    0.000 
#    0.000    0.000    0.000    0.000    0.000    0.000 
#
# Total GULP energy -396644.971441 kJ/mol
# GULP energy per Si atom -12395.155358 kJ/mol
# Density = 1.689863 g / cm^3
# Si number density = 16.937185 Si / 1000 Ang^3
#
#
#
# Elastic Constant Matrix: (Units=GPa)
#
#
# Indices 1 2 3 4 5 6 
#
# 1 171.0349 44.0890 84.7543 0.0000 9.0994 0.0000
# 2 44.0890 30.3493 31.5334 0.0000 3.0953 0.0000
# 3 84.7543 31.5334 172.9501 0.0000 5.0179 0.0000
# 4 0.0000 0.0000 0.0000 15.4018 0.0000 2.4977
# 5 9.0994 3.0953 5.0179 0.0000 14.8821 0.0000
# 6 0.0000 0.0000 0.0000 2.4977 0.0000 34.5700
#
#
#
# Elastic Compliance Matrix: (Units=1/GPa)
#
#
# Indices 1 2 3 4 5 6 
#
# 1 0.010525 -0.011989 -0.002886 0.000000 -0.002969 0.000000
# 2 -0.011989 0.054847 -0.004046 0.000000 -0.002713 0.000000
# 3 -0.002886 -0.004046 0.007936 0.000000 -0.000070 0.000000
# 4 0.000000 0.000000 0.000000 0.065697 0.000000 -0.004747
# 5 -0.002969 -0.002713 -0.000070 0.000000 0.069598 0.000000
# 6 0.000000 0.000000 0.000000 -0.004747 0.000000 0.029270
#
#
# Mechanical properties :
#
#
# Convention : Reuss Voigt Hill
#
# Bulk Modulus (GPa) = 28.19583 77.23196 52.71389
# Shear Modulus (GPa) = 17.38905 27.23462 22.31184
#
# Velocity S-wave (km/s) = 3.20766 4.01431 3.63344
# Velocity P-wave (km/s) = 5.51382 8.19660 6.98522
#
# Compressibility (1/GPa) = 0.03546624
#
# Stress axis : x y z
#
# Youngs Moduli (GPa) = 95.00952 18.23255 126.00849
#
# Poissons Ratio (x) = 0.21859 0.36364
# Poissons Ratio (y) = 1.13907 0.50985
# Poissons Ratio (z) = 0.27418 0.07377
#
# Static dielectric constant tensor:
#      x y z
#    x 3.130470 0.000000 0.000500 
#    y 0.000000 2.751340 0.000000 
#    z 0.000500 0.000000 3.874560 
# 
# 
# High freq. dielectric constant tensor:
#      x y z
#    x 1.656480 0.000000 0.000650 
#    y 0.000000 1.611540 0.000000 
#    z 0.000650 0.000000 1.662950 
# 
# From -- ./inp_files/374803.got.cif
#   From: 2010.06.25/outbox.cif.g09.slc.cpg/sg12_188_cif.got.tgz:374803.got - 2010.06.28 00:19:55.
