data_PCOD8116403
_publ_section_title
;
Structure prediction by ZEFSAII (Michael W. Deem and Ramdas Pophale) SiO2 
 PCOD8116403
Probable space group: C 2/M
;
_chemical_formula_sum "Si O2"
_cell_formula_units_Z 28
_cell_length_a 21.000000
_cell_length_b 9.000000
_cell_length_c 30.000000
_cell_angle_alpha 90.000000
_cell_angle_beta 30.000000
_cell_angle_gamma 90.000000
_cell_volume 2835.000000
_symmetry_space_group_name_H-M "C 2/M"
_symmetry_group_IT_number 12
_symmetry_cell_setting 'monoclinic'
loop_
_space_group_symop_operation_xyz
x,y,z
-x,y,-z
-x,-y,-z
x,-y,z
1/2+x,1/2+y,z
1/2-x,1/2+y,-z
1/2-x,1/2-y,-z
1/2+x,1/2-y,z
loop_
_atom_site_type_symbol
_atom_site_label
_atom_site_fract_x
_atom_site_fract_y
_atom_site_fract_z
Si Si1 0.574142 0.324593 0.000120
Si Si2 0.777477 0.674983 0.671584
Si Si3 0.654875 0.171459 0.129248
Si Si4 0.548489 0.670024 0.361049
Si Si5 0.988410 0.173181 0.862844
Si Si6 0.540485 0.171761 0.674454
Si Si7 0.791593 0.830679 0.570917
O O1 0.574647 0.500000 0.992997
O O2 0.508828 0.277367 0.086586
O O3 0.500000 0.259066 0.000000
O O4 0.719649 0.267065 0.920347
O O5 0.804909 0.500000 0.657042
O O6 0.844515 0.746965 0.674293
O O7 0.628378 0.712673 0.761214
O O8 0.823489 0.738494 0.596247
O O9 0.618213 0.249277 0.104174
O O10 0.541087 0.195893 0.232040
O O11 0.678273 0.000000 0.102874
O O12 0.592563 0.500000 0.327678
O O13 0.524273 0.740735 0.327091
O O14 0.417491 0.679329 0.466167
O O15 0.956971 0.000000 0.878910
O O16 0.679448 0.231739 0.606315
O O17 0.547828 0.000000 0.655341
O O18 0.758354 0.000000 0.604963
#
# Coordination Sequence:
#
# PCOD8116403 Si02
#       7
#     8   8   8   8   8   8   8
#     4   9  19  35  59  88 116 148 186 228 277 335
#     4  11  23  37  58  86 116 152 194 239 285 337
#     4  10  20  36  62  87 112 152 191 229 279 336
#     4  11  24  38  57  83 115 154 192 238 294 342
#     4  10  21  37  59  86 116 150 189 234 278 332
#     4  10  21  37  59  86 115 148 192 238 283 343
#     4  10  21  40  60  82 114 151 192 239 290 343
#
# _framework density 9.8765429999999999
#
# number of rings (size 3 to 8) (size 9 to 14) (size 15 to 20)
#    0.000    1.857    1.429    2.143    2.000    4.571 
#    0.000    0.000    0.000    0.857    0.000    0.000 
#    0.000    0.000    0.000    0.000    0.000    0.000 
#
# Total GULP energy -346947.646547 kJ/mol
# GULP energy per Si atom -12390.987377 kJ/mol
# Density = 0.985406 g / cm^3
# Si number density = 9.876543 Si / 1000 Ang^3
#
#
#
# Elastic Constant Matrix: (Units=GPa)
#
#
# Indices 1 2 3 4 5 6 
#
# 1 223.8110 56.7253 25.7324 -0.0113 -6.4103 -0.0306
# 2 56.7253 79.1568 18.8163 0.0001 -3.2066 -0.0307
# 3 25.7324 18.8163 55.2322 -0.0112 -5.8987 0.0036
# 4 -0.0113 0.0001 -0.0112 10.0731 0.0059 -2.1789
# 5 -6.4103 -3.2066 -5.8987 0.0059 38.1345 -0.0025
# 6 -0.0306 -0.0307 0.0036 -2.1789 -0.0025 47.4643
#
#
#
# Elastic Compliance Matrix: (Units=1/GPa)
#
#
# Indices 1 2 3 4 5 6 
#
# 1 0.005556 -0.003656 -0.001298 0.000005 0.000426 0.000002
# 2 -0.003656 0.016159 -0.003785 -0.000007 0.000159 0.000008
# 3 -0.001298 -0.003785 0.020277 0.000019 0.002600 -0.000004
# 4 0.000005 -0.000007 0.000019 0.100270 -0.000012 0.004603
# 5 0.000426 0.000159 0.002600 -0.000012 0.026710 0.000001
# 6 0.000002 0.000008 -0.000004 0.004603 0.000001 0.021280
#
#
# Mechanical properties :
#
#
# Convention : Reuss Voigt Hill
#
# Bulk Modulus (GPa) = 40.79028 62.30533 51.54780
# Shear Modulus (GPa) = 23.15883 36.26277 29.71080
#
# Velocity S-wave (km/s) = 3.42777 4.28928 3.88249
# Velocity P-wave (km/s) = 6.03001 7.49273 6.80081
#
# Compressibility (1/GPa) = 0.02451565
#
# Stress axis : x y z
#
# Youngs Moduli (GPa) = 179.98470 61.88446 49.31692
#
# Poissons Ratio (x) = 0.22624 0.06399
# Poissons Ratio (y) = 0.65800 0.18666
# Poissons Ratio (z) = 0.23355 0.23422
#
# Static dielectric constant tensor:
#      x y z
#    x 4.148330 -0.000020 -0.113080 
#    y -0.000020 3.544720 0.000010 
#    z -0.113080 0.000010 3.622380 
# 
# 
# High freq. dielectric constant tensor:
#      x y z
#    x 1.817220 0.000000 -0.005530 
#    y 0.000000 1.749210 0.000000 
#    z -0.005530 0.000000 1.775220 
# 
# From -- ./inp_files/275491.got.cif
#   From: 2010.06.25/outbox.ucp.g09.slc.cvg/sg12_138_cif.got.tgz:275491.got - 2010.06.28 13:50:54.
