data_PCOD8116391
_publ_section_title
;
Structure prediction by ZEFSAII (Michael W. Deem and Ramdas Pophale) SiO2 
 PCOD8116391
Probable space group: C 2/M
;
_chemical_formula_sum "Si O2"
_cell_formula_units_Z 20
_cell_length_a 24.000000
_cell_length_b 9.000000
_cell_length_c 30.000000
_cell_angle_alpha 90.000000
_cell_angle_beta 20.000000
_cell_angle_gamma 90.000000
_cell_volume 2216.290529
_symmetry_space_group_name_H-M "C 2/M"
_symmetry_group_IT_number 12
_symmetry_cell_setting 'monoclinic'
loop_
_space_group_symop_operation_xyz
x,y,z
-x,y,-z
-x,-y,-z
x,-y,z
1/2+x,1/2+y,z
1/2-x,1/2+y,-z
1/2-x,1/2-y,-z
1/2+x,1/2-y,z
loop_
_atom_site_type_symbol
_atom_site_label
_atom_site_fract_x
_atom_site_fract_y
_atom_site_fract_z
Si Si1 0.182553 0.676395 0.380223
Si Si2 0.205925 0.179748 0.876086
Si Si3 0.367109 0.180954 0.159168
Si Si4 0.745380 0.825340 0.577653
Si Si5 0.490415 0.673658 0.312391
O O1 0.221706 0.500000 0.352921
O O2 0.300134 0.759680 0.256734
O O3 0.207814 0.748111 0.410414
O O4 0.000000 0.704090 0.500000
O O5 0.238817 0.252327 0.802389
O O6 0.348960 0.227870 0.801683
O O7 0.192383 0.000000 0.882669
O O8 0.046024 0.251661 0.018007
O O9 0.366858 0.000000 0.158318
O O10 0.593510 0.740623 0.668930
O O11 0.889824 0.807136 0.433554
O O12 0.705998 0.000000 0.615316
O O13 0.529349 0.500000 0.274483
#
# Coordination Sequence:
#
# PCOD8116391 Si02
#       5
#     8   8   8   8   8
#     4  11  23  38  57  82 113 147 182 224 276 328
#     4  11  21  36  58  83 112 145 184 227 274 325
#     4  11  22  37  57  82 112 145 185 228 273 325
#     4  10  21  36  56  83 113 146 185 227 272 324
#     4  10  20  36  58  83 112 146 185 227 272 323
#
# _framework density 9.0240880000000008
#
# number of rings (size 3 to 8) (size 9 to 14) (size 15 to 20)
#    0.000    1.400    0.000    7.800    0.000    7.200 
#    0.000    1.000    0.000    0.000    0.000    0.000 
#    0.000    0.000    0.000    0.000    0.000    0.000 
#
# Total GULP energy -247921.969742 kJ/mol
# GULP energy per Si atom -12396.098487 kJ/mol
# Density = 0.900355 g / cm^3
# Si number density = 9.024088 Si / 1000 Ang^3
#
#
#
# Elastic Constant Matrix: (Units=GPa)
#
#
# Indices 1 2 3 4 5 6 
#
# 1 172.5743 75.5096 53.4252 0.0016 -1.0998 -0.0097
# 2 75.5096 210.2675 46.6774 -0.0023 -1.1452 0.0056
# 3 53.4252 46.6774 64.4528 0.0702 -0.7110 0.0009
# 4 0.0016 -0.0023 0.0702 35.5163 -0.0145 0.9717
# 5 -1.0998 -1.1452 -0.7110 -0.0145 40.5353 0.0063
# 6 -0.0097 0.0056 0.0009 0.9717 0.0063 48.2947
#
#
#
# Elastic Compliance Matrix: (Units=1/GPa)
#
#
# Indices 1 2 3 4 5 6 
#
# 1 0.008292 -0.001730 -0.005619 0.000011 0.000078 0.000002
# 2 -0.001730 0.006028 -0.002931 0.000006 0.000072 -0.000001
# 3 -0.005619 -0.002931 0.022298 -0.000044 0.000156 0.000000
# 4 0.000011 0.000006 -0.000044 0.028172 0.000010 -0.000567
# 5 0.000078 0.000072 0.000156 0.000010 0.024677 -0.000003
# 6 0.000002 -0.000001 0.000000 -0.000567 -0.000003 0.020718
#
#
# Mechanical properties :
#
#
# Convention : Reuss Voigt Hill
#
# Bulk Modulus (GPa) = 62.27827 88.72434 75.50131
# Shear Modulus (GPa) = 36.73880 42.98142 39.86011
#
# Velocity S-wave (km/s) = 4.51665 4.88534 4.70461
# Velocity P-wave (km/s) = 7.86014 9.00491 8.45193
#
# Compressibility (1/GPa) = 0.01605696
#
# Stress axis : x y z
#
# Youngs Moduli (GPa) = 120.60420 165.89074 44.84784
#
# Poissons Ratio (x) = 0.28695 0.25202
# Poissons Ratio (y) = 0.20861 0.13145
# Poissons Ratio (z) = 0.67772 0.48623
#
# Static dielectric constant tensor:
#      x y z
#    x 3.668990 -0.000140 -0.006900 
#    y -0.000140 3.863080 0.000240 
#    z -0.006900 0.000240 3.338280 
# 
# 
# High freq. dielectric constant tensor:
#      x y z
#    x 1.724320 -0.000010 -0.003310 
#    y -0.000010 1.744480 0.000020 
#    z -0.003310 0.000020 1.698120 
# 
# From -- ./inp_files/162354.got.cif
#   From: 2010.06.25/outbox.ucp.g09.slc.cvg/sg12_82_cif.got.tgz:162354.got - 2010.06.28 13:50:54.
