data_PCOD8116094
_publ_section_title
;
Structure prediction by ZEFSAII (Michael W. Deem and Ramdas Pophale) SiO2 
 PCOD8116094
Probable space group: C 2/M
;
_chemical_formula_sum "Si O2"
_cell_formula_units_Z 48
_cell_length_a 30.211190
_cell_length_b 9.671077
_cell_length_c 28.348268
_cell_angle_alpha 90.000000
_cell_angle_beta 20.231865
_cell_angle_gamma 90.000000
_cell_volume 2864.306046
_symmetry_space_group_name_H-M "C 2/M"
_symmetry_group_IT_number 12
_symmetry_cell_setting 'monoclinic'
loop_
_space_group_symop_operation_xyz
x,y,z
-x,y,-z
-x,-y,-z
x,-y,z
1/2+x,1/2+y,z
1/2-x,1/2+y,-z
1/2-x,1/2-y,-z
1/2+x,1/2-y,z
loop_
_atom_site_type_symbol
_atom_site_label
_atom_site_fract_x
_atom_site_fract_y
_atom_site_fract_z
Si Si1 0.490623 0.335577 0.115079
Si Si2 0.750062 0.834954 0.297155
Si Si3 0.099850 0.158822 0.693775
Si Si4 0.249994 0.664954 0.190384
Si Si5 0.509469 0.164434 0.596198
Si Si6 0.599900 0.841173 0.606446
O O1 0.486869 0.500000 0.116268
O O2 0.375815 0.276558 0.197654
O O3 0.473320 0.288159 0.186458
O O4 0.624854 0.277273 0.961477
O O5 0.750091 0.779376 0.243707
O O6 0.624263 0.776580 0.449170
O O7 0.750073 0.000000 0.297951
O O8 0.249971 0.178527 0.552866
O O9 0.051212 0.250016 0.698773
O O10 0.067198 0.000000 0.715123
O O11 0.249980 0.500000 0.190066
O O12 0.124762 0.722739 0.288953
O O13 0.526790 0.211903 0.632949
O O14 0.513209 0.000000 0.589919
O O15 0.567224 0.000000 0.650406
#
# Coordination Sequence:
#
# PCOD8116094 Si02
#       6
#     8   8   8   8   8   8
#     4   9  15  24  36  54  80 108 134 165 205 243
#     4   9  14  22  35  52  77 109 139 163 196 245
#     4   9  16  27  43  61  82 108 139 173 207 243
#     4   9  16  22  33  54  81 109 135 163 200 249
#     4   9  15  24  36  54  80 108 134 165 205 243
#     4   9  16  27  43  61  82 108 139 173 207 243
#
# _framework density 16.757985000000001
#
# number of rings (size 3 to 8) (size 9 to 14) (size 15 to 20)
#    0.000    3.000    1.667    1.000    0.000    4.000 
#    0.000    0.833    0.000    0.000    0.000    0.000 
#    0.000    8.000    0.000    0.000    0.000    0.000 
#
# Total GULP energy -297536.292656 kJ/mol
# GULP energy per Si atom -12397.345527 kJ/mol
# Density = 1.671984 g / cm^3
# Si number density = 16.757985 Si / 1000 Ang^3
#
#
#
# Elastic Constant Matrix: (Units=GPa)
#
#
# Indices 1 2 3 4 5 6 
#
# 1 182.6031 33.5517 96.2029 0.0039 14.5853 0.0022
# 2 33.5517 19.5615 17.1296 0.0469 4.8245 -0.0154
# 3 96.2029 17.1296 135.0816 0.0186 -0.4451 -0.0096
# 4 0.0039 0.0469 0.0186 6.0982 -0.0068 3.5228
# 5 14.5853 4.8245 -0.4451 -0.0068 22.8679 -0.0034
# 6 0.0022 -0.0154 -0.0096 3.5228 -0.0034 18.1364
#
#
#
# Elastic Compliance Matrix: (Units=1/GPa)
#
#
# Indices 1 2 3 4 5 6 
#
# 1 0.011880 -0.013205 -0.006802 0.000134 -0.004923 -0.000043
# 2 -0.013205 0.075852 -0.000239 -0.000698 -0.007585 0.000200
# 3 -0.006802 -0.000239 0.012293 -0.000034 0.004628 0.000015
# 4 0.000134 -0.000698 -0.000034 0.184716 0.000111 -0.035879
# 5 -0.004923 -0.007585 0.004628 0.000111 0.048560 -0.000016
# 6 -0.000043 0.000200 0.000015 -0.035879 -0.000016 0.062107
#
#
# Mechanical properties :
#
#
# Convention : Reuss Voigt Hill
#
# Bulk Modulus (GPa) = 16.79775 70.11273 43.45524
# Shear Modulus (GPa) = 10.97104 22.11127 16.54116
#
# Velocity S-wave (km/s) = 2.56144 3.63636 3.14516
# Velocity P-wave (km/s) = 4.33514 7.71752 6.25913
#
# Compressibility (1/GPa) = 0.05953177
#
# Stress axis : x y z
#
# Youngs Moduli (GPa) = 84.17755 13.18351 81.34780
#
# Poissons Ratio (x) = 0.17409 0.55334
# Poissons Ratio (y) = 1.11160 0.01944
# Poissons Ratio (z) = 0.57259 0.00315
#
# Static dielectric constant tensor:
#      x y z
#    x 3.352140 0.000000 0.023220 
#    y 0.000000 2.466240 0.000010 
#    z 0.023220 0.000010 3.273340 
# 
# 
# High freq. dielectric constant tensor:
#      x y z
#    x 1.662670 0.000000 0.005720 
#    y 0.000000 1.561250 0.000000 
#    z 0.005720 0.000000 1.643150 
# 
# From -- ./inp_files/101929.got.cif
#   From: 2010.06.25/outbox.cif.g09.slc.cpg/sg12_51_cif.got.tgz:101929.got - 2010.06.28 00:19:55.
