data_PCOD8116468
_publ_section_title
;
Structure prediction by ZEFSAII (Michael W. Deem and Ramdas Pophale) SiO2 
 PCOD8116468
Probable space group: C 2/M
;
_chemical_formula_sum "Si O2"
_cell_formula_units_Z 32
_cell_length_a 21.000000
_cell_length_b 18.000000
_cell_length_c 24.000000
_cell_angle_alpha 90.000000
_cell_angle_beta 20.000000
_cell_angle_gamma 90.000000
_cell_volume 3102.806740
_symmetry_space_group_name_H-M "C 2/M"
_symmetry_group_IT_number 12
_symmetry_cell_setting 'monoclinic'
loop_
_space_group_symop_operation_xyz
x,y,z
-x,y,-z
-x,-y,-z
x,-y,z
1/2+x,1/2+y,z
1/2-x,1/2+y,-z
1/2-x,1/2-y,-z
1/2+x,1/2-y,z
loop_
_atom_site_type_symbol
_atom_site_label
_atom_site_fract_x
_atom_site_fract_y
_atom_site_fract_z
Si Si1 0.364048 0.083702 0.269071
Si Si2 0.095116 0.807072 0.980261
Si Si3 0.809536 0.915586 0.407684
Si Si4 0.506512 0.203260 0.649802
Si Si5 0.919069 0.085140 0.916050
Si Si6 0.906465 0.639245 0.018047
Si Si7 0.607325 0.188177 0.139792
Si Si8 0.474041 0.631899 0.389352
O O1 0.462270 0.154345 0.216385
O O2 0.139215 0.096298 0.464077
O O3 0.410891 0.000000 0.252033
O O4 0.452829 0.088076 0.133952
O O5 0.308290 0.830899 0.795298
O O6 0.097409 0.723224 0.003449
O O7 0.992263 0.862556 0.108423
O O8 0.000000 0.814116 0.000000
O O9 0.653886 0.859638 0.513285
O O10 0.868149 0.897046 0.422027
O O11 0.980630 0.905623 0.225335
O O12 0.733682 0.000000 0.468029
O O13 0.509094 0.224007 0.713765
O O14 0.545393 0.279765 0.585509
O O15 0.916470 0.000000 0.938489
O O16 0.712271 0.115311 0.076315
O O17 0.693089 0.608739 0.201857
O O18 0.000000 0.642610 0.000000
O O19 0.750000 0.250000 0.000000
#
# Coordination Sequence:
#
# PCOD8116468 Si02
#       8
#     8   8   8   8   8   8   8   8
#     4  12  25  39  64  94 123 165 207 252 314 374
#     4   9  20  41  64  86 112 155 212 254 301 362
#     4  11  22  36  55  87 128 159 192 246 310 371
#     4  10  21  35  59  88 118 157 194 252 311 358
#     4  10  21  34  56  86 122 162 198 246 310 365
#     4  10  24  46  66  88 122 163 211 264 310 367
#     4  11  21  36  60  89 122 160 203 255 304 369
#     4  11  23  39  64  94 125 160 209 255 309 374
#
# _framework density 10.313243
#
# number of rings (size 3 to 8) (size 9 to 14) (size 15 to 20)
#    0.000    1.500    1.250    4.875    3.500    5.000 
#    0.000    1.250    0.000    1.500    0.000    0.000 
#    0.000    0.000    0.000    0.000    0.000    0.000 
#
# Total GULP energy -396442.233185 kJ/mol
# GULP energy per Si atom -12388.819787 kJ/mol
# Density = 1.028977 g / cm^3
# Si number density = 10.313243 Si / 1000 Ang^3
#
#
#
# Elastic Constant Matrix: (Units=GPa)
#
#
# Indices 1 2 3 4 5 6 
#
# 1 38.5143 11.8058 19.8842 -0.0478 -1.8765 -0.0213
# 2 11.8058 98.2032 49.0886 -0.0992 3.1349 -0.0775
# 3 19.8842 49.0886 122.0751 -0.2530 15.2055 -0.1306
# 4 -0.0478 -0.0992 -0.2530 33.5128 0.0309 3.8361
# 5 -1.8765 3.1349 15.2055 0.0309 23.7013 0.0020
# 6 -0.0213 -0.0775 -0.1306 3.8361 0.0020 19.3189
#
#
#
# Elastic Compliance Matrix: (Units=1/GPa)
#
#
# Indices 1 2 3 4 5 6 
#
# 1 0.029177 -0.001202 -0.004974 -0.000004 0.005660 -0.000006
# 2 -0.001202 0.012861 -0.005165 -0.000006 0.001517 0.000016
# 3 -0.004974 -0.005165 0.012002 0.000070 -0.007411 0.000042
# 4 -0.000004 -0.000006 0.000070 0.030534 -0.000084 -0.006063
# 5 0.005660 0.001517 -0.007411 -0.000084 0.047194 -0.000026
# 6 -0.000006 0.000016 0.000042 -0.006063 -0.000026 0.052967
#
#
# Mechanical properties :
#
#
# Convention : Reuss Voigt Hill
#
# Bulk Modulus (GPa) = 31.89001 46.70552 39.29777
# Shear Modulus (GPa) = 22.94969 27.17421 25.06195
#
# Velocity S-wave (km/s) = 3.33923 3.63360 3.48952
# Velocity P-wave (km/s) = 5.51013 6.34797 5.94383
#
# Compressibility (1/GPa) = 0.03135778
#
# Stress axis : x y z
#
# Youngs Moduli (GPa) = 34.27407 77.75619 83.31960
#
# Poissons Ratio (x) = 0.09345 0.41445
# Poissons Ratio (y) = 0.04119 0.43032
# Poissons Ratio (z) = 0.17049 0.40159
#
# Static dielectric constant tensor:
#      x y z
#    x 3.503840 0.000000 0.201340 
#    y 0.000000 4.023390 0.000500 
#    z 0.201340 0.000500 4.285780 
# 
# 
# High freq. dielectric constant tensor:
#      x y z
#    x 1.774340 -0.000010 0.012930 
#    y -0.000010 1.818890 0.000030 
#    z 0.012930 0.000030 1.820810 
# 
# From -- ./inp_files/347844.got.cif
#   From: 2010.06.25/outbox.ucp.g09.slc.cvg/sg12_174_cif.got.tgz:347844.got - 2010.06.28 13:50:54.
