data_PCOD8116635
_publ_section_title
;
Structure prediction by ZEFSAII (Michael W. Deem and Ramdas Pophale) SiO2 
 PCOD8116635
Probable space group: P 2/C
;
_chemical_formula_sum "Si O2"
_cell_formula_units_Z 26
_cell_length_a 25.795208
_cell_length_b 16.491879
_cell_length_c 5.205420
_cell_angle_alpha 90.000000
_cell_angle_beta 120.135518
_cell_angle_gamma 90.000000
_cell_volume 1915.141651
_symmetry_space_group_name_H-M "P 2/C"
_symmetry_group_IT_number 13
_symmetry_cell_setting 'monoclinic'
loop_
_space_group_symop_operation_xyz
x,y,z
-x,y,1/2-z
-x,-y,-z
x,-y,1/2+z
loop_
_atom_site_type_symbol
_atom_site_label
_atom_site_fract_x
_atom_site_fract_y
_atom_site_fract_z
Si Si1 0.500000 0.946231 0.750000
Si Si2 0.712098 0.945457 0.279640
Si Si3 0.025816 0.907652 0.564233
Si Si4 0.571073 0.544413 0.430114
Si Si5 0.844540 0.048778 0.170553
Si Si6 0.571370 0.268945 0.915021
Si Si7 0.607341 0.176169 0.504833
O O1 0.441014 0.893670 0.598066
O O2 0.500000 0.000000 0.500000
O O3 0.780095 0.910020 0.457688
O O4 0.671765 0.865524 0.192958
O O5 0.699434 0.005482 0.486262
O O6 0.097685 0.896861 0.747523
O O7 0.000000 0.862429 0.750000
O O8 0.000000 0.000000 0.500000
O O9 0.000000 0.862415 0.250000
O O10 0.500000 0.536168 0.250000
O O11 0.598023 0.498009 0.743644
O O12 0.589856 0.637815 0.488540
O O13 0.848735 0.026028 0.481143
O O14 0.500000 0.255489 0.750000
O O15 0.596574 0.239808 0.705329
O O16 0.603253 0.220721 0.222409
#
# Coordination Sequence:
#
# PCOD8116635 Si02
#       7
#     2   4   4   4   4   4   4
#     4  12  22  32  46  56  70  94 132 178 218 240
#     4  10  21  33  43  53  74 101 136 173 210 248
#     4  10  14  20  34  53  71  87 109 146 192 248
#     4   9  17  29  46  67  87 102 114 135 180 246
#     4  10  16  25  37  52  69  93 119 152 200 245
#     4  11  20  33  48  65  82 100 123 157 201 242
#     4  12  21  34  45  60  76 101 132 172 206 245
#
# _framework density 13.576019000000001
#
# number of rings (size 3 to 8) (size 9 to 14) (size 15 to 20)
#    0.000    1.538    4.615    3.692    0.000    2.462 
#    0.000    0.000    0.000    0.000    0.000    0.000 
#    0.000    0.000    0.000    0.000    0.000    0.000 
#
# Total GULP energy -322254.923553 kJ/mol
# GULP energy per Si atom -12394.420137 kJ/mol
# Density = 1.354512 g / cm^3
# Si number density = 13.576019 Si / 1000 Ang^3
#
#
#
# Elastic Constant Matrix: (Units=GPa)
#
#
# Indices 1 2 3 4 5 6 
#
# 1 68.8334 20.9301 33.3658 0.0000 6.7386 0.0000
# 2 20.9301 54.4999 26.7889 0.0000 1.8717 0.0000
# 3 33.3658 26.7889 83.1912 0.0000 -10.2197 0.0000
# 4 0.0000 0.0000 0.0000 18.0305 0.0000 -8.0829
# 5 6.7386 1.8717 -10.2197 0.0000 34.4948 0.0000
# 6 0.0000 0.0000 0.0000 -8.0829 0.0000 12.5232
#
#
#
# Elastic Compliance Matrix: (Units=1/GPa)
#
#
# Indices 1 2 3 4 5 6 
#
# 1 0.019875 -0.003749 -0.007489 0.000000 -0.005898 0.000000
# 2 -0.003749 0.022894 -0.006155 0.000000 -0.002333 0.000000
# 3 -0.007489 -0.006155 0.017877 0.000000 0.007093 0.000000
# 4 0.000000 0.000000 0.000000 0.078042 0.000000 0.050371
# 5 -0.005898 -0.002333 0.007093 0.000000 0.032370 0.000000
# 6 0.000000 0.000000 0.000000 0.050371 0.000000 0.112363
#
#
# Mechanical properties :
#
#
# Convention : Reuss Voigt Hill
#
# Bulk Modulus (GPa) = 38.66886 40.96602 39.81744
# Shear Modulus (GPa) = 15.29851 21.37233 18.33542
#
# Velocity S-wave (km/s) = 3.36054 3.97201 3.67900
# Velocity P-wave (km/s) = 6.60323 7.16077 6.88765
#
# Compressibility (1/GPa) = 0.02586060
#
# Stress axis : x y z
#
# Youngs Moduli (GPa) = 50.31382 43.67912 55.93644
#
# Poissons Ratio (x) = 0.16377 0.41889
# Poissons Ratio (y) = 0.18865 0.34430
# Poissons Ratio (z) = 0.37678 0.26885
#
# Static dielectric constant tensor:
#      x y z
#    x 2.955180 0.000000 -0.330040 
#    y 0.000000 2.404250 0.000000 
#    z -0.330040 0.000000 3.261920 
# 
# 
# High freq. dielectric constant tensor:
#      x y z
#    x 1.515580 0.000000 -0.024460 
#    y 0.000000 1.463120 0.000000 
#    z -0.024460 0.000000 1.536000 
# 
# From -- ./inp_files/7547.got.cif
#   From: 2010.06.25/outbox.cif.g09.slc.cpg/sg13_4_cif.got.tgz:7547.got - 2010.06.28 04:50:58.
