data_PCOD8116571
_publ_section_title
;
Structure prediction by ZEFSAII (Michael W. Deem and Ramdas Pophale) SiO2 
 PCOD8116571
Probable space group: C 2/M
;
_chemical_formula_sum "Si O2"
_cell_formula_units_Z 28
_cell_length_a 21.000000
_cell_length_b 9.000000
_cell_length_c 30.000000
_cell_angle_alpha 90.000000
_cell_angle_beta 30.000000
_cell_angle_gamma 90.000000
_cell_volume 2835.000000
_symmetry_space_group_name_H-M "C 2/M"
_symmetry_group_IT_number 12
_symmetry_cell_setting 'monoclinic'
loop_
_space_group_symop_operation_xyz
x,y,z
-x,y,-z
-x,-y,-z
x,-y,z
1/2+x,1/2+y,z
1/2-x,1/2+y,-z
1/2-x,1/2-y,-z
1/2+x,1/2-y,z
loop_
_atom_site_type_symbol
_atom_site_label
_atom_site_fract_x
_atom_site_fract_y
_atom_site_fract_z
Si Si1 0.466122 0.827350 0.933476
Si Si2 0.508091 0.829197 0.805286
Si Si3 0.405418 0.678921 0.633483
Si Si4 0.665791 0.178151 0.508912
Si Si5 0.273930 0.172005 0.882257
Si Si6 0.728838 0.174443 0.368216
Si Si7 0.784867 0.825320 0.184765
O O1 0.454882 0.800746 0.887144
O O2 0.569138 0.727987 0.898075
O O3 0.492935 0.000000 0.927829
O O4 0.329566 0.780956 0.034636
O O5 0.407116 0.790122 0.826973
O O6 0.629309 0.722779 0.729503
O O7 0.552100 0.000000 0.773055
O O8 0.419889 0.500000 0.621645
O O9 0.525466 0.749575 0.587858
O O10 0.375850 0.742260 0.600807
O O11 0.286602 0.724038 0.735809
O O12 0.750000 0.250000 0.500000
O O13 0.721219 0.211206 0.425867
O O14 0.655997 0.000000 0.523935
O O15 0.275803 0.201721 0.827664
O O16 0.238497 0.000000 0.912854
O O17 0.709099 0.000000 0.371465
O O18 0.775583 0.000000 0.202482
#
# Coordination Sequence:
#
# PCOD8116571 Si02
#       7
#     8   8   8   8   8   8   8
#     4  11  22  38  61  91 124 165 214 267 319 377
#     4  10  22  40  62  91 126 167 213 260 316 377
#     4  12  25  43  68  97 129 170 215 262 318 379
#     4  11  26  46  69 101 135 168 208 258 315 378
#     4  10  23  40  60  88 124 169 215 262 319 379
#     4  11  24  43  68  97 128 168 215 261 312 377
#     4  11  23  40  63  91 125 169 214 265 318 375
#
# _framework density 9.8765429999999999
#
# number of rings (size 3 to 8) (size 9 to 14) (size 15 to 20)
#    0.000    1.143    1.429    4.286    2.000    8.000 
#    0.000    0.000    0.000    0.000    0.000    0.000 
#    0.000    0.000    0.000    0.000    0.000    0.000 
#
# Total GULP energy -346952.174339 kJ/mol
# GULP energy per Si atom -12391.149084 kJ/mol
# Density = 0.985406 g / cm^3
# Si number density = 9.876543 Si / 1000 Ang^3
#
#
#
# Elastic Constant Matrix: (Units=GPa)
#
#
# Indices 1 2 3 4 5 6 
#
# 1 209.2346 56.9815 27.9154 0.0014 -6.3995 -0.0059
# 2 56.9815 134.2326 33.9016 -0.0002 0.3309 -0.0059
# 3 27.9154 33.9016 72.0625 0.0013 -1.0043 -0.0001
# 4 0.0014 -0.0002 0.0013 36.3776 -0.0002 -3.2993
# 5 -6.3995 0.3309 -1.0043 -0.0002 45.7928 0.0013
# 6 -0.0059 -0.0059 -0.0001 -3.2993 0.0013 47.5652
#
#
#
# Elastic Compliance Matrix: (Units=1/GPa)
#
#
# Indices 1 2 3 4 5 6 
#
# 1 0.005516 -0.002050 -0.001162 0.000000 0.000760 0.000000
# 2 -0.002050 0.009217 -0.003548 0.000000 -0.000431 0.000001
# 3 -0.001162 -0.003548 0.015999 -0.000001 0.000214 -0.000001
# 4 0.000000 0.000000 -0.000001 0.027663 0.000000 0.001919
# 5 0.000760 -0.000431 0.000214 0.000000 0.021952 -0.000001
# 6 0.000000 0.000001 -0.000001 0.001919 -0.000001 0.021157
#
#
# Mechanical properties :
#
#
# Convention : Reuss Voigt Hill
#
# Bulk Modulus (GPa) = 58.09730 72.56965 65.33348
# Shear Modulus (GPa) = 41.40418 45.72921 43.56669
#
# Velocity S-wave (km/s) = 4.58327 4.81671 4.70144
# Velocity P-wave (km/s) = 7.58183 8.23118 7.91317
#
# Compressibility (1/GPa) = 0.01721250
#
# Stress axis : x y z
#
# Youngs Moduli (GPa) = 181.29627 108.49395 62.50379
#
# Poissons Ratio (x) = 0.22241 0.07261
# Poissons Ratio (y) = 0.37164 0.22177
# Poissons Ratio (z) = 0.21062 0.38494
#
# Static dielectric constant tensor:
#      x y z
#    x 4.524460 0.000000 0.025090 
#    y 0.000000 3.882690 0.000000 
#    z 0.025090 0.000000 3.590200 
# 
# 
# High freq. dielectric constant tensor:
#      x y z
#    x 1.828360 0.000000 -0.000850 
#    y 0.000000 1.794480 0.000000 
#    z -0.000850 0.000000 1.773420 
# 
# From -- ./inp_files/380587.got.cif
#   From: 2010.06.25/outbox.ucp.g09.slc.cvg/sg12_191_cif.got.tgz:380587.got - 2010.06.28 13:50:54.
