data_PCOD8116304
_publ_section_title
;
Structure prediction by ZEFSAII (Michael W. Deem and Ramdas Pophale) SiO2 
 PCOD8116304
Probable space group: C 2/M
;
_chemical_formula_sum "Si O2"
_cell_formula_units_Z 32
_cell_length_a 18.000000
_cell_length_b 9.000000
_cell_length_c 30.000000
_cell_angle_alpha 90.000000
_cell_angle_beta 40.000000
_cell_angle_gamma 90.000000
_cell_volume 3123.947783
_symmetry_space_group_name_H-M "C 2/M"
_symmetry_group_IT_number 12
_symmetry_cell_setting 'monoclinic'
loop_
_space_group_symop_operation_xyz
x,y,z
-x,y,-z
-x,-y,-z
x,-y,z
1/2+x,1/2+y,z
1/2-x,1/2+y,-z
1/2-x,1/2-y,-z
1/2+x,1/2-y,z
loop_
_atom_site_type_symbol
_atom_site_label
_atom_site_fract_x
_atom_site_fract_y
_atom_site_fract_z
Si Si1 0.756795 0.324252 0.865470
Si Si2 0.411798 0.676770 0.502008
Si Si3 0.331771 0.675602 0.998221
Si Si4 0.264420 0.165744 0.274948
Si Si5 0.907187 0.824300 0.138427
Si Si6 0.237827 0.830276 0.637331
Si Si7 0.984189 0.829043 0.731874
Si Si8 0.512229 0.666022 0.365152
O O1 0.764469 0.500000 0.860130
O O2 0.672916 0.265428 0.865014
O O3 0.885108 0.261098 0.802109
O O4 0.704802 0.269510 0.936070
O O5 0.500000 0.726915 0.500000
O O6 0.399810 0.500000 0.506408
O O7 0.288323 0.751564 0.569774
O O8 0.457483 0.744544 0.433885
O O9 0.320584 0.500000 0.998718
O O10 0.462705 0.728331 0.930254
O O11 0.250000 0.750000 0.000000
O O12 0.366207 0.253739 0.203611
O O13 0.215264 0.244671 0.341468
O O14 0.150654 0.162335 0.297416
O O15 0.309029 0.000000 0.265519
O O16 0.898654 0.000000 0.146952
O O17 0.100255 0.816634 0.706763
O O18 0.278692 0.000000 0.618510
O O19 0.019912 0.758567 0.667189
O O20 0.943995 0.000000 0.744884
O O21 0.461477 0.500000 0.389715
#
# Coordination Sequence:
#
# PCOD8116304 Si02
#       8
#     8   8   8   8   8   8   8   8
#     4  10  21  39  63  88 115 154 199 240 285 345
#     4  10  19  36  60  84 111 151 198 242 292 349
#     4  10  23  41  60  87 123 158 193 237 291 345
#     4  11  21  37  62  87 114 152 199 244 287 346
#     4  10  21  39  62  88 119 154 193 242 296 341
#     4  11  24  38  55  85 122 155 191 242 300 348
#     4  10  22  40  59  83 119 158 192 237 296 346
#     4   9  18  36  60  83 111 149 194 240 286 342
#
# _framework density 10.243449
#
# number of rings (size 3 to 8) (size 9 to 14) (size 15 to 20)
#    0.000    1.875    2.500    1.125    1.750    4.250 
#    0.000    0.625    0.000    2.250    0.000    0.000 
#    0.000    0.000    0.000    0.000    0.000    0.000 
#
# Total GULP energy -396684.261752 kJ/mol
# GULP energy per Si atom -12396.383180 kJ/mol
# Density = 1.022013 g / cm^3
# Si number density = 10.243449 Si / 1000 Ang^3
#
#
#
# Elastic Constant Matrix: (Units=GPa)
#
#
# Indices 1 2 3 4 5 6 
#
# 1 40.9892 18.5088 23.3453 0.0016 0.0359 0.0090
# 2 18.5088 34.0094 33.6716 0.0018 0.6981 0.0053
# 3 23.3453 33.6716 150.6202 0.0002 8.5419 0.0009
# 4 0.0016 0.0018 0.0002 33.0507 0.0000 -1.9371
# 5 0.0359 0.6981 8.5419 0.0000 33.3000 0.0007
# 6 0.0090 0.0053 0.0009 -1.9371 0.0007 21.8744
#
#
#
# Elastic Compliance Matrix: (Units=1/GPa)
#
#
# Indices 1 2 3 4 5 6 
#
# 1 0.032587 -0.016323 -0.001440 -0.000001 0.000676 -0.000009
# 2 -0.016323 0.046001 -0.007814 -0.000002 0.001058 -0.000004
# 3 -0.001440 -0.007814 0.008727 0.000001 -0.002073 0.000002
# 4 -0.000001 -0.000002 0.000001 0.030414 0.000000 0.002693
# 5 0.000676 0.001058 -0.002073 0.000000 0.030539 -0.000001
# 6 -0.000009 -0.000004 0.000002 0.002693 -0.000001 0.045954
#
#
# Mechanical properties :
#
#
# Convention : Reuss Voigt Hill
#
# Bulk Modulus (GPa) = 27.65352 41.85225 34.75288
# Shear Modulus (GPa) = 19.42282 27.65123 23.53702
#
# Velocity S-wave (km/s) = 3.08240 3.67782 3.39319
# Velocity P-wave (km/s) = 5.11817 6.20550 5.68788
#
# Compressibility (1/GPa) = 0.03616176
#
# Stress axis : x y z
#
# Youngs Moduli (GPa) = 30.68723 21.73858 114.58962
#
# Poissons Ratio (x) = 0.35483 0.16503
# Poissons Ratio (y) = 0.50089 0.89537
# Poissons Ratio (z) = 0.04420 0.16986
#
# Static dielectric constant tensor:
#      x y z
#    x 3.600620 -0.000010 0.121300 
#    y -0.000010 3.424890 0.000000 
#    z 0.121300 0.000000 3.839160 
# 
# 
# High freq. dielectric constant tensor:
#      x y z
#    x 1.791560 0.000000 0.005880 
#    y 0.000000 1.771930 0.000000 
#    z 0.005880 0.000000 1.815620 
# 
# From -- ./inp_files/378209.got.cif
#   From: 2010.06.25/outbox.ucp.g09.slc.cvg/sg12_190_cif.got.tgz:378209.got - 2010.06.28 13:50:54.
