data_PCOD8116820
_publ_section_title
;
Structure prediction by ZEFSAII (Michael W. Deem and Ramdas Pophale) SiO2 
 PCOD8116820
Probable space group: P 2/C
;
_chemical_formula_sum "Si O2"
_cell_formula_units_Z 28
_cell_length_a 16.092133
_cell_length_b 21.561390
_cell_length_c 5.191703
_cell_angle_alpha 90.000000
_cell_angle_beta 72.609826
_cell_angle_gamma 90.000000
_cell_volume 1719.021502
_symmetry_space_group_name_H-M "P 2/C"
_symmetry_group_IT_number 13
_symmetry_cell_setting 'monoclinic'
loop_
_space_group_symop_operation_xyz
x,y,z
-x,y,1/2-z
-x,-y,-z
x,-y,1/2+z
loop_
_atom_site_type_symbol
_atom_site_label
_atom_site_fract_x
_atom_site_fract_y
_atom_site_fract_z
Si Si1 0.601939 0.734050 0.661545
Si Si2 0.759771 0.976832 0.463745
Si Si3 0.601663 0.657261 0.162091
Si Si4 0.645565 0.129770 0.061324
Si Si5 0.592854 0.065007 0.601404
Si Si6 0.089000 0.539057 0.599445
Si Si7 0.277327 0.458882 0.007007
O O1 0.500000 0.751134 0.750000
O O2 0.627939 0.688524 0.406355
O O3 0.657283 0.796810 0.579411
O O4 0.628428 0.702376 0.904609
O O5 0.740954 0.903650 0.507434
O O6 0.812601 0.994348 0.155467
O O7 0.665366 0.011469 0.506969
O O8 0.500000 0.641699 0.250000
O O9 0.650243 0.592647 0.092768
O O10 0.583966 0.104227 0.346296
O O11 0.611905 0.114668 0.807793
O O12 0.500000 0.032603 0.750000
O O13 0.086300 0.519141 0.302880
O O14 0.181049 0.573206 0.569362
O O15 0.000000 0.578279 0.750000
O O16 0.288840 0.510977 0.777145
#
# Coordination Sequence:
#
# PCOD8116820 Si02
#       7
#     4   4   4   4   4   4   4
#     4  10  19  30  41  51  68  95 126 162 197 225
#     4   8  16  24  31  45  63  79 100 137 183 227
#     4  10  21  33  42  56  76  97 128 166 194 218
#     4  10  18  26  36  47  60  84 114 142 185 234
#     4  10  17  23  32  47  64  79 102 141 186 230
#     4   8  14  25  42  65  88 103 116 137 170 219
#     4  10  19  31  48  65  80 101 124 149 190 233
#
# _framework density 16.288336000000001
#
# number of rings (size 3 to 8) (size 9 to 14) (size 15 to 20)
#    0.000    2.571    0.000    3.000    0.000    7.429 
#    0.000    0.000    0.000    0.000    0.000    0.000 
#    0.000    0.000    0.000    0.000    0.000    0.000 
#
# Total GULP energy -346885.110671 kJ/mol
# GULP energy per Si atom -12388.753953 kJ/mol
# Density = 1.625126 g / cm^3
# Si number density = 16.288336 Si / 1000 Ang^3
#
#
#
# Elastic Constant Matrix: (Units=GPa)
#
#
# Indices 1 2 3 4 5 6 
#
# 1 33.4402 24.0140 17.6548 0.0000 -1.2328 0.0000
# 2 24.0140 68.9888 17.0277 0.0000 -7.3385 0.0000
# 3 17.6548 17.0277 87.5934 0.0000 16.8490 0.0000
# 4 0.0000 0.0000 0.0000 18.0357 0.0000 6.8891
# 5 -1.2328 -7.3385 16.8490 0.0000 17.7293 0.0000
# 6 0.0000 0.0000 0.0000 6.8891 0.0000 2.4251
#
#
#
# Elastic Compliance Matrix: (Units=1/GPa)
#
#
# Indices 1 2 3 4 5 6 
#
# 1 0.042920 -0.012743 -0.007016 0.000000 0.004377 0.000000
# 2 -0.012743 0.021053 -0.003708 0.000000 0.011352 0.000000
# 3 -0.007016 -0.003708 0.017059 0.000000 -0.018234 0.000000
# 4 0.000000 0.000000 0.000000 -0.651890 0.000000 1.851820
# 5 0.004377 0.011352 -0.018234 0.000000 0.078736 0.000000
# 6 0.000000 0.000000 0.000000 1.851820 0.000000 -4.848105
#
#
# Mechanical properties :
#
#
# Convention : Reuss Voigt Hill
#
# Bulk Modulus (GPa) = 29.32581 34.15727 31.74154
# Shear Modulus (GPa) = -0.94662 16.39310 7.72324
#
# Velocity S-wave (km/s) = -0.76317 3.17587 2.17988
# Velocity P-wave (km/s) = 4.15532 5.87062 5.08581
#
# Compressibility (1/GPa) = 0.03409965
#
# Stress axis : x y z
#
# Youngs Moduli (GPa) = 23.29909 47.49825 58.62118
#
# Poissons Ratio (x) = 0.60525 0.41126
# Poissons Ratio (y) = 0.29689 0.21737
# Poissons Ratio (z) = 0.16346 0.17612
#
# Static dielectric constant tensor:
#      x y z
#    x 2.838740 0.000000 0.328260 
#    y 0.000000 2.784880 0.000000 
#    z 0.328260 0.000000 3.815790 
# 
# 
# High freq. dielectric constant tensor:
#      x y z
#    x 1.570190 0.000000 0.033760 
#    y 0.000000 1.592660 0.000000 
#    z 0.033760 0.000000 1.658630 
# 
# From -- ./inp_files/5257.got.cif
#   From: 2010.06.25/outbox.cif.g09.slc.cpg/sg13_3_cif.got.tgz:5257.got - 2010.06.28 04:50:58.
