data_PCOD8116110
_publ_section_title
;
Structure prediction by ZEFSAII (Michael W. Deem and Ramdas Pophale) SiO2 
 PCOD8116110
Probable space group: C 2/M
;
_chemical_formula_sum "Si O2"
_cell_formula_units_Z 64
_cell_length_a 25.673051
_cell_length_b 9.513940
_cell_length_c 15.407407
_cell_angle_alpha 90.000000
_cell_angle_beta 105.518872
_cell_angle_gamma 90.000000
_cell_volume 3626.087396
_symmetry_space_group_name_H-M "C 2/M"
_symmetry_group_IT_number 12
_symmetry_cell_setting 'monoclinic'
loop_
_space_group_symop_operation_xyz
x,y,z
-x,y,-z
-x,-y,-z
x,-y,z
1/2+x,1/2+y,z
1/2-x,1/2+y,-z
1/2-x,1/2-y,-z
1/2+x,1/2-y,z
loop_
_atom_site_type_symbol
_atom_site_label
_atom_site_fract_x
_atom_site_fract_y
_atom_site_fract_z
Si Si1 0.550613 0.832129 0.706513
Si Si2 0.658371 0.165652 0.278942
Si Si3 0.880112 0.332655 0.425051
Si Si4 0.069465 0.332810 0.374417
Si Si5 0.262173 0.158447 0.332320
Si Si6 0.265023 0.841564 0.129359
Si Si7 0.877211 0.664538 0.109449
Si Si8 0.337465 0.836685 0.915000
O O1 0.587760 0.774563 0.644506
O O2 0.490179 0.771036 0.669601
O O3 0.574486 0.774077 0.809236
O O4 0.548427 0.000000 0.703463
O O5 0.608669 0.218649 0.314882
O O6 0.712600 0.241387 0.336537
O O7 0.643688 0.208573 0.172913
O O8 0.668064 0.000000 0.292707
O O9 0.881039 0.500000 0.422428
O O10 0.909136 0.274264 0.524225
O O11 0.817631 0.282523 0.399248
O O12 0.067927 0.500000 0.376318
O O13 0.271836 0.159566 0.234881
O O14 0.249426 0.000000 0.358933
O O15 0.319398 0.774995 0.113754
O O16 0.215623 0.744941 0.077895
O O17 0.254409 0.000000 0.091099
O O18 0.875912 0.500000 0.128137
O O19 0.884027 0.695231 0.008669
O O20 0.322321 0.000000 0.908973
#
# Coordination Sequence:
#
# PCOD8116110 Si02
#       8
#     8   8   8   8   8   8   8   8
#     4   9  15  25  41  63  88 111 140 182 224 254
#     4   9  18  31  42  60  93 122 144 171 206 255
#     4   9  15  25  42  65  88 108 139 183 224 257
#     4   9  17  27  41  60  86 119 146 173 215 260
#     4   9  16  27  45  67  88 112 142 179 217 253
#     4   9  15  25  41  62  87 110 138 177 215 249
#     4   9  15  24  39  60  84 110 140 176 215 252
#     4   9  17  27  40  59  87 119 143 166 205 255
#
# _framework density 17.649878000000001
#
# number of rings (size 3 to 8) (size 9 to 14) (size 15 to 20)
#    0.000    3.000    1.250    0.750    0.000    2.000 
#    0.000    0.625    0.000    3.750    0.000    2.625 
#    0.000    6.000    0.000    0.000    0.000    0.000 
#
# Total GULP energy -396565.697541 kJ/mol
# GULP energy per Si atom -12392.678048 kJ/mol
# Density = 1.760971 g / cm^3
# Si number density = 17.649878 Si / 1000 Ang^3
#
#
#
# Elastic Constant Matrix: (Units=GPa)
#
#
# Indices 1 2 3 4 5 6 
#
# 1 124.2029 21.1184 79.5497 0.0000 7.3837 0.0000
# 2 21.1184 19.0799 16.6974 0.0000 3.8044 0.0000
# 3 79.5497 16.6974 139.6056 0.0000 23.9783 0.0000
# 4 0.0000 0.0000 0.0000 11.0521 0.0000 1.9443
# 5 7.3837 3.8044 23.9783 0.0000 22.4961 0.0000
# 6 0.0000 0.0000 0.0000 1.9443 0.0000 16.0144
#
#
#
# Elastic Compliance Matrix: (Units=1/GPa)
#
#
# Indices 1 2 3 4 5 6 
#
# 1 0.014624 -0.010236 -0.008056 0.000000 0.005518 0.000000
# 2 -0.010236 0.065867 -0.000868 0.000000 -0.006854 0.000000
# 3 -0.008056 -0.000868 0.013928 0.000000 -0.012055 0.000000
# 4 0.000000 0.000000 0.000000 0.092455 0.000000 -0.011225
# 5 0.005518 -0.006854 -0.012055 0.000000 0.056649 0.000000
# 6 0.000000 0.000000 0.000000 -0.011225 0.000000 0.063807
#
#
# Mechanical properties :
#
#
# Convention : Reuss Voigt Hill
#
# Bulk Modulus (GPa) = 17.82604 57.51326 37.66965
# Shear Modulus (GPa) = 13.72307 20.94738 17.33522
#
# Velocity S-wave (km/s) = 2.79142 3.44878 3.13736
# Velocity P-wave (km/s) = 4.52892 6.96528 5.87479
#
# Compressibility (1/GPa) = 0.05609771
#
# Stress axis : x y z
#
# Youngs Moduli (GPa) = 68.38210 15.18211 71.79773
#
# Poissons Ratio (x) = 0.15540 0.57843
# Poissons Ratio (y) = 0.69996 0.06233
# Poissons Ratio (z) = 0.55091 0.01318
#
# Static dielectric constant tensor:
#      x y z
#    x 3.299330 0.000000 0.097680 
#    y 0.000000 2.815930 0.000000 
#    z 0.097680 0.000000 3.584220 
# 
# 
# High freq. dielectric constant tensor:
#      x y z
#    x 1.669010 0.000000 0.002810 
#    y 0.000000 1.616850 0.000000 
#    z 0.002810 0.000000 1.699030 
# 
# From -- ./inp_files/239699.got.cif
#   From: 2010.06.25/outbox.cif.g09.slc.cpg/sg12_120_cif.got.tgz:239699.got - 2010.06.28 00:19:55.
