data_PCOD8116840
_publ_section_title
;
Structure prediction by ZEFSAII (Michael W. Deem and Ramdas Pophale) SiO2 
 PCOD8116840
Probable space group: P 2/C
;
_chemical_formula_sum "Si O2"
_cell_formula_units_Z 28
_cell_length_a 13.403348
_cell_length_b 15.353587
_cell_length_c 8.582853
_cell_angle_alpha 90.000000
_cell_angle_beta 71.326275
_cell_angle_gamma 90.000000
_cell_volume 1673.279866
_symmetry_space_group_name_H-M "P 2/C"
_symmetry_group_IT_number 13
_symmetry_cell_setting 'monoclinic'
loop_
_space_group_symop_operation_xyz
x,y,z
-x,y,1/2-z
-x,-y,-z
x,-y,1/2+z
loop_
_atom_site_type_symbol
_atom_site_label
_atom_site_fract_x
_atom_site_fract_y
_atom_site_fract_z
Si Si1 0.228004 0.097271 0.451348
Si Si2 0.384038 0.764095 0.374508
Si Si3 0.382531 0.587185 0.243037
Si Si4 0.771997 0.097272 0.679351
Si Si5 0.000000 0.093817 0.569473
Si Si6 0.615962 0.235904 0.258545
Si Si7 0.617469 0.587186 0.625569
O O1 0.249440 0.097662 0.625280
O O2 0.313682 0.154060 0.320673
O O3 0.111623 0.138949 0.468260
O O4 0.237302 0.999999 0.381350
O O5 0.500000 0.780171 0.250000
O O6 0.329770 0.676675 0.329796
O O7 0.313681 0.845938 0.365644
O O8 0.391956 0.753210 0.554022
O O9 0.500000 0.588080 0.250000
O O10 0.324541 0.499999 0.337728
O O11 0.382056 0.584555 0.058972
O O12 0.888378 0.138950 0.579882
O O13 0.000000 0.077784 0.750000
O O14 0.000000 0.000000 0.500000
O O15 0.500000 0.219827 0.250000
O O16 0.670231 0.323323 0.159563
O O17 0.500000 0.588084 0.750000
#
# Coordination Sequence:
#
# PCOD8116840 Si02
#       7
#     4   4   4   4   4   4   4
#     4  10  19  33  50  71  95 124 157 194 234 277
#     4  11  21  33  47  68  96 128 160 194 232 279
#     4  10  17  28  45  66  91 121 154 192 231 274
#     4  10  19  33  50  71  95 124 157 194 234 277
#     4   8  16  30  50  70  91 116 151 194 236 274
#     4  11  21  33  47  68  96 128 160 194 232 279
#     4  10  17  28  45  66  91 121 154 192 231 274
#
# _framework density 16.733604
#
# number of rings (size 3 to 8) (size 9 to 14) (size 15 to 20)
#    0.000    2.000    0.000    8.571    0.000    1.714 
#    0.000    2.857    0.000    0.000    0.000    1.000 
#    0.000    0.000    0.000    0.000    0.000    0.000 
#
# Total GULP energy -346877.635431 kJ/mol
# GULP energy per Si atom -12388.486980 kJ/mol
# Density = 1.669552 g / cm^3
# Si number density = 16.733604 Si / 1000 Ang^3
#
#
#
# Elastic Constant Matrix: (Units=GPa)
#
#
# Indices 1 2 3 4 5 6 
#
# 1 77.4016 48.1011 46.4090 0.0000 0.2451 0.0000
# 2 48.1011 106.7947 46.0628 0.0000 -0.9118 0.0000
# 3 46.4090 46.0628 121.6789 0.0000 19.5813 0.0000
# 4 0.0000 0.0000 0.0000 27.7301 0.0000 10.1624
# 5 0.2451 -0.9118 19.5813 0.0000 24.4274 0.0000
# 6 0.0000 0.0000 0.0000 10.1624 0.0000 5.0331
#
#
#
# Elastic Compliance Matrix: (Units=1/GPa)
#
#
# Indices 1 2 3 4 5 6 
#
# 1 0.020690 -0.006658 -0.006082 0.000000 0.004419 0.000000
# 2 -0.006658 0.013757 -0.003171 0.000000 0.003122 0.000000
# 3 -0.006082 -0.003171 0.013488 0.000000 -0.010869 0.000000
# 4 0.000000 0.000000 0.000000 0.138670 0.000000 -0.279988
# 5 0.004419 0.003122 -0.010869 0.000000 0.049723 0.000000
# 6 0.000000 0.000000 0.000000 -0.279988 0.000000 0.764003
#
#
# Mechanical properties :
#
#
# Convention : Reuss Voigt Hill
#
# Bulk Modulus (GPa) = 62.06255 65.22456 63.64355
# Shear Modulus (GPa) = 4.81917 22.45827 13.63872
#
# Velocity S-wave (km/s) = 1.69888 3.66745 2.85801
# Velocity P-wave (km/s) = 6.40448 7.54960 7.00049
#
# Compressibility (1/GPa) = 0.01611278
#
# Stress axis : x y z
#
# Youngs Moduli (GPa) = 48.33296 72.69119 74.14240
#
# Poissons Ratio (x) = 0.48396 0.45093
# Poissons Ratio (y) = 0.32179 0.23510
# Poissons Ratio (z) = 0.29396 0.23050
#
# Static dielectric constant tensor:
#      x y z
#    x 3.277450 0.000000 -0.007970 
#    y 0.000000 3.769610 0.000000 
#    z -0.007970 0.000000 3.259590 
# 
# 
# High freq. dielectric constant tensor:
#      x y z
#    x 1.615790 0.000000 0.020260 
#    y 0.000000 1.641530 0.000000 
#    z 0.020260 0.000000 1.661030 
# 
# From -- ./inp_files/16462.got.cif
#   From: 2010.06.25/outbox.cif.g09.slc.cpg/sg13_9_cif.got.tgz:16462.got - 2010.06.28 04:50:58.
