data_PCOD8116660
_publ_section_title
;
Structure prediction by ZEFSAII (Michael W. Deem and Ramdas Pophale) SiO2 
 PCOD8116660
Probable space group: P 2/C
;
_chemical_formula_sum "Si O2"
_cell_formula_units_Z 20
_cell_length_a 9.957411
_cell_length_b 22.289902
_cell_length_c 5.121552
_cell_angle_alpha 90.000000
_cell_angle_beta 120.279037
_cell_angle_gamma 90.000000
_cell_volume 981.654808
_symmetry_space_group_name_H-M "P 2/C"
_symmetry_group_IT_number 13
_symmetry_cell_setting 'monoclinic'
loop_
_space_group_symop_operation_xyz
x,y,z
-x,y,1/2-z
-x,-y,-z
x,-y,1/2+z
loop_
_atom_site_type_symbol
_atom_site_label
_atom_site_fract_x
_atom_site_fract_y
_atom_site_fract_z
Si Si1 0.899925 0.842302 0.401745
Si Si2 0.175169 0.026272 0.693906
Si Si3 0.819161 0.536926 0.065231
Si Si4 0.319697 0.662308 0.618318
Si Si5 0.819208 0.279818 0.012895
O O1 0.811083 0.902754 0.233427
O O2 0.785869 0.788465 0.382419
O O3 0.000000 0.819493 0.250000
O O4 0.000000 0.861359 0.750000
O O5 0.262876 0.008195 0.514471
O O6 0.000000 0.000000 0.500000
O O7 0.777697 0.514996 0.315670
O O8 0.000000 0.554932 0.250000
O O9 0.717464 0.592890 0.867096
O O10 0.500000 0.672856 0.750000
O O11 0.275126 0.704410 0.818644
O O12 0.225062 0.676622 0.264268
O O13 0.000000 0.287540 0.250000
#
# Coordination Sequence:
#
# PCOD8116660 Si02
#       5
#     4   4   4   4   4
#     4  11  18  29  48  76 112 153 191 232 294 360
#     4  10  15  24  40  68 109 153 168 225 300 370
#     4  10  21  38  63  92 119 151 191 241 299 360
#     4  12  25  42  62  88 124 161 203 248 298 353
#     4  11  23  39  60  86 118 163 203 249 296 359
#
# _framework density 20.373761999999999
#
# number of rings (size 3 to 8) (size 9 to 14) (size 15 to 20)
#    0.000    1.200    4.000    6.000    0.000    2.400 
#    0.000    0.000    0.000    0.000    0.000    0.000 
#    0.000   16.000    0.000    0.000    0.000    0.000 
#
# Total GULP energy -247899.670750 kJ/mol
# GULP energy per Si atom -12394.983537 kJ/mol
# Density = 2.032739 g / cm^3
# Si number density = 20.373762 Si / 1000 Ang^3
#
#
#
# Elastic Constant Matrix: (Units=GPa)
#
#
# Indices 1 2 3 4 5 6 
#
# 1 103.1761 59.9520 45.8764 0.0000 -28.6566 0.0000
# 2 59.9520 125.9418 35.1345 0.0000 1.6104 0.0000
# 3 45.8764 35.1345 87.3189 0.0000 -40.3768 0.0000
# 4 0.0000 0.0000 0.0000 23.1782 0.0000 -18.0490
# 5 -28.6566 1.6104 -40.3768 0.0000 31.0208 0.0000
# 6 0.0000 0.0000 0.0000 -18.0490 0.0000 20.3793
#
#
#
# Elastic Compliance Matrix: (Units=1/GPa)
#
#
# Indices 1 2 3 4 5 6 
#
# 1 0.023347 -0.014188 0.009434 0.000000 0.034584 0.000000
# 2 -0.014188 0.020252 -0.018188 0.000000 -0.037832 0.000000
# 3 0.009434 -0.018188 0.045916 0.000000 0.069424 0.000000
# 4 0.000000 0.000000 0.000000 0.139022 0.000000 0.123126
# 5 0.034584 -0.037832 0.069424 0.000000 0.156511 0.000000
# 6 0.000000 0.000000 0.000000 0.123126 0.000000 0.158116
#
#
# Mechanical properties :
#
#
# Convention : Reuss Voigt Hill
#
# Bulk Modulus (GPa) = 22.91936 66.48472 44.70204
# Shear Modulus (GPa) = 8.28377 26.61393 17.44885
#
# Velocity S-wave (km/s) = 2.01860 3.61818 2.92967
# Velocity P-wave (km/s) = 4.08740 7.08225 5.78209
#
# Compressibility (1/GPa) = 0.04363123
#
# Stress axis : x y z
#
# Youngs Moduli (GPa) = 42.83225 49.37823 21.77902
#
# Poissons Ratio (x) = 0.70058 -0.20547
# Poissons Ratio (y) = 0.60770 0.39612
# Poissons Ratio (z) = -0.40410 0.89810
#
# Static dielectric constant tensor:
#      x y z
#    x 5.748860 0.000000 -3.800870 
#    y 0.000000 3.820480 0.000000 
#    z -3.800870 0.000000 8.627400 
# 
# 
# High freq. dielectric constant tensor:
#      x y z
#    x 1.758880 0.000000 -0.051590 
#    y 0.000000 1.810040 0.000000 
#    z -0.051590 0.000000 1.796690 
# 
# From -- ./inp_files/1955.got.cif
#   From: 2010.06.25/outbox.cif.g09.slc.cpg/sg13_1_cif.got.tgz:1955.got - 2010.06.28 04:50:58.
