data_PCOD8116151
_publ_section_title
;
Structure prediction by ZEFSAII (Michael W. Deem and Ramdas Pophale) SiO2 
 PCOD8116151
Probable space group: C 2/M
;
_chemical_formula_sum "Si O2"
_cell_formula_units_Z 48
_cell_length_a 27.611702
_cell_length_b 9.503115
_cell_length_c 11.427777
_cell_angle_alpha 90.000000
_cell_angle_beta 58.960228
_cell_angle_gamma 90.000000
_cell_volume 2569.243301
_symmetry_space_group_name_H-M "C 2/M"
_symmetry_group_IT_number 12
_symmetry_cell_setting 'monoclinic'
loop_
_space_group_symop_operation_xyz
x,y,z
-x,y,-z
-x,-y,-z
x,-y,z
1/2+x,1/2+y,z
1/2-x,1/2+y,-z
1/2-x,1/2-y,-z
1/2+x,1/2-y,z
loop_
_atom_site_type_symbol
_atom_site_label
_atom_site_fract_x
_atom_site_fract_y
_atom_site_fract_z
Si Si1 0.437779 0.337363 0.061854
Si Si2 0.327116 0.664395 0.319659
Si Si3 0.876972 0.838762 0.645299
Si Si4 0.967175 0.657382 0.420111
Si Si5 0.773277 0.839912 0.631774
Si Si6 0.439566 0.660999 0.797888
O O1 0.444942 0.500000 0.085204
O O2 0.389546 0.274918 0.208629
O O3 0.500000 0.265516 0.000000
O O4 0.414812 0.315838 0.958161
O O5 0.323889 0.500000 0.293611
O O6 0.280757 0.739846 0.295492
O O7 0.313883 0.697056 0.471095
O O8 0.909253 0.740125 0.513074
O O9 0.810259 0.817327 0.703616
O O10 0.891626 0.799135 0.761606
O O11 0.894445 0.000000 0.597165
O O12 0.954659 0.500000 0.388680
O O13 0.000000 0.650992 0.500000
O O14 0.005190 0.741631 0.280323
O O15 0.751822 0.000000 0.647888
O O16 0.459275 0.500000 0.755217
#
# Coordination Sequence:
#
# PCOD8116151 Si02
#       6
#     8   8   8   8   8   8
#     4   9  18  31  51  74  97 129 165 200 239 287
#     4   9  18  33  51  72  96 125 164 203 239 286
#     4   9  17  29  48  73  96 124 163 203 244 285
#     4   9  17  28  43  67 100 131 158 194 241 289
#     4   9  18  32  52  73  96 125 160 204 247 286
#     4   9  17  30  48  70  97 127 163 203 239 285
#
# _framework density 18.682544
#
# number of rings (size 3 to 8) (size 9 to 14) (size 15 to 20)
#    0.000    3.000    0.000    0.500    2.333    2.667 
#    0.000    1.667    0.000    1.000    0.000    0.000 
#    0.000    0.000    0.000    0.000    0.000    0.000 
#
# Total GULP energy -297458.153496 kJ/mol
# GULP energy per Si atom -12394.089729 kJ/mol
# Density = 1.864002 g / cm^3
# Si number density = 18.682544 Si / 1000 Ang^3
#
#
#
# Elastic Constant Matrix: (Units=GPa)
#
#
# Indices 1 2 3 4 5 6 
#
# 1 114.0492 27.3402 40.7195 0.0000 -12.1558 0.0000
# 2 27.3402 54.9006 18.0041 0.0000 -7.4966 0.0000
# 3 40.7195 18.0041 76.8330 0.0000 -17.5274 0.0000
# 4 0.0000 0.0000 0.0000 11.5347 0.0000 -4.7175
# 5 -12.1558 -7.4966 -17.5274 0.0000 27.0656 0.0000
# 6 0.0000 0.0000 0.0000 -4.7175 0.0000 24.4661
#
#
#
# Elastic Compliance Matrix: (Units=1/GPa)
#
#
# Indices 1 2 3 4 5 6 
#
# 1 0.011615 -0.004022 -0.005019 0.000000 0.000852 0.000000
# 2 -0.004022 0.021319 -0.002264 0.000000 0.002633 0.000000
# 3 -0.005019 -0.002264 0.018243 0.000000 0.008933 0.000000
# 4 0.000000 0.000000 0.000000 0.094117 0.000000 0.018147
# 5 0.000852 0.002633 0.008933 0.000000 0.043845 0.000000
# 6 0.000000 0.000000 0.000000 0.018147 0.000000 0.044372
#
#
# Mechanical properties :
#
#
# Convention : Reuss Voigt Hill
#
# Bulk Modulus (GPa) = 35.00269 46.43449 40.71859
# Shear Modulus (GPa) = 18.82226 23.26120 21.04173
#
# Velocity S-wave (km/s) = 3.17752 3.53239 3.35965
# Velocity P-wave (km/s) = 5.67789 6.44558 6.07387
#
# Compressibility (1/GPa) = 0.02856923
#
# Stress axis : x y z
#
# Youngs Moduli (GPa) = 86.09533 46.90545 54.81449
#
# Poissons Ratio (x) = 0.18865 0.27510
# Poissons Ratio (y) = 0.34627 0.12408
# Poissons Ratio (z) = 0.43209 0.10618
#
# Static dielectric constant tensor:
#      x y z
#    x 3.490940 0.000000 -0.008230 
#    y 0.000000 3.402320 0.000000 
#    z -0.008230 0.000000 3.278370 
# 
# 
# High freq. dielectric constant tensor:
#      x y z
#    x 1.724400 0.000000 0.005300 
#    y 0.000000 1.701380 0.000000 
#    z 0.005300 0.000000 1.699980 
# 
# From -- ./inp_files/179727.got.cif
#   From: 2010.06.25/outbox.cif.g09.slc.cpg/sg12_90_cif.got.tgz:179727.got - 2010.06.28 00:19:55.
