data_PCOD8116326
_publ_section_title
;
Structure prediction by ZEFSAII (Michael W. Deem and Ramdas Pophale) SiO2 
 PCOD8116326
Probable space group: C 2/M
;
_chemical_formula_sum "Si O2"
_cell_formula_units_Z 32
_cell_length_a 27.000000
_cell_length_b 9.000000
_cell_length_c 21.000000
_cell_angle_alpha 90.000000
_cell_angle_beta 50.000000
_cell_angle_gamma 90.000000
_cell_volume 3909.124793
_symmetry_space_group_name_H-M "C 2/M"
_symmetry_group_IT_number 12
_symmetry_cell_setting 'monoclinic'
loop_
_space_group_symop_operation_xyz
x,y,z
-x,y,-z
-x,-y,-z
x,-y,z
1/2+x,1/2+y,z
1/2-x,1/2+y,-z
1/2-x,1/2-y,-z
1/2+x,1/2-y,z
loop_
_atom_site_type_symbol
_atom_site_label
_atom_site_fract_x
_atom_site_fract_y
_atom_site_fract_z
Si Si1 0.008217 0.828846 0.587215
Si Si2 0.477734 0.171470 0.165720
Si Si3 0.142404 0.328572 0.828641
Si Si4 0.230576 0.674732 0.331889
Si Si5 0.305814 0.824005 0.493262
Si Si6 0.939777 0.169670 0.002755
Si Si7 0.605728 0.323916 0.402989
Si Si8 0.933534 0.174264 0.331554
O O1 0.939906 0.769152 0.617587
O O2 0.070615 0.765780 0.497191
O O3 0.011816 0.801889 0.659627
O O4 0.009563 0.000000 0.567385
O O5 0.415297 0.185528 0.173522
O O6 0.461443 0.254211 0.244755
O O7 0.494782 0.000000 0.165450
O O8 0.539553 0.246820 0.079676
O O9 0.158447 0.500000 0.830286
O O10 0.203495 0.251205 0.745279
O O11 0.121237 0.249998 0.912589
O O12 0.239456 0.500000 0.315600
O O13 0.210613 0.717060 0.420365
O O14 0.172463 0.736713 0.336809
O O15 0.250000 0.750000 0.500000
O O16 0.370928 0.754029 0.411548
O O17 0.308534 0.000000 0.480500
O O18 0.920444 0.000000 0.002605
O O19 0.000000 0.174372 0.000000
O O20 0.620284 0.500000 0.391275
O O21 0.918486 0.000000 0.332355
#
# Coordination Sequence:
#
# PCOD8116326 Si02
#       8
#     8   8   8   8   8   8   8   8
#     4   8  16  30  51  73  92 121 162 205 245 290
#     4  10  20  33  49  72 101 132 167 201 238 288
#     4  10  20  33  50  70  96 132 168 201 239 287
#     4  11  22  33  46  70  99 127 162 204 247 289
#     4  11  23  35  46  64  95 133 169 202 238 283
#     4   9  17  31  51  73  97 125 159 203 249 285
#     4   9  16  32  53  70  91 123 163 203 245 292
#     4  11  20  32  50  72  97 128 165 203 244 287
#
# _framework density 8.1859760000000001
#
# number of rings (size 3 to 8) (size 9 to 14) (size 15 to 20)
#    0.000    2.125    1.250    3.750    0.000    6.500 
#    0.000    2.500    0.000    0.000    0.000    0.875 
#    0.000    0.000    0.000    0.000    0.000    0.000 
#
# Total GULP energy -396640.976609 kJ/mol
# GULP energy per Si atom -12395.030519 kJ/mol
# Density = 0.816734 g / cm^3
# Si number density = 8.185976 Si / 1000 Ang^3
#
#
#
# Elastic Constant Matrix: (Units=GPa)
#
#
# Indices 1 2 3 4 5 6 
#
# 1 55.2398 36.3623 37.8586 -0.0055 0.2067 0.0003
# 2 36.3623 121.4408 73.3241 -0.0051 1.7619 0.0018
# 3 37.8586 73.3241 151.3826 -0.0064 7.2284 0.0004
# 4 -0.0055 -0.0051 -0.0064 37.6754 0.0016 -2.9959
# 5 0.2067 1.7619 7.2284 0.0016 15.6799 0.0017
# 6 0.0003 0.0018 0.0004 -2.9959 0.0017 17.8115
#
#
#
# Elastic Compliance Matrix: (Units=1/GPa)
#
#
# Indices 1 2 3 4 5 6 
#
# 1 0.023872 -0.004969 -0.003655 0.000002 0.001929 0.000000
# 2 -0.004969 0.012699 -0.004952 0.000000 0.000922 -0.000001
# 3 -0.003655 -0.004952 0.010112 0.000001 -0.004057 0.000001
# 4 0.000002 0.000000 0.000001 0.026902 -0.000004 0.004525
# 5 0.001929 0.000922 -0.004057 -0.000004 0.065517 -0.000007
# 6 0.000000 -0.000001 0.000001 0.004525 -0.000007 0.056905
#
#
# Mechanical properties :
#
#
# Convention : Reuss Voigt Hill
#
# Bulk Modulus (GPa) = 51.20278 69.23925 60.22102
# Shear Modulus (GPa) = 21.77038 26.26792 24.01915
#
# Velocity S-wave (km/s) = 3.65051 4.00990 3.83442
# Velocity P-wave (km/s) = 7.00792 7.98888 7.51442
#
# Compressibility (1/GPa) = 0.01953019
#
# Stress axis : x y z
#
# Youngs Moduli (GPa) = 41.89088 78.74667 98.88861
#
# Poissons Ratio (x) = 0.39126 0.36148
# Poissons Ratio (y) = 0.20814 0.48973
# Poissons Ratio (z) = 0.15313 0.38998
#
# Static dielectric constant tensor:
#      x y z
#    x 3.091300 0.000000 0.004500 
#    y 0.000000 3.229830 0.000010 
#    z 0.004500 0.000010 3.234930 
# 
# 
# High freq. dielectric constant tensor:
#      x y z
#    x 1.604000 0.000000 -0.000750 
#    y 0.000000 1.641290 0.000000 
#    z -0.000750 0.000000 1.636080 
# 
# From -- ./inp_files/326809.got.cif
#   From: 2010.06.25/outbox.ucp.g09.slc.cvg/sg12_164_cif.got.tgz:326809.got - 2010.06.28 13:50:54.
