data_PCOD8116727
_publ_section_title
;
Structure prediction by ZEFSAII (Michael W. Deem and Ramdas Pophale) SiO2 
 PCOD8116727
Probable space group: P 2/C
;
_chemical_formula_sum "Si O2"
_cell_formula_units_Z 28
_cell_length_a 15.033135
_cell_length_b 8.820966
_cell_length_c 17.547107
_cell_angle_alpha 90.000000
_cell_angle_beta 38.013030
_cell_angle_gamma 90.000000
_cell_volume 1432.978233
_symmetry_space_group_name_H-M "P 2/C"
_symmetry_group_IT_number 13
_symmetry_cell_setting 'monoclinic'
loop_
_space_group_symop_operation_xyz
x,y,z
-x,y,1/2-z
-x,-y,-z
x,-y,1/2+z
loop_
_atom_site_type_symbol
_atom_site_label
_atom_site_fract_x
_atom_site_fract_y
_atom_site_fract_z
Si Si1 0.781115 0.171405 0.379042
Si Si2 0.000000 0.922469 0.250000
Si Si3 0.000000 0.429233 0.250000
Si Si4 0.103000 0.207115 0.940947
Si Si5 0.949642 0.682584 0.403876
Si Si6 0.193431 0.089557 0.304216
Si Si7 0.348435 0.172525 0.881945
Si Si8 0.338542 0.179259 0.350026
O O1 0.868277 0.326710 0.311627
O O2 0.734038 0.115572 0.327179
O O3 0.653444 0.204032 0.525568
O O4 0.867363 0.032189 0.358592
O O5 0.028036 0.818701 0.304977
O O6 0.960583 0.527012 0.350877
O O7 0.220848 0.266096 0.923298
O O8 0.033913 0.329860 0.928528
O O9 0.190993 0.085085 0.831142
O O10 0.974099 0.140243 0.079606
O O11 0.779123 0.720185 0.525599
O O12 0.295181 0.186907 0.290757
O O13 0.500000 0.235758 0.750000
O O14 0.332315 0.993241 0.881768
O O15 0.500000 0.247460 0.250000
#
# Coordination Sequence:
#
# PCOD8116727 Si02
#       8
#     4   2   2   4   4   4   4   4
#     4  11  19  35  51  80 109 143 176 231 266 323
#     4  10  16  28  56  78  98 136 174 222 278 292
#     4  10  24  32  54  84 114 136 192 222 270 310
#     4   9  16  31  53  82 107 136 185 224 267 323
#     4  10  18  34  53  81 106 142 180 228 260 315
#     4   9  17  29  56  83 104 140 180 227 273 314
#     4  10  20  34  55  83 112 140 176 227 280 328
#     4   9  18  34  55  84 113 139 177 223 273 327
#
# _framework density 19.539725000000001
#
# number of rings (size 3 to 8) (size 9 to 14) (size 15 to 20)
#    0.000    2.286    2.857    2.571    0.000    0.000 
#    0.000   16.429    0.000    1.714    0.000    0.000 
#    0.000    0.000    0.000    0.000    0.000    0.000 
#
# Total GULP energy -346941.426021 kJ/mol
# GULP energy per Si atom -12390.765215 kJ/mol
# Density = 1.949525 g / cm^3
# Si number density = 19.539725 Si / 1000 Ang^3
#
#
#
# Elastic Constant Matrix: (Units=GPa)
#
#
# Indices 1 2 3 4 5 6 
#
# 1 96.9494 8.3111 56.0134 0.0000 5.7841 0.0000
# 2 8.3111 51.7463 14.8704 0.0000 3.0297 0.0000
# 3 56.0134 14.8704 122.9353 0.0000 6.9380 0.0000
# 4 0.0000 0.0000 0.0000 17.5410 0.0000 4.1213
# 5 5.7841 3.0297 6.9380 0.0000 40.3651 0.0000
# 6 0.0000 0.0000 0.0000 4.1213 0.0000 13.6448
#
#
#
# Elastic Compliance Matrix: (Units=1/GPa)
#
#
# Indices 1 2 3 4 5 6 
#
# 1 0.014042 -0.000392 -0.006300 0.000000 -0.000900 0.000000
# 2 -0.000392 0.020080 -0.002190 0.000000 -0.001075 0.000000
# 3 -0.006300 -0.002190 0.011319 0.000000 -0.000878 0.000000
# 4 0.000000 0.000000 0.000000 0.061364 0.000000 -0.018534
# 5 -0.000900 -0.001075 -0.000878 0.000000 0.025134 0.000000
# 6 0.000000 0.000000 0.000000 -0.018534 0.000000 0.078886
#
#
# Mechanical properties :
#
#
# Convention : Reuss Voigt Hill
#
# Bulk Modulus (GPa) = 36.12964 47.78009 41.95487
# Shear Modulus (GPa) = 21.02483 27.13927 24.08205
#
# Velocity S-wave (km/s) = 3.28381 3.73088 3.51446
# Velocity P-wave (km/s) = 5.73658 6.56240 6.16334
#
# Compressibility (1/GPa) = 0.02767811
#
# Stress axis : x y z
#
# Youngs Moduli (GPa) = 71.21691 49.80032 88.34631
#
# Poissons Ratio (x) = 0.01953 0.55655
# Poissons Ratio (y) = 0.02793 0.19344
# Poissons Ratio (z) = 0.44864 0.10904
#
# Static dielectric constant tensor:
#      x y z
#    x 3.695640 0.000000 0.151880 
#    y 0.000000 3.168070 0.000000 
#    z 0.151880 0.000000 3.538810 
# 
# 
# High freq. dielectric constant tensor:
#      x y z
#    x 1.756720 0.000000 0.023030 
#    y 0.000000 1.722020 0.000000 
#    z 0.023030 0.000000 1.754510 
# 
# From -- ./inp_files/68221.got.cif
#   From: 2010.06.25/outbox.cif.g09.slc.cpg/sg13_35_cif.got.tgz:68221.got - 2010.06.28 04:50:58.
