data_PCOD8116828
_publ_section_title
;
Structure prediction by ZEFSAII (Michael W. Deem and Ramdas Pophale) SiO2 
 PCOD8116828
Probable space group: P 2/C
;
_chemical_formula_sum "Si O2"
_cell_formula_units_Z 28
_cell_length_a 12.966822
_cell_length_b 16.354672
_cell_length_c 9.053607
_cell_angle_alpha 90.000000
_cell_angle_beta 134.104347
_cell_angle_gamma 90.000000
_cell_volume 1378.687774
_symmetry_space_group_name_H-M "P 2/C"
_symmetry_group_IT_number 13
_symmetry_cell_setting 'monoclinic'
loop_
_space_group_symop_operation_xyz
x,y,z
-x,y,1/2-z
-x,-y,-z
x,-y,1/2+z
loop_
_atom_site_type_symbol
_atom_site_label
_atom_site_fract_x
_atom_site_fract_y
_atom_site_fract_z
Si Si1 0.781451 0.484787 0.540310
Si Si2 0.152676 0.225926 0.229872
Si Si3 0.252321 0.611168 0.227840
Si Si4 0.913205 0.399449 0.402252
Si Si5 0.668424 0.074200 0.582352
Si Si6 0.179668 0.215051 0.595953
Si Si7 0.335992 0.909507 0.761562
O O1 0.694874 0.552704 0.356293
O O2 0.685147 0.426730 0.555026
O O3 0.868675 0.424515 0.521991
O O4 0.888789 0.528199 0.761517
O O5 0.186042 0.322292 0.242833
O O6 0.187616 0.198449 0.430005
O O7 0.252352 0.172523 0.222778
O O8 0.985764 0.220201 0.019607
O O9 0.285658 0.707272 0.239460
O O10 0.080279 0.616681 0.057663
O O11 0.765553 0.137930 0.762587
O O12 0.704987 0.071843 0.446965
O O13 0.505702 0.101455 0.451044
O O14 0.711326 0.985169 0.684843
#
# Coordination Sequence:
#
# PCOD8116828 Si02
#       7
#     4   4   4   4   4   4   4
#     4  10  17  26  44  68 105 150 189 226 269 316
#     4  10  21  35  53  84 122 151 181 226 279 330
#     4  10  17  27  43  71 108 148 186 224 269 320
#     4  10  17  27  43  71 108 148 186 224 269 320
#     4  10  22  41  64  86 107 139 185 229 272 332
#     4  10  21  35  53  84 122 151 181 226 279 330
#     4  10  22  41  64  86 107 139 185 229 272 332
#
# _framework density 20.309166999999999
#
# number of rings (size 3 to 8) (size 9 to 14) (size 15 to 20)
#    0.000    2.000    1.429    4.286    2.000    2.857 
#    0.000    0.000    0.000    0.000    0.000    6.000 
#    0.000    0.000    0.000    0.000    0.000    0.000 
#
# Total GULP energy -346968.511606 kJ/mol
# GULP energy per Si atom -12391.732557 kJ/mol
# Density = 2.026294 g / cm^3
# Si number density = 20.309167 Si / 1000 Ang^3
#
#
#
# Elastic Constant Matrix: (Units=GPa)
#
#
# Indices 1 2 3 4 5 6 
#
# 1 54.2037 27.4162 27.6593 0.0000 -20.3925 0.0000
# 2 27.4162 87.2378 29.3289 0.0000 0.1733 0.0000
# 3 27.6593 29.3289 80.7755 0.0000 -23.8402 0.0000
# 4 0.0000 0.0000 0.0000 18.3615 0.0000 -23.6604
# 5 -20.3925 0.1733 -23.8402 0.0000 22.5734 0.0000
# 6 0.0000 0.0000 0.0000 -23.6604 0.0000 17.9690
#
#
#
# Elastic Compliance Matrix: (Units=1/GPa)
#
#
# Indices 1 2 3 4 5 6 
#
# 1 0.037256 -0.012661 0.002618 0.000000 0.036519 0.000000
# 2 -0.012661 0.018275 -0.008306 0.000000 -0.020351 0.000000
# 3 0.002618 -0.008306 0.022107 0.000000 0.025777 0.000000
# 4 0.000000 0.000000 0.000000 -0.078169 0.000000 -0.102927
# 5 0.036519 -0.020351 0.025777 0.000000 0.104670 0.000000
# 6 0.000000 0.000000 0.000000 -0.102927 0.000000 -0.079876
#
#
# Mechanical properties :
#
#
# Convention : Reuss Voigt Hill
#
# Bulk Modulus (GPa) = 24.42639 43.44731 33.93685
# Shear Modulus (GPa) = 67.01619 20.96828 43.99224
#
# Velocity S-wave (km/s) = 5.75062 3.21667 4.65922
# Velocity P-wave (km/s) = 7.49308 5.93594 6.75950
#
# Compressibility (1/GPa) = 0.04093932
#
# Stress axis : x y z
#
# Youngs Moduli (GPa) = 26.84129 54.71984 45.23400
#
# Poissons Ratio (x) = 0.69282 -0.11842
# Poissons Ratio (y) = 0.33984 0.37573
# Poissons Ratio (z) = -0.07027 0.45452
#
# Static dielectric constant tensor:
#      x y z
#    x 3.489910 0.000000 -0.478760 
#    y 0.000000 4.240880 0.000000 
#    z -0.478760 0.000000 3.672180 
# 
# 
# High freq. dielectric constant tensor:
#      x y z
#    x 1.760800 0.000000 -0.038490 
#    y 0.000000 1.810320 0.000000 
#    z -0.038490 0.000000 1.783510 
# 
# From -- ./inp_files/19681.got.cif
#   From: 2010.06.25/outbox.cif.g09.slc.cpg/sg13_10_cif.got.tgz:19681.got - 2010.06.28 04:50:58.
