data_PCOD8116308
_publ_section_title
;
Structure prediction by ZEFSAII (Michael W. Deem and Ramdas Pophale) SiO2 
 PCOD8116308
Probable space group: C 2/M
;
_chemical_formula_sum "Si O2"
_cell_formula_units_Z 32
_cell_length_a 21.000000
_cell_length_b 15.000000
_cell_length_c 30.000000
_cell_angle_alpha 90.000000
_cell_angle_beta 20.000000
_cell_angle_gamma 90.000000
_cell_volume 3232.090354
_symmetry_space_group_name_H-M "C 2/M"
_symmetry_group_IT_number 12
_symmetry_cell_setting 'monoclinic'
loop_
_space_group_symop_operation_xyz
x,y,z
-x,y,-z
-x,-y,-z
x,-y,z
1/2+x,1/2+y,z
1/2-x,1/2+y,-z
1/2-x,1/2-y,-z
1/2+x,1/2-y,z
loop_
_atom_site_type_symbol
_atom_site_label
_atom_site_fract_x
_atom_site_fract_y
_atom_site_fract_z
Si Si1 0.870587 0.103206 0.627728
Si Si2 0.632738 0.730489 0.954210
Si Si3 0.380679 0.604405 0.451586
Si Si4 0.470905 0.103911 0.708400
Si Si5 0.621602 0.397013 0.210446
Si Si6 0.362488 0.398245 0.297494
Si Si7 0.146817 0.222075 0.780630
Si Si8 0.025040 0.601902 0.399376
O O1 0.699303 0.173339 0.737817
O O2 0.000000 0.113798 0.500000
O O3 0.994535 0.130680 0.588512
O O4 0.797538 0.000000 0.679512
O O5 0.807535 0.662792 0.837669
O O6 0.697961 0.833338 0.908068
O O7 0.500000 0.708168 0.000000
O O8 0.522228 0.715787 0.073095
O O9 0.359247 0.500000 0.459486
O O10 0.481585 0.640243 0.340643
O O11 0.169182 0.639906 0.597267
O O12 0.490241 0.117251 0.642977
O O13 0.432262 0.000000 0.745658
O O14 0.682101 0.500000 0.180234
O O15 0.525842 0.389399 0.225734
O O16 0.357054 0.500000 0.282322
O O17 0.411379 0.326863 0.226883
O O18 0.167836 0.375203 0.449331
O O19 0.325066 0.169894 0.680933
O O20 0.084192 0.500000 0.370838
#
# Coordination Sequence:
#
# PCOD8116308 Si02
#       8
#     8   8   8   8   8   8   8   8
#     4  10  22  40  63  91 123 159 203 254 306 354
#     4  12  26  40  56  88 126 166 208 240 293 372
#     4   9  18  38  66  92 116 150 201 258 308 351
#     4  10  21  38  62  91 124 157 196 251 307 357
#     4  10  22  42  66  89 117 154 204 262 307 349
#     4  10  21  40  66  95 119 151 201 257 313 359
#     4  12  24  38  58  88 130 165 203 239 296 367
#     4  10  19  36  62  91 121 153 195 252 308 356
#
# _framework density 9.9007129999999997
#
# number of rings (size 3 to 8) (size 9 to 14) (size 15 to 20)
#    0.000    1.625    2.500    2.250    0.000    6.000 
#    0.000    0.000    0.000    3.000    0.000    0.000 
#    0.000    0.000    0.000    0.000    0.000    0.000 
#
# Total GULP energy -396807.969066 kJ/mol
# GULP energy per Si atom -12400.249033 kJ/mol
# Density = 0.987818 g / cm^3
# Si number density = 9.900713 Si / 1000 Ang^3
#
#
#
# Elastic Constant Matrix: (Units=GPa)
#
#
# Indices 1 2 3 4 5 6 
#
# 1 96.9640 35.2783 32.1929 0.0037 18.4353 -0.0196
# 2 35.2783 101.9611 37.4043 0.1702 11.9655 -0.0284
# 3 32.1929 37.4043 103.9786 0.5613 27.1677 -0.1754
# 4 0.0037 0.1702 0.5613 42.9891 -0.0982 -2.1390
# 5 18.4353 11.9655 27.1677 -0.0982 33.2978 0.0017
# 6 -0.0196 -0.0284 -0.1754 -2.1390 0.0017 28.2896
#
#
#
# Elastic Compliance Matrix: (Units=1/GPa)
#
#
# Indices 1 2 3 4 5 6 
#
# 1 0.012946 -0.003350 -0.001582 0.000022 -0.004672 -0.000002
# 2 -0.003350 0.012189 -0.003416 -0.000003 0.000262 -0.000012
# 3 -0.001582 -0.003416 0.013710 -0.000183 -0.009083 0.000067
# 4 0.000022 -0.000003 -0.000183 0.023352 0.000207 0.001765
# 5 -0.004672 0.000262 -0.009083 0.000207 0.039937 -0.000046
# 6 -0.000002 -0.000012 0.000067 0.001765 -0.000046 0.035482
#
#
# Mechanical properties :
#
#
# Convention : Reuss Voigt Hill
#
# Bulk Modulus (GPa) = 45.15012 56.96164 51.05588
# Shear Modulus (GPa) = 30.92205 34.11720 32.51962
#
# Velocity S-wave (km/s) = 3.95600 4.15537 4.05691
# Velocity P-wave (km/s) = 6.61193 7.20081 6.91264
#
# Compressibility (1/GPa) = 0.02214834
#
# Stress axis : x y z
#
# Youngs Moduli (GPa) = 77.24543 82.03899 72.93695
#
# Poissons Ratio (x) = 0.27487 0.11540
# Poissons Ratio (y) = 0.25881 0.24915
# Poissons Ratio (z) = 0.12222 0.28024
#
# Static dielectric constant tensor:
#      x y z
#    x 3.784000 -0.000010 0.076080 
#    y -0.000010 3.899020 0.000590 
#    z 0.076080 0.000590 3.641040 
# 
# 
# High freq. dielectric constant tensor:
#      x y z
#    x 1.779620 0.000000 0.007980 
#    y 0.000000 1.791530 0.000050 
#    z 0.007980 0.000050 1.770490 
# 
# From -- ./inp_files/381480.got.cif
#   From: 2010.06.25/outbox.ucp.g09.slc.cvg/sg12_191_cif.got.tgz:381480.got - 2010.06.28 13:50:54.
