data_PCOD8116638
_publ_section_title
;
Structure prediction by ZEFSAII (Michael W. Deem and Ramdas Pophale) SiO2 
 PCOD8116638
Probable space group: P 2/C
;
_chemical_formula_sum "Si O2"
_cell_formula_units_Z 16
_cell_length_a 19.804798
_cell_length_b 8.402863
_cell_length_c 5.213230
_cell_angle_alpha 90.000000
_cell_angle_beta 82.276352
_cell_angle_gamma 90.000000
_cell_volume 859.699362
_symmetry_space_group_name_H-M "P 2/C"
_symmetry_group_IT_number 13
_symmetry_cell_setting 'monoclinic'
loop_
_space_group_symop_operation_xyz
x,y,z
-x,y,1/2-z
-x,-y,-z
x,-y,1/2+z
loop_
_atom_site_type_symbol
_atom_site_label
_atom_site_fract_x
_atom_site_fract_y
_atom_site_fract_z
Si Si1 0.079506 0.597940 0.201479
Si Si2 0.677280 0.097014 0.856252
Si Si3 0.174324 0.104239 0.643123
Si Si4 0.470744 0.818731 0.014922
O O1 0.100186 0.482337 0.423189
O O2 0.118611 0.762020 0.213693
O O3 0.000000 0.639269 0.250000
O O4 0.749855 0.183057 0.871251
O O5 0.610931 0.201907 0.948024
O O6 0.673810 0.049236 0.559192
O O7 0.164583 0.028857 0.367131
O O8 0.500000 0.730170 0.250000
O O9 0.500000 0.730177 0.750000
O O10 0.500000 0.000000 0.000000
#
# Coordination Sequence:
#
# PCOD8116638 Si02
#       4
#     4   4   4   4
#     4  10  21  38  58  77 101 136 177 212 246 304
#     4  10  16  25  37  60  94 128 153 193 249 295
#     4  10  21  33  51  78 109 136 161 214 264 308
#     4  10  14  20  34  53  82 126 155 188 230 296
#
# _framework density 18.611158
#
# number of rings (size 3 to 8) (size 9 to 14) (size 15 to 20)
#    0.000    2.000    5.000    1.500    0.000    1.000 
#    0.000    0.000    0.000    0.000    0.000    0.000 
#    0.000    6.000    0.000    0.000    0.000    0.000 
#
# Total GULP energy -198252.597309 kJ/mol
# GULP energy per Si atom -12390.787332 kJ/mol
# Density = 1.856880 g / cm^3
# Si number density = 18.611158 Si / 1000 Ang^3
#
#
#
# Elastic Constant Matrix: (Units=GPa)
#
#
# Indices 1 2 3 4 5 6 
#
# 1 105.8192 45.4010 39.6877 0.0000 -3.1350 0.0000
# 2 45.4010 33.8630 9.2626 0.0000 -2.6317 0.0000
# 3 39.6877 9.2626 124.3933 0.0000 11.7940 0.0000
# 4 0.0000 0.0000 0.0000 12.4041 0.0000 1.9132
# 5 -3.1350 -2.6317 11.7940 0.0000 28.5523 0.0000
# 6 0.0000 0.0000 0.0000 1.9132 0.0000 -1.1950
#
#
#
# Elastic Compliance Matrix: (Units=1/GPa)
#
#
# Indices 1 2 3 4 5 6 
#
# 1 0.025885 -0.032876 -0.006029 0.000000 0.002302 0.000000
# 2 -0.032876 0.072315 0.005011 0.000000 0.000986 0.000000
# 3 -0.006029 0.005011 0.010000 0.000000 -0.004331 0.000000
# 4 0.000000 0.000000 0.000000 0.064653 0.000000 0.103511
# 5 0.002302 0.000986 -0.004331 0.000000 0.037156 0.000000
# 6 0.000000 0.000000 0.000000 0.103511 0.000000 -0.671123
#
#
# Mechanical properties :
#
#
# Convention : Reuss Voigt Hill
#
# Bulk Modulus (GPa) = 24.74552 50.30869 37.52710
# Shear Modulus (GPa) = -13.16289 19.26724 3.05217
#
# Velocity S-wave (km/s) = -2.66232 3.22102 1.28200
# Velocity P-wave (km/s) = 1.96834 6.39715 4.73275
#
# Compressibility (1/GPa) = 0.04041135
#
# Stress axis : x y z
#
# Youngs Moduli (GPa) = 38.63279 13.82844 100.00033
#
# Poissons Ratio (x) = 0.45463 0.60288
# Poissons Ratio (y) = 1.27010 -0.50111
# Poissons Ratio (z) = 0.23291 -0.06930
#
# Static dielectric constant tensor:
#      x y z
#    x 3.791730 0.000000 0.181450 
#    y 0.000000 2.589910 0.000000 
#    z 0.181450 0.000000 4.777370 
# 
# 
# High freq. dielectric constant tensor:
#      x y z
#    x 1.743180 0.000000 0.003060 
#    y 0.000000 1.630380 0.000000 
#    z 0.003060 0.000000 1.760690 
# 
# From -- ./inp_files/5764.got.cif
#   From: 2010.06.25/outbox.cif.g09.slc.cpg/sg13_3_cif.got.tgz:5764.got - 2010.06.28 04:50:58.
