data_PCOD8116707
_publ_section_title
;
Structure prediction by ZEFSAII (Michael W. Deem and Ramdas Pophale) SiO2 
 PCOD8116707
Probable space group: P 2/C
;
_chemical_formula_sum "Si O2"
_cell_formula_units_Z 24
_cell_length_a 19.990455
_cell_length_b 12.061381
_cell_length_c 5.380024
_cell_angle_alpha 90.000000
_cell_angle_beta 70.872031
_cell_angle_gamma 90.000000
_cell_volume 1225.571880
_symmetry_space_group_name_H-M "P 2/C"
_symmetry_group_IT_number 13
_symmetry_cell_setting 'monoclinic'
loop_
_space_group_symop_operation_xyz
x,y,z
-x,y,1/2-z
-x,-y,-z
x,-y,1/2+z
loop_
_atom_site_type_symbol
_atom_site_label
_atom_site_fract_x
_atom_site_fract_y
_atom_site_fract_z
Si Si1 0.917464 0.128771 0.347607
Si Si2 0.598058 0.759024 0.948939
Si Si3 0.500000 0.603102 0.750000
Si Si4 0.305357 0.932772 0.883818
Si Si5 0.500000 0.929700 0.250000
Si Si6 0.140589 0.116899 0.581648
Si Si7 0.637922 0.463010 0.532358
O O1 0.881356 0.182097 0.639255
O O2 0.000000 0.154374 0.250000
O O3 0.902446 0.997911 0.362733
O O4 0.882797 0.182523 0.140121
O O5 0.535460 0.687689 0.900794
O O6 0.649328 0.819019 0.686855
O O7 0.568877 0.852692 0.169032
O O8 0.638210 0.669443 0.072278
O O9 0.561375 0.523618 0.555205
O O10 0.324716 0.008297 0.619981
O O11 0.223483 0.903630 0.975112
O O12 0.500000 0.000000 0.500000
O O13 0.678084 0.483735 0.219049
#
# Coordination Sequence:
#
# PCOD8116707 Si02
#       7
#     4   4   2   4   2   4   4
#     4  10  16  26  47  70  88 120 175 215 240 261
#     4  11  23  37  58  75  95 131 169 208 267 317
#     4  10  20  40  60  80  96 112 158 230 280 316
#     4  12  23  38  49  68 103 146 177 199 236 301
#     4  12  24  38  48  70  98 126 168 214 240 272
#     4  10  16  29  42  63  95 128 164 209 231 273
#     4  10  20  36  58  79  95 111 146 213 277 317
#
# _framework density 19.582692999999999
#
# number of rings (size 3 to 8) (size 9 to 14) (size 15 to 20)
#    0.000    1.333    3.333    7.500    0.000    5.333 
#    0.000    0.000    0.000    0.000    0.000    0.000 
#    0.000    0.000    0.000    0.000    0.000  113.333 
#
# Total GULP energy -297321.583512 kJ/mol
# GULP energy per Si atom -12388.399313 kJ/mol
# Density = 1.953812 g / cm^3
# Si number density = 19.582693 Si / 1000 Ang^3
#
#
#
# Elastic Constant Matrix: (Units=GPa)
#
#
# Indices 1 2 3 4 5 6 
#
# 1 38.7292 21.5867 32.3747 0.0000 8.3577 0.0000
# 2 21.5867 91.8755 53.6697 0.0000 -1.7345 0.0000
# 3 32.3747 53.6697 158.3983 0.0000 29.5680 0.0000
# 4 0.0000 0.0000 0.0000 7.8491 0.0000 8.9210
# 5 8.3577 -1.7345 29.5680 0.0000 34.4948 0.0000
# 6 0.0000 0.0000 0.0000 8.9210 0.0000 -17.9859
#
#
#
# Elastic Compliance Matrix: (Units=1/GPa)
#
#
# Indices 1 2 3 4 5 6 
#
# 1 0.033345 -0.005591 -0.004000 0.000000 -0.004931 0.000000
# 2 -0.005591 0.015446 -0.005344 0.000000 0.006712 0.000000
# 3 -0.004000 -0.005344 0.010489 0.000000 -0.008290 0.000000
# 4 0.000000 0.000000 0.000000 0.081474 0.000000 0.040411
# 5 -0.004931 0.006712 -0.008290 0.000000 0.037628 0.000000
# 6 0.000000 0.000000 0.000000 0.040411 0.000000 -0.035555
#
#
# Mechanical properties :
#
#
# Convention : Reuss Voigt Hill
#
# Bulk Modulus (GPa) = 34.00222 56.02949 45.01585
# Shear Modulus (GPa) = 27.39719 16.96303 22.18011
#
# Velocity S-wave (km/s) = 3.74445 2.94636 3.36912
# Velocity P-wave (km/s) = 6.00796 6.34418 6.17836
#
# Compressibility (1/GPa) = 0.02940984
#
# Stress axis : x y z
#
# Youngs Moduli (GPa) = 29.98983 64.74074 95.33777
#
# Poissons Ratio (x) = 0.36195 0.38140
# Poissons Ratio (y) = 0.16767 0.50947
# Poissons Ratio (z) = 0.11997 0.34596
#
# Static dielectric constant tensor:
#      x y z
#    x 3.506070 0.000000 0.519060 
#    y 0.000000 3.458630 0.000000 
#    z 0.519060 0.000000 4.760590 
# 
# 
# High freq. dielectric constant tensor:
#      x y z
#    x 1.731140 0.000000 0.023210 
#    y 0.000000 1.709650 0.000000 
#    z 0.023210 0.000000 1.793420 
# 
# From -- ./inp_files/6834.got.cif
#   From: 2010.06.25/outbox.cif.g09.slc.cpg/sg13_4_cif.got.tgz:6834.got - 2010.06.28 04:50:58.
