data_PCOD8116271
_publ_section_title
;
Structure prediction by ZEFSAII (Michael W. Deem and Ramdas Pophale) SiO2 
 PCOD8116271
Probable space group: C 2/M
;
_chemical_formula_sum "Si O2"
_cell_formula_units_Z 28
_cell_length_a 21.000000
_cell_length_b 18.000000
_cell_length_c 21.000000
_cell_angle_alpha 90.000000
_cell_angle_beta 160.000000
_cell_angle_gamma 90.000000
_cell_volume 2714.955898
_symmetry_space_group_name_H-M "C 2/M"
_symmetry_group_IT_number 12
_symmetry_cell_setting 'monoclinic'
loop_
_space_group_symop_operation_xyz
x,y,z
-x,y,-z
-x,-y,-z
x,-y,z
1/2+x,1/2+y,z
1/2-x,1/2+y,-z
1/2-x,1/2-y,-z
1/2+x,1/2-y,z
loop_
_atom_site_type_symbol
_atom_site_label
_atom_site_fract_x
_atom_site_fract_y
_atom_site_fract_z
Si Si1 0.199034 0.416736 0.202190
Si Si2 0.310750 0.913046 0.010634
Si Si3 0.142689 0.340242 0.712857
Si Si4 0.730511 0.916916 0.381547
Si Si5 0.109736 0.084989 0.954309
Si Si6 0.773826 0.586658 0.340809
Si Si7 0.088141 0.831217 0.696680
O O1 0.203285 0.500000 0.178061
O O2 0.213577 0.417222 0.290631
O O3 0.370076 0.373729 0.330135
O O4 0.000000 0.378499 0.000000
O O5 0.532570 0.896456 0.229403
O O6 0.287487 0.000000 0.968742
O O7 0.182489 0.895754 0.951864
O O8 0.247721 0.856015 0.896458
O O9 0.232265 0.358167 0.726975
O O10 0.088141 0.254862 0.675747
O O11 0.963075 0.392407 0.555095
O O12 0.292510 0.360271 0.905628
O O13 0.893023 0.856258 0.547249
O O14 0.791118 0.000000 0.462005
O O15 0.890195 0.099601 0.761478
O O16 0.159490 0.000000 0.016974
O O17 0.775686 0.500000 0.320272
#
# Coordination Sequence:
#
# PCOD8116271 Si02
#       7
#     8   8   8   8   8   8   8
#     4  10  19  34  57  83 118 161 206 254 295 337
#     4  10  22  42  64  89 120 162 211 252 287 346
#     4  11  24  38  62  94 125 156 189 250 314 365
#     4  10  21  37  59  85 120 165 209 250 288 344
#     4  10  22  43  70  90 114 157 206 251 305 361
#     4  10  22  43  68  93 119 149 199 259 306 361
#     4  12  24  36  58  89 128 163 197 244 300 365
#
# _framework density 10.313243
#
# number of rings (size 3 to 8) (size 9 to 14) (size 15 to 20)
#    0.000    1.571    1.429    3.857    4.000    6.286 
#    0.000    5.714    0.000    0.000    0.000    0.000 
#    0.000    0.000    0.000    0.000    0.000    0.000 
#
# Total GULP energy -346964.567740 kJ/mol
# GULP energy per Si atom -12391.591705 kJ/mol
# Density = 1.028977 g / cm^3
# Si number density = 10.313243 Si / 1000 Ang^3
#
#
#
# Elastic Constant Matrix: (Units=GPa)
#
#
# Indices 1 2 3 4 5 6 
#
# 1 112.8229 30.8352 28.3348 -0.1034 45.5527 -0.0620
# 2 30.8352 103.6673 29.3550 -0.0784 19.1387 -0.1195
# 3 28.3348 29.3550 79.6859 -0.0865 29.4738 -0.2388
# 4 -0.1034 -0.0784 -0.0865 30.4387 0.0149 -1.1133
# 5 45.5527 19.1387 29.4738 0.0149 37.9002 -0.0552
# 6 -0.0620 -0.1195 -0.2388 -1.1133 -0.0552 22.5854
#
#
#
# Elastic Compliance Matrix: (Units=1/GPa)
#
#
# Indices 1 2 3 4 5 6 
#
# 1 0.017807 -0.001901 0.002709 0.000075 -0.022549 0.000016
# 2 -0.001901 0.011275 -0.003112 0.000015 -0.000990 0.000020
# 3 0.002709 -0.003112 0.018749 0.000068 -0.016265 0.000153
# 4 0.000075 0.000015 0.000068 0.032913 -0.000161 0.001623
# 5 -0.022549 -0.000990 -0.016265 -0.000161 0.066636 -0.000084
# 6 0.000016 0.000020 0.000153 0.001623 -0.000084 0.044358
#
#
# Mechanical properties :
#
#
# Convention : Reuss Voigt Hill
#
# Bulk Modulus (GPa) = 23.13516 52.58067 37.85791
# Shear Modulus (GPa) = 23.72447 32.02825 27.87636
#
# Velocity S-wave (km/s) = 3.39513 3.94480 3.68024
# Velocity P-wave (km/s) = 5.15847 6.80410 6.03761
#
# Compressibility (1/GPa) = 0.04322425
#
# Stress axis : x y z
#
# Youngs Moduli (GPa) = 56.15751 88.68836 53.33681
#
# Poissons Ratio (x) = 0.16856 -0.14448
# Poissons Ratio (y) = 0.10673 0.16597
# Poissons Ratio (z) = -0.15212 0.27598
#
# Static dielectric constant tensor:
#      x y z
#    x 3.938670 -0.000230 0.424720 
#    y -0.000230 3.780170 -0.000340 
#    z 0.424720 -0.000340 3.969230 
# 
# 
# High freq. dielectric constant tensor:
#      x y z
#    x 1.815280 -0.000020 0.025670 
#    y -0.000020 1.798260 -0.000040 
#    z 0.025670 -0.000040 1.813450 
# 
# From -- ./inp_files/322752.got.cif
#   From: 2010.06.25/outbox.ucp.g09.slc.cvg/sg12_162_cif.got.tgz:322752.got - 2010.06.28 13:50:54.
