data_PCOD8116680
_publ_section_title
;
Structure prediction by ZEFSAII (Michael W. Deem and Ramdas Pophale) SiO2 
 PCOD8116680
Probable space group: P 2/C
;
_chemical_formula_sum "Si O2"
_cell_formula_units_Z 30
_cell_length_a 35.470793
_cell_length_b 6.939660
_cell_length_c 5.321477
_cell_angle_alpha 90.000000
_cell_angle_beta 102.726905
_cell_angle_gamma 90.000000
_cell_volume 1277.726563
_symmetry_space_group_name_H-M "P 2/C"
_symmetry_group_IT_number 13
_symmetry_cell_setting 'monoclinic'
loop_
_space_group_symop_operation_xyz
x,y,z
-x,y,1/2-z
-x,-y,-z
x,-y,1/2+z
loop_
_atom_site_type_symbol
_atom_site_label
_atom_site_fract_x
_atom_site_fract_y
_atom_site_fract_z
Si Si1 0.500000 0.871341 0.250000
Si Si2 0.781959 0.208905 0.695071
Si Si3 0.297316 0.622876 0.469745
Si Si4 0.615383 0.284144 0.409412
Si Si5 0.016203 0.781614 0.523820
Si Si6 0.101448 0.118871 0.116859
Si Si7 0.185691 0.224847 0.257005
Si Si8 0.582711 0.716708 0.361350
O O1 0.536543 0.728696 0.303972
O O2 0.500000 0.000000 0.500000
O O3 0.735429 0.212388 0.607410
O O4 0.799830 0.322462 0.480836
O O5 0.799434 0.995841 0.739562
O O6 0.795190 0.321468 0.968404
O O7 0.292878 0.470847 0.237702
O O8 0.338565 0.724001 0.508629
O O9 0.597960 0.498973 0.372355
O O10 0.598233 0.177989 0.630864
O O11 0.600911 0.178534 0.133924
O O12 0.062425 0.760801 0.595931
O O13 0.000000 0.676947 0.750000
O O14 0.000000 0.000000 0.500000
O O15 0.000000 0.676967 0.250000
O O16 0.139491 0.247620 0.210512
O O17 0.102068 0.956807 0.332712
#
# Coordination Sequence:
#
# PCOD8116680 Si02
#       8
#     2   4   4   4   4   4   4   4
#     4  12  26  42  62  88 124 162 180 204 258 316
#     4  10  20  32  54  70 106 128 175 225 248 312
#     4  12  21  37  59  86 108 138 171 221 285 313
#     4  10  19  37  64  89 108 135 182 234 264 297
#     4  10  16  22  31  54  84 116 165 212 250 295
#     4  12  16  25  43  57  86 129 177 209 245 306
#     4  10  19  35  47  73  98 141 183 208 251 306
#     4  10  20  38  64  86 118 140 183 224 255 303
#
# _framework density 23.479201
#
# number of rings (size 3 to 8) (size 9 to 14) (size 15 to 20)
#    0.000    1.333    8.000    1.600    0.000    2.133 
#    0.000    0.000   17.600    0.000    0.000    0.000 
#    0.000    0.000    0.000    0.000    0.000  162.667 
#
# Total GULP energy -371731.183508 kJ/mol
# GULP energy per Si atom -12391.039450 kJ/mol
# Density = 2.342576 g / cm^3
# Si number density = 23.479201 Si / 1000 Ang^3
#
#
#
# Elastic Constant Matrix: (Units=GPa)
#
#
# Indices 1 2 3 4 5 6 
#
# 1 201.7770 11.2763 59.4591 0.0000 28.8657 0.0000
# 2 11.2763 29.2846 -9.4288 0.0000 8.0850 0.0000
# 3 59.4591 -9.4288 219.4432 0.0000 -19.2495 0.0000
# 4 0.0000 0.0000 0.0000 -7.3617 0.0000 11.8117
# 5 28.8657 8.0850 -19.2495 0.0000 63.5135 0.0000
# 6 0.0000 0.0000 0.0000 11.8117 0.0000 12.2611
#
#
#
# Elastic Compliance Matrix: (Units=1/GPa)
#
#
# Indices 1 2 3 4 5 6 
#
# 1 0.006119 -0.002146 -0.002024 0.000000 -0.003121 0.000000
# 2 -0.002146 0.036432 0.001875 0.000000 -0.003094 0.000000
# 3 -0.002024 0.001875 0.005389 0.000000 0.002314 0.000000
# 4 0.000000 0.000000 0.000000 -0.053361 0.000000 0.051405
# 5 -0.003121 -0.003094 0.002314 0.000000 0.018258 0.000000
# 6 0.000000 0.000000 0.000000 0.051405 0.000000 0.032038
#
#
# Mechanical properties :
#
#
# Convention : Reuss Voigt Hill
#
# Bulk Modulus (GPa) = 23.06765 63.67977 43.37371
# Shear Modulus (GPa) = 78.22886 39.62913 58.92899
#
# Velocity S-wave (km/s) = 5.77847 4.11279 5.01526
# Velocity P-wave (km/s) = 7.37340 7.05224 7.21460
#
# Compressibility (1/GPa) = 0.04335075
#
# Stress axis : x y z
#
# Youngs Moduli (GPa) = 163.43093 27.44841 185.56418
#
# Poissons Ratio (x) = 0.05891 0.37556
# Poissons Ratio (y) = 0.35073 -0.34802
# Poissons Ratio (z) = 0.33077 -0.05148
#
# Static dielectric constant tensor:
#      x y z
#    x 6.941890 0.000000 -7.343470 
#    y 0.000000 3.428490 0.000000 
#    z -7.343470 0.000000 26.288170 
# 
# 
# High freq. dielectric constant tensor:
#      x y z
#    x 1.944200 0.000000 -0.010660 
#    y 0.000000 1.867280 0.000000 
#    z -0.010660 0.000000 1.974790 
# 
# From -- ./inp_files/8099.got.cif
#   From: 2010.06.25/outbox.cif.g09.slc.cpg/sg13_5_cif.got.tgz:8099.got - 2010.06.28 04:50:58.
