data_PCOD8116960
_publ_section_title
;
Structure prediction by ZEFSAII (Michael W. Deem and Ramdas Pophale) SiO2 
 PCOD8116960
Probable space group: P 2/C
;
_chemical_formula_sum "Si O2"
_cell_formula_units_Z 20
_cell_length_a 8.631108
_cell_length_b 12.690773
_cell_length_c 9.837126
_cell_angle_alpha 90.000000
_cell_angle_beta 90.877400
_cell_angle_gamma 90.000000
_cell_volume 1077.387512
_symmetry_space_group_name_H-M "P 2/C"
_symmetry_group_IT_number 13
_symmetry_cell_setting 'monoclinic'
loop_
_space_group_symop_operation_xyz
x,y,z
-x,y,1/2-z
-x,-y,-z
x,-y,1/2+z
loop_
_atom_site_type_symbol
_atom_site_label
_atom_site_fract_x
_atom_site_fract_y
_atom_site_fract_z
Si Si1 0.927411 0.246868 0.394499
Si Si2 0.891820 0.023313 0.374497
Si Si3 0.860193 0.797887 0.354543
Si Si4 0.826523 0.542649 0.004506
Si Si5 0.679769 0.402589 0.782145
O O1 0.817406 0.140171 0.394834
O O2 0.816173 0.340648 0.440873
O O3 0.000000 0.274880 0.250000
O O4 0.073880 0.234375 0.497737
O O5 0.000000 0.043436 0.250000
O O6 0.786257 0.917979 0.354171
O O7 0.000000 0.000000 0.500000
O O8 0.726930 0.718748 0.306029
O O9 0.000000 0.794366 0.250000
O O10 0.775219 0.545569 0.160333
O O11 0.712620 0.467686 0.919135
O O12 0.000000 0.500000 0.000000
O O13 0.500000 0.406467 0.750000
#
# Coordination Sequence:
#
# PCOD8116960 Si02
#       5
#     4   4   4   4   4
#     4  10  18  31  55  89 110 137 186 241 278 314
#     4   8  16  27  50  83 110 133 175 240 279 314
#     4  10  17  35  57  81 109 146 190 228 278 337
#     4  12  22  39  61  83 111 147 198 234 275 337
#     4  12  25  39  56  83 117 151 183 234 293 343
#
# _framework density 18.563423
#
# number of rings (size 3 to 8) (size 9 to 14) (size 15 to 20)
#    0.000    1.600    4.000    2.400    0.000    0.000 
#    0.000    0.000    0.000    2.400    0.000    0.000 
#    0.000    0.000    0.000    0.000    0.000    0.000 
#
# Total GULP energy -247779.156704 kJ/mol
# GULP energy per Si atom -12388.957835 kJ/mol
# Density = 1.852117 g / cm^3
# Si number density = 18.563423 Si / 1000 Ang^3
#
#
#
# Elastic Constant Matrix: (Units=GPa)
#
#
# Indices 1 2 3 4 5 6 
#
# 1 73.1227 33.6135 12.4043 0.0000 12.8468 0.0000
# 2 33.6135 157.4707 13.1367 0.0000 10.7731 0.0000
# 3 12.4043 13.1367 102.4212 0.0000 1.1620 0.0000
# 4 0.0000 0.0000 0.0000 30.9702 0.0000 5.6600
# 5 12.8468 10.7731 1.1620 0.0000 21.6414 0.0000
# 6 0.0000 0.0000 0.0000 5.6600 0.0000 10.8080
#
#
#
# Elastic Compliance Matrix: (Units=1/GPa)
#
#
# Indices 1 2 3 4 5 6 
#
# 1 0.016739 -0.002866 -0.001564 0.000000 -0.008426 0.000000
# 2 -0.002866 0.007132 -0.000547 0.000000 -0.001820 0.000000
# 3 -0.001564 -0.000547 0.010016 0.000000 0.000663 0.000000
# 4 0.000000 0.000000 0.000000 0.035706 0.000000 -0.018699
# 5 -0.008426 -0.001820 0.000663 0.000000 0.052080 0.000000
# 6 0.000000 0.000000 0.000000 -0.018699 0.000000 0.102316
#
#
# Mechanical properties :
#
#
# Convention : Reuss Voigt Hill
#
# Bulk Modulus (GPa) = 41.78443 50.14708 45.96576
# Shear Modulus (GPa) = 20.66791 30.94125 25.80458
#
# Velocity S-wave (km/s) = 3.34034 4.08706 3.73242
# Velocity P-wave (km/s) = 6.11842 7.02457 6.58709
#
# Compressibility (1/GPa) = 0.02393236
#
# Stress axis : x y z
#
# Youngs Moduli (GPa) = 59.74148 140.20691 99.84352
#
# Poissons Ratio (x) = 0.40185 0.15616
# Poissons Ratio (y) = 0.17123 0.05462
# Poissons Ratio (z) = 0.09344 0.07670
#
# Static dielectric constant tensor:
#      x y z
#    x 2.780600 0.000000 0.068530 
#    y 0.000000 1.208330 0.000000 
#    z 0.068530 0.000000 3.826920 
# 
# 
# High freq. dielectric constant tensor:
#      x y z
#    x 1.636190 0.000000 0.003490 
#    y 0.000000 1.758130 0.000000 
#    z 0.003490 0.000000 1.750550 
# 
# From -- ./inp_files/11779.got.cif
#   From: 2010.06.25/outbox.cif.g09.slc.cpg/sg13_6_cif.got.tgz:11779.got - 2010.06.28 04:50:58.
