data_PCOD8116767
_publ_section_title
;
Structure prediction by ZEFSAII (Michael W. Deem and Ramdas Pophale) SiO2 
 PCOD8116767
Probable space group: P 2/C
;
_chemical_formula_sum "Si O2"
_cell_formula_units_Z 26
_cell_length_a 19.717728
_cell_length_b 9.189004
_cell_length_c 8.871842
_cell_angle_alpha 90.000000
_cell_angle_beta 63.212661
_cell_angle_gamma 90.000000
_cell_volume 1434.952605
_symmetry_space_group_name_H-M "P 2/C"
_symmetry_group_IT_number 13
_symmetry_cell_setting 'monoclinic'
loop_
_space_group_symop_operation_xyz
x,y,z
-x,y,1/2-z
-x,-y,-z
x,-y,1/2+z
loop_
_atom_site_type_symbol
_atom_site_label
_atom_site_fract_x
_atom_site_fract_y
_atom_site_fract_z
Si Si1 0.347978 0.666377 0.241945
Si Si2 0.255389 0.839391 0.845288
Si Si3 0.761101 0.124668 0.786707
Si Si4 0.000000 0.032811 0.250000
Si Si5 0.105086 0.073551 0.394080
Si Si6 0.369109 0.361388 0.074509
Si Si7 0.508142 0.845498 0.416133
O O1 0.264933 0.728378 0.274870
O O2 0.347629 0.638990 0.420426
O O3 0.408659 0.786430 0.129862
O O4 0.375055 0.525559 0.123991
O O5 0.168183 0.808626 0.879261
O O6 0.302790 0.703794 0.742942
O O7 0.286022 0.987688 0.735665
O O8 0.260263 0.857593 0.018529
O O9 0.851130 0.084228 0.673957
O O10 0.957748 0.932043 0.413224
O O11 0.063427 0.124121 0.280117
O O12 0.446081 0.273279 0.032185
O O13 0.500000 0.874023 0.250000
O O14 0.500000 0.000000 0.500000
#
# Coordination Sequence:
#
# PCOD8116767 Si02
#       7
#     4   4   4   2   4   4   4
#     4  11  23  38  57  80 112 151 195 235 281 334
#     4  10  19  34  53  82 115 148 183 234 276 331
#     4  10  19  34  53  82 115 148 183 234 276 331
#     4  10  16  30  52  86 114 144 176 230 280 328
#     4   9  18  30  52  83 118 142 182 225 284 328
#     4  11  23  38  57  80 112 151 195 235 281 334
#     4  10  23  40  58  84 110 148 187 240 285 326
#
# _framework density 18.119064999999999
#
# number of rings (size 3 to 8) (size 9 to 14) (size 15 to 20)
#    0.923    0.923    1.538    3.231    2.154    4.923 
#    0.000    0.000    0.000    0.000    0.000    6.462 
#    0.000    0.000    0.000    0.000    0.000    0.000 
#
# Total GULP energy -322142.667788 kJ/mol
# GULP energy per Si atom -12390.102607 kJ/mol
# Density = 1.807782 g / cm^3
# Si number density = 18.119065 Si / 1000 Ang^3
#
#
#
# Elastic Constant Matrix: (Units=GPa)
#
#
# Indices 1 2 3 4 5 6 
#
# 1 89.0403 31.2891 45.0744 0.0000 5.8698 0.0000
# 2 31.2891 92.0540 39.8044 0.0000 0.1871 0.0000
# 3 45.0744 39.8044 116.1645 0.0000 5.2953 0.0000
# 4 0.0000 0.0000 0.0000 24.8508 0.0000 3.5068
# 5 5.8698 0.1871 5.2953 0.0000 30.4961 0.0000
# 6 0.0000 0.0000 0.0000 3.5068 0.0000 11.6052
#
#
#
# Elastic Compliance Matrix: (Units=1/GPa)
#
#
# Indices 1 2 3 4 5 6 
#
# 1 0.014753 -0.003023 -0.004597 0.000000 -0.002023 0.000000
# 2 -0.003023 0.013386 -0.003464 0.000000 0.001101 0.000000
# 3 -0.004597 -0.003464 0.011630 0.000000 -0.001113 0.000000
# 4 0.000000 0.000000 0.000000 0.042032 0.000000 -0.012701
# 5 -0.002023 0.001101 -0.001113 0.000000 0.033367 0.000000
# 6 0.000000 0.000000 0.000000 -0.012701 0.000000 0.090006
#
#
# Mechanical properties :
#
#
# Convention : Reuss Voigt Hill
#
# Bulk Modulus (GPa) = 56.81113 58.84386 57.82749
# Shear Modulus (GPa) = 21.43990 25.46315 23.45153
#
# Velocity S-wave (km/s) = 3.44361 3.75283 3.60154
# Velocity P-wave (km/s) = 6.87268 7.16415 7.01993
#
# Compressibility (1/GPa) = 0.01760219
#
# Stress axis : x y z
#
# Youngs Moduli (GPa) = 67.78079 74.70295 85.98585
#
# Poissons Ratio (x) = 0.22583 0.39524
# Poissons Ratio (y) = 0.20490 0.29787
# Poissons Ratio (z) = 0.31156 0.25878
#
# Static dielectric constant tensor:
#      x y z
#    x 3.601570 0.000000 0.076610 
#    y 0.000000 3.023240 0.000000 
#    z 0.076610 0.000000 3.418870 
# 
# 
# High freq. dielectric constant tensor:
#      x y z
#    x 1.711530 0.000000 0.008730 
#    y 0.000000 1.661350 0.000000 
#    z 0.008730 0.000000 1.717770 
# 
# From -- ./inp_files/22525.got.cif
#   From: 2010.06.25/outbox.cif.g09.slc.cpg/sg13_12_cif.got.tgz:22525.got - 2010.06.28 04:50:58.
