data_PCOD8116359
_publ_section_title
;
Structure prediction by ZEFSAII (Michael W. Deem and Ramdas Pophale) SiO2 
 PCOD8116359
Probable space group: C 2/M
;
_chemical_formula_sum "Si O2"
_cell_formula_units_Z 32
_cell_length_a 15.000000
_cell_length_b 9.000000
_cell_length_c 30.000000
_cell_angle_alpha 90.000000
_cell_angle_beta 60.000000
_cell_angle_gamma 90.000000
_cell_volume 3507.402885
_symmetry_space_group_name_H-M "C 2/M"
_symmetry_group_IT_number 12
_symmetry_cell_setting 'monoclinic'
loop_
_space_group_symop_operation_xyz
x,y,z
-x,y,-z
-x,-y,-z
x,-y,z
1/2+x,1/2+y,z
1/2-x,1/2+y,-z
1/2-x,1/2-y,-z
1/2+x,1/2-y,z
loop_
_atom_site_type_symbol
_atom_site_label
_atom_site_fract_x
_atom_site_fract_y
_atom_site_fract_z
Si Si1 0.667745 0.825583 0.740007
Si Si2 0.451260 0.677801 0.381875
Si Si3 0.448944 0.173621 0.560662
Si Si4 0.545197 0.675957 0.193541
Si Si5 0.376820 0.323897 0.731127
Si Si6 0.228838 0.676101 0.624180
Si Si7 0.600354 0.175149 0.003585
Si Si8 0.168281 0.825648 0.075383
O O1 0.567605 0.744345 0.783981
O O2 0.764961 0.765119 0.744109
O O3 0.686732 0.786376 0.683792
O O4 0.652671 0.000000 0.750667
O O5 0.448683 0.500000 0.387632
O O6 0.473202 0.754617 0.423426
O O7 0.537505 0.731906 0.325116
O O8 0.341112 0.737553 0.393686
O O9 0.500000 0.195744 0.500000
O O10 0.343198 0.263395 0.589887
O O11 0.430164 0.000000 0.575856
O O12 0.533222 0.500000 0.198412
O O13 0.597078 0.736883 0.226093
O O14 0.617425 0.725764 0.134516
O O15 0.376049 0.500000 0.730958
O O16 0.227947 0.500000 0.615440
O O17 0.604620 0.247446 0.051556
O O18 0.589761 0.000000 0.012748
O O19 0.500000 0.232088 0.000000
O O20 0.709818 0.216994 0.952790
O O21 0.156116 0.000000 0.070609
#
# Coordination Sequence:
#
# PCOD8116359 Si02
#       8
#     8   8   8   8   8   8   8   8
#     4  10  20  35  55  82 111 144 187 231 274 326
#     4  11  21  38  63  88 115 151 191 234 289 344
#     4  11  25  43  62  87 117 150 191 241 294 346
#     4  10  20  35  54  79 114 150 184 224 277 338
#     4   9  18  34  55  80 109 145 184 224 275 331
#     4  11  22  38  61  89 117 149 192 237 285 345
#     4   9  18  34  57  81 104 141 191 232 276 331
#     4   9  19  34  52  79 113 146 181 229 282 331
#
# _framework density 9.1235599999999994
#
# number of rings (size 3 to 8) (size 9 to 14) (size 15 to 20)
#    0.000    2.000    2.500    1.125    0.000    3.750 
#    0.000    3.125    0.000    0.000    0.000    0.000 
#    0.000    0.000    0.000    0.000    0.000    0.000 
#
# Total GULP energy -396823.820976 kJ/mol
# GULP energy per Si atom -12400.744406 kJ/mol
# Density = 0.910279 g / cm^3
# Si number density = 9.123560 Si / 1000 Ang^3
#
#
#
# Elastic Constant Matrix: (Units=GPa)
#
#
# Indices 1 2 3 4 5 6 
#
# 1 129.0116 24.2080 29.5741 0.0000 8.4742 0.0000
# 2 24.2080 55.9054 33.3839 0.0000 3.0251 0.0000
# 3 29.5741 33.3839 103.0855 0.0000 6.3860 0.0000
# 4 0.0000 0.0000 0.0000 28.4350 0.0000 -2.3282
# 5 8.4742 3.0251 6.3860 0.0000 33.0692 0.0000
# 6 0.0000 0.0000 0.0000 -2.3282 0.0000 35.9144
#
#
#
# Elastic Compliance Matrix: (Units=1/GPa)
#
#
# Indices 1 2 3 4 5 6 
#
# 1 0.008730 -0.002796 -0.001494 0.000000 -0.001693 0.000000
# 2 -0.002796 0.023085 -0.006667 0.000000 -0.000108 0.000000
# 3 -0.001494 -0.006667 0.012375 0.000000 -0.001397 0.000000
# 4 0.000000 0.000000 0.000000 0.035356 0.000000 0.002292
# 5 -0.001693 -0.000108 -0.001397 0.000000 0.030953 0.000000
# 6 0.000000 0.000000 0.000000 0.002292 0.000000 0.027993
#
#
# Mechanical properties :
#
#
# Convention : Reuss Voigt Hill
#
# Bulk Modulus (GPa) = 44.89356 51.37049 48.13203
# Shear Modulus (GPa) = 29.79183 32.87281 31.33232
#
# Velocity S-wave (km/s) = 4.04504 4.24905 4.14830
# Velocity P-wave (km/s) = 6.81711 7.23093 7.02707
#
# Compressibility (1/GPa) = 0.02227491
#
# Stress axis : x y z
#
# Youngs Moduli (GPa) = 114.55258 43.31751 80.80816
#
# Poissons Ratio (x) = 0.12113 0.12073
# Poissons Ratio (y) = 0.32033 0.53876
# Poissons Ratio (z) = 0.17114 0.28881
#
# Static dielectric constant tensor:
#      x y z
#    x 3.675770 0.000000 0.041790 
#    y 0.000000 3.304480 0.000000 
#    z 0.041790 0.000000 3.500850 
# 
# 
# High freq. dielectric constant tensor:
#      x y z
#    x 1.730160 0.000000 -0.000450 
#    y 0.000000 1.701620 0.000000 
#    z -0.000450 0.000000 1.711780 
# 
# From -- ./inp_files/375004.got.cif
#   From: 2010.06.25/outbox.ucp.g09.slc.cvg/sg12_188_cif.got.tgz:375004.got - 2010.06.28 13:50:54.
