data_PCOD8116396
_publ_section_title
;
Structure prediction by ZEFSAII (Michael W. Deem and Ramdas Pophale) SiO2 
 PCOD8116396
Probable space group: C 2/M
;
_chemical_formula_sum "Si O2"
_cell_formula_units_Z 32
_cell_length_a 30.000000
_cell_length_b 9.000000
_cell_length_c 18.000000
_cell_angle_alpha 90.000000
_cell_angle_beta 40.000000
_cell_angle_gamma 90.000000
_cell_volume 3123.947783
_symmetry_space_group_name_H-M "C 2/M"
_symmetry_group_IT_number 12
_symmetry_cell_setting 'monoclinic'
loop_
_space_group_symop_operation_xyz
x,y,z
-x,y,-z
-x,-y,-z
x,-y,z
1/2+x,1/2+y,z
1/2-x,1/2+y,-z
1/2-x,1/2-y,-z
1/2+x,1/2-y,z
loop_
_atom_site_type_symbol
_atom_site_label
_atom_site_fract_x
_atom_site_fract_y
_atom_site_fract_z
Si Si1 0.566963 0.323883 0.868202
Si Si2 0.702155 0.673105 0.781937
Si Si3 0.514530 0.168512 0.799569
Si Si4 0.841229 0.832577 0.611045
Si Si5 0.477758 0.332503 0.361903
Si Si6 0.820981 0.330276 0.900368
Si Si7 0.138378 0.662286 0.987290
Si Si8 0.089103 0.825972 0.331734
O O1 0.566854 0.500000 0.863944
O O2 0.638271 0.265229 0.814350
O O3 0.567130 0.260818 0.784005
O O4 0.500000 0.267918 0.000000
O O5 0.709877 0.500000 0.763111
O O6 0.774955 0.743740 0.666168
O O7 0.686417 0.714049 0.887803
O O8 0.504399 0.229951 0.729880
O O9 0.441127 0.180253 0.935694
O O10 0.540917 0.000000 0.759817
O O11 0.895078 0.830672 0.474702
O O12 0.881763 0.754928 0.628930
O O13 0.817707 0.000000 0.660788
O O14 0.504671 0.500000 0.311282
O O15 0.513481 0.277436 0.394985
O O16 0.814544 0.500000 0.879368
O O17 0.862116 0.323955 0.924127
O O18 0.857991 0.221319 0.797715
O O19 0.750000 0.250000 0.000000
O O20 0.166894 0.500000 0.926901
O O21 0.087609 0.000000 0.348412
#
# Coordination Sequence:
#
# PCOD8116396 Si02
#       8
#     8   8   8   8   8   8   8   8
#     4  10  21  39  61  87 118 151 190 237 289 351
#     4  11  23  38  60  88 117 151 193 240 291 349
#     4  11  22  37  60  90 118 147 189 240 291 342
#     4  10  22  40  60  85 118 155 196 242 290 342
#     4  10  21  39  63  86 115 157 200 240 286 342
#     4  11  22  35  50  77 117 156 194 235 286 343
#     4  10  21  36  54  79 117 154 185 231 289 346
#     4  10  20  36  59  85 113 151 199 242 283 339
#
# _framework density 10.243449
#
# number of rings (size 3 to 8) (size 9 to 14) (size 15 to 20)
#    0.000    1.625    2.500    2.250    0.000    8.250 
#    0.000    0.625    0.000    2.250    0.000    0.000 
#    0.000    0.000    0.000    0.000    0.000    0.000 
#
# Total GULP energy -396543.118747 kJ/mol
# GULP energy per Si atom -12391.972461 kJ/mol
# Density = 1.022013 g / cm^3
# Si number density = 10.243449 Si / 1000 Ang^3
#
#
#
# Elastic Constant Matrix: (Units=GPa)
#
#
# Indices 1 2 3 4 5 6 
#
# 1 109.5651 44.6476 31.0033 0.0064 -17.7024 -0.0061
# 2 44.6476 25.7107 21.4807 0.0095 -7.0401 -0.0186
# 3 31.0033 21.4807 27.4726 0.0142 -40.3766 -0.0218
# 4 0.0064 0.0095 0.0142 22.9383 0.0071 -1.9016
# 5 -17.7024 -7.0401 -40.3766 0.0071 17.1728 0.0026
# 6 -0.0061 -0.0186 -0.0218 -1.9016 0.0026 29.3220
#
#
#
# Elastic Compliance Matrix: (Units=1/GPa)
#
#
# Indices 1 2 3 4 5 6 
#
# 1 0.028439 -0.044912 -0.007757 0.000015 -0.007335 -0.000027
# 2 -0.044912 0.114061 0.015402 -0.000050 0.036675 0.000068
# 3 -0.007757 0.015402 -0.012477 0.000013 -0.031019 0.000003
# 4 0.000015 -0.000050 0.000013 0.043831 0.000008 0.002842
# 5 -0.007335 0.036675 -0.031019 0.000008 -0.007227 0.000000
# 6 -0.000027 0.000068 0.000003 0.002842 0.000000 0.034289
#
#
# Mechanical properties :
#
#
# Convention : Reuss Voigt Hill
#
# Bulk Modulus (GPa) = 18.02247 39.66794 28.84521
# Shear Modulus (GPa) = 17.00994 18.26106 17.63550
#
# Velocity S-wave (km/s) = 2.88459 2.98879 2.93715
# Velocity P-wave (km/s) = 4.46214 5.59599 5.06092
#
# Compressibility (1/GPa) = 0.05548629
#
# Stress axis : x y z
#
# Youngs Moduli (GPa) = 35.16357 8.76726 -80.14519
#
# Poissons Ratio (x) = 0.39376 -0.62170
# Poissons Ratio (y) = 1.57927 1.23436
# Poissons Ratio (z) = 0.27277 -0.13503
#
# Static dielectric constant tensor:
#      x y z
#    x 3.949620 -0.000010 -0.137390 
#    y -0.000010 3.542140 0.000030 
#    z -0.137390 0.000030 3.328070 
# 
# 
# High freq. dielectric constant tensor:
#      x y z
#    x 1.805760 0.000000 -0.009430 
#    y 0.000000 1.782850 0.000000 
#    z -0.009430 0.000000 1.778590 
# 
# From -- ./inp_files/295579.got.cif
#   From: 2010.06.25/outbox.ucp.g09.slc.cvg/sg12_148_cif.got.tgz:295579.got - 2010.06.28 13:50:54.
