data_PCOD8116289
_publ_section_title
;
Structure prediction by ZEFSAII (Michael W. Deem and Ramdas Pophale) SiO2 
 PCOD8116289
Probable space group: C 2/M
;
_chemical_formula_sum "Si O2"
_cell_formula_units_Z 32
_cell_length_a 30.000000
_cell_length_b 9.000000
_cell_length_c 24.000000
_cell_angle_alpha 90.000000
_cell_angle_beta 30.000000
_cell_angle_gamma 90.000000
_cell_volume 3240.000000
_symmetry_space_group_name_H-M "C 2/M"
_symmetry_group_IT_number 12
_symmetry_cell_setting 'monoclinic'
loop_
_space_group_symop_operation_xyz
x,y,z
-x,y,-z
-x,-y,-z
x,-y,z
1/2+x,1/2+y,z
1/2-x,1/2+y,-z
1/2-x,1/2-y,-z
1/2+x,1/2-y,z
loop_
_atom_site_type_symbol
_atom_site_label
_atom_site_fract_x
_atom_site_fract_y
_atom_site_fract_z
Si Si1 0.351244 0.674391 0.793339
Si Si2 0.669617 0.676600 0.003115
Si Si3 0.655918 0.671569 0.610875
Si Si4 0.897734 0.172414 0.204716
Si Si5 0.522360 0.673732 0.247611
Si Si6 0.899509 0.823309 0.619317
Si Si7 0.274920 0.169813 0.257339
Si Si8 0.583156 0.170989 0.993774
O O1 0.329223 0.500000 0.817969
O O2 0.266769 0.756657 0.911877
O O3 0.442668 0.707808 0.728122
O O4 0.368123 0.735199 0.713294
O O5 0.677203 0.500000 0.996570
O O6 0.597437 0.739306 0.125079
O O7 0.636520 0.729859 0.979405
O O8 0.674180 0.500000 0.578683
O O9 0.750000 0.750000 0.500000
O O10 0.616186 0.697166 0.714959
O O11 0.577805 0.737571 0.654454
O O12 0.806576 0.230220 0.274751
O O13 0.984536 0.263076 0.089885
O O14 0.912475 0.000000 0.174146
O O15 0.515445 0.500000 0.242541
O O16 0.821960 0.771123 0.660050
O O17 0.000000 0.759931 0.500000
O O18 0.903544 0.000000 0.615005
O O19 0.262662 0.000000 0.290230
O O20 0.355838 0.180693 0.126488
O O21 0.573919 0.000000 0.023439
#
# Coordination Sequence:
#
# PCOD8116289 Si02
#       8
#     8   8   8   8   8   8   8   8
#     4  10  19  35  58  84 111 146 188 232 280 335
#     4  11  20  34  56  84 118 151 181 226 286 346
#     4  10  22  41  59  82 114 150 193 239 281 331
#     4  11  23  39  59  85 118 152 186 231 288 346
#     4   9  19  36  58  82 113 147 184 231 284 339
#     4   9  18  34  56  82 110 144 190 238 277 322
#     4  10  21  37  57  86 117 146 190 240 279 333
#     4  11  21  36  59  87 116 149 189 236 282 336
#
# _framework density 9.8765429999999999
#
# number of rings (size 3 to 8) (size 9 to 14) (size 15 to 20)
#    0.000    1.875    2.500    1.875    0.000    4.500 
#    0.000    3.750    0.000    1.500    0.000    0.000 
#    0.000    0.000    0.000    0.000    0.000    0.000 
#
# Total GULP energy -396676.859281 kJ/mol
# GULP energy per Si atom -12396.151853 kJ/mol
# Density = 0.985406 g / cm^3
# Si number density = 9.876543 Si / 1000 Ang^3
#
#
#
# Elastic Constant Matrix: (Units=GPa)
#
#
# Indices 1 2 3 4 5 6 
#
# 1 122.4297 28.3286 39.7465 0.0306 -40.5310 -0.0052
# 2 28.3286 60.5178 32.1469 0.0355 -11.7691 -0.0127
# 3 39.7465 32.1469 116.3945 0.0465 -45.0988 -0.0247
# 4 0.0306 0.0355 0.0465 28.0708 -0.0145 -5.0763
# 5 -40.5310 -11.7691 -45.0988 -0.0145 41.5316 0.0035
# 6 -0.0052 -0.0127 -0.0247 -5.0763 0.0035 27.3113
#
#
#
# Elastic Compliance Matrix: (Units=1/GPa)
#
#
# Indices 1 2 3 4 5 6 
#
# 1 0.013109 -0.004589 0.002148 -0.000005 0.013825 0.000000
# 2 -0.004589 0.020979 -0.006316 -0.000014 -0.005392 0.000001
# 3 0.002148 -0.006316 0.016782 -0.000011 0.018530 0.000008
# 4 -0.000005 -0.000014 -0.000011 0.036863 -0.000009 0.006852
# 5 0.013825 -0.005392 0.018530 -0.000009 0.056163 0.000008
# 6 0.000000 0.000001 0.000008 0.006852 0.000008 0.037888
#
#
# Mechanical properties :
#
#
# Convention : Reuss Voigt Hill
#
# Bulk Modulus (GPa) = 29.98039 55.53179 42.75609
# Shear Modulus (GPa) = 23.76213 32.65740 28.20976
#
# Velocity S-wave (km/s) = 3.47213 4.07047 3.78315
# Velocity P-wave (km/s) = 5.59328 7.08982 6.38555
#
# Compressibility (1/GPa) = 0.03335514
#
# Stress axis : x y z
#
# Youngs Moduli (GPa) = 76.28083 47.66744 59.58697
#
# Poissons Ratio (x) = 0.21873 -0.12796
# Poissons Ratio (y) = 0.35003 0.37638
# Poissons Ratio (z) = -0.16381 0.30109
#
# Static dielectric constant tensor:
#      x y z
#    x 3.812770 -0.000030 -0.270000 
#    y -0.000030 3.407690 0.000050 
#    z -0.270000 0.000050 3.783690 
# 
# 
# High freq. dielectric constant tensor:
#      x y z
#    x 1.787040 0.000000 -0.021870 
#    y 0.000000 1.740650 0.000000 
#    z -0.021870 0.000000 1.776340 
# 
# From -- ./inp_files/248982.got.cif
#   From: 2010.06.25/outbox.ucp.g09.slc.cvg/sg12_125_cif.got.tgz:248982.got - 2010.06.28 13:50:54.
