data_PCOD8116510
_publ_section_title
;
Structure prediction by ZEFSAII (Michael W. Deem and Ramdas Pophale) SiO2 
 PCOD8116510
Probable space group: C 2/M
;
_chemical_formula_sum "Si O2"
_cell_formula_units_Z 24
_cell_length_a 15.000000
_cell_length_b 9.000000
_cell_length_c 27.000000
_cell_angle_alpha 90.000000
_cell_angle_beta 140.000000
_cell_angle_gamma 90.000000
_cell_volume 2342.960837
_symmetry_space_group_name_H-M "C 2/M"
_symmetry_group_IT_number 12
_symmetry_cell_setting 'monoclinic'
loop_
_space_group_symop_operation_xyz
x,y,z
-x,y,-z
-x,-y,-z
x,-y,z
1/2+x,1/2+y,z
1/2-x,1/2+y,-z
1/2-x,1/2-y,-z
1/2+x,1/2-y,z
loop_
_atom_site_type_symbol
_atom_site_label
_atom_site_fract_x
_atom_site_fract_y
_atom_site_fract_z
Si Si1 0.056699 0.173485 0.295776
Si Si2 0.819769 0.335987 0.145902
Si Si3 0.636144 0.673950 0.694162
Si Si4 0.368760 0.664341 0.843006
Si Si5 0.627401 0.172136 0.590770
Si Si6 0.146322 0.322797 0.993866
O O1 0.220184 0.219239 0.366206
O O2 0.971796 0.260014 0.215978
O O3 0.983997 0.214457 0.317143
O O4 0.040355 0.000000 0.277336
O O5 0.836167 0.500000 0.127037
O O6 0.754180 0.359883 0.170957
O O7 0.707844 0.228787 0.072227
O O8 0.662381 0.500000 0.705126
O O9 0.788923 0.748704 0.765658
O O10 0.583868 0.730237 0.619176
O O11 0.421998 0.500000 0.848414
O O12 0.493919 0.759414 0.918863
O O13 0.500000 0.203450 0.500000
O O14 0.632782 0.000000 0.608288
O O15 0.141373 0.500000 0.988847
O O16 0.250000 0.250000 0.000000
#
# Coordination Sequence:
#
# PCOD8116510 Si02
#       6
#     8   8   8   8   8   8
#     4   9  20  39  61  86 119 159 200 243 299 363
#     4  10  21  38  60  85 114 151 196 243 293 350
#     4  10  21  38  61  89 120 156 199 248 298 356
#     4  10  21  39  61  84 114 153 195 241 293 352
#     4  10  22  40  62  88 120 158 197 243 303 367
#     4  12  25  38  55  82 117 156 197 243 292 344
#
# _framework density 10.243449
#
# number of rings (size 3 to 8) (size 9 to 14) (size 15 to 20)
#    0.000    1.833    0.000    3.500    2.333    6.333 
#    0.000    0.000    0.000    0.000    0.000    0.000 
#    0.000    0.000    0.000    0.000    0.000    0.000 
#
# Total GULP energy -297438.223368 kJ/mol
# GULP energy per Si atom -12393.259307 kJ/mol
# Density = 1.022013 g / cm^3
# Si number density = 10.243449 Si / 1000 Ang^3
#
#
#
# Elastic Constant Matrix: (Units=GPa)
#
#
# Indices 1 2 3 4 5 6 
#
# 1 65.0044 32.9922 39.2703 0.0000 15.0087 0.0000
# 2 32.9922 139.6357 61.2898 0.0000 7.4438 0.0000
# 3 39.2703 61.2898 151.5874 0.0000 25.2809 0.0000
# 4 0.0000 0.0000 0.0000 39.3065 0.0000 0.6094
# 5 15.0087 7.4438 25.2809 0.0000 38.2141 0.0000
# 6 0.0000 0.0000 0.0000 0.6094 0.0000 29.3399
#
#
#
# Elastic Compliance Matrix: (Units=1/GPa)
#
#
# Indices 1 2 3 4 5 6 
#
# 1 0.020016 -0.003109 -0.003055 0.000000 -0.005234 0.000000
# 2 -0.003109 0.009207 -0.003172 0.000000 0.001526 0.000000
# 3 -0.003055 -0.003172 0.009405 0.000000 -0.004404 0.000000
# 4 0.000000 0.000000 0.000000 0.025449 0.000000 -0.000529
# 5 -0.005234 0.001526 -0.004404 0.000000 0.030841 0.000000
# 6 0.000000 0.000000 0.000000 -0.000529 0.000000 0.034094
#
#
# Mechanical properties :
#
#
# Convention : Reuss Voigt Hill
#
# Bulk Modulus (GPa) = 50.11014 69.25912 59.68463
# Shear Modulus (GPa) = 32.39688 36.21715 34.30702
#
# Velocity S-wave (km/s) = 3.98093 4.20911 4.09661
# Velocity P-wave (km/s) = 6.75597 7.58301 7.18140
#
# Compressibility (1/GPa) = 0.01995604
#
# Stress axis : x y z
#
# Youngs Moduli (GPa) = 49.96036 108.61517 106.32428
#
# Poissons Ratio (x) = 0.33770 0.32485
# Poissons Ratio (y) = 0.15533 0.33721
# Poissons Ratio (z) = 0.15264 0.34448
#
# Static dielectric constant tensor:
#      x y z
#    x 3.803700 0.000000 0.167410 
#    y 0.000000 4.091190 0.000000 
#    z 0.167410 0.000000 3.470840 
# 
# 
# High freq. dielectric constant tensor:
#      x y z
#    x 1.800220 0.000000 0.013690 
#    y 0.000000 1.813760 0.000000 
#    z 0.013690 0.000000 1.806620 
# 
# From -- ./inp_files/295345.got.cif
#   From: 2010.06.25/outbox.ucp.g09.slc.cvg/sg12_148_cif.got.tgz:295345.got - 2010.06.28 13:50:54.
