data_PCOD8116576
_publ_section_title
;
Structure prediction by ZEFSAII (Michael W. Deem and Ramdas Pophale) SiO2 
 PCOD8116576
Probable space group: C 2/M
;
_chemical_formula_sum "Si O2"
_cell_formula_units_Z 32
_cell_length_a 30.000000
_cell_length_b 9.000000
_cell_length_c 18.000000
_cell_angle_alpha 90.000000
_cell_angle_beta 40.000000
_cell_angle_gamma 90.000000
_cell_volume 3123.947783
_symmetry_space_group_name_H-M "C 2/M"
_symmetry_group_IT_number 12
_symmetry_cell_setting 'monoclinic'
loop_
_space_group_symop_operation_xyz
x,y,z
-x,y,-z
-x,-y,-z
x,-y,z
1/2+x,1/2+y,z
1/2-x,1/2+y,-z
1/2-x,1/2-y,-z
1/2+x,1/2-y,z
loop_
_atom_site_type_symbol
_atom_site_label
_atom_site_fract_x
_atom_site_fract_y
_atom_site_fract_z
Si Si1 0.047440 0.173601 0.008781
Si Si2 0.205846 0.173495 0.992928
Si Si3 0.817984 0.674346 0.214306
Si Si4 0.206684 0.672849 0.266186
Si Si5 0.966482 0.669530 0.238194
Si Si6 0.817595 0.328878 0.384841
Si Si7 0.422030 0.170956 0.788523
Si Si8 0.075229 0.825058 0.372509
O O1 0.119598 0.261070 0.914356
O O2 0.065034 0.000000 0.988690
O O3 0.000000 0.217457 0.000000
O O4 0.006466 0.218226 0.134299
O O5 0.245271 0.200085 0.866198
O O6 0.195640 0.000000 0.023143
O O7 0.250000 0.250000 0.000000
O O8 0.131408 0.254961 0.084851
O O9 0.811883 0.500000 0.207064
O O10 0.745494 0.752183 0.285967
O O11 0.833571 0.713644 0.279644
O O12 0.194516 0.500000 0.297967
O O13 0.132242 0.750092 0.352428
O O14 0.972393 0.500000 0.200007
O O15 0.885566 0.716099 0.346122
O O16 0.000650 0.681226 0.276126
O O17 0.800677 0.500000 0.414651
O O18 0.750000 0.250000 0.500000
O O19 0.418048 0.260405 0.717952
O O20 0.400680 0.000000 0.800860
O O21 0.000000 0.784864 0.500000
O O22 0.088445 0.000000 0.352928
#
# Coordination Sequence:
#
# PCOD8116576 Si02
#       8
#     8   8   8   8   8   8   8   8
#     4  11  22  36  60  94 127 160 202 251 305 362
#     4  11  22  37  61  91 125 161 198 246 304 368
#     4  11  23  40  64  91 125 165 204 248 306 369
#     4  11  24  41  64  94 126 160 204 252 304 365
#     4  10  22  41  63  89 123 162 204 247 304 370
#     4  10  23  42  63  88 119 160 208 255 302 359
#     4  11  23  39  63  93 123 160 204 251 307 366
#     4  11  25  44  65  89 121 161 207 256 307 364
#
# _framework density 10.243449
#
# number of rings (size 3 to 8) (size 9 to 14) (size 15 to 20)
#    0.000    1.250    2.500    3.000    0.000    8.500 
#    0.000    2.500    0.000    0.000    0.000    0.000 
#    0.000    0.000    0.000    0.000    0.000    0.000 
#
# Total GULP energy -396956.301526 kJ/mol
# GULP energy per Si atom -12404.884423 kJ/mol
# Density = 1.022013 g / cm^3
# Si number density = 10.243449 Si / 1000 Ang^3
#
#
#
# Elastic Constant Matrix: (Units=GPa)
#
#
# Indices 1 2 3 4 5 6 
#
# 1 112.6386 46.2548 22.5333 0.0016 -38.0480 0.0041
# 2 46.2548 104.7041 40.6257 0.0180 -19.7467 -0.0040
# 3 22.5333 40.6257 84.3189 0.0058 -33.2921 0.0008
# 4 0.0016 0.0180 0.0058 35.1239 -0.0028 -5.0135
# 5 -38.0480 -19.7467 -33.2921 -0.0028 31.9889 0.0047
# 6 0.0041 -0.0040 0.0008 -5.0135 0.0047 34.3883
#
#
#
# Elastic Compliance Matrix: (Units=1/GPa)
#
#
# Indices 1 2 3 4 5 6 
#
# 1 0.019571 -0.006879 0.009504 0.000002 0.028924 -0.000007
# 2 -0.006879 0.014266 -0.008129 -0.000006 -0.007836 0.000003
# 3 0.009504 -0.008129 0.026683 0.000001 0.034057 -0.000007
# 4 0.000002 -0.000006 0.000001 0.029076 0.000002 0.004239
# 5 0.028924 -0.007836 0.034057 0.000002 0.096270 -0.000018
# 6 -0.000007 0.000003 -0.000007 0.004239 -0.000018 0.029698
#
#
# Mechanical properties :
#
#
# Convention : Reuss Voigt Hill
#
# Bulk Modulus (GPa) = 20.19660 57.83214 39.01437
# Shear Modulus (GPa) = 20.56971 33.11674 26.84323
#
# Velocity S-wave (km/s) = 3.17210 4.02491 3.62368
# Velocity P-wave (km/s) = 4.82659 7.06329 6.04922
#
# Compressibility (1/GPa) = 0.04951330
#
# Stress axis : x y z
#
# Youngs Moduli (GPa) = 51.09483 70.09732 37.47666
#
# Poissons Ratio (x) = 0.48219 -0.35618
# Poissons Ratio (y) = 0.35147 0.30464
# Poissons Ratio (z) = -0.48561 0.56982
#
# Static dielectric constant tensor:
#      x y z
#    x 3.887370 -0.000010 -0.278880 
#    y -0.000010 3.822060 0.000010 
#    z -0.278880 0.000010 3.718940 
# 
# 
# High freq. dielectric constant tensor:
#      x y z
#    x 1.816870 0.000000 -0.015810 
#    y 0.000000 1.811570 0.000000 
#    z -0.015810 0.000000 1.790340 
# 
# From -- ./inp_files/295500.got.cif
#   From: 2010.06.25/outbox.ucp.g09.slc.cvg/sg12_148_cif.got.tgz:295500.got - 2010.06.28 13:50:54.
