data_PCOD8116539
_publ_section_title
;
Structure prediction by ZEFSAII (Michael W. Deem and Ramdas Pophale) SiO2 
 PCOD8116539
Probable space group: C 2/M
;
_chemical_formula_sum "Si O2"
_cell_formula_units_Z 32
_cell_length_a 18.000000
_cell_length_b 9.000000
_cell_length_c 30.000000
_cell_angle_alpha 90.000000
_cell_angle_beta 40.000000
_cell_angle_gamma 90.000000
_cell_volume 3123.947783
_symmetry_space_group_name_H-M "C 2/M"
_symmetry_group_IT_number 12
_symmetry_cell_setting 'monoclinic'
loop_
_space_group_symop_operation_xyz
x,y,z
-x,y,-z
-x,-y,-z
x,-y,z
1/2+x,1/2+y,z
1/2-x,1/2+y,-z
1/2-x,1/2-y,-z
1/2+x,1/2-y,z
loop_
_atom_site_type_symbol
_atom_site_label
_atom_site_fract_x
_atom_site_fract_y
_atom_site_fract_z
Si Si1 0.277371 0.824688 0.275733
Si Si2 0.961585 0.324859 0.632209
Si Si3 0.041093 0.837350 0.277746
Si Si4 0.708959 0.664961 0.641424
Si Si5 0.323937 0.320770 0.505752
Si Si6 0.674078 0.674293 0.997483
Si Si7 0.913730 0.172129 0.137804
Si Si8 0.237105 0.327447 0.139508
O O1 0.167932 0.722337 0.316895
O O2 0.310957 0.780782 0.309829
O O3 0.376810 0.777345 0.195525
O O4 0.253051 0.000000 0.283013
O O5 0.981694 0.500000 0.615418
O O6 0.982341 0.284655 0.673809
O O7 0.043746 0.228302 0.562285
O O8 0.125539 0.771014 0.201655
O O9 0.918059 0.871681 0.315025
O O10 0.089335 0.000000 0.272533
O O11 0.764304 0.500000 0.627226
O O12 0.785645 0.750441 0.569853
O O13 0.312272 0.500000 0.511159
O O14 0.250000 0.250000 0.500000
O O15 0.690062 0.500000 0.994830
O O16 0.713972 0.727409 0.930305
O O17 0.750000 0.750000 0.000000
O O18 0.541525 0.720405 0.064931
O O19 0.833030 0.201541 0.132676
O O20 0.907834 0.000000 0.155541
O O21 0.201425 0.500000 0.154398
#
# Coordination Sequence:
#
# PCOD8116539 Si02
#       8
#     8   8   8   8   8   8   8   8
#     4  12  26  43  65  96 132 167 215 270 324 383
#     4  12  24  42  68  95 129 171 216 263 320 383
#     4  11  23  39  64  96 129 165 214 269 320 377
#     4  11  25  44  65  93 131 172 216 265 325 385
#     4  12  24  41  66  97 131 169 215 266 322 380
#     4  10  23  41  62  93 129 167 212 261 317 379
#     4  10  21  41  66  90 124 170 215 260 316 380
#     4  10  21  39  65  92 123 168 218 260 313 379
#
# _framework density 10.243449
#
# number of rings (size 3 to 8) (size 9 to 14) (size 15 to 20)
#    0.000    1.000    2.500    4.500    1.750    4.500 
#    0.000    2.500    0.000    2.250    0.000    0.000 
#    0.000    0.000    0.000    0.000    0.000    0.000 
#
# Total GULP energy -396741.424738 kJ/mol
# GULP energy per Si atom -12398.169523 kJ/mol
# Density = 1.022013 g / cm^3
# Si number density = 10.243449 Si / 1000 Ang^3
#
#
#
# Elastic Constant Matrix: (Units=GPa)
#
#
# Indices 1 2 3 4 5 6 
#
# 1 39.2214 22.4196 35.9962 0.0032 23.4949 0.0084
# 2 22.4196 136.5911 60.7732 0.0035 9.7302 0.0054
# 3 35.9962 60.7732 175.5810 0.0004 16.2751 0.0013
# 4 0.0032 0.0035 0.0004 35.9356 -0.0002 -0.8063
# 5 23.4949 9.7302 16.2751 -0.0002 36.8655 0.0000
# 6 0.0084 0.0054 0.0013 -0.8063 0.0000 31.4933
#
#
#
# Elastic Compliance Matrix: (Units=1/GPa)
#
#
# Indices 1 2 3 4 5 6 
#
# 1 0.050394 -0.003339 -0.006548 -0.000004 -0.028345 -0.000013
# 2 -0.003339 0.008911 -0.002480 -0.000001 0.000871 -0.000001
# 3 -0.006548 -0.002480 0.007767 0.000001 0.001399 0.000002
# 4 -0.000004 -0.000001 0.000001 0.027844 0.000003 0.000713
# 5 -0.028345 0.000871 0.001399 0.000003 0.044343 0.000007
# 6 -0.000013 -0.000001 0.000002 0.000713 0.000007 0.031771
#
#
# Mechanical properties :
#
#
# Convention : Reuss Voigt Hill
#
# Bulk Modulus (GPa) = 23.62036 65.53015 44.57526
# Shear Modulus (GPa) = 23.82354 36.33918 30.08136
#
# Velocity S-wave (km/s) = 3.41378 4.21619 3.83603
# Velocity P-wave (km/s) = 5.20510 7.46710 6.43625
#
# Compressibility (1/GPa) = 0.04233635
#
# Stress axis : x y z
#
# Youngs Moduli (GPa) = 19.84351 112.22428 128.75424
#
# Poissons Ratio (x) = 0.37470 0.84314
# Poissons Ratio (y) = 0.06625 0.31937
# Poissons Ratio (z) = 0.12994 0.27837
#
# Static dielectric constant tensor:
#      x y z
#    x 3.671030 -0.000070 -0.049780 
#    y -0.000070 3.387810 0.000040 
#    z -0.049780 0.000040 4.138220 
# 
# 
# High freq. dielectric constant tensor:
#      x y z
#    x 1.791160 0.000000 0.002140 
#    y 0.000000 1.817910 0.000000 
#    z 0.002140 0.000000 1.820720 
# 
# From -- ./inp_files/378015.got.cif
#   From: 2010.06.25/outbox.ucp.g09.slc.cvg/sg12_190_cif.got.tgz:378015.got - 2010.06.28 13:50:54.
