data_PCOD8116346
_publ_section_title
;
Structure prediction by ZEFSAII (Michael W. Deem and Ramdas Pophale) SiO2 
 PCOD8116346
Probable space group: C 2/M
;
_chemical_formula_sum "Si O2"
_cell_formula_units_Z 24
_cell_length_a 30.000000
_cell_length_b 9.000000
_cell_length_c 18.000000
_cell_angle_alpha 90.000000
_cell_angle_beta 150.000000
_cell_angle_gamma 90.000000
_cell_volume 2430.000000
_symmetry_space_group_name_H-M "C 2/M"
_symmetry_group_IT_number 12
_symmetry_cell_setting 'monoclinic'
loop_
_space_group_symop_operation_xyz
x,y,z
-x,y,-z
-x,-y,-z
x,-y,z
1/2+x,1/2+y,z
1/2-x,1/2+y,-z
1/2-x,1/2-y,-z
1/2+x,1/2-y,z
loop_
_atom_site_type_symbol
_atom_site_label
_atom_site_fract_x
_atom_site_fract_y
_atom_site_fract_z
Si Si1 0.677783 0.326010 0.844896
Si Si2 0.004960 0.668050 0.646286
Si Si3 0.683887 0.829807 0.703520
Si Si4 0.926571 0.162447 0.657570
Si Si5 0.330694 0.326847 0.658035
Si Si6 0.233476 0.666546 0.305078
O O1 0.685355 0.500000 0.865963
O O2 0.578257 0.275529 0.719190
O O3 0.699346 0.280664 0.792928
O O4 0.750000 0.250000 0.000000
O O5 0.040257 0.500000 0.695024
O O6 0.916479 0.688263 0.470447
O O7 0.986302 0.712366 0.704863
O O8 0.757133 0.776088 0.750775
O O9 0.702608 0.000000 0.752910
O O10 0.919865 0.192381 0.736487
O O11 0.826855 0.162265 0.482403
O O12 0.969552 0.000000 0.704711
O O13 0.308509 0.500000 0.639491
O O14 0.250000 0.250000 0.500000
O O15 0.342859 0.240990 0.753539
O O16 0.204607 0.500000 0.240074
#
# Coordination Sequence:
#
# PCOD8116346 Si02
#       6
#     8   8   8   8   8   8
#     4  12  25  40  57  76 102 134 171 214 261 312
#     4  10  20  34  54  79 106 136 172 213 257 306
#     4  10  20  35  55  79 107 137 172 213 257 306
#     4   8  15  26  41  65  98 134 170 207 250 299
#     4   9  15  23  37  61  96 134 169 207 252 300
#     4   9  16  26  42  67  99 134 171 208 251 301
#
# _framework density 9.8765429999999999
#
# number of rings (size 3 to 8) (size 9 to 14) (size 15 to 20)
#    0.000    2.333    0.000    5.000    0.000    8.667 
#    0.000    0.000    0.000    0.000    0.000    1.167 
#    0.000    9.333    0.000    0.000    0.000    0.000 
#
# Total GULP energy -297445.460415 kJ/mol
# GULP energy per Si atom -12393.560851 kJ/mol
# Density = 0.985406 g / cm^3
# Si number density = 9.876543 Si / 1000 Ang^3
#
#
#
# Elastic Constant Matrix: (Units=GPa)
#
#
# Indices 1 2 3 4 5 6 
#
# 1 110.5894 51.0613 22.8297 0.0000 -22.4123 0.0000
# 2 51.0613 148.5696 29.0857 0.0000 -15.2096 0.0000
# 3 22.8297 29.0857 20.6479 0.0000 -9.4347 0.0000
# 4 0.0000 0.0000 0.0000 18.9263 0.0000 -1.7669
# 5 -22.4123 -15.2096 -9.4347 0.0000 -4.3919 0.0000
# 6 0.0000 0.0000 0.0000 -1.7669 0.0000 38.7753
#
#
#
# Elastic Compliance Matrix: (Units=1/GPa)
#
#
# Indices 1 2 3 4 5 6 
#
# 1 0.010252 -0.002045 -0.014698 0.000000 -0.013662 0.000000
# 2 -0.002045 0.009665 -0.011042 0.000000 0.000683 0.000000
# 3 -0.014698 -0.011042 0.066603 0.000000 -0.029835 0.000000
# 4 0.000000 0.000000 0.000000 0.053062 0.000000 0.002418
# 5 -0.013662 0.000683 -0.029835 0.000000 -0.096247 0.000000
# 6 0.000000 0.000000 0.000000 0.002418 0.000000 0.025900
#
#
# Mechanical properties :
#
#
# Convention : Reuss Voigt Hill
#
# Bulk Modulus (GPa) = 32.30816 53.97337 43.14076
# Shear Modulus (GPa) = 37.00388 22.45063 29.72725
#
# Velocity S-wave (km/s) = 4.33288 3.37495 3.88357
# Velocity P-wave (km/s) = 6.43610 6.52460 6.48050
#
# Compressibility (1/GPa) = 0.03095194
#
# Stress axis : x y z
#
# Youngs Moduli (GPa) = 97.54341 103.46358 15.01426
#
# Poissons Ratio (x) = 0.21155 0.22067
# Poissons Ratio (y) = 0.19945 0.16579
# Poissons Ratio (z) = 1.43365 1.14245
#
# Static dielectric constant tensor:
#      x y z
#    x 3.362540 0.000000 0.274030 
#    y 0.000000 3.830100 0.000000 
#    z 0.274030 0.000000 2.644610 
# 
# 
# High freq. dielectric constant tensor:
#      x y z
#    x 1.782840 0.000000 -0.006030 
#    y 0.000000 1.784200 0.000000 
#    z -0.006030 0.000000 1.692400 
# 
# From -- ./inp_files/295883.got.cif
#   From: 2010.06.25/outbox.ucp.g09.slc.cvg/sg12_148_cif.got.tgz:295883.got - 2010.06.28 13:50:54.
