data_PCOD8116091
_publ_section_title
;
Structure prediction by ZEFSAII (Michael W. Deem and Ramdas Pophale) SiO2 
 PCOD8116091
Probable space group: C 2/M
;
_chemical_formula_sum "Si O2"
_cell_formula_units_Z 64
_cell_length_a 21.323313
_cell_length_b 23.531762
_cell_length_c 19.003827
_cell_angle_alpha 90.000000
_cell_angle_beta 153.027340
_cell_angle_gamma 90.000000
_cell_volume 4325.038754
_symmetry_space_group_name_H-M "C 2/M"
_symmetry_group_IT_number 12
_symmetry_cell_setting 'monoclinic'
loop_
_space_group_symop_operation_xyz
x,y,z
-x,y,-z
-x,-y,-z
x,-y,z
1/2+x,1/2+y,z
1/2-x,1/2+y,-z
1/2-x,1/2-y,-z
1/2+x,1/2-y,z
loop_
_atom_site_type_symbol
_atom_site_label
_atom_site_fract_x
_atom_site_fract_y
_atom_site_fract_z
Si Si1 0.840653 0.665163 0.100849
Si Si2 0.840889 0.777114 0.190319
Si Si3 0.665306 0.114046 0.665306
Si Si4 0.836267 0.741269 0.336267
Si Si5 0.664397 0.936712 0.809363
Si Si6 0.164397 0.563288 0.519430
Si Si7 0.340654 0.165163 0.580458
Si Si8 0.340888 0.722886 0.491457
O O1 0.820083 0.714626 0.137382
O O2 0.785214 0.606857 0.080095
O O3 1.000000 0.660457 0.237197
O O4 0.751067 0.676589 0.941798
O O5 0.789208 0.775211 0.219503
O O6 0.000000 0.796159 0.343768
O O7 0.500000 0.114932 0.500000
O O8 0.726378 0.177856 0.726378
O O9 0.722528 0.081695 0.791322
O O10 0.722528 0.081695 0.653734
O O11 0.789208 0.775211 0.358913
O O12 0.000000 0.734737 0.500000
O O13 0.500000 0.934855 0.641748
O O14 0.718255 0.000000 0.881449
O O15 0.218255 0.500000 0.555061
O O16 0.214786 0.606858 0.509667
O O17 0.320083 0.214626 0.502785
O O18 0.251069 0.176589 0.560339
#
# Coordination Sequence:
#
# PCOD8116091 Si02
#       8
#     8   8   8   8   8   8   8   8
#     4   9  16  26  39  58  83 107 131 163 199 235
#     4   9  16  26  41  58  79 106 135 164 198 237
#     4   9  13  20  33  55  85 110 134 162 192 229
#     4   9  14  23  39  58  80 107 134 164 199 234
#     4   9  15  22  35  57  84 111 136 163 196 233
#     4   9  15  22  35  57  84 111 136 163 196 233
#     4   9  16  26  39  58  83 107 131 163 199 235
#     4   9  16  26  41  58  79 106 135 164 198 237
#
# _framework density 14.797554999999999
#
# number of rings (size 3 to 8) (size 9 to 14) (size 15 to 20)
#    0.000    3.000    2.500    0.375    0.000    1.500 
#    0.000    0.625    0.000    0.750    0.000    1.750 
#    0.000    9.000    0.000    0.000    0.000    0.000 
#
# Total GULP energy -396669.229572 kJ/mol
# GULP energy per Si atom -12395.913424 kJ/mol
# Density = 1.476388 g / cm^3
# Si number density = 14.797555 Si / 1000 Ang^3
#
#
#
# Elastic Constant Matrix: (Units=GPa)
#
#
# Indices 1 2 3 4 5 6 
#
# 1 103.0865 60.2908 38.5561 -0.0001 -22.8930 -0.0001
# 2 60.2908 106.5044 39.2332 0.0000 -19.0628 0.0000
# 3 38.5561 39.2332 54.3540 -0.0002 -21.2225 -0.0002
# 4 -0.0001 0.0000 -0.0002 15.9605 -0.0001 -5.0783
# 5 -22.8930 -19.0628 -21.2225 -0.0001 21.1330 -0.0001
# 6 -0.0001 0.0000 -0.0002 -5.0783 -0.0001 21.5703
#
#
#
# Elastic Compliance Matrix: (Units=1/GPa)
#
#
# Indices 1 2 3 4 5 6 
#
# 1 0.016908 -0.006618 -0.003942 0.000000 0.008388 0.000000
# 2 -0.006618 0.015562 -0.006344 0.000000 0.000497 0.000000
# 3 -0.003942 -0.006344 0.035979 0.000001 0.026139 0.000001
# 4 0.000000 0.000000 0.000001 0.067728 0.000001 0.015945
# 5 0.008388 0.000497 0.026139 0.000001 0.083105 0.000001
# 6 0.000000 0.000000 0.000001 0.015945 0.000001 0.050114
#
#
# Mechanical properties :
#
#
# Convention : Reuss Voigt Hill
#
# Bulk Modulus (GPa) = 28.86702 60.01167 44.43935
# Shear Modulus (GPa) = 15.88561 20.12374 18.00468
#
# Velocity S-wave (km/s) = 3.28003 3.69173 3.49195
# Velocity P-wave (km/s) = 5.82195 7.66910 6.80846
#
# Compressibility (1/GPa) = 0.03464160
#
# Stress axis : x y z
#
# Youngs Moduli (GPa) = 59.14208 64.26064 27.79403
#
# Poissons Ratio (x) = 0.42529 0.10956
# Poissons Ratio (y) = 0.39142 0.17632
# Poissons Ratio (z) = 0.23312 0.40765
#
# Static dielectric constant tensor:
#      x y z
#    x 2.850500 0.000000 -0.228070 
#    y 0.000000 2.875160 0.000000 
#    z -0.228070 0.000000 2.598570 
# 
# 
# High freq. dielectric constant tensor:
#      x y z
#    x 1.552560 0.000000 -0.021540 
#    y 0.000000 1.548580 0.000000 
#    z -0.021540 0.000000 1.528770 
# 
# From -- ./inp_files/286216.got.cif
#   From: 2010.06.25/outbox.cif.g09.slc.cpg/sg12_144_cif.got.tgz:286216.got - 2010.06.28 00:19:55.
