data_PCOD8116430
_publ_section_title
;
Structure prediction by ZEFSAII (Michael W. Deem and Ramdas Pophale) SiO2 
 PCOD8116430
Probable space group: C 2/M
;
_chemical_formula_sum "Si O2"
_cell_formula_units_Z 28
_cell_length_a 9.000000
_cell_length_b 18.000000
_cell_length_c 27.000000
_cell_angle_alpha 90.000000
_cell_angle_beta 40.000000
_cell_angle_gamma 90.000000
_cell_volume 2811.553005
_symmetry_space_group_name_H-M "C 2/M"
_symmetry_group_IT_number 12
_symmetry_cell_setting 'monoclinic'
loop_
_space_group_symop_operation_xyz
x,y,z
-x,y,-z
-x,-y,-z
x,-y,z
1/2+x,1/2+y,z
1/2-x,1/2+y,-z
1/2-x,1/2-y,-z
1/2+x,1/2-y,z
loop_
_atom_site_type_symbol
_atom_site_label
_atom_site_fract_x
_atom_site_fract_y
_atom_site_fract_z
Si Si1 0.128234 0.914678 0.791568
Si Si2 0.344792 0.814691 0.909519
Si Si3 0.021513 0.837024 0.076953
Si Si4 0.967521 0.302693 0.304863
Si Si5 0.855082 0.147171 0.772971
Si Si6 0.892467 0.910722 0.656958
Si Si7 0.247345 0.792474 0.551477
O O1 0.028270 0.904544 0.872751
O O2 0.325040 0.854246 0.729101
O O3 0.933590 0.898081 0.800841
O O4 0.215379 0.000000 0.764661
O O5 0.214720 0.813516 0.890107
O O6 0.377126 0.729553 0.916318
O O7 0.580732 0.857301 0.842494
O O8 0.205233 0.859396 0.987802
O O9 0.816435 0.359777 0.310593
O O10 0.846754 0.265561 0.383305
O O11 0.055618 0.232984 0.249306
O O12 0.929392 0.100469 0.705968
O O13 0.114861 0.870474 0.576703
O O14 0.871954 0.000000 0.649394
O O15 0.500000 0.819326 0.500000
O O16 0.250000 0.750000 0.500000
#
# Coordination Sequence:
#
# PCOD8116430 Si02
#       7
#     8   8   8   8   8   8   8
#     4  12  25  40  60  95 134 165 207 265 321 368
#     4  10  20  37  64  89 120 161 220 266 306 373
#     4  10  21  37  60  94 121 162 213 267 317 366
#     4  11  23  41  68  90 125 170 212 251 304 377
#     4  11  22  39  64  93 122 171 216 260 305 374
#     4  11  24  42  64  95 129 165 206 257 314 367
#     4  11  23  44  70  97 123 161 207 252 302 370
#
# _framework density 9.9589090000000002
#
# number of rings (size 3 to 8) (size 9 to 14) (size 15 to 20)
#    0.000    1.143    2.857    4.286    2.000    2.000 
#    0.000    6.429    0.000    0.000    0.000    0.000 
#    0.000    0.000    0.000    0.000    0.000    0.000 
#
# Total GULP energy -347031.638384 kJ/mol
# GULP energy per Si atom -12393.987085 kJ/mol
# Density = 0.993624 g / cm^3
# Si number density = 9.958909 Si / 1000 Ang^3
#
#
#
# Elastic Constant Matrix: (Units=GPa)
#
#
# Indices 1 2 3 4 5 6 
#
# 1 121.3317 41.0945 35.5226 0.0045 3.9948 0.0005
# 2 41.0945 143.1539 37.4190 0.0045 0.3093 0.0029
# 3 35.5226 37.4190 92.3765 0.0283 -2.9261 -0.0007
# 4 0.0045 0.0045 0.0283 23.9339 0.0022 1.6804
# 5 3.9948 0.3093 -2.9261 0.0022 38.5995 0.0002
# 6 0.0005 0.0029 -0.0007 1.6804 0.0002 32.7016
#
#
#
# Elastic Compliance Matrix: (Units=1/GPa)
#
#
# Indices 1 2 3 4 5 6 
#
# 1 0.009852 -0.002041 -0.003001 0.000002 -0.001231 0.000000
# 2 -0.002041 0.008239 -0.002554 0.000002 -0.000048 -0.000001
# 3 -0.003001 -0.002554 0.013056 -0.000015 0.001321 0.000001
# 4 0.000002 0.000002 -0.000015 0.041933 -0.000004 -0.002155
# 5 -0.001231 -0.000048 0.001321 -0.000004 0.026135 0.000000
# 6 0.000000 -0.000001 0.000001 -0.002155 0.000000 0.030690
#
#
# Mechanical properties :
#
#
# Convention : Reuss Voigt Hill
#
# Bulk Modulus (GPa) = 62.67633 64.99272 63.83452
# Shear Modulus (GPa) = 33.24122 35.23540 34.23831
#
# Velocity S-wave (km/s) = 4.08967 4.21056 4.15056
# Velocity P-wave (km/s) = 7.33732 7.50598 7.42213
#
# Compressibility (1/GPa) = 0.01595499
#
# Stress axis : x y z
#
# Youngs Moduli (GPa) = 101.49923 121.37165 76.59549
#
# Poissons Ratio (x) = 0.24775 0.22985
# Poissons Ratio (y) = 0.20718 0.19563
# Poissons Ratio (z) = 0.30458 0.30999
#
# Static dielectric constant tensor:
#      x y z
#    x 3.785310 -0.000010 0.002070 
#    y -0.000010 3.800220 0.000060 
#    z 0.002070 0.000060 3.809120 
# 
# 
# High freq. dielectric constant tensor:
#      x y z
#    x 1.798740 0.000000 0.004010 
#    y 0.000000 1.765780 0.000000 
#    z 0.004010 0.000000 1.781340 
# 
# From -- ./inp_files/356643.got.cif
#   From: 2010.06.25/outbox.ucp.g09.slc.cvg/sg12_179_cif.got.tgz:356643.got - 2010.06.28 13:50:54.
