data_PCOD8116418
_publ_section_title
;
Structure prediction by ZEFSAII (Michael W. Deem and Ramdas Pophale) SiO2 
 PCOD8116418
Probable space group: C 2/M
;
_chemical_formula_sum "Si O2"
_cell_formula_units_Z 32
_cell_length_a 18.000000
_cell_length_b 9.000000
_cell_length_c 30.000000
_cell_angle_alpha 90.000000
_cell_angle_beta 40.000000
_cell_angle_gamma 90.000000
_cell_volume 3123.947783
_symmetry_space_group_name_H-M "C 2/M"
_symmetry_group_IT_number 12
_symmetry_cell_setting 'monoclinic'
loop_
_space_group_symop_operation_xyz
x,y,z
-x,y,-z
-x,-y,-z
x,-y,z
1/2+x,1/2+y,z
1/2-x,1/2+y,-z
1/2-x,1/2-y,-z
1/2+x,1/2-y,z
loop_
_atom_site_type_symbol
_atom_site_label
_atom_site_fract_x
_atom_site_fract_y
_atom_site_fract_z
Si Si1 0.418579 0.176521 0.198110
Si Si2 0.930724 0.676847 0.789011
Si Si3 0.822114 0.835155 0.573586
Si Si4 0.499655 0.324408 0.927065
Si Si5 0.313200 0.174624 0.668408
Si Si6 0.677486 0.675744 0.919505
Si Si7 0.418910 0.165142 0.359463
Si Si8 0.041596 0.173742 0.576689
O O1 0.485084 0.234784 0.211089
O O2 0.490492 0.233428 0.122821
O O3 0.291816 0.246347 0.258374
O O4 0.407843 0.000000 0.201236
O O5 0.926431 0.500000 0.792494
O O6 0.804481 0.746722 0.856117
O O7 0.976627 0.727797 0.719348
O O8 0.833786 0.718937 0.607721
O O9 0.689378 0.847027 0.623037
O O10 0.899024 0.778766 0.496801
O O11 0.864982 0.000000 0.569304
O O12 0.506764 0.500000 0.914040
O O13 0.601492 0.269636 0.912909
O O14 0.379259 0.280556 0.006859
O O15 0.427614 0.231107 0.640385
O O16 0.296714 0.000000 0.680438
O O17 0.683733 0.500000 0.914208
O O18 0.381804 0.277722 0.416031
O O19 0.447011 0.000000 0.365342
O O20 0.017138 0.000000 0.588761
#
# Coordination Sequence:
#
# PCOD8116418 Si02
#       8
#     8   8   8   8   8   8   8   8
#     4  11  22  38  58  82 116 154 191 238 296 347
#     4   9  18  34  57  81 112 155 196 232 282 342
#     4  10  21  41  63  84 117 156 189 236 299 351
#     4   9  18  34  58  87 117 149 192 237 278 336
#     4  12  25  40  60  85 114 151 198 246 291 350
#     4   8  16  33  57  85 116 151 190 234 282 336
#     4  10  20  37  60  86 117 155 198 239 284 345
#     4  11  24  39  59  87 119 152 191 240 296 351
#
# _framework density 10.243449
#
# number of rings (size 3 to 8) (size 9 to 14) (size 15 to 20)
#    0.000    2.000    1.250    3.375    1.750    3.500 
#    0.000    1.250    0.000    3.000    0.000    0.000 
#    0.000    0.000    0.000    0.000    0.000    0.000 
#
# Total GULP energy -396687.966350 kJ/mol
# GULP energy per Si atom -12396.498948 kJ/mol
# Density = 1.022013 g / cm^3
# Si number density = 10.243449 Si / 1000 Ang^3
#
#
#
# Elastic Constant Matrix: (Units=GPa)
#
#
# Indices 1 2 3 4 5 6 
#
# 1 24.0217 23.6858 -5.8972 0.0031 8.7336 0.0086
# 2 23.6858 70.4693 42.0880 0.0028 8.5520 0.0017
# 3 -5.8972 42.0880 57.9976 0.0030 0.2460 0.0059
# 4 0.0031 0.0028 0.0030 30.9494 0.0003 9.3207
# 5 8.7336 8.5520 0.2460 0.0003 39.1686 0.0015
# 6 0.0086 0.0017 0.0059 9.3207 0.0015 22.6130
#
#
#
# Elastic Compliance Matrix: (Units=1/GPa)
#
#
# Indices 1 2 3 4 5 6 
#
# 1 0.276929 -0.189473 0.165746 0.000016 -0.021420 -0.000140
# 2 -0.189473 0.155857 -0.132407 -0.000013 0.009049 0.000100
# 3 0.165746 -0.132407 0.130218 0.000011 -0.008865 -0.000091
# 4 0.000016 -0.000013 0.000011 0.036890 -0.000001 -0.015205
# 5 -0.021420 0.009049 -0.008865 -0.000001 0.028387 0.000008
# 6 -0.000140 0.000100 -0.000091 -0.015205 0.000008 0.050490
#
#
# Mechanical properties :
#
#
# Convention : Reuss Voigt Hill
#
# Bulk Modulus (GPa) = 3.98823 30.24909 17.11866
# Shear Modulus (GPa) = 4.65282 24.72036 14.68659
#
# Velocity S-wave (km/s) = 1.50866 3.47744 2.68036
# Velocity P-wave (km/s) = 2.23286 5.56063 4.23712
#
# Compressibility (1/GPa) = 0.25073780
#
# Stress axis : x y z
#
# Youngs Moduli (GPa) = 3.61103 6.41613 7.67940
#
# Poissons Ratio (x) = 1.21568 -1.27283
# Poissons Ratio (y) = 0.68419 1.01681
# Poissons Ratio (z) = -0.59852 0.84954
#
# Static dielectric constant tensor:
#      x y z
#    x 3.729610 0.000000 -0.163510 
#    y 0.000000 3.363640 0.000000 
#    z -0.163510 0.000000 4.021270 
# 
# 
# High freq. dielectric constant tensor:
#      x y z
#    x 1.794980 0.000000 0.001560 
#    y 0.000000 1.764970 0.000000 
#    z 0.001560 0.000000 1.818970 
# 
# From -- ./inp_files/378142.got.cif
#   From: 2010.06.25/outbox.ucp.g09.slc.cvg/sg12_190_cif.got.tgz:378142.got - 2010.06.28 13:50:54.
