data_PCOD8116950
_publ_section_title
;
Structure prediction by ZEFSAII (Michael W. Deem and Ramdas Pophale) SiO2 
 PCOD8116950
Probable space group: P 2/C
;
_chemical_formula_sum "Si O2"
_cell_formula_units_Z 28
_cell_length_a 27.261427
_cell_length_b 9.197892
_cell_length_c 8.814127
_cell_angle_alpha 90.000000
_cell_angle_beta 40.370629
_cell_angle_gamma 90.000000
_cell_volume 1431.560902
_symmetry_space_group_name_H-M "P 2/C"
_symmetry_group_IT_number 13
_symmetry_cell_setting 'monoclinic'
loop_
_space_group_symop_operation_xyz
x,y,z
-x,y,1/2-z
-x,-y,-z
x,-y,1/2+z
loop_
_atom_site_type_symbol
_atom_site_label
_atom_site_fract_x
_atom_site_fract_y
_atom_site_fract_z
Si Si1 0.081441 0.705421 0.053476
Si Si2 0.414386 0.332632 0.483708
Si Si3 0.781274 0.641164 0.278571
Si Si4 0.655100 0.437207 0.559875
Si Si5 0.717748 0.117694 0.751786
Si Si6 0.242474 0.169943 0.187327
Si Si7 0.871157 0.498059 0.813778
O O1 0.071657 0.577979 0.203367
O O2 0.000000 0.789246 0.250000
O O3 0.152054 0.809823 0.929812
O O4 0.092897 0.633465 0.861051
O O5 0.500000 0.287395 0.250000
O O6 0.402790 0.359170 0.689370
O O7 0.394027 0.487203 0.455250
O O8 0.364102 0.196063 0.545277
O O9 0.704808 0.564775 0.521659
O O10 0.770648 0.808293 0.256171
O O11 0.844999 0.626152 0.256084
O O12 0.800330 0.558552 0.076001
O O13 0.714899 0.316106 0.361860
O O14 0.748995 0.133739 0.509275
O O15 0.718606 0.949772 0.796416
#
# Coordination Sequence:
#
# PCOD8116950 Si02
#       7
#     4   4   4   4   4   4   4
#     4  11  22  36  57  87 121 148 187 249 298 332
#     4  10  21  38  58  89 119 145 185 239 293 339
#     4  10  17  34  58  85 106 145 195 240 268 339
#     4  10  19  34  61  86 111 149 189 237 282 337
#     4  10  23  37  58  81 114 156 193 234 279 344
#     4  11  22  38  57  82 113 150 204 230 280 350
#     4  10  18  33  60  83 113 143 190 239 289 338
#
# _framework density 19.559069999999998
#
# number of rings (size 3 to 8) (size 9 to 14) (size 15 to 20)
#    0.000    1.714    4.286    2.571    2.000    1.143 
#    0.000    4.286    0.000    0.000    0.000    0.000 
#    0.000    0.000    0.000    0.000    0.000    0.000 
#
# Total GULP energy -346968.925124 kJ/mol
# GULP energy per Si atom -12391.747326 kJ/mol
# Density = 1.951455 g / cm^3
# Si number density = 19.559070 Si / 1000 Ang^3
#
#
#
# Elastic Constant Matrix: (Units=GPa)
#
#
# Indices 1 2 3 4 5 6 
#
# 1 62.6135 30.4836 45.4466 0.0000 -9.2868 0.0000
# 2 30.4836 86.6447 28.5041 0.0000 -6.4196 0.0000
# 3 45.4466 28.5041 99.3412 0.0000 -18.1106 0.0000
# 4 0.0000 0.0000 0.0000 15.3218 0.0000 4.9224
# 5 -9.2868 -6.4196 -18.1106 0.0000 30.7267 0.0000
# 6 0.0000 0.0000 0.0000 4.9224 0.0000 29.7767
#
#
#
# Elastic Compliance Matrix: (Units=1/GPa)
#
#
# Indices 1 2 3 4 5 6 
#
# 1 0.026368 -0.005851 -0.010256 0.000000 0.000702 0.000000
# 2 -0.005851 0.014051 -0.001280 0.000000 0.000413 0.000000
# 3 -0.010256 -0.001280 0.016259 0.000000 0.006216 0.000000
# 4 0.000000 0.000000 0.000000 0.068927 0.000000 -0.011394
# 5 0.000702 0.000413 0.006216 0.000000 0.036507 0.000000
# 6 0.000000 0.000000 0.000000 -0.011394 0.000000 0.035467
#
#
# Mechanical properties :
#
#
# Convention : Reuss Voigt Hill
#
# Bulk Modulus (GPa) = 45.65258 50.82977 48.24118
# Shear Modulus (GPa) = 20.86349 24.77606 22.81978
#
# Velocity S-wave (km/s) = 3.26957 3.56298 3.41942
# Velocity P-wave (km/s) = 6.13555 6.55520 6.34884
#
# Compressibility (1/GPa) = 0.02190457
#
# Stress axis : x y z
#
# Youngs Moduli (GPa) = 37.92535 71.16688 61.50583
#
# Poissons Ratio (x) = 0.41638 0.63080
# Poissons Ratio (y) = 0.22189 0.07872
# Poissons Ratio (z) = 0.38896 0.09109
#
# Static dielectric constant tensor:
#      x y z
#    x 3.429620 0.000000 0.113670 
#    y 0.000000 3.404870 0.000000 
#    z 0.113670 0.000000 3.596010 
# 
# 
# High freq. dielectric constant tensor:
#      x y z
#    x 1.755220 0.000000 0.013880 
#    y 0.000000 1.735330 0.000000 
#    z 0.013880 0.000000 1.761980 
# 
# From -- ./inp_files/24523.got.cif
#   From: 2010.06.25/outbox.cif.g09.slc.cpg/sg13_13_cif.got.tgz:24523.got - 2010.06.28 04:50:58.
