data_PCOD8116795
_publ_section_title
;
Structure prediction by ZEFSAII (Michael W. Deem and Ramdas Pophale) SiO2 
 PCOD8116795
Probable space group: P 2/C
;
_chemical_formula_sum "Si O2"
_cell_formula_units_Z 26
_cell_length_a 12.132889
_cell_length_b 17.276602
_cell_length_c 17.137740
_cell_angle_alpha 90.000000
_cell_angle_beta 22.474859
_cell_angle_gamma 90.000000
_cell_volume 1373.268353
_symmetry_space_group_name_H-M "P 2/C"
_symmetry_group_IT_number 13
_symmetry_cell_setting 'monoclinic'
loop_
_space_group_symop_operation_xyz
x,y,z
-x,y,1/2-z
-x,-y,-z
x,-y,1/2+z
loop_
_atom_site_type_symbol
_atom_site_label
_atom_site_fract_x
_atom_site_fract_y
_atom_site_fract_z
Si Si1 0.420054 0.808946 0.177545
Si Si2 0.390668 0.454859 0.902761
Si Si3 0.043112 0.180624 0.063544
Si Si4 0.000000 0.431234 0.750000
Si Si5 0.336839 0.644494 0.158299
Si Si6 0.274643 0.934298 0.623278
Si Si7 0.921418 0.328562 0.215528
O O1 0.142539 0.836382 0.410145
O O2 0.325193 0.733562 0.192015
O O3 0.684424 0.794418 0.062074
O O4 0.513961 0.875296 0.057526
O O5 0.500000 0.492776 0.750000
O O6 0.660286 0.412417 0.768674
O O7 0.261942 0.516643 0.047236
O O8 0.157755 0.389318 0.031956
O O9 0.865351 0.106129 0.209031
O O10 0.861587 0.259999 0.191603
O O11 0.074014 0.376029 0.774217
O O12 0.623032 0.626083 0.920680
O O13 0.000000 0.962836 0.750000
O O14 0.500000 0.000000 0.500000
O O15 0.000000 0.292621 0.250000
#
# Coordination Sequence:
#
# PCOD8116795 Si02
#       7
#     4   4   4   2   4   4   4
#     4  10  19  34  60  89 110 144 196 239 276 332
#     4  11  22  38  61  84 109 147 196 249 298 332
#     4  10  17  33  62  90 109 139 193 245 276 323
#     4  12  26  40  50  80 124 158 186 234 296 370
#     4  11  21  39  59  81 115 152 193 240 292 339
#     4  10  21  38  59  89 121 152 187 230 289 347
#     4  10  16  32  59  83 106 138 188 240 282 324
#
# _framework density 18.932932999999998
#
# number of rings (size 3 to 8) (size 9 to 14) (size 15 to 20)
#    0.000    1.538    6.923    1.846    0.000    1.231 
#    4.154    0.000    0.000    1.846    0.000    0.000 
#    0.000    0.000    0.000    0.000    0.000    0.000 
#
# Total GULP energy -322183.885535 kJ/mol
# GULP energy per Si atom -12391.687905 kJ/mol
# Density = 1.888984 g / cm^3
# Si number density = 18.932933 Si / 1000 Ang^3
#
#
#
# Elastic Constant Matrix: (Units=GPa)
#
#
# Indices 1 2 3 4 5 6 
#
# 1 84.1733 55.2898 46.4307 0.0000 7.5290 0.0000
# 2 55.2898 104.8418 38.9116 0.0000 -0.3567 0.0000
# 3 46.4307 38.9116 83.3621 0.0000 25.8032 0.0000
# 4 0.0000 0.0000 0.0000 12.8857 0.0000 -4.6118
# 5 7.5290 -0.3567 25.8032 0.0000 33.9352 0.0000
# 6 0.0000 0.0000 0.0000 -4.6118 0.0000 17.9645
#
#
#
# Elastic Compliance Matrix: (Units=1/GPa)
#
#
# Indices 1 2 3 4 5 6 
#
# 1 0.022171 -0.008332 -0.009037 0.000000 0.001865 0.000000
# 2 -0.008332 0.015515 -0.004216 0.000000 0.005218 0.000000
# 3 -0.009037 -0.004216 0.024051 0.000000 -0.016327 0.000000
# 4 0.000000 0.000000 0.000000 0.085457 0.000000 0.021938
# 5 0.001865 0.005218 -0.016327 0.000000 0.041523 0.000000
# 6 0.000000 0.000000 0.000000 0.021938 0.000000 0.061297
#
#
# Mechanical properties :
#
#
# Convention : Reuss Voigt Hill
#
# Bulk Modulus (GPa) = 53.85972 61.51571 57.68771
# Shear Modulus (GPa) = 16.70157 21.74009 19.22083
#
# Velocity S-wave (km/s) = 2.97331 3.39229 3.18969
# Velocity P-wave (km/s) = 6.34798 6.92137 6.64087
#
# Compressibility (1/GPa) = 0.01856675
#
# Stress axis : x y z
#
# Youngs Moduli (GPa) = 45.10365 64.45486 41.57849
#
# Poissons Ratio (x) = 0.53703 0.37574
# Poissons Ratio (y) = 0.37580 0.17530
# Poissons Ratio (z) = 0.40759 0.27176
#
# Static dielectric constant tensor:
#      x y z
#    x 3.329400 0.000000 0.290570 
#    y 0.000000 3.260980 0.000000 
#    z 0.290570 0.000000 3.800730 
# 
# 
# High freq. dielectric constant tensor:
#      x y z
#    x 1.701620 0.000000 0.026480 
#    y 0.000000 1.721440 0.000000 
#    z 0.026480 0.000000 1.736760 
# 
# From -- ./inp_files/80255.got.cif
#   From: 2010.06.25/outbox.cif.g09.slc.cpg/sg13_41_cif.got.tgz:80255.got - 2010.06.28 04:50:58.
