data_PCOD8116845
_publ_section_title
;
Structure prediction by ZEFSAII (Michael W. Deem and Ramdas Pophale) SiO2 
 PCOD8116845
Probable space group: P 2/C
;
_chemical_formula_sum "Si O2"
_cell_formula_units_Z 32
_cell_length_a 11.470980
_cell_length_b 17.892658
_cell_length_c 22.318748
_cell_angle_alpha 90.000000
_cell_angle_beta 22.127328
_cell_angle_gamma 90.000000
_cell_volume 1725.447678
_symmetry_space_group_name_H-M "P 2/C"
_symmetry_group_IT_number 13
_symmetry_cell_setting 'monoclinic'
loop_
_space_group_symop_operation_xyz
x,y,z
-x,y,1/2-z
-x,-y,-z
x,-y,1/2+z
loop_
_atom_site_type_symbol
_atom_site_label
_atom_site_fract_x
_atom_site_fract_y
_atom_site_fract_z
Si Si1 0.672210 0.586102 0.730934
Si Si2 0.644155 0.081294 0.435194
Si Si3 0.561495 0.862887 0.341402
Si Si4 0.714617 0.874729 0.504419
Si Si5 0.667272 0.289257 0.733150
Si Si6 0.303787 0.001417 0.894281
Si Si7 0.599826 0.562013 0.133416
Si Si8 0.610483 0.266086 0.130247
O O1 0.500000 0.597347 0.750000
O O2 0.520347 0.515790 0.839283
O O3 0.595392 0.665497 0.800065
O O4 0.034861 0.572186 0.548936
O O5 0.618711 0.119838 0.511861
O O6 0.464434 0.131365 0.472691
O O7 0.000000 0.074904 0.250000
O O8 0.500000 0.000000 0.500000
O O9 0.518961 0.777133 0.342639
O O10 0.426087 0.915493 0.352956
O O11 0.923605 0.871740 0.180193
O O12 0.563044 0.809250 0.615559
O O13 0.672768 0.954529 0.556237
O O14 0.500000 0.289435 0.750000
O O15 0.580114 0.366741 0.808842
O O16 0.029053 0.286392 0.547068
O O17 0.500000 0.961395 0.750000
O O18 0.000000 0.000000 0.000000
O O19 0.500000 0.553794 0.250000
O O20 0.500000 0.247938 0.250000
#
# Coordination Sequence:
#
# PCOD8116845 Si02
#       8
#     4   4   4   4   4   4   4   4
#     4  10  17  28  46  71 107 145 184 219 263 326
#     4  12  26  42  62  80 103 142 191 240 280 328
#     4  11  24  41  59  80 111 145 188 232 279 330
#     4  11  24  41  59  81 110 146 187 233 279 330
#     4  10  20  33  53  79 112 146 179 225 277 330
#     4  12  24  38  57  84 113 147 181 223 278 338
#     4  10  17  28  46  72 106 147 183 219 264 324
#     4  10  20  34  52  80 112 145 180 225 277 330
#
# _framework density 18.545912000000001
#
# number of rings (size 3 to 8) (size 9 to 14) (size 15 to 20)
#    0.000    1.250    2.500    7.125    3.500    2.000 
#    0.000    0.000    0.000    0.000    0.000    0.875 
#    0.000    0.000    0.000    0.000    0.000    0.000 
#
# Total GULP energy -396450.548353 kJ/mol
# GULP energy per Si atom -12389.079636 kJ/mol
# Density = 1.850370 g / cm^3
# Si number density = 18.545912 Si / 1000 Ang^3
#
#
#
# Elastic Constant Matrix: (Units=GPa)
#
#
# Indices 1 2 3 4 5 6 
#
# 1 62.8278 25.0130 18.1432 0.0000 -1.1977 0.0000
# 2 25.0130 137.0639 44.7810 0.0000 3.5267 0.0000
# 3 18.1432 44.7810 108.3143 0.0000 -2.4191 0.0000
# 4 0.0000 0.0000 0.0000 31.4026 0.0000 -8.1016
# 5 -1.1977 3.5267 -2.4191 0.0000 29.2884 0.0000
# 6 0.0000 0.0000 0.0000 -8.1016 0.0000 11.0865
#
#
#
# Elastic Compliance Matrix: (Units=1/GPa)
#
#
# Indices 1 2 3 4 5 6 
#
# 1 0.017504 -0.002619 -0.001830 0.000000 0.000880 0.000000
# 2 -0.002619 0.008877 -0.003264 0.000000 -0.001446 0.000000
# 3 -0.001830 -0.003264 0.010915 0.000000 0.001220 0.000000
# 4 0.000000 0.000000 0.000000 0.039243 0.000000 0.028677
# 5 0.000880 -0.001446 0.001220 0.000000 0.034454 0.000000
# 6 0.000000 0.000000 0.000000 0.028677 0.000000 0.111156
#
#
# Mechanical properties :
#
#
# Convention : Reuss Voigt Hill
#
# Bulk Modulus (GPa) = 45.72043 53.78671 49.75357
# Shear Modulus (GPa) = 20.41931 29.04008 24.72970
#
# Velocity S-wave (km/s) = 3.32175 3.96137 3.65558
# Velocity P-wave (km/s) = 6.27839 7.07023 6.68604
#
# Compressibility (1/GPa) = 0.02187206
#
# Stress axis : x y z
#
# Youngs Moduli (GPa) = 57.12846 112.64575 91.61332
#
# Poissons Ratio (x) = 0.29505 0.16761
# Poissons Ratio (y) = 0.14964 0.29900
# Poissons Ratio (z) = 0.10452 0.36765
#
# Static dielectric constant tensor:
#      x y z
#    x 3.161310 0.000000 -0.044790 
#    y 0.000000 4.310870 0.000000 
#    z -0.044790 0.000000 3.500780 
# 
# 
# High freq. dielectric constant tensor:
#      x y z
#    x 1.669090 0.000000 -0.011980 
#    y 0.000000 1.738270 0.000000 
#    z -0.011980 0.000000 1.740220 
# 
# From -- ./inp_files/86664.got.cif
#   From: 2010.06.25/outbox.cif.g09.slc.cpg/sg13_44_cif.got.tgz:86664.got - 2010.06.28 04:50:58.
