data_PCOD8116575
_publ_section_title
;
Structure prediction by ZEFSAII (Michael W. Deem and Ramdas Pophale) SiO2 
 PCOD8116575
Probable space group: C 2/M
;
_chemical_formula_sum "Si O2"
_cell_formula_units_Z 32
_cell_length_a 9.000000
_cell_length_b 18.000000
_cell_length_c 30.000000
_cell_angle_alpha 90.000000
_cell_angle_beta 40.000000
_cell_angle_gamma 90.000000
_cell_volume 3123.947783
_symmetry_space_group_name_H-M "C 2/M"
_symmetry_group_IT_number 12
_symmetry_cell_setting 'monoclinic'
loop_
_space_group_symop_operation_xyz
x,y,z
-x,y,-z
-x,-y,-z
x,-y,z
1/2+x,1/2+y,z
1/2-x,1/2+y,-z
1/2-x,1/2-y,-z
1/2+x,1/2-y,z
loop_
_atom_site_type_symbol
_atom_site_label
_atom_site_fract_x
_atom_site_fract_y
_atom_site_fract_z
Si Si1 0.336391 0.303464 0.744496
Si Si2 0.001398 0.225307 0.451454
Si Si3 0.797606 0.645332 0.020538
Si Si4 0.395175 0.917927 0.261625
Si Si5 0.683193 0.189426 0.327783
Si Si6 0.802784 0.585976 0.384834
Si Si7 0.621127 0.797275 0.092806
Si Si8 0.328424 0.583504 0.105781
O O1 0.296307 0.366984 0.717181
O O2 0.376895 0.230092 0.705049
O O3 0.544682 0.328531 0.729740
O O4 0.121130 0.293107 0.826348
O O5 0.750000 0.250000 0.500000
O O6 0.000000 0.263300 0.500000
O O7 0.161040 0.260528 0.377151
O O8 0.071170 0.137335 0.440532
O O9 0.727461 0.715596 0.067259
O O10 0.587572 0.588619 0.064044
O O11 0.914167 0.672579 0.948336
O O12 0.000000 0.601796 0.000000
O O13 0.401762 0.910228 0.312635
O O14 0.652873 0.897819 0.186143
O O15 0.325103 0.000000 0.262606
O O16 0.507746 0.119045 0.369626
O O17 0.747182 0.500000 0.411241
O O18 0.798812 0.854259 0.075063
O O19 0.286986 0.500000 0.096440
#
# Coordination Sequence:
#
# PCOD8116575 Si02
#       8
#     8   8   8   8   8   8   8   8
#     4  11  22  36  66  91 124 162 220 260 313 375
#     4  12  23  42  67  95 131 170 211 253 301 372
#     4  11  23  36  55  87 126 154 206 265 325 363
#     4   9  20  40  63  91 126 165 207 260 322 375
#     4  12  23  40  64  99 124 167 214 258 309 371
#     4  11  24  43  67  98 135 170 209 261 317 368
#     4  10  23  38  58  88 118 165 204 261 313 380
#     4  10  22  41  63  85 119 166 207 250 317 390
#
# _framework density 10.243449
#
# number of rings (size 3 to 8) (size 9 to 14) (size 15 to 20)
#    0.000    1.250    3.750    1.875    7.000    2.000 
#    0.000    0.000    0.000    0.750    0.000    0.000 
#    0.000    0.000    0.000    0.000    0.000    0.000 
#
# Total GULP energy -396429.984451 kJ/mol
# GULP energy per Si atom -12388.437014 kJ/mol
# Density = 1.022013 g / cm^3
# Si number density = 10.243449 Si / 1000 Ang^3
#
#
#
# Elastic Constant Matrix: (Units=GPa)
#
#
# Indices 1 2 3 4 5 6 
#
# 1 117.1142 40.9582 33.1905 -0.1288 -25.1803 -0.0208
# 2 40.9582 101.8965 30.8167 -0.0362 -5.3194 -0.0087
# 3 33.1905 30.8167 74.9350 0.0900 -8.0156 -0.0061
# 4 -0.1288 -0.0362 0.0900 -64.6394 0.1798 -21.2445
# 5 -25.1803 -5.3194 -8.0156 0.1798 27.2759 0.0192
# 6 -0.0208 -0.0087 -0.0061 -21.2445 0.0192 44.6883
#
#
#
# Elastic Compliance Matrix: (Units=1/GPa)
#
#
# Indices 1 2 3 4 5 6 
#
# 1 0.012934 -0.003725 -0.003095 0.000000 0.010304 0.000001
# 2 -0.003725 0.012300 -0.003634 -0.000009 -0.002108 -0.000003
# 3 -0.003095 -0.003634 0.016342 0.000030 0.001237 0.000014
# 4 0.000000 -0.000009 0.000030 -0.013380 0.000100 -0.006361
# 5 0.010304 -0.002108 0.001237 0.000100 0.046127 0.000032
# 6 0.000001 -0.000003 0.000014 -0.006361 0.000032 0.019353
#
#
# Mechanical properties :
#
#
# Convention : Reuss Voigt Hill
#
# Bulk Modulus (GPa) = 48.38126 55.98629 52.18377
# Shear Modulus (GPa) = 41.16108 14.06364 27.61236
#
# Velocity S-wave (km/s) = 4.48721 2.62290 3.67523
# Velocity P-wave (km/s) = 7.10730 6.04648 6.59824
#
# Compressibility (1/GPa) = 0.02066916
#
# Stress axis : x y z
#
# Youngs Moduli (GPa) = 77.31582 81.29961 61.19094
#
# Poissons Ratio (x) = 0.30285 0.18936
# Poissons Ratio (y) = 0.28801 0.22236
# Poissons Ratio (z) = 0.23926 0.29544
#
# Static dielectric constant tensor:
#      x y z
#    x 3.624640 -0.000040 0.162970 
#    y -0.000040 3.744690 0.000160 
#    z 0.162970 0.000160 3.559280 
# 
# 
# High freq. dielectric constant tensor:
#      x y z
#    x 1.797820 0.000000 0.002470 
#    y 0.000000 1.785550 0.000000 
#    z 0.002470 0.000000 1.815750 
# 
# From -- ./inp_files/372950.got.cif
#   From: 2010.06.25/outbox.ucp.g09.slc.cvg/sg12_187_cif.got.tgz:372950.got - 2010.06.28 13:50:54.
