data_PCOD8116839
_publ_section_title
;
Structure prediction by ZEFSAII (Michael W. Deem and Ramdas Pophale) SiO2 
 PCOD8116839
Probable space group: P 2/C
;
_chemical_formula_sum "Si O2"
_cell_formula_units_Z 32
_cell_length_a 15.348192
_cell_length_b 15.273447
_cell_length_c 8.643234
_cell_angle_alpha 90.000000
_cell_angle_beta 90.001817
_cell_angle_gamma 90.000000
_cell_volume 2026.145159
_symmetry_space_group_name_H-M "P 2/C"
_symmetry_group_IT_number 13
_symmetry_cell_setting 'monoclinic'
loop_
_space_group_symop_operation_xyz
x,y,z
-x,y,1/2-z
-x,-y,-z
x,-y,1/2+z
loop_
_atom_site_type_symbol
_atom_site_label
_atom_site_fract_x
_atom_site_fract_y
_atom_site_fract_z
Si Si1 0.596319 0.777206 0.181778
Si Si2 0.594962 0.584077 0.178567
Si Si3 0.263418 0.096198 0.317311
Si Si4 0.596319 0.777160 0.818214
Si Si5 0.086966 0.902472 0.683632
Si Si6 0.736586 0.903867 0.317316
Si Si7 0.594956 0.415970 0.321490
Si Si8 0.913037 0.097420 0.683549
O O1 0.500000 0.784641 0.250000
O O2 0.636998 0.679645 0.209955
O O3 0.654908 0.844985 0.273947
O O4 0.594372 0.799726 0.999986
O O5 0.500000 0.586532 0.250000
O O6 0.647433 0.500031 0.250064
O O7 0.586209 0.565593 0.000035
O O8 0.345105 0.155085 0.274032
O O9 0.176341 0.141331 0.244521
O O10 0.252510 0.089480 0.499993
O O11 0.279666 0.000048 0.249928
O O12 0.500000 0.784571 0.750000
O O13 0.636990 0.679593 0.790073
O O14 0.084414 0.902380 0.500042
O O15 0.000000 0.854265 0.750000
O O16 0.087920 0.999919 0.750176
O O17 0.823679 0.858783 0.244517
O O18 0.500000 0.413569 0.250000
O O19 0.000000 0.145593 0.750000
#
# Coordination Sequence:
#
# PCOD8116839 Si02
#       8
#     4   4   4   4   4   4   4   4
#     4  10  20  33  46  64  88 118 152 187 221 259
#     4   9  16  26  43  63  85 109 139 177 220 263
#     4  11  21  33  47  64  87 118 152 187 222 261
#     4  10  20  33  46  64  88 118 152 187 221 259
#     4  10  17  28  45  65  87 111 141 179 221 265
#     4  11  21  33  47  64  87 118 152 187 222 261
#     4   9  16  26  43  63  85 109 139 177 220 263
#     4  10  17  28  45  65  87 111 141 179 221 265
#
# _framework density 15.793537000000001
#
# number of rings (size 3 to 8) (size 9 to 14) (size 15 to 20)
#    0.000    2.000    0.000    9.000    0.000    3.500 
#    0.000    2.500    0.000    0.000    0.000    0.000 
#    0.000    1.000    0.000   10.500    0.000    5.750 
#
# Total GULP energy -396483.700547 kJ/mol
# GULP energy per Si atom -12390.115642 kJ/mol
# Density = 1.575759 g / cm^3
# Si number density = 15.793537 Si / 1000 Ang^3
#
#
#
# Elastic Constant Matrix: (Units=GPa)
#
#
# Indices 1 2 3 4 5 6 
#
# 1 85.7144 39.9705 41.3046 0.0000 -0.0239 0.0000
# 2 39.9705 77.1304 44.0361 0.0000 -0.0282 0.0000
# 3 41.3046 44.0361 147.1074 0.0000 -0.0736 0.0000
# 4 0.0000 0.0000 0.0000 22.9273 0.0000 -0.0160
# 5 -0.0239 -0.0282 -0.0736 0.0000 24.5913 0.0000
# 6 0.0000 0.0000 0.0000 -0.0160 0.0000 -3.5262
#
#
#
# Elastic Compliance Matrix: (Units=1/GPa)
#
#
# Indices 1 2 3 4 5 6 
#
# 1 0.016077 -0.006940 -0.002437 0.000000 0.000000 0.000000
# 2 -0.006940 0.018634 -0.003629 0.000000 0.000004 0.000000
# 3 -0.002437 -0.003629 0.008568 0.000000 0.000019 0.000000
# 4 0.000000 0.000000 0.000000 0.043616 0.000000 -0.000198
# 5 0.000000 0.000004 0.000019 0.000000 0.040665 0.000000
# 6 0.000000 0.000000 0.000000 -0.000198 0.000000 -0.283592
#
#
# Mechanical properties :
#
#
# Convention : Reuss Voigt Hill
#
# Bulk Modulus (GPa) = 57.91435 62.28606 60.10021
# Shear Modulus (GPa) = -40.23695 21.10788 -9.56454
#
# Velocity S-wave (km/s) = -5.05294 3.65977 -2.46356
# Velocity P-wave (km/s) = 1.64511 7.57508 5.48125
#
# Compressibility (1/GPa) = 0.01726688
#
# Stress axis : x y z
#
# Youngs Moduli (GPa) = 62.19952 53.66596 116.70941
#
# Poissons Ratio (x) = 0.37247 0.28437
# Poissons Ratio (y) = 0.43169 0.42356
# Poissons Ratio (z) = 0.15155 0.19477
#
# Static dielectric constant tensor:
#      x y z
#    x 3.241960 0.000000 0.000290 
#    y 0.000000 3.419410 0.000000 
#    z 0.000290 0.000000 3.207900 
# 
# 
# High freq. dielectric constant tensor:
#      x y z
#    x 1.581400 0.000000 0.000000 
#    y 0.000000 1.579250 0.000000 
#    z 0.000000 0.000000 1.634420 
# 
# From -- ./inp_files/19382.got.cif
#   From: 2010.06.25/outbox.cif.g09.slc.cpg/sg13_10_cif.got.tgz:19382.got - 2010.06.28 04:50:58.
