data_PCOD8116852
_publ_section_title
;
Structure prediction by ZEFSAII (Michael W. Deem and Ramdas Pophale) SiO2 
 PCOD8116852
Probable space group: P 2/C
;
_chemical_formula_sum "Si O2"
_cell_formula_units_Z 30
_cell_length_a 12.173691
_cell_length_b 15.694961
_cell_length_c 27.294043
_cell_angle_alpha 90.000000
_cell_angle_beta 20.607480
_cell_angle_gamma 90.000000
_cell_volume 1835.474876
_symmetry_space_group_name_H-M "P 2/C"
_symmetry_group_IT_number 13
_symmetry_cell_setting 'monoclinic'
loop_
_space_group_symop_operation_xyz
x,y,z
-x,y,1/2-z
-x,-y,-z
x,-y,1/2+z
loop_
_atom_site_type_symbol
_atom_site_label
_atom_site_fract_x
_atom_site_fract_y
_atom_site_fract_z
Si Si1 0.500000 0.308562 0.250000
Si Si2 0.828768 0.022974 0.456488
Si Si3 0.847247 0.105621 0.609252
Si Si4 0.287810 0.407538 0.789765
Si Si5 0.012605 0.174921 0.052020
Si Si6 0.740294 0.549062 0.578721
Si Si7 0.297754 0.771735 0.247096
Si Si8 0.877279 0.082786 0.747077
O O1 0.362734 0.365433 0.350746
O O2 0.761262 0.248361 0.164188
O O3 0.022584 0.108873 0.388077
O O4 0.465716 0.043784 0.611438
O O5 0.914532 0.954469 0.461907
O O6 0.906981 0.986656 0.370332
O O7 0.500000 0.062924 0.750000
O O8 0.015093 0.123922 0.487712
O O9 0.794264 0.193447 0.660924
O O10 0.500000 0.387423 0.750000
O O11 0.441232 0.487396 0.696679
O O12 0.251522 0.329440 0.767288
O O13 0.922463 0.427565 0.953054
O O14 0.343802 0.218888 0.915412
O O15 0.000000 0.500000 0.500000
O O16 0.103110 0.824615 0.287511
O O17 0.000000 0.096013 0.750000
#
# Coordination Sequence:
#
# PCOD8116852 Si02
#       8
#     2   4   4   4   4   4   4   4
#     4  12  20  26  42  68 104 140 168 188 232 272
#     4  10  21  33  52  74  97 134 171 200 254 296
#     4   9  17  31  47  68 104 138 163 196 239 295
#     4  10  17  29  48  66 101 128 162 189 234 290
#     4  10  20  27  43  72 106 133 164 199 233 287
#     4  10  18  29  43  66  96 139 164 190 225 285
#     4   9  18  32  49  69  94 131 169 201 251 293
#     4  10  21  38  55  71  94 126 174 223 257 289
#
# _framework density 16.344543999999999
#
# number of rings (size 3 to 8) (size 9 to 14) (size 15 to 20)
#    0.000    2.133    2.000    5.200    2.800    0.000 
#    0.000    0.000    0.000    0.000    0.000    0.933 
#    0.000    0.000    0.000    0.000    0.000    0.000 
#
# Total GULP energy -371764.262271 kJ/mol
# GULP energy per Si atom -12392.142076 kJ/mol
# Density = 1.630734 g / cm^3
# Si number density = 16.344544 Si / 1000 Ang^3
#
#
#
# Elastic Constant Matrix: (Units=GPa)
#
#
# Indices 1 2 3 4 5 6 
#
# 1 64.5145 25.0776 18.7387 0.0000 8.4318 0.0000
# 2 25.0776 102.2298 43.3939 0.0000 7.7041 0.0000
# 3 18.7387 43.3939 76.7978 0.0000 9.4935 0.0000
# 4 0.0000 0.0000 0.0000 29.5812 0.0000 2.4952
# 5 8.4318 7.7041 9.4935 0.0000 17.4448 0.0000
# 6 0.0000 0.0000 0.0000 2.4952 0.0000 11.9130
#
#
#
# Elastic Compliance Matrix: (Units=1/GPa)
#
#
# Indices 1 2 3 4 5 6 
#
# 1 0.018100 -0.003184 -0.001833 0.000000 -0.006345 0.000000
# 2 -0.003184 0.013484 -0.006751 0.000000 -0.000743 0.000000
# 3 -0.001833 -0.006751 0.018017 0.000000 -0.005938 0.000000
# 4 0.000000 0.000000 0.000000 0.034413 0.000000 -0.007208
# 5 -0.006345 -0.000743 -0.005938 0.000000 0.063950 0.000000
# 6 0.000000 0.000000 0.000000 -0.007208 0.000000 0.085452
#
#
# Mechanical properties :
#
#
# Convention : Reuss Voigt Hill
#
# Bulk Modulus (GPa) = 38.36412 46.44027 42.40220
# Shear Modulus (GPa) = 18.82256 22.20991 20.51624
#
# Velocity S-wave (km/s) = 3.39722 3.69027 3.54677
# Velocity P-wave (km/s) = 6.23789 6.82879 6.54002
#
# Compressibility (1/GPa) = 0.02606602
#
# Stress axis : x y z
#
# Youngs Moduli (GPa) = 55.24982 74.16063 55.50389
#
# Poissons Ratio (x) = 0.23611 0.10174
# Poissons Ratio (y) = 0.17590 0.37468
# Poissons Ratio (z) = 0.10128 0.50062
#
# Static dielectric constant tensor:
#      x y z
#    x 2.809750 0.000000 0.087240 
#    y 0.000000 3.570610 0.000000 
#    z 0.087240 0.000000 3.426210 
# 
# 
# High freq. dielectric constant tensor:
#      x y z
#    x 1.572690 0.000000 0.009680 
#    y 0.000000 1.635840 0.000000 
#    z 0.009680 0.000000 1.640770 
# 
# From -- ./inp_files/21900.got.cif
#   From: 2010.06.25/outbox.cif.g09.slc.cpg/sg13_11_cif.got.tgz:21900.got - 2010.06.28 04:50:58.
