data_PCOD8116530
_publ_section_title
;
Structure prediction by ZEFSAII (Michael W. Deem and Ramdas Pophale) SiO2 
 PCOD8116530
Probable space group: C 2/M
;
_chemical_formula_sum "Si O2"
_cell_formula_units_Z 24
_cell_length_a 18.000000
_cell_length_b 9.000000
_cell_length_c 30.000000
_cell_angle_alpha 90.000000
_cell_angle_beta 30.000000
_cell_angle_gamma 90.000000
_cell_volume 2430.000000
_symmetry_space_group_name_H-M "C 2/M"
_symmetry_group_IT_number 12
_symmetry_cell_setting 'monoclinic'
loop_
_space_group_symop_operation_xyz
x,y,z
-x,y,-z
-x,-y,-z
x,-y,z
1/2+x,1/2+y,z
1/2-x,1/2+y,-z
1/2-x,1/2-y,-z
1/2+x,1/2-y,z
loop_
_atom_site_type_symbol
_atom_site_label
_atom_site_fract_x
_atom_site_fract_y
_atom_site_fract_z
Si Si1 0.683361 0.325993 0.821103
Si Si2 0.964573 0.820316 0.642826
Si Si3 0.078051 0.680384 0.674434
Si Si4 0.886088 0.673573 0.518835
Si Si5 0.285871 0.679363 0.856687
Si Si6 0.657628 0.326305 0.009291
O O1 0.725990 0.500000 0.805705
O O2 0.797388 0.247190 0.727479
O O3 0.695857 0.237377 0.860810
O O4 0.517069 0.310998 0.888672
O O5 0.049960 0.746764 0.639972
O O6 0.051212 0.769447 0.554355
O O7 0.961721 0.000000 0.648251
O O8 0.080923 0.500000 0.672655
O O9 0.231656 0.748453 0.613145
O O10 0.948105 0.743212 0.773984
O O11 0.862164 0.500000 0.518339
O O12 0.000000 0.687572 0.500000
O O13 0.299918 0.500000 0.848706
O O14 0.191907 0.734411 0.947265
O O15 0.700659 0.500000 0.981690
O O16 0.750000 0.250000 0.000000
#
# Coordination Sequence:
#
# PCOD8116530 Si02
#       6
#     8   8   8   8   8   8
#     4  10  21  39  62  87 116 151 193 240 290 341
#     4  11  22  38  62  89 117 150 193 240 287 342
#     4  11  22  39  63  88 117 151 193 241 287 340
#     4  11  24  41  60  84 118 156 193 236 289 346
#     4  11  22  38  62  89 117 151 194 240 288 343
#     4  11  24  40  59  85 119 157 195 238 290 346
#
# _framework density 9.8765429999999999
#
# number of rings (size 3 to 8) (size 9 to 14) (size 15 to 20)
#    0.000    1.167    0.000    9.000    0.000    7.333 
#    0.000    1.667    0.000    0.000    0.000    0.000 
#    0.000    0.000    0.000    0.000    0.000    0.000 
#
# Total GULP energy -297609.794165 kJ/mol
# GULP energy per Si atom -12400.408090 kJ/mol
# Density = 0.985406 g / cm^3
# Si number density = 9.876543 Si / 1000 Ang^3
#
#
#
# Elastic Constant Matrix: (Units=GPa)
#
#
# Indices 1 2 3 4 5 6 
#
# 1 55.7028 36.0924 24.7013 -0.0003 -29.0361 0.0005
# 2 36.0924 219.3547 42.6692 -0.0008 -19.4499 0.0015
# 3 24.7013 42.6692 90.7721 0.0003 -25.7748 -0.0003
# 4 -0.0003 -0.0008 0.0003 44.6246 0.0000 0.1197
# 5 -29.0361 -19.4499 -25.7748 0.0000 33.5843 -0.0002
# 6 0.0005 0.0015 -0.0003 0.1197 -0.0002 37.0561
#
#
#
# Elastic Compliance Matrix: (Units=1/GPa)
#
#
# Indices 1 2 3 4 5 6 
#
# 1 0.034707 -0.003226 0.000079 0.000000 0.028199 0.000000
# 2 -0.003226 0.005370 -0.001988 0.000000 -0.001205 0.000000
# 3 0.000079 -0.001988 0.014861 0.000000 0.010322 0.000000
# 4 0.000000 0.000000 0.000000 0.022409 0.000000 -0.000072
# 5 0.028199 -0.001205 0.010322 0.000000 0.061379 0.000000
# 6 0.000000 0.000000 0.000000 -0.000072 0.000000 0.026986
#
#
# Mechanical properties :
#
#
# Convention : Reuss Voigt Hill
#
# Bulk Modulus (GPa) = 22.38816 63.63946 43.01381
# Shear Modulus (GPa) = 26.19566 40.54413 33.36990
#
# Velocity S-wave (km/s) = 3.64559 4.53542 4.11463
# Velocity P-wave (km/s) = 5.39250 7.72749 6.66308
#
# Compressibility (1/GPa) = 0.04466646
#
# Stress axis : x y z
#
# Youngs Moduli (GPa) = 28.81289 186.23708 67.29150
#
# Poissons Ratio (x) = 0.60072 -0.00530
# Poissons Ratio (y) = 0.09294 0.13381
# Poissons Ratio (z) = -0.00227 0.37033
#
# Static dielectric constant tensor:
#      x y z
#    x 3.553390 -0.000010 -0.107610 
#    y -0.000010 4.139340 0.000000 
#    z -0.107610 0.000000 3.970150 
# 
# 
# High freq. dielectric constant tensor:
#      x y z
#    x 1.762220 0.000000 -0.012770 
#    y 0.000000 1.813270 0.000000 
#    z -0.012770 0.000000 1.792490 
# 
# From -- ./inp_files/377908.got.cif
#   From: 2010.06.25/outbox.ucp.g09.slc.cvg/sg12_189_cif.got.tgz:377908.got - 2010.06.28 13:50:54.
