data_PCOD8116748
_publ_section_title
;
Structure prediction by ZEFSAII (Michael W. Deem and Ramdas Pophale) SiO2 
 PCOD8116748
Probable space group: P 2/C
;
_chemical_formula_sum "Si O2"
_cell_formula_units_Z 28
_cell_length_a 23.687852
_cell_length_b 12.644480
_cell_length_c 5.253125
_cell_angle_alpha 90.000000
_cell_angle_beta 84.092928
_cell_angle_gamma 90.000000
_cell_volume 1565.064336
_symmetry_space_group_name_H-M "P 2/C"
_symmetry_group_IT_number 13
_symmetry_cell_setting 'monoclinic'
loop_
_space_group_symop_operation_xyz
x,y,z
-x,y,1/2-z
-x,-y,-z
x,-y,1/2+z
loop_
_atom_site_type_symbol
_atom_site_label
_atom_site_fract_x
_atom_site_fract_y
_atom_site_fract_z
Si Si1 0.557923 0.434233 0.155798
Si Si2 0.121793 0.946216 0.444019
Si Si3 0.975620 0.381581 0.511318
Si Si4 0.857568 0.293214 0.567459
Si Si5 0.214706 0.280608 0.398362
Si Si6 0.680783 0.568825 0.677484
Si Si7 0.245441 0.963081 0.884492
O O1 0.500000 0.367090 0.250000
O O2 0.556040 0.531715 0.360768
O O3 0.618128 0.376467 0.180680
O O4 0.111674 0.820808 0.449672
O O5 0.094027 0.000185 0.706684
O O6 0.189392 0.963239 0.412665
O O7 0.907273 0.380626 0.543141
O O8 0.000000 0.322273 0.750000
O O9 0.000000 0.500000 0.500000
O O10 0.000000 0.322298 0.250000
O O11 0.819454 0.312676 0.337211
O O12 0.820738 0.311368 0.836627
O O13 0.274133 0.339578 0.379055
O O14 0.228007 0.157554 0.390499
O O15 0.688411 0.481757 0.452775
O O16 0.280690 0.000627 0.618661
#
# Coordination Sequence:
#
# PCOD8116748 Si02
#       7
#     4   4   4   4   4   4   4
#     4   8  14  27  49  66  88 140 183 210 251 286
#     4  10  16  30  51  79 102 121 150 202 243 311
#     4  10  23  45  59  72  93 122 170 221 231 281
#     4  12  21  35  60  77  96 133 165 198 265 311
#     4  12  21  33  53  85 103 138 163 198 270 314
#     4  10  21  36  44  71 120 137 171 222 243 293
#     4  10  16  30  49  75 108 126 158 202 240 311
#
# _framework density 17.890640000000001
#
# number of rings (size 3 to 8) (size 9 to 14) (size 15 to 20)
#    0.000    1.714    5.714    1.714    0.000    0.000 
#   15.429    0.000    0.000    2.571    0.000    0.000 
#    0.000    1.143    0.000    0.000    0.000    2.571 
#
# Total GULP energy -346893.033370 kJ/mol
# GULP energy per Si atom -12389.036906 kJ/mol
# Density = 1.784992 g / cm^3
# Si number density = 17.890640 Si / 1000 Ang^3
#
#
#
# Elastic Constant Matrix: (Units=GPa)
#
#
# Indices 1 2 3 4 5 6 
#
# 1 119.6966 43.6498 47.7425 0.0000 -5.2959 0.0000
# 2 43.6498 50.7819 14.9127 0.0000 -2.4915 0.0000
# 3 47.7425 14.9127 174.9025 0.0000 4.6525 0.0000
# 4 0.0000 0.0000 0.0000 4.4088 0.0000 3.6658
# 5 -5.2959 -2.4915 4.6525 0.0000 17.4422 0.0000
# 6 0.0000 0.0000 0.0000 3.6658 0.0000 2.1240
#
#
#
# Elastic Compliance Matrix: (Units=1/GPa)
#
#
# Indices 1 2 3 4 5 6 
#
# 1 0.013519 -0.010612 -0.002875 0.000000 0.003356 0.000000
# 2 -0.010612 0.028726 0.000427 0.000000 0.000767 0.000000
# 3 -0.002875 0.000427 0.006534 0.000000 -0.002555 0.000000
# 4 0.000000 0.000000 0.000000 -0.521467 0.000000 0.899969
# 5 0.003356 0.000767 -0.002555 0.000000 0.059142 0.000000
# 6 0.000000 0.000000 0.000000 0.899969 0.000000 -1.082403
#
#
# Mechanical properties :
#
#
# Convention : Reuss Voigt Hill
#
# Bulk Modulus (GPa) = 44.13128 61.99902 53.06515
# Shear Modulus (GPa) = -3.41932 20.73342 8.65705
#
# Velocity S-wave (km/s) = -1.38397 3.40795 2.20213
# Velocity P-wave (km/s) = 4.70818 7.08627 6.01590
#
# Compressibility (1/GPa) = 0.02265967
#
# Stress axis : x y z
#
# Youngs Moduli (GPa) = 73.96786 34.81203 153.05155
#
# Poissons Ratio (x) = 0.36942 0.43999
# Poissons Ratio (y) = 0.78493 -0.06535
# Poissons Ratio (z) = 0.21264 -0.01486
#
# Static dielectric constant tensor:
#      x y z
#    x 3.299710 0.000000 0.165900 
#    y 0.000000 2.818840 0.000000 
#    z 0.165900 0.000000 6.200020 
# 
# 
# High freq. dielectric constant tensor:
#      x y z
#    x 1.658370 0.000000 0.004010 
#    y 0.000000 1.647470 0.000000 
#    z 0.004010 0.000000 1.737690 
# 
# From -- ./inp_files/6863.got.cif
#   From: 2010.06.25/outbox.cif.g09.slc.cpg/sg13_4_cif.got.tgz:6863.got - 2010.06.28 04:50:58.
