data_PCOD8116822
_publ_section_title
;
Structure prediction by ZEFSAII (Michael W. Deem and Ramdas Pophale) SiO2 
 PCOD8116822
Probable space group: P 2/C
;
_chemical_formula_sum "Si O2"
_cell_formula_units_Z 32
_cell_length_a 6.304299
_cell_length_b 33.997233
_cell_length_c 5.428064
_cell_angle_alpha 90.000000
_cell_angle_beta 103.944464
_cell_angle_gamma 90.000000
_cell_volume 1129.104639
_symmetry_space_group_name_H-M "P 2/C"
_symmetry_group_IT_number 13
_symmetry_cell_setting 'monoclinic'
loop_
_space_group_symop_operation_xyz
x,y,z
-x,y,1/2-z
-x,-y,-z
x,-y,1/2+z
loop_
_atom_site_type_symbol
_atom_site_label
_atom_site_fract_x
_atom_site_fract_y
_atom_site_fract_z
Si Si1 0.749612 0.224008 0.815028
Si Si2 0.757412 0.739581 0.821466
Si Si3 0.757712 0.389987 0.826219
Si Si4 0.242351 0.648541 0.674870
Si Si5 0.752958 0.896718 0.720160
Si Si6 0.243061 0.866944 0.278926
Si Si7 0.245420 0.985267 0.590513
Si Si8 0.757803 0.480750 0.826977
O O1 0.500000 0.238793 0.750000
O O2 0.859564 0.237207 0.585792
O O3 0.762136 0.177180 0.824153
O O4 0.858304 0.244568 0.088701
O O5 0.500000 0.748103 0.750000
O O6 0.811512 0.694074 0.874582
O O7 0.500000 0.381915 0.750000
O O8 0.854972 0.376406 0.585716
O O9 0.811446 0.435367 0.886534
O O10 0.855529 0.364948 0.085326
O O11 0.500000 0.640328 0.750000
O O12 0.640170 0.890091 0.418162
O O13 0.735694 0.941022 0.809644
O O14 0.000000 0.882279 0.750000
O O15 0.643026 0.872011 0.917857
O O16 0.000000 0.884468 0.250000
O O17 0.356854 0.990476 0.349967
O O18 0.000000 0.000000 0.500000
O O19 0.500000 0.488853 0.750000
O O20 0.855020 0.493878 0.585526
#
# Coordination Sequence:
#
# PCOD8116822 Si02
#       8
#     4   4   4   4   4   4   4   4
#     4  10  19  33  49  66  87 116 152 182 217 265
#     4   9  17  28  45  63  81 104 137 182 223 266
#     4   9  15  21  30  43  63  87 115 157 210 262
#     4   9  15  23  34  51  69  87 115 159 219 261
#     4  10  18  29  43  65  96 127 143 176 219 263
#     4  10  21  32  47  67  96 125 146 181 223 259
#     4  10  17  24  41  63  92 125 145 174 215 260
#     4   9  15  21  27  36  53  82 119 154 193 245
#
# _framework density 28.341038999999999
#
# number of rings (size 3 to 8) (size 9 to 14) (size 15 to 20)
#    0.000    2.500    1.250    3.000    3.500    6.000 
#    0.000    0.000    0.000    0.000    0.000    0.000 
#    0.000   10.000    0.000    0.000    0.000    0.000 
#
# Total GULP energy -396820.158070 kJ/mol
# GULP energy per Si atom -12400.629940 kJ/mol
# Density = 2.827653 g / cm^3
# Si number density = 28.341039 Si / 1000 Ang^3
#
#
#
# Elastic Constant Matrix: (Units=GPa)
#
#
# Indices 1 2 3 4 5 6 
#
# 1 92.2358 -27.6088 79.2033 0.0000 -19.0458 0.0000
# 2 -27.6088 188.3301 132.8654 0.0000 8.2005 0.0000
# 3 79.2033 132.8654 325.9069 0.0000 -25.3270 0.0000
# 4 0.0000 0.0000 0.0000 61.1181 0.0000 2.4548
# 5 -19.0458 8.2005 -25.3270 0.0000 70.9320 0.0000
# 6 0.0000 0.0000 0.0000 2.4548 0.0000 23.3636
#
#
#
# Elastic Compliance Matrix: (Units=1/GPa)
#
#
# Indices 1 2 3 4 5 6 
#
# 1 0.021775 0.009512 -0.009052 0.000000 0.001515 0.000000
# 2 0.009512 0.011896 -0.007272 0.000000 -0.001418 0.000000
# 3 -0.009052 -0.007272 0.008341 0.000000 0.001388 0.000000
# 4 0.000000 0.000000 0.000000 0.016431 0.000000 -0.001726
# 5 0.001515 -0.001418 0.001388 0.000000 0.015164 0.000000
# 6 0.000000 0.000000 0.000000 -0.001726 0.000000 0.042983
#
#
# Mechanical properties :
#
#
# Convention : Reuss Voigt Hill
#
# Bulk Modulus (GPa) = 35.22483 108.37694 71.80088
# Shear Modulus (GPa) = 35.79700 59.21694 47.50697
#
# Velocity S-wave (km/s) = 3.55784 4.57600 4.09866
# Velocity P-wave (km/s) = 5.41604 8.13898 6.91291
#
# Compressibility (1/GPa) = 0.02838907
#
# Stress axis : x y z
#
# Youngs Moduli (GPa) = 45.92397 84.06015 119.89399
#
# Poissons Ratio (x) = -0.79962 1.08530
# Poissons Ratio (y) = -0.43685 0.87184
# Poissons Ratio (z) = 0.41571 0.61127
#
# Static dielectric constant tensor:
#      x y z
#    x 6.075660 0.000000 -0.292510 
#    y 0.000000 4.552950 0.000000 
#    z -0.292510 0.000000 6.459500 
# 
# 
# High freq. dielectric constant tensor:
#      x y z
#    x 2.240830 0.000000 -0.001310 
#    y 0.000000 2.108180 0.000000 
#    z -0.001310 0.000000 2.200740 
# 
# From -- ./inp_files/2723.got.cif
#   From: 2010.06.25/outbox.cif.g09.slc.cpg/sg13_2_cif.got.tgz:2723.got - 2010.06.28 04:50:58.
