data_PCOD8116769
_publ_section_title
;
Structure prediction by ZEFSAII (Michael W. Deem and Ramdas Pophale) SiO2 
 PCOD8116769
Probable space group: P 2/C
;
_chemical_formula_sum "Si O2"
_cell_formula_units_Z 28
_cell_length_a 23.533245
_cell_length_b 13.513828
_cell_length_c 5.265481
_cell_angle_alpha 90.000000
_cell_angle_beta 109.894899
_cell_angle_gamma 90.000000
_cell_volume 1574.610707
_symmetry_space_group_name_H-M "P 2/C"
_symmetry_group_IT_number 13
_symmetry_cell_setting 'monoclinic'
loop_
_space_group_symop_operation_xyz
x,y,z
-x,y,1/2-z
-x,-y,-z
x,-y,1/2+z
loop_
_atom_site_type_symbol
_atom_site_label
_atom_site_fract_x
_atom_site_fract_y
_atom_site_fract_z
Si Si1 0.070790 0.560168 0.356870
Si Si2 0.761750 0.269419 0.871987
Si Si3 0.839222 0.263895 0.495339
Si Si4 0.263744 0.046433 0.678611
Si Si5 0.663417 0.436370 0.733702
Si Si6 0.129595 0.038140 0.950548
Si Si7 0.526004 0.610753 0.039592
O O1 0.090379 0.498656 0.634543
O O2 0.103667 0.664700 0.409983
O O3 0.000000 0.582704 0.250000
O O4 0.793888 0.291732 0.653274
O O5 0.728457 0.163990 0.812699
O O6 0.711983 0.351490 0.845591
O O7 0.808303 0.272635 0.175059
O O8 0.863746 0.154266 0.577116
O O9 0.295336 0.998587 0.478636
O O10 0.193390 0.017913 0.584890
O O11 0.672308 0.485341 0.472632
O O12 0.597907 0.387112 0.651852
O O13 0.094194 0.989870 0.656835
O O14 0.500000 0.665981 0.250000
O O15 0.500000 0.665973 0.750000
O O16 0.500000 0.500000 0.000000
#
# Coordination Sequence:
#
# PCOD8116769 Si02
#       7
#     4   4   4   4   4   4   4
#     4  10  23  42  60  76 100 139 189 222 244 296
#     4  12  23  32  51  83 111 139 170 205 270 323
#     4  12  21  35  57  79 102 143 174 209 264 322
#     4  10  16  32  51  70  99 140 173 202 243 318
#     4  12  23  35  47  75 113 143 167 220 250 298
#     4  10  16  30  53  75  97 133 172 203 251 317
#     4  10  16  32  56  66  86 141 190 201 244 296
#
# _framework density 17.782174000000001
#
# number of rings (size 3 to 8) (size 9 to 14) (size 15 to 20)
#    0.000    1.143    8.571    1.714    0.000    3.429 
#    0.000    0.000    0.000    0.857    0.000    0.000 
#    0.000    3.429    0.000    0.000    0.000    0.000 
#
# Total GULP energy -347117.129985 kJ/mol
# GULP energy per Si atom -12397.040357 kJ/mol
# Density = 1.774170 g / cm^3
# Si number density = 17.782174 Si / 1000 Ang^3
#
#
#
# Elastic Constant Matrix: (Units=GPa)
#
#
# Indices 1 2 3 4 5 6 
#
# 1 42.0884 34.1184 27.8303 0.0000 -5.4643 0.0000
# 2 34.1184 76.3885 18.3073 0.0000 3.9970 0.0000
# 3 27.8303 18.3073 115.9769 0.0000 -35.3214 0.0000
# 4 0.0000 0.0000 0.0000 15.3428 0.0000 -6.5576
# 5 -5.4643 3.9970 -35.3214 0.0000 24.2425 0.0000
# 6 0.0000 0.0000 0.0000 -6.5576 0.0000 0.4463
#
#
#
# Elastic Compliance Matrix: (Units=1/GPa)
#
#
# Indices 1 2 3 4 5 6 
#
# 1 0.042867 -0.017729 -0.006571 0.000000 0.003012 0.000000
# 2 -0.017729 0.022324 -0.002890 0.000000 -0.011888 0.000000
# 3 -0.006571 -0.002890 0.018605 0.000000 0.026103 0.000000
# 4 0.000000 0.000000 0.000000 -0.012343 0.000000 -0.181374
# 5 0.003012 -0.011888 0.026103 0.000000 0.081922 0.000000
# 6 0.000000 0.000000 0.000000 -0.181374 0.000000 -0.424360
#
#
# Mechanical properties :
#
#
# Convention : Reuss Voigt Hill
#
# Bulk Modulus (GPa) = 33.99407 43.88509 38.93958
# Shear Modulus (GPa) = -24.17816 18.28616 -2.94600
#
# Velocity S-wave (km/s) = -3.69139 3.21026 -1.28853
# Velocity P-wave (km/s) = 0.99496 6.20273 4.44206
#
# Compressibility (1/GPa) = 0.02941689
#
# Stress axis : x y z
#
# Youngs Moduli (GPa) = 23.32778 44.79421 53.74815
#
# Poissons Ratio (x) = 0.79417 0.35316
# Poissons Ratio (y) = 0.41359 0.15533
# Poissons Ratio (z) = 0.15328 0.12946
#
# Static dielectric constant tensor:
#      x y z
#    x 2.871820 0.000000 0.250480 
#    y 0.000000 3.134380 0.000000 
#    z 0.250480 0.000000 1.935390 
# 
# 
# High freq. dielectric constant tensor:
#      x y z
#    x 1.653270 0.000000 -0.033220 
#    y 0.000000 1.669460 0.000000 
#    z -0.033220 0.000000 1.717250 
# 
# From -- ./inp_files/6916.got.cif
#   From: 2010.06.25/outbox.cif.g09.slc.cpg/sg13_4_cif.got.tgz:6916.got - 2010.06.28 04:50:58.
