data_PCOD8116128
_publ_section_title
;
Structure prediction by ZEFSAII (Michael W. Deem and Ramdas Pophale) SiO2 
 PCOD8116128
Probable space group: C 2/M
;
_chemical_formula_sum "Si O2"
_cell_formula_units_Z 56
_cell_length_a 27.400954
_cell_length_b 9.495430
_cell_length_c 14.270206
_cell_angle_alpha 90.000000
_cell_angle_beta 121.385408
_cell_angle_gamma 90.000000
_cell_volume 3169.621685
_symmetry_space_group_name_H-M "C 2/M"
_symmetry_group_IT_number 12
_symmetry_cell_setting 'monoclinic'
loop_
_space_group_symop_operation_xyz
x,y,z
-x,y,-z
-x,-y,-z
x,-y,z
1/2+x,1/2+y,z
1/2-x,1/2+y,-z
1/2-x,1/2-y,-z
1/2+x,1/2-y,z
loop_
_atom_site_type_symbol
_atom_site_label
_atom_site_fract_x
_atom_site_fract_y
_atom_site_fract_z
Si Si1 0.388195 0.335130 0.596728
Si Si2 0.611804 0.335130 0.820337
Si Si3 0.724375 0.339191 0.615220
Si Si4 0.775625 0.839191 0.166470
Si Si5 0.164962 0.836346 0.060198
Si Si6 0.500000 0.331702 0.607444
Si Si7 0.664962 0.663654 0.269727
O O1 0.389898 0.500000 0.577460
O O2 0.330699 0.274359 0.492192
O O3 0.444723 0.268338 0.606337
O O4 0.385708 0.303950 0.706384
O O5 0.610102 0.500000 0.797664
O O6 0.669301 0.274359 0.830794
O O7 0.555277 0.268338 0.716892
O O8 0.614292 0.303950 0.934969
O O9 0.736330 0.500000 0.596486
O O10 0.711112 0.328780 0.711112
O O11 0.779166 0.247818 0.642296
O O12 0.720834 0.747818 0.083964
O O13 0.763670 0.000000 0.123825
O O14 0.144626 0.791976 0.144626
O O15 0.181493 0.000000 0.073719
O O16 0.500000 0.279132 0.500000
O O17 0.500000 0.500000 0.611412
O O18 0.681493 0.500000 0.289267
#
# Coordination Sequence:
#
# PCOD8116128 Si02
#       7
#     8   8   8   8   8   8   8
#     4   9  16  26  40  59  84 111 138 170 207 244
#     4   9  16  26  40  59  84 111 138 170 207 244
#     4   9  16  26  42  64  86 107 135 172 209 243
#     4   9  16  26  42  64  86 107 135 172 209 243
#     4   9  17  28  41  60  87 114 137 164 202 248
#     4   9  16  26  41  61  84 109 137 171 210 246
#     4   9  17  28  41  60  87 114 137 164 202 248
#
# _framework density 17.667722999999999
#
# number of rings (size 3 to 8) (size 9 to 14) (size 15 to 20)
#    0.000    3.000    0.000    1.714    0.000    3.429 
#    0.000    0.714    0.000    4.286    0.000    4.000 
#    0.000   13.714    0.000    0.000    0.000    0.000 
#
# Total GULP energy -347033.414939 kJ/mol
# GULP energy per Si atom -12394.050534 kJ/mol
# Density = 1.762751 g / cm^3
# Si number density = 17.667723 Si / 1000 Ang^3
#
#
#
# Elastic Constant Matrix: (Units=GPa)
#
#
# Indices 1 2 3 4 5 6 
#
# 1 133.0571 21.7018 74.6859 0.0000 -8.8701 0.0000
# 2 21.7018 22.8330 19.5999 0.0000 2.1155 0.0000
# 3 74.6859 19.5999 136.5678 0.0000 5.3370 0.0000
# 4 0.0000 0.0000 0.0000 13.5539 0.0000 0.1145
# 5 -8.8701 2.1155 5.3370 0.0000 19.2935 0.0000
# 6 0.0000 0.0000 0.0000 0.1145 0.0000 13.6676
#
#
#
# Elastic Compliance Matrix: (Units=1/GPa)
#
#
# Indices 1 2 3 4 5 6 
#
# 1 0.012833 -0.007611 -0.006257 0.000000 0.008465 0.000000
# 2 -0.007611 0.054703 -0.003354 0.000000 -0.008569 0.000000
# 3 -0.006257 -0.003354 0.011447 0.000000 -0.005675 0.000000
# 4 0.000000 0.000000 0.000000 0.073785 0.000000 -0.000618
# 5 0.008465 -0.008569 -0.005675 0.000000 0.058232 0.000000
# 6 0.000000 0.000000 0.000000 -0.000618 0.000000 0.073171
#
#
# Mechanical properties :
#
#
# Convention : Reuss Voigt Hill
#
# Bulk Modulus (GPa) = 22.45145 58.27034 40.36089
# Shear Modulus (GPa) = 14.99426 21.06767 18.03097
#
# Velocity S-wave (km/s) = 2.91637 3.45692 3.19809
# Velocity P-wave (km/s) = 4.90668 6.99904 6.04409
#
# Compressibility (1/GPa) = 0.04454056
#
# Stress axis : x y z
#
# Youngs Moduli (GPa) = 77.92300 18.28056 87.35813
#
# Poissons Ratio (x) = 0.13913 0.54657
# Poissons Ratio (y) = 0.59307 0.29297
# Poissons Ratio (z) = 0.48754 0.06131
#
# Static dielectric constant tensor:
#      x y z
#    x 3.384860 0.000000 -0.111890 
#    y 0.000000 2.887740 0.000000 
#    z -0.111890 0.000000 3.496040 
# 
# 
# High freq. dielectric constant tensor:
#      x y z
#    x 1.676110 0.000000 -0.017880 
#    y 0.000000 1.626810 0.000000 
#    z -0.017880 0.000000 1.693870 
# 
# From -- ./inp_files/96285.got.cif
#   From: 2010.06.25/outbox.cif.g09.slc.cpg/sg12_49_cif.got.tgz:96285.got - 2010.06.28 00:19:55.
