data_PCOD8116587
_publ_section_title
;
Structure prediction by ZEFSAII (Michael W. Deem and Ramdas Pophale) SiO2 
 PCOD8116587
Probable space group: C 2/M
;
_chemical_formula_sum "Si O2"
_cell_formula_units_Z 24
_cell_length_a 12.000000
_cell_length_b 21.000000
_cell_length_c 27.000000
_cell_angle_alpha 90.000000
_cell_angle_beta 160.000000
_cell_angle_gamma 90.000000
_cell_volume 2327.105055
_symmetry_space_group_name_H-M "C 2/M"
_symmetry_group_IT_number 12
_symmetry_cell_setting 'monoclinic'
loop_
_space_group_symop_operation_xyz
x,y,z
-x,y,-z
-x,-y,-z
x,-y,z
1/2+x,1/2+y,z
1/2-x,1/2+y,-z
1/2-x,1/2-y,-z
1/2+x,1/2-y,z
loop_
_atom_site_type_symbol
_atom_site_label
_atom_site_fract_x
_atom_site_fract_y
_atom_site_fract_z
Si Si1 0.872728 0.304616 0.643955
Si Si2 0.265689 0.073847 0.248655
Si Si3 0.862843 0.640909 0.992051
Si Si4 0.352548 0.226852 0.139951
Si Si5 0.142917 0.179425 0.720277
Si Si6 0.635730 0.927901 0.502827
O O1 0.500000 0.318349 0.500000
O O2 0.027882 0.373769 0.696166
O O3 0.005884 0.267429 0.746739
O O4 0.951865 0.247978 0.637498
O O5 0.357776 0.078288 0.345089
O O6 0.884603 0.092781 0.083929
O O7 0.317700 0.000000 0.251589
O O8 0.667807 0.705110 0.896082
O O9 0.000000 0.606915 0.000000
O O10 0.183834 0.660296 0.156372
O O11 0.567946 0.179102 0.198406
O O12 0.000000 0.195134 0.000000
O O13 0.910339 0.123136 0.604468
O O14 0.500000 0.909784 0.500000
O O15 0.778245 0.000000 0.562754
#
# Coordination Sequence:
#
# PCOD8116587 Si02
#       6
#     8   8   8   8   8   8
#     4  12  25  39  64  96 124 167 215 260 310 376
#     4  11  25  44  63  91 132 173 210 256 315 378
#     4  11  21  38  65  95 125 160 204 265 322 370
#     4  11  22  39  60  93 126 160 201 261 318 366
#     4  12  22  38  66  92 127 159 213 265 318 371
#     4  10  23  41  62  92 130 166 207 264 320 375
#
# _framework density 10.313243
#
# number of rings (size 3 to 8) (size 9 to 14) (size 15 to 20)
#    0.000    0.833    5.000    4.000    2.333    2.667 
#    0.000    0.833    0.000    2.000    0.000    0.000 
#    0.000    0.000    0.000    0.000    0.000    0.000 
#
# Total GULP energy -297419.261981 kJ/mol
# GULP energy per Si atom -12392.469249 kJ/mol
# Density = 1.028977 g / cm^3
# Si number density = 10.313243 Si / 1000 Ang^3
#
#
#
# Elastic Constant Matrix: (Units=GPa)
#
#
# Indices 1 2 3 4 5 6 
#
# 1 52.9056 16.0071 11.1481 -0.0413 21.3269 -0.0380
# 2 16.0071 133.4117 36.3240 -0.0259 23.4229 -0.0406
# 3 11.1481 36.3240 76.5362 -0.1351 22.3515 0.0088
# 4 -0.0413 -0.0259 -0.1351 33.9668 -0.0481 1.9898
# 5 21.3269 23.4229 22.3515 -0.0481 47.8906 -0.0186
# 6 -0.0380 -0.0406 0.0088 1.9898 -0.0186 24.3236
#
#
#
# Elastic Compliance Matrix: (Units=1/GPa)
#
#
# Indices 1 2 3 4 5 6 
#
# 1 0.023173 -0.001057 -0.000013 0.000012 -0.009797 0.000026
# 2 -0.001057 0.008961 -0.003423 -0.000012 -0.002314 0.000014
# 3 -0.000013 -0.003423 0.016443 0.000055 -0.005994 -0.000021
# 4 0.000012 -0.000012 0.000055 0.029583 0.000004 -0.002420
# 5 -0.009797 -0.002314 -0.005994 0.000004 0.029173 0.000005
# 6 0.000026 0.000014 -0.000021 -0.002420 0.000005 0.041310
#
#
# Mechanical properties :
#
#
# Convention : Reuss Voigt Hill
#
# Bulk Modulus (GPa) = 25.25783 43.31241 34.28512
# Shear Modulus (GPa) = 29.26968 34.52783 31.89875
#
# Velocity S-wave (km/s) = 3.77109 4.09584 3.93682
# Velocity P-wave (km/s) = 5.58869 6.58877 6.10923
#
# Compressibility (1/GPa) = 0.03959168
#
# Stress axis : x y z
#
# Youngs Moduli (GPa) = 43.15315 111.59845 60.81704
#
# Poissons Ratio (x) = 0.11795 0.00077
# Poissons Ratio (y) = 0.04561 0.20817
# Poissons Ratio (z) = 0.00055 0.38199
#
# Static dielectric constant tensor:
#      x y z
#    x 3.765930 -0.000010 -0.018320 
#    y -0.000010 3.817970 -0.000230 
#    z -0.018320 -0.000230 3.777470 
# 
# 
# High freq. dielectric constant tensor:
#      x y z
#    x 1.802870 0.000000 0.004420 
#    y 0.000000 1.805120 -0.000020 
#    z 0.004420 -0.000020 1.812120 
# 
# From -- ./inp_files/89411.got.cif
#   From: 2010.06.25/outbox.ucp.g09.slc.cvg/sg12_45_cif.got.tgz:89411.got - 2010.06.28 13:50:54.
