data_PCOD8116614
_publ_section_title
;
Structure prediction by ZEFSAII (Michael W. Deem and Ramdas Pophale) SiO2 
 PCOD8116614
Probable space group: C 2/M
;
_chemical_formula_sum "Si O2"
_cell_formula_units_Z 24
_cell_length_a 15.000000
_cell_length_b 18.000000
_cell_length_c 18.000000
_cell_angle_alpha 90.000000
_cell_angle_beta 150.000000
_cell_angle_gamma 90.000000
_cell_volume 2430.000000
_symmetry_space_group_name_H-M "C 2/M"
_symmetry_group_IT_number 12
_symmetry_cell_setting 'monoclinic'
loop_
_space_group_symop_operation_xyz
x,y,z
-x,y,-z
-x,-y,-z
x,-y,z
1/2+x,1/2+y,z
1/2-x,1/2+y,-z
1/2-x,1/2-y,-z
1/2+x,1/2-y,z
loop_
_atom_site_type_symbol
_atom_site_label
_atom_site_fract_x
_atom_site_fract_y
_atom_site_fract_z
Si Si1 0.326265 0.720268 0.824262
Si Si2 0.936480 0.156619 0.294973
Si Si3 0.276841 0.000000 0.651803
Si Si4 0.954370 0.237378 0.167266
Si Si5 0.153820 0.635471 0.389693
Si Si6 0.936660 0.586418 0.370717
Si Si7 0.625262 0.500000 0.694375
O O1 0.185100 0.784497 0.746175
O O2 0.402421 0.731392 0.795690
O O3 0.233376 0.639805 0.766012
O O4 0.500000 0.723405 0.000000
O O5 0.943737 0.164728 0.211199
O O6 0.141538 0.162603 0.470200
O O7 0.849945 0.075194 0.241258
O O8 0.379463 0.928765 0.694582
O O9 0.278380 0.000000 0.741937
O O10 0.073088 0.000000 0.479851
O O11 0.018504 0.299953 0.270978
O O12 0.750000 0.250000 0.000000
O O13 0.100163 0.606836 0.433323
O O14 0.880709 0.500000 0.318811
O O15 0.000000 0.600715 0.500000
#
# Coordination Sequence:
#
# PCOD8116614 Si02
#       7
#     8   8   4   8   8   8   4
#     4  12  25  44  66  93 134 176 221 268 324 392
#     4  11  23  41  67  95 132 170 217 274 321 391
#     4   9  18  36  62  92 126 158 202 273 322 381
#     4  12  24  42  65  92 130 173 218 270 325 384
#     4  11  21  40  67  96 127 165 220 265 325 391
#     4  11  24  42  67 100 133 168 217 274 325 386
#     4   9  20  38  60  97 127 161 210 267 332 372
#
# _framework density 9.8765429999999999
#
# number of rings (size 3 to 8) (size 9 to 14) (size 15 to 20)
#    0.000    1.000    4.167    2.500    2.333    1.667 
#    1.500    1.250    0.000    0.000    0.000    0.000 
#    0.000    0.000    0.000    0.000    0.000    0.000 
#
# Total GULP energy -297473.956767 kJ/mol
# GULP energy per Si atom -12394.748199 kJ/mol
# Density = 0.985406 g / cm^3
# Si number density = 9.876543 Si / 1000 Ang^3
#
#
#
# Elastic Constant Matrix: (Units=GPa)
#
#
# Indices 1 2 3 4 5 6 
#
# 1 191.3513 73.6673 37.2690 0.0232 3.8152 -0.0050
# 2 73.6673 151.1750 56.8913 0.0305 2.7156 -0.0014
# 3 37.2690 56.8913 93.7842 0.0701 13.0937 0.0035
# 4 0.0232 0.0305 0.0701 10.2180 0.0186 2.1399
# 5 3.8152 2.7156 13.0937 0.0186 38.3506 -0.0041
# 6 -0.0050 -0.0014 0.0035 2.1399 -0.0041 45.5399
#
#
#
# Elastic Compliance Matrix: (Units=1/GPa)
#
#
# Indices 1 2 3 4 5 6 
#
# 1 0.006486 -0.002846 -0.000829 0.000000 -0.000161 0.000001
# 2 -0.002846 0.009876 -0.005042 0.000009 0.001305 0.000000
# 3 -0.000829 -0.005042 0.014690 -0.000076 -0.004576 0.000002
# 4 0.000000 0.000009 -0.000076 0.098840 -0.000023 -0.004644
# 5 -0.000161 0.001305 -0.004576 -0.000023 0.027561 0.000004
# 6 0.000001 0.000000 0.000002 -0.004644 0.000004 0.022177
#
#
# Mechanical properties :
#
#
# Convention : Reuss Voigt Hill
#
# Bulk Modulus (GPa) = 73.43178 85.77397 79.60288
# Shear Modulus (GPa) = 24.80125 36.72054 30.76090
#
# Velocity S-wave (km/s) = 3.54724 4.31626 3.95051
# Velocity P-wave (km/s) = 7.35070 8.26786 7.82273
#
# Compressibility (1/GPa) = 0.01361808
#
# Stress axis : x y z
#
# Youngs Moduli (GPa) = 154.17198 101.25841 68.07519
#
# Poissons Ratio (x) = 0.28818 0.05641
# Poissons Ratio (y) = 0.43877 0.34324
# Poissons Ratio (z) = 0.12776 0.51055
#
# Static dielectric constant tensor:
#      x y z
#    x 4.165130 -0.000050 0.083700 
#    y -0.000050 3.896090 -0.000110 
#    z 0.083700 -0.000110 3.397880 
# 
# 
# High freq. dielectric constant tensor:
#      x y z
#    x 1.810500 0.000000 0.012050 
#    y 0.000000 1.783670 -0.000010 
#    z 0.012050 -0.000010 1.750110 
# 
# From -- ./inp_files/271629.got.cif
#   From: 2010.06.25/outbox.ucp.g09.slc.cvg/sg12_136_cif.got.tgz:271629.got - 2010.06.28 13:50:54.
