data_PCOD8116355
_publ_section_title
;
Structure prediction by ZEFSAII (Michael W. Deem and Ramdas Pophale) SiO2 
 PCOD8116355
Probable space group: C 2/M
;
_chemical_formula_sum "Si O2"
_cell_formula_units_Z 32
_cell_length_a 24.000000
_cell_length_b 9.000000
_cell_length_c 30.000000
_cell_angle_alpha 90.000000
_cell_angle_beta 150.000000
_cell_angle_gamma 90.000000
_cell_volume 3240.000000
_symmetry_space_group_name_H-M "C 2/M"
_symmetry_group_IT_number 12
_symmetry_cell_setting 'monoclinic'
loop_
_space_group_symop_operation_xyz
x,y,z
-x,y,-z
-x,-y,-z
x,-y,z
1/2+x,1/2+y,z
1/2-x,1/2+y,-z
1/2-x,1/2-y,-z
1/2+x,1/2-y,z
loop_
_atom_site_type_symbol
_atom_site_label
_atom_site_fract_x
_atom_site_fract_y
_atom_site_fract_z
Si Si1 0.426486 0.829652 0.772060
Si Si2 0.019479 0.828653 0.410838
Si Si3 0.076421 0.167107 0.350863
Si Si4 0.943432 0.671785 0.887079
Si Si5 0.393906 0.825295 0.172857
Si Si6 0.325098 0.329090 0.937087
Si Si7 0.721674 0.827304 0.769893
Si Si8 0.238415 0.324223 0.589064
O O1 0.455656 0.809820 0.843234
O O2 0.541168 0.776271 0.827176
O O3 0.317752 0.732910 0.684217
O O4 0.399423 0.000000 0.740594
O O5 0.896706 0.750890 0.325607
O O6 0.084272 0.821276 0.409070
O O7 0.114233 0.748941 0.507194
O O8 0.001549 0.000000 0.413530
O O9 0.192965 0.219138 0.408691
O O10 0.970097 0.266173 0.265532
O O11 0.051199 0.000000 0.317223
O O12 0.935171 0.500000 0.896323
O O13 0.829470 0.754540 0.820972
O O14 0.059210 0.737959 0.987529
O O15 0.263248 0.770785 0.085851
O O16 0.388394 0.000000 0.174700
O O17 0.360664 0.500000 0.969200
O O18 0.247747 0.310913 0.839978
O O19 0.712753 0.000000 0.749549
O O20 0.220687 0.500000 0.581009
#
# Coordination Sequence:
#
# PCOD8116355 Si02
#       8
#     8   8   8   8   8   8   8   8
#     4   9  20  39  59  81 114 152 192 233 278 332
#     4  11  21  34  55  84 117 151 186 229 282 336
#     4   9  18  31  50  81 118 151 184 224 275 333
#     4  11  24  40  59  83 111 150 193 236 284 335
#     4   9  17  33  57  83 114 151 185 226 280 334
#     4  10  21  37  59  87 115 145 185 233 286 340
#     4  11  23  40  60  84 114 148 189 237 283 334
#     4  10  20  34  55  84 116 151 190 229 274 332
#
# _framework density 9.8765429999999999
#
# number of rings (size 3 to 8) (size 9 to 14) (size 15 to 20)
#    0.000    2.000    1.250    2.250    0.000    5.500 
#    0.000    0.625    0.000    3.750    0.000    0.000 
#    0.000    0.000    0.000    0.000    0.000    0.000 
#
# Total GULP energy -396470.685945 kJ/mol
# GULP energy per Si atom -12389.708936 kJ/mol
# Density = 0.985406 g / cm^3
# Si number density = 9.876543 Si / 1000 Ang^3
#
#
#
# Elastic Constant Matrix: (Units=GPa)
#
#
# Indices 1 2 3 4 5 6 
#
# 1 61.2731 28.6280 31.4851 -0.0001 28.2394 -0.0003
# 2 28.6280 104.3230 49.9557 -0.0003 23.4514 -0.0010
# 3 31.4851 49.9557 122.0026 -0.0004 48.0213 -0.0001
# 4 -0.0001 -0.0003 -0.0004 40.6271 0.0000 8.9599
# 5 28.2394 23.4514 48.0213 0.0000 44.8654 0.0000
# 6 -0.0003 -0.0010 -0.0001 8.9599 0.0000 28.1277
#
#
#
# Elastic Compliance Matrix: (Units=1/GPa)
#
#
# Indices 1 2 3 4 5 6 
#
# 1 0.024205 -0.003900 0.000941 0.000000 -0.014204 0.000000
# 2 -0.003900 0.012631 -0.004377 0.000000 0.000537 0.000000
# 3 0.000941 -0.004377 0.015688 0.000000 -0.015096 0.000000
# 4 0.000000 0.000000 0.000000 0.026474 0.000000 -0.008433
# 5 -0.014204 0.000537 -0.015096 0.000000 0.047106 0.000000
# 6 0.000000 0.000000 0.000000 -0.008433 0.000000 0.038239
#
#
# Mechanical properties :
#
#
# Convention : Reuss Voigt Hill
#
# Bulk Modulus (GPa) = 26.41828 56.41514 41.41671
# Shear Modulus (GPa) = 26.09172 34.55937 30.32554
#
# Velocity S-wave (km/s) = 3.63835 4.18732 3.92245
# Velocity P-wave (km/s) = 5.57256 7.21113 6.44414
#
# Compressibility (1/GPa) = 0.03785258
#
# Stress axis : x y z
#
# Youngs Moduli (GPa) = 41.31319 79.17042 63.74426
#
# Poissons Ratio (x) = 0.30876 -0.06000
# Poissons Ratio (y) = 0.16112 0.27901
# Poissons Ratio (z) = -0.03888 0.34653
#
# Static dielectric constant tensor:
#      x y z
#    x 3.708220 0.000000 0.328090 
#    y 0.000000 3.775680 0.000000 
#    z 0.328090 0.000000 3.669660 
# 
# 
# High freq. dielectric constant tensor:
#      x y z
#    x 1.768080 0.000000 0.029740 
#    y 0.000000 1.777820 0.000000 
#    z 0.029740 0.000000 1.782790 
# 
# From -- ./inp_files/250035.got.cif
#   From: 2010.06.25/outbox.ucp.g09.slc.cvg/sg12_126_cif.got.tgz:250035.got - 2010.06.28 13:50:54.
