data_PCOD8116089
_publ_section_title
;
Structure prediction by ZEFSAII (Michael W. Deem and Ramdas Pophale) SiO2 
 PCOD8116089
Probable space group: C 2/M
;
_chemical_formula_sum "Si O2"
_cell_formula_units_Z 52
_cell_length_a 29.874893
_cell_length_b 21.890736
_cell_length_c 16.683789
_cell_angle_alpha 90.000000
_cell_angle_beta 162.327485
_cell_angle_gamma 90.000000
_cell_volume 3312.294083
_symmetry_space_group_name_H-M "C 2/M"
_symmetry_group_IT_number 12
_symmetry_cell_setting 'monoclinic'
loop_
_space_group_symop_operation_xyz
x,y,z
-x,y,-z
-x,-y,-z
x,-y,z
1/2+x,1/2+y,z
1/2-x,1/2+y,-z
1/2-x,1/2-y,-z
1/2+x,1/2-y,z
loop_
_atom_site_type_symbol
_atom_site_label
_atom_site_fract_x
_atom_site_fract_y
_atom_site_fract_z
Si Si1 0.291374 0.430352 0.829533
Si Si2 0.902445 0.930130 0.565240
Si Si3 0.544367 0.631725 0.661540
Si Si4 0.842421 0.634091 0.254741
Si Si5 0.335078 0.927168 0.715259
Si Si6 0.837072 0.072529 0.730427
Si Si7 0.500000 0.251247 0.500000
O O1 0.239139 0.500000 0.754284
O O2 0.193236 0.385825 0.715981
O O3 0.267256 0.409397 0.696896
O O4 0.463673 0.424237 0.144007
O O5 0.928181 0.889421 0.530341
O O6 0.756852 0.906259 0.363114
O O7 0.883895 0.000000 0.505279
O O8 0.500000 0.601052 0.500000
O O9 0.534457 0.705515 0.635583
O O10 0.710743 0.612497 0.970753
O O11 0.000000 0.603329 0.500000
O O12 0.859392 0.707945 0.280123
O O13 0.263564 0.900419 0.512099
O O14 0.334994 0.000000 0.711962
O O15 0.500000 0.900653 0.000000
O O16 0.847432 0.000000 0.741176
O O17 0.000000 0.100888 0.000000
#
# Coordination Sequence:
#
# PCOD8116089 Si02
#       7
#     8   8   8   8   8   8   4
#     4   9  16  27  45  69  92 119 151 177 218 269
#     4   9  16  28  45  67  93 121 149 177 218 269
#     4   9  18  31  49  66  86 117 153 183 222 265
#     4   9  18  31  48  66  90 115 146 190 228 255
#     4   9  16  26  40  61  92 122 145 176 214 255
#     4   9  14  24  42  61  84 116 148 178 205 254
#     4   8  18  32  48  66  86 112 156 192 218 262
#
# _framework density 15.699089000000001
#
# number of rings (size 3 to 8) (size 9 to 14) (size 15 to 20)
#    0.923    2.154    1.538    0.462    0.000    0.615 
#    2.769    0.000    0.000    0.000    0.000    2.154 
#    0.000    0.000    0.000    0.000    0.000    0.000 
#
# Total GULP energy -322149.859901 kJ/mol
# GULP energy per Si atom -12390.379227 kJ/mol
# Density = 1.566336 g / cm^3
# Si number density = 15.699089 Si / 1000 Ang^3
#
#
#
# Elastic Constant Matrix: (Units=GPa)
#
#
# Indices 1 2 3 4 5 6 
#
# 1 146.2499 42.3710 75.0872 0.0000 4.5302 0.0000
# 2 42.3710 42.3192 18.8243 0.0000 9.2666 0.0000
# 3 75.0872 18.8243 114.0171 0.0000 8.7646 -0.0001
# 4 0.0000 0.0000 0.0000 11.1349 0.0000 -2.3491
# 5 4.5302 9.2666 8.7646 0.0000 28.5819 0.0000
# 6 0.0000 0.0000 -0.0001 -2.3491 0.0000 4.5389
#
#
#
# Elastic Compliance Matrix: (Units=1/GPa)
#
#
# Indices 1 2 3 4 5 6 
#
# 1 0.013906 -0.011390 -0.007571 0.000000 0.003810 0.000000
# 2 -0.011390 0.036342 0.002323 0.000000 -0.010689 0.000000
# 3 -0.007571 0.002323 0.013660 0.000000 -0.003742 0.000000
# 4 0.000000 0.000000 0.000000 0.100816 0.000000 0.052177
# 5 0.003810 -0.010689 -0.003742 0.000000 0.038996 0.000000
# 6 0.000000 0.000000 0.000000 0.052177 0.000000 0.247322
#
#
# Mechanical properties :
#
#
# Convention : Reuss Voigt Hill
#
# Bulk Modulus (GPa) = 32.64511 63.90570 48.27540
# Shear Modulus (GPa) = 10.11063 19.93804 15.02433
#
# Velocity S-wave (km/s) = 2.54052 3.56759 3.09693
# Velocity P-wave (km/s) = 5.42633 7.60035 6.60342
#
# Compressibility (1/GPa) = 0.03063246
#
# Stress axis : x y z
#
# Youngs Moduli (GPa) = 71.90948 27.51674 73.20404
#
# Poissons Ratio (x) = 0.31342 0.55420
# Poissons Ratio (y) = 0.81906 -0.17004
# Poissons Ratio (z) = 0.54439 -0.06392
#
# Static dielectric constant tensor:
#      x y z
#    x 3.014340 0.000000 -0.019260 
#    y 0.000000 2.543990 0.000000 
#    z -0.019260 0.000000 3.003850 
# 
# 
# High freq. dielectric constant tensor:
#      x y z
#    x 1.608090 0.000000 0.000460 
#    y 0.000000 1.547040 0.000000 
#    z 0.000460 0.000000 1.599220 
# 
# From -- ./inp_files/242387.got.cif
#   From: 2010.06.25/outbox.cif.g09.slc.cpg/sg12_122_cif.got.tgz:242387.got - 2010.06.28 00:19:55.
