data_PCOD8116802
_publ_section_title
;
Structure prediction by ZEFSAII (Michael W. Deem and Ramdas Pophale) SiO2 
 PCOD8116802
Probable space group: P 2/C
;
_chemical_formula_sum "Si O2"
_cell_formula_units_Z 20
_cell_length_a 9.925521
_cell_length_b 9.912684
_cell_length_c 29.019210
_cell_angle_alpha 90.000000
_cell_angle_beta 24.456347
_cell_angle_gamma 90.000000
_cell_volume 1182.034972
_symmetry_space_group_name_H-M "P 2/C"
_symmetry_group_IT_number 13
_symmetry_cell_setting 'monoclinic'
loop_
_space_group_symop_operation_xyz
x,y,z
-x,y,1/2-z
-x,-y,-z
x,-y,1/2+z
loop_
_atom_site_type_symbol
_atom_site_label
_atom_site_fract_x
_atom_site_fract_y
_atom_site_fract_z
Si Si1 0.131079 0.804513 0.848376
Si Si2 0.836879 0.316146 0.032044
Si Si3 0.229188 0.898334 0.454544
Si Si4 0.817165 0.472285 0.128520
Si Si5 0.264247 0.110163 0.206786
O O1 0.500000 0.830784 0.750000
O O2 0.045876 0.645122 0.880327
O O3 0.090622 0.855470 0.809010
O O4 0.881262 0.888749 0.957691
O O5 0.702390 0.406464 0.115799
O O6 0.561168 0.211019 0.103141
O O7 0.171006 0.244497 0.946573
O O8 0.918609 0.410344 0.962670
O O9 0.597473 0.955805 0.336630
O O10 0.000000 0.000000 0.500000
O O11 0.500000 0.540160 0.250000
O O12 0.000000 0.127839 0.250000
#
# Coordination Sequence:
#
# PCOD8116802 Si02
#       5
#     4   4   4   4   4
#     4  10  16  33  57  72 101 140 171 213 264 300
#     4   9  17  31  53  79  99 130 180 213 249 305
#     4   9  17  32  52  76  96 134 178 211 246 309
#     4   9  15  30  56  77  95 127 176 219 249 296
#     4  11  21  34  51  77 111 140 168 211 268 313
#
# _framework density 16.919974
#
# number of rings (size 3 to 8) (size 9 to 14) (size 15 to 20)
#    0.000    2.400    8.000    0.000    0.000    0.800 
#    7.200    1.000    0.000    8.400    0.000    0.000 
#    0.000    0.000    0.000    0.000    0.000    0.000 
#
# Total GULP energy -247822.261249 kJ/mol
# GULP energy per Si atom -12391.113062 kJ/mol
# Density = 1.688146 g / cm^3
# Si number density = 16.919974 Si / 1000 Ang^3
#
#
#
# Elastic Constant Matrix: (Units=GPa)
#
#
# Indices 1 2 3 4 5 6 
#
# 1 102.1240 37.6274 45.4882 0.0000 9.2209 0.0000
# 2 37.6274 74.9653 54.0097 0.0000 11.4315 0.0000
# 3 45.4882 54.0097 84.0711 0.0000 20.1622 0.0000
# 4 0.0000 0.0000 0.0000 37.6148 0.0000 8.9450
# 5 9.2209 11.4315 20.1622 0.0000 29.4336 0.0000
# 6 0.0000 0.0000 0.0000 8.9450 0.0000 16.1068
#
#
#
# Elastic Compliance Matrix: (Units=1/GPa)
#
#
# Indices 1 2 3 4 5 6 
#
# 1 0.013213 -0.002730 -0.005573 0.000000 0.000738 0.000000
# 2 -0.002730 0.025456 -0.015209 0.000000 0.001387 0.000000
# 3 -0.005573 -0.015209 0.027336 0.000000 -0.011073 0.000000
# 4 0.000000 0.000000 0.000000 0.030631 0.000000 -0.017011
# 5 0.000738 0.001387 -0.011073 0.000000 0.040790 0.000000
# 6 0.000000 0.000000 0.000000 -0.017011 0.000000 0.071533
#
#
# Mechanical properties :
#
#
# Convention : Reuss Voigt Hill
#
# Bulk Modulus (GPa) = 52.68118 59.49010 56.08564
# Shear Modulus (GPa) = 19.06152 24.90006 21.98079
#
# Velocity S-wave (km/s) = 3.36008 3.84035 3.60822
# Velocity P-wave (km/s) = 6.80122 7.40948 7.11186
#
# Compressibility (1/GPa) = 0.01898211
#
# Stress axis : x y z
#
# Youngs Moduli (GPa) = 75.68107 39.28373 36.58171
#
# Poissons Ratio (x) = 0.10724 0.20385
# Poissons Ratio (y) = 0.20660 0.55637
# Poissons Ratio (z) = 0.42174 0.59747
#
# Static dielectric constant tensor:
#      x y z
#    x 2.925690 0.000000 0.236910 
#    y 0.000000 3.636890 0.000000 
#    z 0.236910 0.000000 3.167350 
# 
# 
# High freq. dielectric constant tensor:
#      x y z
#    x 1.616380 0.000000 0.031400 
#    y 0.000000 1.653170 0.000000 
#    z 0.031400 0.000000 1.642280 
# 
# From -- ./inp_files/28622.got.cif
#   From: 2010.06.25/outbox.cif.g09.slc.cpg/sg13_15_cif.got.tgz:28622.got - 2010.06.28 04:50:58.
