data_PCOD8116090
_publ_section_title
;
Structure prediction by ZEFSAII (Michael W. Deem and Ramdas Pophale) SiO2 
 PCOD8116090
Probable space group: C 2/M
;
_chemical_formula_sum "Si O2"
_cell_formula_units_Z 56
_cell_length_a 29.917798
_cell_length_b 9.324275
_cell_length_c 28.547861
_cell_angle_alpha 90.000000
_cell_angle_beta 156.314230
_cell_angle_gamma 90.000000
_cell_volume 3199.205259
_symmetry_space_group_name_H-M "C 2/M"
_symmetry_group_IT_number 12
_symmetry_cell_setting 'monoclinic'
loop_
_space_group_symop_operation_xyz
x,y,z
-x,y,-z
-x,-y,-z
x,-y,z
1/2+x,1/2+y,z
1/2-x,1/2+y,-z
1/2-x,1/2-y,-z
1/2+x,1/2-y,z
loop_
_atom_site_type_symbol
_atom_site_label
_atom_site_fract_x
_atom_site_fract_y
_atom_site_fract_z
Si Si1 0.536576 0.170156 0.642095
Si Si2 0.937130 0.829597 0.809599
Si Si3 0.599367 0.667036 0.885422
Si Si4 0.200026 0.670888 0.613651
Si Si5 0.424783 0.665127 0.972689
Si Si6 0.302973 0.828837 0.283418
Si Si7 0.656071 0.167969 0.849624
O O1 0.408482 0.223691 0.519343
O O2 0.591544 0.222150 0.645945
O O3 0.603663 0.230613 0.751322
O O4 0.542706 0.000000 0.649822
O O5 0.810863 0.770408 0.693800
O O6 0.991992 0.786052 0.812837
O O7 0.934617 0.000000 0.812934
O O8 0.013839 0.761612 0.924271
O O9 0.595326 0.500000 0.868783
O O10 0.593357 0.755749 0.832090
O O11 0.712110 0.701722 0.022697
O O12 0.202444 0.500000 0.618004
O O13 0.191899 0.732217 0.658846
O O14 0.405115 0.500000 0.966496
O O15 0.305316 0.735072 0.847032
O O16 0.500000 0.684449 0.000000
O O17 0.295219 0.000000 0.278777
O O18 0.633147 0.000000 0.832568
#
# Coordination Sequence:
#
# PCOD8116090 Si02
#       7
#     8   8   8   8   8   8   8
#     4   9  16  24  35  52  77 110 140 165 201 248
#     4   9  15  23  35  54  80 108 135 166 207 245
#     4   9  17  29  46  64  82 106 138 175 210 245
#     4   9  15  22  32  50  79 111 138 164 198 247
#     4   9  13  18  29  47  73 103 131 160 198 243
#     4   9  14  20  31  49  75 108 139 164 197 245
#     4   9  17  30  45  62  84 108 137 173 211 246
#
# _framework density 17.504348
#
# number of rings (size 3 to 8) (size 9 to 14) (size 15 to 20)
#    0.000    3.000    1.429    1.286    0.000    5.143 
#    0.000    0.714    0.000    0.000    0.000    0.000 
#    0.000    4.000    0.000    0.429    0.000    0.000 
#
# Total GULP energy -346982.465199 kJ/mol
# GULP energy per Si atom -12392.230900 kJ/mol
# Density = 1.746451 g / cm^3
# Si number density = 17.504348 Si / 1000 Ang^3
#
#
#
# Elastic Constant Matrix: (Units=GPa)
#
#
# Indices 1 2 3 4 5 6 
#
# 1 159.7856 18.3161 60.3796 -0.0012 18.2665 -0.0003
# 2 18.3161 7.9830 8.6665 -0.0008 0.4485 -0.0004
# 3 60.3796 8.6665 126.1269 -0.0006 8.2643 -0.0004
# 4 -0.0012 -0.0008 -0.0006 6.6437 -0.0007 -1.3219
# 5 18.2665 0.4485 8.2643 -0.0007 30.1316 -0.0002
# 6 -0.0003 -0.0004 -0.0004 -1.3219 -0.0002 13.2752
#
#
#
# Elastic Compliance Matrix: (Units=1/GPa)
#
#
# Indices 1 2 3 4 5 6 
#
# 1 0.010355 -0.019941 -0.003254 -0.000002 -0.005088 -0.000001
# 2 -0.019941 0.173773 -0.003072 0.000019 0.010345 0.000006
# 3 -0.003254 -0.003072 0.009740 0.000000 -0.000653 0.000000
# 4 -0.000002 0.000019 0.000000 0.153560 0.000004 0.015291
# 5 -0.005088 0.010345 -0.000653 0.000004 0.036298 0.000001
# 6 -0.000001 0.000006 0.000000 0.015291 0.000001 0.076851
#
#
# Mechanical properties :
#
#
# Convention : Reuss Voigt Hill
#
# Bulk Modulus (GPa) = 7.07541 52.06887 29.57214
# Shear Modulus (GPa) = 8.92502 23.77900 16.35201
#
# Velocity S-wave (km/s) = 2.26049 3.68973 3.05973
# Velocity P-wave (km/s) = 3.29605 6.92553 5.42342
#
# Compressibility (1/GPa) = 0.14133459
#
# Stress axis : x y z
#
# Youngs Moduli (GPa) = 96.56744 5.75464 102.66896
#
# Poissons Ratio (x) = 0.11475 0.33406
# Poissons Ratio (y) = 1.92567 0.31539
# Poissons Ratio (z) = 0.31421 0.01768
#
# Static dielectric constant tensor:
#      x y z
#    x 3.350540 0.000000 0.078190 
#    y 0.000000 2.470860 0.000000 
#    z 0.078190 0.000000 3.568370 
# 
# 
# High freq. dielectric constant tensor:
#      x y z
#    x 1.683130 0.000000 0.005720 
#    y 0.000000 1.581650 0.000000 
#    z 0.005720 0.000000 1.685070 
# 
# From -- ./inp_files/174005.got.cif
#   From: 2010.06.25/outbox.cif.g09.slc.cpg/sg12_88_cif.got.tgz:174005.got - 2010.06.28 00:19:55.
