data_PCOD8116885
_publ_section_title
;
Structure prediction by ZEFSAII (Michael W. Deem and Ramdas Pophale) SiO2 
 PCOD8116885
Probable space group: P 2/C
;
_chemical_formula_sum "Si O2"
_cell_formula_units_Z 32
_cell_length_a 13.618998
_cell_length_b 15.619351
_cell_length_c 10.107590
_cell_angle_alpha 90.000000
_cell_angle_beta 100.375453
_cell_angle_gamma 90.000000
_cell_volume 2114.928982
_symmetry_space_group_name_H-M "P 2/C"
_symmetry_group_IT_number 13
_symmetry_cell_setting 'monoclinic'
loop_
_space_group_symop_operation_xyz
x,y,z
-x,y,1/2-z
-x,-y,-z
x,-y,1/2+z
loop_
_atom_site_type_symbol
_atom_site_label
_atom_site_fract_x
_atom_site_fract_y
_atom_site_fract_z
Si Si1 0.568867 0.996415 0.391792
Si Si2 0.108097 0.419975 0.430694
Si Si3 0.563817 0.811009 0.396151
Si Si4 0.684377 0.658517 0.822533
Si Si5 0.886068 0.427999 0.367093
Si Si6 0.432563 0.494167 0.611503
Si Si7 0.307867 0.659868 0.983313
Si Si8 0.423056 0.819263 0.611944
O O1 0.500000 0.995026 0.250000
O O2 0.631434 0.085928 0.404135
O O3 0.500000 0.000000 0.500000
O O4 0.622885 0.903452 0.408894
O O5 0.121609 0.460073 0.286898
O O6 0.132134 0.491584 0.543960
O O7 0.187020 0.342329 0.466400
O O8 0.994808 0.385663 0.421227
O O9 0.500000 0.793918 0.250000
O O10 0.651807 0.742506 0.430886
O O11 0.483996 0.802375 0.493730
O O12 0.801553 0.642314 0.875451
O O13 0.617108 0.585398 0.871615
O O14 0.657566 0.662438 0.660868
O O15 0.661815 0.748192 0.889093
O O16 0.500000 0.463299 0.750000
O O17 0.500000 0.500000 0.500000
O O18 0.347118 0.424867 0.565323
O O19 0.500000 0.813511 0.750000
#
# Coordination Sequence:
#
# PCOD8116885 Si02
#       8
#     4   4   4   4   4   4   4   4
#     4   8  16  28  47  65  87 117 153 186 221 258
#     4   9  18  33  50  66  85 114 153 196 232 263
#     4  10  19  32  44  69  96 120 152 190 222 265
#     4  11  20  32  47  68  89 122 157 184 224 270
#     4   9  18  33  50  66  86 112 154 198 228 265
#     4  12  22  31  41  62  94 126 155 182 212 262
#     4  11  20  32  47  67  90 123 154 185 228 266
#     4  10  17  31  49  66  90 126 153 182 222 275
#
# _framework density 15.130531
#
# number of rings (size 3 to 8) (size 9 to 14) (size 15 to 20)
#    0.000    2.000    3.750    1.500    0.000    0.000 
#    2.250    0.000    0.000    0.000    0.000    0.875 
#    0.000    0.000    0.000    0.000    0.000    0.000 
#
# Total GULP energy -396486.697529 kJ/mol
# GULP energy per Si atom -12390.209298 kJ/mol
# Density = 1.509609 g / cm^3
# Si number density = 15.130531 Si / 1000 Ang^3
#
#
#
# Elastic Constant Matrix: (Units=GPa)
#
#
# Indices 1 2 3 4 5 6 
#
# 1 86.4545 55.0649 36.7113 0.0000 1.9789 0.0000
# 2 55.0649 128.7549 35.1037 0.0000 4.1743 0.0000
# 3 36.7113 35.1037 94.4813 0.0000 -2.0926 0.0000
# 4 0.0000 0.0000 0.0000 18.4379 0.0000 -2.6737
# 5 1.9789 4.1743 -2.0926 0.0000 18.7489 0.0000
# 6 0.0000 0.0000 0.0000 -2.6737 0.0000 11.5312
#
#
#
# Elastic Compliance Matrix: (Units=1/GPa)
#
#
# Indices 1 2 3 4 5 6 
#
# 1 0.017451 -0.006206 -0.004496 0.000000 -0.000962 0.000000
# 2 -0.006206 0.010948 -0.001700 0.000000 -0.001972 0.000000
# 3 -0.004496 -0.001700 0.013014 0.000000 0.002306 0.000000
# 4 0.000000 0.000000 0.000000 0.056123 0.000000 0.013013
# 5 -0.000962 -0.001972 0.002306 0.000000 0.054135 0.000000
# 6 0.000000 0.000000 0.000000 0.013013 0.000000 0.089738
#
#
# Mechanical properties :
#
#
# Convention : Reuss Voigt Hill
#
# Bulk Modulus (GPa) = 60.21052 62.60561 61.40806
# Shear Modulus (GPa) = 18.39929 21.93099 20.16514
#
# Velocity S-wave (km/s) = 3.49096 3.81130 3.65464
# Velocity P-wave (km/s) = 7.49196 7.79967 7.64736
#
# Compressibility (1/GPa) = 0.01660839
#
# Stress axis : x y z
#
# Youngs Moduli (GPa) = 57.30370 91.33786 76.84186
#
# Poissons Ratio (x) = 0.56687 0.34549
# Poissons Ratio (y) = 0.35564 0.13063
# Poissons Ratio (z) = 0.25764 0.15527
#
# Static dielectric constant tensor:
#      x y z
#    x 2.814240 0.000000 0.033870 
#    y 0.000000 3.280940 0.000000 
#    z 0.033870 0.000000 2.943580 
# 
# 
# High freq. dielectric constant tensor:
#      x y z
#    x 1.550210 0.000000 -0.007710 
#    y 0.000000 1.571070 0.000000 
#    z -0.007710 0.000000 1.599740 
# 
# From -- ./inp_files/19408.got.cif
#   From: 2010.06.25/outbox.cif.g09.slc.cpg/sg13_10_cif.got.tgz:19408.got - 2010.06.28 04:50:58.
