data_PCOD8116182
_publ_section_title
;
Structure prediction by ZEFSAII (Michael W. Deem and Ramdas Pophale) SiO2 
 PCOD8116182
Probable space group: C 2/M
;
_chemical_formula_sum "Si O2"
_cell_formula_units_Z 32
_cell_length_a 30.000000
_cell_length_b 9.000000
_cell_length_c 30.000000
_cell_angle_alpha 90.000000
_cell_angle_beta 30.000000
_cell_angle_gamma 90.000000
_cell_volume 4050.000000
_symmetry_space_group_name_H-M "C 2/M"
_symmetry_group_IT_number 12
_symmetry_cell_setting 'monoclinic'
loop_
_space_group_symop_operation_xyz
x,y,z
-x,y,-z
-x,-y,-z
x,-y,z
1/2+x,1/2+y,z
1/2-x,1/2+y,-z
1/2-x,1/2-y,-z
1/2+x,1/2-y,z
loop_
_atom_site_type_symbol
_atom_site_label
_atom_site_fract_x
_atom_site_fract_y
_atom_site_fract_z
Si Si1 0.197497 0.332468 0.508366
Si Si2 0.605207 0.668376 0.901848
Si Si3 0.597076 0.825227 0.820995
Si Si4 0.156301 0.175173 0.680432
Si Si5 0.456882 0.174091 0.299632
Si Si6 0.803706 0.166169 0.015495
Si Si7 0.866134 0.831968 0.866799
Si Si8 0.893995 0.671333 0.012702
O O1 0.221048 0.500000 0.498508
O O2 0.250000 0.250000 0.500000
O O3 0.238689 0.295264 0.423828
O O4 0.093186 0.303912 0.608951
O O5 0.637492 0.500000 0.867719
O O6 0.639383 0.762997 0.830071
O O7 0.646291 0.737930 0.910881
O O8 0.500000 0.680639 0.000000
O O9 0.643535 0.742618 0.740037
O O10 0.613920 0.000000 0.802630
O O11 0.493169 0.782648 0.912091
O O12 0.095553 0.260381 0.697294
O O13 0.132468 0.000000 0.701619
O O14 0.543820 0.271006 0.231989
O O15 0.476743 0.000000 0.272975
O O16 0.706652 0.211698 0.083636
O O17 0.831475 0.291505 0.025889
O O18 0.801228 0.000000 0.038507
O O19 0.872759 0.167294 0.914655
O O20 0.846629 0.000000 0.866426
O O21 0.890030 0.500000 0.029000
#
# Coordination Sequence:
#
# PCOD8116182 Si02
#       8
#     8   8   8   8   8   8   8   8
#     4   8  16  28  41  58  81 109 140 174 209 247
#     4   9  17  29  44  61  82 109 141 175 209 247
#     4  10  19  29  42  62  87 114 143 174 210 250
#     4  10  18  28  42  61  85 113 145 177 209 247
#     4  10  18  29  44  61  83 112 144 176 213 253
#     4  10  20  32  45  61  83 111 143 178 213 249
#     4  10  20  32  45  62  84 110 142 179 215 249
#     4  10  19  30  44  61  84 113 143 175 211 251
#
# _framework density 7.9012349999999998
#
# number of rings (size 3 to 8) (size 9 to 14) (size 15 to 20)
#    0.000    2.375    0.000    3.375    0.000    7.500 
#    0.000    0.000    0.000    0.000    0.000    0.000 
#    0.000    1.000    0.000   10.750    0.000    4.750 
#
# Total GULP energy -396478.964479 kJ/mol
# GULP energy per Si atom -12389.967640 kJ/mol
# Density = 0.788325 g / cm^3
# Si number density = 7.901235 Si / 1000 Ang^3
#
#
#
# Elastic Constant Matrix: (Units=GPa)
#
#
# Indices 1 2 3 4 5 6 
#
# 1 45.6157 18.6630 29.1761 0.0171 14.6840 -0.0055
# 2 18.6630 71.8279 38.5481 0.0448 10.4407 -0.0504
# 3 29.1761 38.5481 86.4639 0.0422 16.7052 -0.0446
# 4 0.0171 0.0448 0.0422 22.1974 -0.0067 3.9147
# 5 14.6840 10.4407 16.7052 -0.0067 17.2973 0.0072
# 6 -0.0055 -0.0504 -0.0446 3.9147 0.0072 25.8695
#
#
#
# Elastic Compliance Matrix: (Units=1/GPa)
#
#
# Indices 1 2 3 4 5 6 
#
# 1 0.033675 -0.002326 -0.006238 -0.000016 -0.021158 0.000000
# 2 -0.002326 0.018677 -0.007063 -0.000028 -0.002477 0.000029
# 3 -0.006238 -0.007063 0.018407 -0.000022 -0.008218 0.000022
# 4 -0.000016 -0.000028 -0.000022 0.046286 0.000073 -0.007004
# 5 -0.021158 -0.002477 -0.008218 0.000073 0.085206 -0.000058
# 6 0.000000 0.000029 0.000022 -0.007004 -0.000058 0.039716
#
#
# Mechanical properties :
#
#
# Convention : Reuss Voigt Hill
#
# Bulk Modulus (GPa) = 25.31370 41.85353 33.58361
# Shear Modulus (GPa) = 17.45864 20.90753 19.18309
#
# Velocity S-wave (km/s) = 3.32747 3.64133 3.48793
# Velocity P-wave (km/s) = 5.55124 6.64996 6.12529
#
# Compressibility (1/GPa) = 0.03950431
#
# Stress axis : x y z
#
# Youngs Moduli (GPa) = 29.69559 53.54050 54.32624
#
# Poissons Ratio (x) = 0.12455 0.33889
# Poissons Ratio (y) = 0.06908 0.38372
# Poissons Ratio (z) = 0.18524 0.37817
#
# Static dielectric constant tensor:
#      x y z
#    x 2.668360 -0.000030 0.228390 
#    y -0.000030 3.150000 0.000010 
#    z 0.228390 0.000010 2.812520 
# 
# 
# High freq. dielectric constant tensor:
#      x y z
#    x 1.562040 0.000000 0.022860 
#    y 0.000000 1.629450 0.000000 
#    z 0.022860 0.000000 1.589620 
# 
# From -- ./inp_files/294589.got.cif
#   From: 2010.06.25/outbox.ucp.g09.slc.cvg/sg12_148_cif.got.tgz:294589.got - 2010.06.28 13:50:54.
