data_PCOD8116342
_publ_section_title
;
Structure prediction by ZEFSAII (Michael W. Deem and Ramdas Pophale) SiO2 
 PCOD8116342
Probable space group: C 2/M
;
_chemical_formula_sum "Si O2"
_cell_formula_units_Z 32
_cell_length_a 18.000000
_cell_length_b 9.000000
_cell_length_c 30.000000
_cell_angle_alpha 90.000000
_cell_angle_beta 40.000000
_cell_angle_gamma 90.000000
_cell_volume 3123.947783
_symmetry_space_group_name_H-M "C 2/M"
_symmetry_group_IT_number 12
_symmetry_cell_setting 'monoclinic'
loop_
_space_group_symop_operation_xyz
x,y,z
-x,y,-z
-x,-y,-z
x,-y,z
1/2+x,1/2+y,z
1/2-x,1/2+y,-z
1/2-x,1/2-y,-z
1/2+x,1/2-y,z
loop_
_atom_site_type_symbol
_atom_site_label
_atom_site_fract_x
_atom_site_fract_y
_atom_site_fract_z
Si Si1 0.863405 0.335053 0.567768
Si Si2 0.286171 0.175969 0.893762
Si Si3 0.018401 0.172995 0.159356
Si Si4 0.395408 0.176190 0.968263
Si Si5 0.097272 0.828936 0.364857
Si Si6 0.163642 0.826109 0.506816
Si Si7 0.219719 0.162684 0.758844
Si Si8 0.104083 0.832994 0.906585
O O1 0.810392 0.500000 0.589124
O O2 0.835805 0.262920 0.627749
O O3 0.808045 0.233054 0.555254
O O4 0.000000 0.337877 0.500000
O O5 0.409021 0.262325 0.832054
O O6 0.208199 0.228970 0.888434
O O7 0.305295 0.000000 0.886835
O O8 0.224162 0.237034 0.967046
O O9 0.060093 0.279642 0.100463
O O10 0.881005 0.194097 0.231748
O O11 0.046378 0.000000 0.136761
O O12 0.489147 0.232147 0.962372
O O13 0.378285 0.000000 0.979727
O O14 0.177117 0.784805 0.286266
O O15 0.965358 0.780329 0.418543
O O16 0.102441 0.000000 0.374935
O O17 0.250000 0.750000 0.500000
O O18 0.183050 0.000000 0.498805
O O19 0.148921 0.167385 0.836190
O O20 0.276332 0.000000 0.725350
O O21 0.069966 0.000000 0.936843
#
# Coordination Sequence:
#
# PCOD8116342 Si02
#       8
#     8   8   8   8   8   8   8   8
#     4   9  17  31  53  79 106 138 174 211 252 298
#     4  11  21  34  53  76 103 134 169 214 268 319
#     4  10  21  37  54  74 102 134 171 216 262 309
#     4  11  21  33  52  77 103 133 171 213 261 319
#     4  10  20  34  55  81 107 138 176 215 254 303
#     4  10  20  34  53  81 115 145 174 213 259 305
#     4   9  19  37  57  74  97 136 180 216 255 306
#     4   9  20  37  54  74 103 137 172 213 260 311
#
# _framework density 10.243449
#
# number of rings (size 3 to 8) (size 9 to 14) (size 15 to 20)
#    0.000    2.125    0.000    4.500    0.000    8.000 
#    0.000    1.250    0.000    6.000    0.000    0.000 
#    0.000    0.000    0.000    0.000    0.000    0.000 
#
# Total GULP energy -396576.308038 kJ/mol
# GULP energy per Si atom -12393.009626 kJ/mol
# Density = 1.022013 g / cm^3
# Si number density = 10.243449 Si / 1000 Ang^3
#
#
#
# Elastic Constant Matrix: (Units=GPa)
#
#
# Indices 1 2 3 4 5 6 
#
# 1 94.8464 43.7749 19.3622 -0.0010 -18.5878 0.0113
# 2 43.7749 96.9404 28.9654 0.0023 -18.4347 0.0083
# 3 19.3622 28.9654 45.6296 -0.0002 -19.4341 0.0026
# 4 -0.0010 0.0023 -0.0002 22.9582 -0.0005 -5.5019
# 5 -18.5878 -18.4347 -19.4341 -0.0005 13.6598 0.0016
# 6 0.0113 0.0083 0.0026 -5.5019 0.0016 36.0450
#
#
#
# Elastic Compliance Matrix: (Units=1/GPa)
#
#
# Indices 1 2 3 4 5 6 
#
# 1 0.016311 -0.004501 0.007111 0.000000 0.026238 -0.000006
# 2 -0.004501 0.015200 -0.004087 -0.000002 0.008573 -0.000002
# 3 0.007111 -0.004087 0.059040 0.000001 0.088157 -0.000009
# 4 0.000000 -0.000002 0.000001 0.045211 0.000000 0.006901
# 5 0.026238 0.008573 0.088157 0.000000 0.245905 -0.000027
# 6 -0.000006 -0.000002 -0.000009 0.006901 -0.000027 0.028796
#
#
# Mechanical properties :
#
#
# Convention : Reuss Voigt Hill
#
# Bulk Modulus (GPa) = 11.41600 46.84680 29.13140
# Shear Modulus (GPa) = 11.29646 24.22020 17.75833
#
# Velocity S-wave (km/s) = 2.35074 3.44209 2.94736
# Velocity P-wave (km/s) = 3.59894 6.22203 5.08262
#
# Compressibility (1/GPa) = 0.08759635
#
# Stress axis : x y z
#
# Youngs Moduli (GPa) = 61.30815 65.79157 16.93762
#
# Poissons Ratio (x) = 0.29610 -0.12044
# Poissons Ratio (y) = 0.27592 0.06923
# Poissons Ratio (z) = -0.43595 0.26892
#
# Static dielectric constant tensor:
#      x y z
#    x 4.187670 -0.000050 -0.354540 
#    y -0.000050 3.852930 0.000030 
#    z -0.354540 0.000030 3.619210 
# 
# 
# High freq. dielectric constant tensor:
#      x y z
#    x 1.795800 0.000000 -0.013240 
#    y 0.000000 1.800780 0.000000 
#    z -0.013240 0.000000 1.769500 
# 
# From -- ./inp_files/377996.got.cif
#   From: 2010.06.25/outbox.ucp.g09.slc.cvg/sg12_189_cif.got.tgz:377996.got - 2010.06.28 13:50:54.
