data_PCOD8116666
_publ_section_title
;
Structure prediction by ZEFSAII (Michael W. Deem and Ramdas Pophale) SiO2 
 PCOD8116666
Probable space group: P 2/C
;
_chemical_formula_sum "Si O2"
_cell_formula_units_Z 26
_cell_length_a 22.346513
_cell_length_b 9.726279
_cell_length_c 8.839433
_cell_angle_alpha 90.000000
_cell_angle_beta 38.664929
_cell_angle_gamma 90.000000
_cell_volume 1200.321189
_symmetry_space_group_name_H-M "P 2/C"
_symmetry_group_IT_number 13
_symmetry_cell_setting 'monoclinic'
loop_
_space_group_symop_operation_xyz
x,y,z
-x,y,1/2-z
-x,-y,-z
x,-y,1/2+z
loop_
_atom_site_type_symbol
_atom_site_label
_atom_site_fract_x
_atom_site_fract_y
_atom_site_fract_z
Si Si1 0.540128 0.688110 0.400200
Si Si2 0.000000 0.783176 0.750000
Si Si3 0.679326 0.087585 0.517176
Si Si4 0.119516 0.927923 0.760295
Si Si5 0.000000 0.791301 0.250000
Si Si6 0.666626 0.189190 0.202403
Si Si7 0.500000 0.475340 0.250000
Si Si8 0.130280 0.745145 0.235257
O O1 0.595514 0.827660 0.263060
O O2 0.426381 0.716079 0.613433
O O3 0.567128 0.573457 0.220990
O O4 0.564454 0.623711 0.516186
O O5 0.919691 0.872027 0.821214
O O6 0.065478 0.691656 0.504985
O O7 0.777853 0.137535 0.400294
O O8 0.682236 0.112619 0.332062
O O9 0.657540 0.927039 0.590350
O O10 0.130142 0.089794 0.733104
O O11 0.044653 0.891463 0.037510
O O12 0.078593 0.695507 0.181009
O O13 0.756869 0.292259 0.986950
#
# Coordination Sequence:
#
# PCOD8116666 Si02
#       8
#     4   2   4   4   2   4   2   4
#     4  11  23  44  63  84 118 144 194 235 293 331
#     4  10  19  28  44  68 108 157 192 233 260 324
#     4  11  23  36  56  85 121 157 191 229 283 353
#     4  10  18  27  45  69 107 149 194 220 268 326
#     4  10  15  28  40  64 100 153 186 219 260 310
#     4  11  23  36  56  85 121 157 191 229 283 353
#     4  10  24  42  66  84 104 152 190 252 280 336
#     4  10  18  27  45  69 107 149 194 220 268 326
#
# _framework density 21.660869000000002
#
# number of rings (size 3 to 8) (size 9 to 14) (size 15 to 20)
#    0.000    1.538    3.077    4.154    8.615    0.000 
#    0.000    0.000    0.000    0.000    0.000    0.000 
#    0.000   86.154    0.000    0.000    0.000    0.000 
#
# Total GULP energy -322203.770373 kJ/mol
# GULP energy per Si atom -12392.452707 kJ/mol
# Density = 2.161157 g / cm^3
# Si number density = 21.660869 Si / 1000 Ang^3
#
#
#
# Elastic Constant Matrix: (Units=GPa)
#
#
# Indices 1 2 3 4 5 6 
#
# 1 105.3410 13.1026 46.6434 0.0000 1.5024 0.0000
# 2 13.1026 28.2009 15.5211 0.0000 -0.9851 0.0000
# 3 46.6434 15.5211 107.5238 0.0000 -13.5355 0.0000
# 4 0.0000 0.0000 0.0000 9.4883 0.0000 7.2953
# 5 1.5024 -0.9851 -13.5355 0.0000 49.9570 0.0000
# 6 0.0000 0.0000 0.0000 7.2953 0.0000 12.6054
#
#
#
# Elastic Compliance Matrix: (Units=1/GPa)
#
#
# Indices 1 2 3 4 5 6 
#
# 1 0.012123 -0.002908 -0.005065 0.000000 -0.001794 0.000000
# 2 -0.002908 0.039246 -0.004447 0.000000 -0.000344 0.000000
# 3 -0.005065 -0.004447 0.012576 0.000000 0.003472 0.000000
# 4 0.000000 0.000000 0.000000 0.189892 0.000000 -0.109900
# 5 -0.001794 -0.000344 0.003472 0.000000 0.021005 0.000000
# 6 0.000000 0.000000 0.000000 -0.109900 0.000000 0.142936
#
#
# Mechanical properties :
#
#
# Convention : Reuss Voigt Hill
#
# Bulk Modulus (GPa) = 25.57134 43.51107 34.54121
# Shear Modulus (GPa) = 10.97324 25.46338 18.21831
#
# Velocity S-wave (km/s) = 2.25320 3.43235 2.90327
# Velocity P-wave (km/s) = 4.31279 5.98657 5.21724
#
# Compressibility (1/GPa) = 0.03910628
#
# Stress axis : x y z
#
# Youngs Moduli (GPa) = 82.48824 25.48008 79.51340
#
# Poissons Ratio (x) = 0.07408 0.40274
# Poissons Ratio (y) = 0.23984 0.35361
# Poissons Ratio (z) = 0.41781 0.11331
#
# Static dielectric constant tensor:
#      x y z
#    x 4.564500 0.000000 -0.118220 
#    y 0.000000 3.245670 0.000000 
#    z -0.118220 0.000000 4.386140 
# 
# 
# High freq. dielectric constant tensor:
#      x y z
#    x 1.868650 0.000000 0.008980 
#    y 0.000000 1.780220 0.000000 
#    z 0.008980 0.000000 1.864940 
# 
# From -- ./inp_files/18504.got.cif
#   From: 2010.06.25/outbox.cif.g09.slc.cpg/sg13_10_cif.got.tgz:18504.got - 2010.06.28 04:50:58.
