data_PCOD8116740
_publ_section_title
;
Structure prediction by ZEFSAII (Michael W. Deem and Ramdas Pophale) SiO2 
 PCOD8116740
Probable space group: P 2/C
;
_chemical_formula_sum "Si O2"
_cell_formula_units_Z 28
_cell_length_a 17.156976
_cell_length_b 13.302775
_cell_length_c 5.281456
_cell_angle_alpha 90.000000
_cell_angle_beta 90.096196
_cell_angle_gamma 90.000000
_cell_volume 1205.413478
_symmetry_space_group_name_H-M "P 2/C"
_symmetry_group_IT_number 13
_symmetry_cell_setting 'monoclinic'
loop_
_space_group_symop_operation_xyz
x,y,z
-x,y,1/2-z
-x,-y,-z
x,-y,1/2+z
loop_
_atom_site_type_symbol
_atom_site_label
_atom_site_fract_x
_atom_site_fract_y
_atom_site_fract_z
Si Si1 0.548045 0.738174 0.006945
Si Si2 0.868967 0.787277 0.792085
Si Si3 0.587314 0.958745 0.034778
Si Si4 0.084124 0.109789 0.696113
Si Si5 0.769347 0.963828 0.776239
Si Si6 0.647412 0.553933 0.872650
Si Si7 0.831968 0.556272 0.841714
O O1 0.500000 0.757200 0.750000
O O2 0.587469 0.841336 0.098893
O O3 0.617224 0.663896 0.936446
O O4 0.500000 0.696719 0.250000
O O5 0.923553 0.821730 0.558412
O O6 0.785961 0.845389 0.738453
O O7 0.860999 0.668101 0.787745
O O8 0.896826 0.817023 0.070805
O O9 0.629420 0.980216 0.765465
O O10 0.500000 0.000000 0.000000
O O11 0.000000 0.058916 0.750000
O O12 0.147588 0.021375 0.658055
O O13 0.724137 0.017417 0.541784
O O14 0.615904 0.518760 0.597936
O O15 0.739531 0.556622 0.861400
O O16 0.863226 0.487735 0.608802
#
# Coordination Sequence:
#
# PCOD8116740 Si02
#       7
#     4   4   4   4   4   4   4
#     4  12  21  32  56  83 109 146 172 210 270 328
#     4  10  19  32  54  78 100 140 181 218 252 307
#     4  10  16  30  48  73 102 142 178 206 226 298
#     4  10  19  31  51  84 116 140 166 203 264 330
#     4   8  16  27  44  74 106 137 161 202 252 308
#     4  10  23  40  55  79 108 135 174 230 275 316
#     4  10  21  40  62  75  95 137 191 231 262 309
#
# _framework density 23.228546000000001
#
# number of rings (size 3 to 8) (size 9 to 14) (size 15 to 20)
#    0.000    2.000    2.857    2.143    0.000    6.857 
#    0.000    0.000    0.000   13.714    0.000    0.000 
#    0.000    0.000    0.000    0.000    0.000    0.000 
#
# Total GULP energy -347079.167709 kJ/mol
# GULP energy per Si atom -12395.684561 kJ/mol
# Density = 2.317568 g / cm^3
# Si number density = 23.228546 Si / 1000 Ang^3
#
#
#
# Elastic Constant Matrix: (Units=GPa)
#
#
# Indices 1 2 3 4 5 6 
#
# 1 30.2012 8.3174 24.3500 0.0000 -6.3509 0.0000
# 2 8.3174 125.7147 24.8958 0.0000 -16.8611 0.0000
# 3 24.3500 24.8958 171.0201 0.0000 -10.2215 0.0000
# 4 0.0000 0.0000 0.0000 40.7942 0.0000 2.4117
# 5 -6.3509 -16.8611 -10.2215 0.0000 30.6350 0.0000
# 6 0.0000 0.0000 0.0000 2.4117 0.0000 15.3755
#
#
#
# Elastic Compliance Matrix: (Units=1/GPa)
#
#
# Indices 1 2 3 4 5 6 
#
# 1 0.038623 -0.000766 -0.005035 0.000000 0.005905 0.000000
# 2 -0.000766 0.008770 -0.000907 0.000000 0.004366 0.000000
# 3 -0.005035 -0.000907 0.006738 0.000000 0.000705 0.000000
# 4 0.000000 0.000000 0.000000 0.024743 0.000000 -0.003881
# 5 0.005905 0.004366 0.000705 0.000000 0.036505 0.000000
# 6 0.000000 0.000000 0.000000 -0.003881 0.000000 0.065647
#
#
# Mechanical properties :
#
#
# Convention : Reuss Voigt Hill
#
# Bulk Modulus (GPa) = 24.55999 49.11804 36.83901
# Shear Modulus (GPa) = 24.03680 35.31913 29.67797
#
# Velocity S-wave (km/s) = 3.22031 3.90360 3.57830
# Velocity P-wave (km/s) = 4.94200 6.44274 5.74161
#
# Compressibility (1/GPa) = 0.04071664
#
# Stress axis : x y z
#
# Youngs Moduli (GPa) = 25.89102 114.02105 148.40603
#
# Poissons Ratio (x) = 0.08737 0.74719
# Poissons Ratio (y) = 0.01984 0.13456
# Poissons Ratio (z) = 0.13035 0.10338
#
# Static dielectric constant tensor:
#      x y z
#    x 4.012280 0.000000 0.398730 
#    y 0.000000 4.005300 0.000000 
#    z 0.398730 0.000000 12.440670 
# 
# 
# High freq. dielectric constant tensor:
#      x y z
#    x 1.910480 0.000000 -0.004710 
#    y 0.000000 1.899990 0.000000 
#    z -0.004710 0.000000 1.972040 
# 
# From -- ./inp_files/6861.got.cif
#   From: 2010.06.25/outbox.cif.g09.slc.cpg/sg13_4_cif.got.tgz:6861.got - 2010.06.28 04:50:58.
