data_PCOD8116550
_publ_section_title
;
Structure prediction by ZEFSAII (Michael W. Deem and Ramdas Pophale) SiO2 
 PCOD8116550
Probable space group: C 2/M
;
_chemical_formula_sum "Si O2"
_cell_formula_units_Z 24
_cell_length_a 21.000000
_cell_length_b 12.000000
_cell_length_c 27.000000
_cell_angle_alpha 90.000000
_cell_angle_beta 160.000000
_cell_angle_gamma 90.000000
_cell_volume 2327.105055
_symmetry_space_group_name_H-M "C 2/M"
_symmetry_group_IT_number 12
_symmetry_cell_setting 'monoclinic'
loop_
_space_group_symop_operation_xyz
x,y,z
-x,y,-z
-x,-y,-z
x,-y,z
1/2+x,1/2+y,z
1/2-x,1/2+y,-z
1/2-x,1/2-y,-z
1/2+x,1/2-y,z
loop_
_atom_site_type_symbol
_atom_site_label
_atom_site_fract_x
_atom_site_fract_y
_atom_site_fract_z
Si Si1 0.694045 0.701561 0.906370
Si Si2 0.223127 0.869467 0.111180
Si Si3 0.101571 0.500000 0.994778
Si Si4 0.568637 0.254902 0.648696
Si Si5 0.300552 0.373264 0.642496
Si Si6 0.288522 0.500000 0.237923
Si Si7 0.824647 0.873727 0.774115
O O1 0.673580 0.812784 0.859015
O O2 0.847514 0.612016 0.998893
O O3 0.493378 0.643198 0.754537
O O4 0.750000 0.750000 0.000000
O O5 0.297996 0.805190 0.213811
O O6 0.273174 0.000000 0.151117
O O7 0.002200 0.852313 0.939780
O O8 0.212384 0.500000 0.126917
O O9 0.879947 0.500000 0.845055
O O10 0.354023 0.212883 0.492048
O O11 0.582288 0.389469 0.661410
O O12 0.657917 0.211928 0.662927
O O13 0.228063 0.500000 0.581673
O O14 0.365207 0.352351 0.746209
O O15 0.754992 0.000000 0.731756
#
# Coordination Sequence:
#
# PCOD8116550 Si02
#       7
#     8   8   4   8   8   4   8
#     4  12  24  43  70  99 133 183 234 280 336 411
#     4  11  23  40  66 102 129 172 225 290 335 396
#     4  11  24  48  73  98 140 191 237 285 341 421
#     4  12  24  43  65 100 137 176 227 282 348 411
#     4  11  24  43  69  97 137 185 227 279 351 420
#     4  11  26  44  70 103 138 187 231 283 357 413
#     4  10  21  40  67  96 132 173 224 283 340 402
#
# _framework density 10.313243
#
# number of rings (size 3 to 8) (size 9 to 14) (size 15 to 20)
#    0.000    0.833    4.167    3.500    3.500    3.333 
#    1.500    1.667    0.000    0.000    0.000    0.000 
#    0.000    0.000    0.000    0.000    0.000    0.000 
#
# Total GULP energy -297495.296939 kJ/mol
# GULP energy per Si atom -12395.637372 kJ/mol
# Density = 1.028977 g / cm^3
# Si number density = 10.313243 Si / 1000 Ang^3
#
#
#
# Elastic Constant Matrix: (Units=GPa)
#
#
# Indices 1 2 3 4 5 6 
#
# 1 75.5754 45.0758 23.8922 -0.0162 7.3962 -0.0020
# 2 45.0758 173.3901 50.0380 -0.0194 3.1234 -0.0098
# 3 23.8922 50.0380 114.6537 -0.0205 3.7170 -0.0060
# 4 -0.0162 -0.0194 -0.0205 40.3555 0.0049 1.6768
# 5 7.3962 3.1234 3.7170 0.0049 27.5146 -0.0009
# 6 -0.0020 -0.0098 -0.0060 1.6768 -0.0009 44.6218
#
#
#
# Elastic Compliance Matrix: (Units=1/GPa)
#
#
# Indices 1 2 3 4 5 6 
#
# 1 0.016330 -0.003696 -0.001668 0.000004 -0.003745 -0.000001
# 2 -0.003696 0.007439 -0.002492 0.000001 0.000486 0.000001
# 3 -0.001668 -0.002492 0.010178 0.000003 -0.000644 0.000001
# 4 0.000004 0.000001 0.000003 0.024819 -0.000006 -0.000933
# 5 -0.003745 0.000486 -0.000644 -0.000006 0.037383 0.000001
# 6 -0.000001 0.000001 0.000001 -0.000933 0.000001 0.022446
#
#
# Mechanical properties :
#
#
# Convention : Reuss Voigt Hill
#
# Bulk Modulus (GPa) = 54.84378 66.84789 60.84584
# Shear Modulus (GPa) = 35.61625 38.80593 37.21109
#
# Velocity S-wave (km/s) = 4.15989 4.34217 4.25201
# Velocity P-wave (km/s) = 7.05122 7.59068 7.32592
#
# Compressibility (1/GPa) = 0.01823361
#
# Stress axis : x y z
#
# Youngs Moduli (GPa) = 61.23535 134.43247 98.25126
#
# Poissons Ratio (x) = 0.49692 0.16392
# Poissons Ratio (y) = 0.22635 0.24483
# Poissons Ratio (z) = 0.10216 0.33499
#
# Static dielectric constant tensor:
#      x y z
#    x 3.998950 0.000000 -0.052700 
#    y 0.000000 4.123300 -0.000080 
#    z -0.052700 -0.000080 3.718380 
# 
# 
# High freq. dielectric constant tensor:
#      x y z
#    x 1.813620 0.000000 -0.004010 
#    y 0.000000 1.828770 -0.000010 
#    z -0.004010 -0.000010 1.807280 
# 
# From -- ./inp_files/366235.got.cif
#   From: 2010.06.25/outbox.ucp.g09.slc.cvg/sg12_184_cif.got.tgz:366235.got - 2010.06.28 13:50:54.
