data_PCOD8116719
_publ_section_title
;
Structure prediction by ZEFSAII (Michael W. Deem and Ramdas Pophale) SiO2 
 PCOD8116719
Probable space group: P 2/C
;
_chemical_formula_sum "Si O2"
_cell_formula_units_Z 30
_cell_length_a 10.829192
_cell_length_b 12.547178
_cell_length_c 13.992686
_cell_angle_alpha 90.000000
_cell_angle_beta 127.356538
_cell_angle_gamma 90.000000
_cell_volume 1511.270152
_symmetry_space_group_name_H-M "P 2/C"
_symmetry_group_IT_number 13
_symmetry_cell_setting 'monoclinic'
loop_
_space_group_symop_operation_xyz
x,y,z
-x,y,1/2-z
-x,-y,-z
x,-y,1/2+z
loop_
_atom_site_type_symbol
_atom_site_label
_atom_site_fract_x
_atom_site_fract_y
_atom_site_fract_z
Si Si1 0.528413 0.302347 0.986191
Si Si2 0.000000 0.197174 0.750000
Si Si3 0.372430 0.344400 0.110580
Si Si4 0.567992 0.903731 0.589890
Si Si5 0.761073 0.861320 0.991030
Si Si6 0.318773 0.972429 0.191684
Si Si7 0.660104 0.580078 0.380465
Si Si8 0.761934 0.257884 0.783707
O O1 0.643039 0.380509 0.982260
O O2 0.390631 0.266956 0.851411
O O3 0.459359 0.357961 0.048451
O O4 0.631906 0.194810 0.056663
O O5 0.875045 0.123169 0.635018
O O6 0.911371 0.270526 0.785284
O O7 0.500000 0.315093 0.250000
O O8 0.228203 0.258706 0.047960
O O9 0.288442 0.457047 0.094214
O O10 0.420983 0.849747 0.571164
O O11 0.694400 0.950788 0.721923
O O12 0.500000 0.000000 0.500000
O O13 0.782576 0.964689 0.934984
O O14 0.500000 0.955694 0.250000
O O15 0.235793 0.860016 0.168231
O O16 0.500000 0.591398 0.250000
O O17 0.778536 0.654333 0.375435
#
# Coordination Sequence:
#
# PCOD8116719 Si02
#       8
#     4   2   4   4   4   4   4   4
#     4  10  17  32  54  86 115 142 174 227 289 331
#     4  12  22  40  54  74 110 158 202 220 260 338
#     4  10  18  35  55  89 114 138 178 228 296 335
#     4  10  16  28  51  85 112 137 174 221 282 332
#     4  10  21  33  55  78 109 150 183 225 270 331
#     4  10  19  33  57  86 114 134 178 236 288 335
#     4   9  20  32  55  85 115 140 177 237 286 334
#     4  11  21  36  54  83 111 152 189 221 275 334
#
# _framework density 19.850853000000001
#
# number of rings (size 3 to 8) (size 9 to 14) (size 15 to 20)
#    0.000    1.867    4.000    3.600    1.867    0.533 
#    0.000    0.667    0.000    0.000    0.000    0.000 
#    0.000    0.000    0.000    0.000    0.000    0.000 
#
# Total GULP energy -371673.447762 kJ/mol
# GULP energy per Si atom -12389.114925 kJ/mol
# Density = 1.980567 g / cm^3
# Si number density = 19.850853 Si / 1000 Ang^3
#
#
#
# Elastic Constant Matrix: (Units=GPa)
#
#
# Indices 1 2 3 4 5 6 
#
# 1 70.1894 39.3508 14.7180 0.0000 -18.3040 0.0000
# 2 39.3508 140.0672 45.0121 0.0000 -12.9230 0.0000
# 3 14.7180 45.0121 93.2432 0.0000 -18.7316 0.0000
# 4 0.0000 0.0000 0.0000 21.7049 0.0000 -9.8227
# 5 -18.3040 -12.9230 -18.7316 0.0000 24.3224 0.0000
# 6 0.0000 0.0000 0.0000 -9.8227 0.0000 15.1312
#
#
#
# Elastic Compliance Matrix: (Units=1/GPa)
#
#
# Indices 1 2 3 4 5 6 
#
# 1 0.020373 -0.005084 0.002101 0.000000 0.014248 0.000000
# 2 -0.005084 0.009772 -0.004307 0.000000 -0.001951 0.000000
# 3 0.002101 -0.004307 0.014587 0.000000 0.010527 0.000000
# 4 0.000000 0.000000 0.000000 0.065239 0.000000 0.042351
# 5 0.014248 -0.001951 0.010527 0.000000 0.058907 0.000000
# 6 0.000000 0.000000 0.000000 0.042351 0.000000 0.093582
#
#
# Mechanical properties :
#
#
# Convention : Reuss Voigt Hill
#
# Bulk Modulus (GPa) = 33.16587 55.74017 44.45302
# Shear Modulus (GPa) = 17.41619 25.85962 21.63791
#
# Velocity S-wave (km/s) = 2.96523 3.61320 3.30513
# Velocity P-wave (km/s) = 5.33547 6.74888 6.08336
#
# Compressibility (1/GPa) = 0.03015148
#
# Stress axis : x y z
#
# Youngs Moduli (GPa) = 49.08543 102.33574 68.55564
#
# Poissons Ratio (x) = 0.52029 -0.14403
# Poissons Ratio (y) = 0.24956 0.29524
# Poissons Ratio (z) = -0.10312 0.44072
#
# Static dielectric constant tensor:
#      x y z
#    x 3.464310 0.000000 -0.495960 
#    y 0.000000 3.929940 0.000000 
#    z -0.495960 0.000000 3.702020 
# 
# 
# High freq. dielectric constant tensor:
#      x y z
#    x 1.729960 0.000000 -0.040810 
#    y 0.000000 1.786720 0.000000 
#    z -0.040810 0.000000 1.760600 
# 
# From -- ./inp_files/51201.got.cif
#   From: 2010.06.25/outbox.cif.g09.slc.cpg/sg13_26_cif.got.tgz:51201.got - 2010.06.28 04:50:58.
