data_PCOD8116064
_publ_section_title
;
Structure prediction by ZEFSAII (Michael W. Deem and Ramdas Pophale) SiO2 
 PCOD8116064
Probable space group: C 2/M
;
_chemical_formula_sum "Si O2"
_cell_formula_units_Z 48
_cell_length_a 31.205820
_cell_length_b 9.155925
_cell_length_c 9.618125
_cell_angle_alpha 90.000000
_cell_angle_beta 90.062529
_cell_angle_gamma 90.000000
_cell_volume 2748.071221
_symmetry_space_group_name_H-M "C 2/M"
_symmetry_group_IT_number 12
_symmetry_cell_setting 'monoclinic'
loop_
_space_group_symop_operation_xyz
x,y,z
-x,y,-z
-x,-y,-z
x,-y,z
1/2+x,1/2+y,z
1/2-x,1/2+y,-z
1/2-x,1/2-y,-z
1/2+x,1/2-y,z
loop_
_atom_site_type_symbol
_atom_site_label
_atom_site_fract_x
_atom_site_fract_y
_atom_site_fract_z
Si Si1 0.918698 0.827812 0.822967
Si Si2 0.248546 0.670971 0.646344
Si Si3 0.657615 0.330202 0.363720
Si Si4 0.497255 0.164910 0.165083
Si Si5 0.667271 0.327551 0.677340
Si Si6 0.586011 0.670141 0.856543
O O1 0.879938 0.761187 0.730504
O O2 0.962084 0.749906 0.771726
O O3 0.924960 0.000000 0.803582
O O4 0.907968 0.789495 0.982248
O O5 0.238972 0.500000 0.627794
O O6 0.250000 0.750000 0.500000
O O7 0.296134 0.696034 0.711161
O O8 0.210352 0.746586 0.734218
O O9 0.647853 0.500000 0.373836
O O10 0.656735 0.269108 0.521610
O O11 0.453530 0.243281 0.212318
O O12 0.497292 0.000000 0.221753
O O13 0.500000 0.170377 0.000000
O O14 0.675977 0.500000 0.678908
O O15 0.628929 0.281857 0.778054
O O16 0.576305 0.500000 0.836015
#
# Coordination Sequence:
#
# PCOD8116064 Si02
#       6
#     8   8   8   8   8   8
#     4   9  16  29  48  66  84 112 149 182 212 252
#     4   9  16  28  46  66  88 117 150 179 212 257
#     4   8  15  28  46  65  86 113 145 179 214 255
#     4   9  17  29  45  65  89 115 143 177 218 262
#     4   9  17  30  46  66  90 115 145 180 217 256
#     4   9  17  29  47  67  86 112 148 183 212 252
#
# _framework density 17.466795999999999
#
# number of rings (size 3 to 8) (size 9 to 14) (size 15 to 20)
#    0.000    3.167    0.000    2.000    0.000    2.667 
#    0.000    5.833    0.000    5.000    0.000    0.000 
#    0.000    0.000    0.000    0.000    0.000    0.000 
#
# Total GULP energy -297434.099926 kJ/mol
# GULP energy per Si atom -12393.087497 kJ/mol
# Density = 1.742704 g / cm^3
# Si number density = 17.466796 Si / 1000 Ang^3
#
#
#
# Elastic Constant Matrix: (Units=GPa)
#
#
# Indices 1 2 3 4 5 6 
#
# 1 105.4162 44.7010 21.2306 0.0000 1.9408 0.0000
# 2 44.7010 59.6122 13.6912 0.0000 -1.7295 0.0000
# 3 21.2306 13.6912 31.2467 0.0000 1.0453 0.0000
# 4 0.0000 0.0000 0.0000 12.1879 0.0000 -3.4437
# 5 1.9408 -1.7295 1.0453 0.0000 30.8424 0.0000
# 6 0.0000 0.0000 0.0000 -3.4437 0.0000 33.2272
#
#
#
# Elastic Compliance Matrix: (Units=1/GPa)
#
#
# Indices 1 2 3 4 5 6 
#
# 1 0.014840 -0.009851 -0.005723 0.000000 -0.001292 0.000000
# 2 -0.009851 0.025245 -0.004442 0.000000 0.002186 0.000000
# 3 -0.005723 -0.004442 0.037878 0.000000 -0.001173 0.000000
# 4 0.000000 0.000000 0.000000 0.084524 0.000000 0.008760
# 5 -0.001292 0.002186 -0.001173 0.000000 0.032667 0.000000
# 6 0.000000 0.000000 0.000000 0.008760 0.000000 0.031004
#
#
# Mechanical properties :
#
#
# Convention : Reuss Voigt Hill
#
# Bulk Modulus (GPa) = 26.36362 39.50229 32.93296
# Shear Modulus (GPa) = 17.93192 23.02831 20.48011
#
# Velocity S-wave (km/s) = 3.20758 3.63492 3.42792
# Velocity P-wave (km/s) = 5.37070 6.34678 5.87903
#
# Compressibility (1/GPa) = 0.03793106
#
# Stress axis : x y z
#
# Youngs Moduli (GPa) = 67.38592 39.61106 26.40084
#
# Poissons Ratio (x) = 0.39020 0.15110
# Poissons Ratio (y) = 0.66381 0.11726
# Poissons Ratio (z) = 0.38568 0.17594
#
# Static dielectric constant tensor:
#      x y z
#    x 3.824790 0.000000 0.006700 
#    y 0.000000 3.195150 0.000000 
#    z 0.006700 0.000000 3.039570 
# 
# 
# High freq. dielectric constant tensor:
#      x y z
#    x 1.695080 0.000000 -0.001130 
#    y 0.000000 1.659930 0.000000 
#    z -0.001130 0.000000 1.628410 
# 
# From -- ./inp_files/108594.got.cif
#   From: 2010.06.25/outbox.cif.g09.slc.cpg/sg12_55_cif.got.tgz:108594.got - 2010.06.28 00:19:55.
