data_PCOD8116196
_publ_section_title
;
Structure prediction by ZEFSAII (Michael W. Deem and Ramdas Pophale) SiO2 
 PCOD8116196
Probable space group: C 2/M
;
_chemical_formula_sum "Si O2"
_cell_formula_units_Z 28
_cell_length_a 18.000000
_cell_length_b 18.000000
_cell_length_c 27.000000
_cell_angle_alpha 90.000000
_cell_angle_beta 160.000000
_cell_angle_gamma 90.000000
_cell_volume 2991.992214
_symmetry_space_group_name_H-M "C 2/M"
_symmetry_group_IT_number 12
_symmetry_cell_setting 'monoclinic'
loop_
_space_group_symop_operation_xyz
x,y,z
-x,y,-z
-x,-y,-z
x,-y,z
1/2+x,1/2+y,z
1/2-x,1/2+y,-z
1/2-x,1/2-y,-z
1/2+x,1/2-y,z
loop_
_atom_site_type_symbol
_atom_site_label
_atom_site_fract_x
_atom_site_fract_y
_atom_site_fract_z
Si Si1 0.359411 0.587281 0.648130
Si Si2 0.616973 0.585625 0.522358
Si Si3 0.380650 0.915065 0.155527
Si Si4 0.746814 0.182655 0.833917
Si Si5 0.942253 0.809015 0.610968
Si Si6 0.369402 0.912769 0.329869
Si Si7 0.525452 0.412849 0.854389
O O1 0.385226 0.500000 0.655615
O O2 0.438462 0.625519 0.648031
O O3 0.509969 0.616720 0.788038
O O4 0.106491 0.607948 0.499934
O O5 0.500000 0.608743 0.500000
O O6 0.555032 0.500000 0.466965
O O7 0.565673 0.648081 0.447460
O O8 0.865589 0.586564 0.695034
O O9 0.339016 0.848712 0.167826
O O10 0.309709 0.000000 0.127517
O O11 0.250635 0.893649 0.023331
O O12 0.659269 0.261532 0.758028
O O13 0.669198 0.118855 0.748500
O O14 0.000000 0.192484 0.000000
O O15 0.750000 0.750000 0.500000
O O16 0.181946 0.878251 0.247064
O O17 0.343984 0.000000 0.308498
O O18 0.488273 0.500000 0.827991
#
# Coordination Sequence:
#
# PCOD8116196 Si02
#       7
#     8   8   8   8   8   8   8
#     4  10  20  37  60  83 115 158 199 240 291 352
#     4  10  22  44  71  91 113 155 213 261 293 344
#     4  10  19  35  62  92 120 154 199 247 300 357
#     4  12  23  37  55  85 125 162 193 244 306 366
#     4  12  23  41  60  88 120 156 197 250 304 364
#     4  10  18  31  56  88 118 154 195 232 286 362
#     4   9  18  32  54  87 122 150 187 235 286 357
#
# _framework density 9.3583130000000008
#
# number of rings (size 3 to 8) (size 9 to 14) (size 15 to 20)
#    0.000    1.571    4.286    1.286    0.000    4.571 
#    5.143    0.714    0.000    0.857    0.000    0.000 
#    0.000    0.000    0.000    0.000    0.000    0.000 
#
# Total GULP energy -346874.149825 kJ/mol
# GULP energy per Si atom -12388.362494 kJ/mol
# Density = 0.933701 g / cm^3
# Si number density = 9.358313 Si / 1000 Ang^3
#
#
#
# Elastic Constant Matrix: (Units=GPa)
#
#
# Indices 1 2 3 4 5 6 
#
# 1 122.4100 50.4942 55.1075 -0.0087 -21.7593 -0.0110
# 2 50.4942 65.4935 49.8477 0.1348 -9.6263 -0.0372
# 3 55.1075 49.8477 129.8446 0.3211 -22.4983 -0.0762
# 4 -0.0087 0.1348 0.3211 82.7771 -0.2268 -10.4526
# 5 -21.7593 -9.6263 -22.4983 -0.2268 37.0839 -0.0311
# 6 -0.0110 -0.0372 -0.0762 -10.4526 -0.0311 25.6302
#
#
#
# Elastic Compliance Matrix: (Units=1/GPa)
#
#
# Indices 1 2 3 4 5 6 
#
# 1 0.013088 -0.008185 -0.001620 0.000035 0.004572 0.000009
# 2 -0.008185 0.026705 -0.007162 -0.000022 -0.002216 0.000002
# 3 -0.001620 -0.007162 0.011903 -0.000020 0.004412 0.000022
# 4 0.000035 -0.000022 -0.000020 0.012737 0.000085 0.005194
# 5 0.004572 -0.002216 0.004412 0.000085 0.031750 0.000085
# 6 0.000009 0.000002 0.000022 0.005194 0.000085 0.041135
#
#
# Mechanical properties :
#
#
# Convention : Reuss Voigt Hill
#
# Bulk Modulus (GPa) = 56.30409 69.84964 63.07686
# Shear Modulus (GPa) = 28.22094 39.91817 34.06956
#
# Velocity S-wave (km/s) = 3.88725 4.62320 4.27111
# Velocity P-wave (km/s) = 7.09192 8.11783 7.62216
#
# Compressibility (1/GPa) = 0.01776070
#
# Stress axis : x y z
#
# Youngs Moduli (GPa) = 76.40697 37.44625 84.01187
#
# Poissons Ratio (x) = 0.30651 0.13611
# Poissons Ratio (y) = 0.62543 0.60169
# Poissons Ratio (z) = 0.12379 0.26819
#
# Static dielectric constant tensor:
#      x y z
#    x 3.505660 0.000070 -0.221890 
#    y 0.000070 3.593730 -0.000440 
#    z -0.221890 -0.000440 3.751340 
# 
# 
# High freq. dielectric constant tensor:
#      x y z
#    x 1.720930 0.000010 -0.019400 
#    y 0.000010 1.719610 -0.000030 
#    z -0.019400 -0.000030 1.742130 
# 
# From -- ./inp_files/158224.got.cif
#   From: 2010.06.25/outbox.ucp.g09.slc.cvg/sg12_80_cif.got.tgz:158224.got - 2010.06.28 13:50:54.
