data_PCOD8116187
_publ_section_title
;
Structure prediction by ZEFSAII (Michael W. Deem and Ramdas Pophale) SiO2 
 PCOD8116187
Probable space group: C 2/M
;
_chemical_formula_sum "Si O2"
_cell_formula_units_Z 28
_cell_length_a 18.000000
_cell_length_b 9.000000
_cell_length_c 30.000000
_cell_angle_alpha 90.000000
_cell_angle_beta 40.000000
_cell_angle_gamma 90.000000
_cell_volume 3123.947783
_symmetry_space_group_name_H-M "C 2/M"
_symmetry_group_IT_number 12
_symmetry_cell_setting 'monoclinic'
loop_
_space_group_symop_operation_xyz
x,y,z
-x,y,-z
-x,-y,-z
x,-y,z
1/2+x,1/2+y,z
1/2-x,1/2+y,-z
1/2-x,1/2-y,-z
1/2+x,1/2-y,z
loop_
_atom_site_type_symbol
_atom_site_label
_atom_site_fract_x
_atom_site_fract_y
_atom_site_fract_z
Si Si1 0.585570 0.324787 0.743275
Si Si2 0.361827 0.167273 0.190821
Si Si3 0.980968 0.823958 0.446591
Si Si4 0.595521 0.334823 0.302763
Si Si5 0.870502 0.328022 0.800701
Si Si6 0.821103 0.678145 0.585639
Si Si7 0.895936 0.825423 0.082461
O O1 0.586807 0.500000 0.744676
O O2 0.594585 0.265521 0.788875
O O3 0.458535 0.270375 0.788232
O O4 0.690905 0.274228 0.661404
O O5 0.225054 0.161997 0.261351
O O6 0.408222 0.237239 0.123144
O O7 0.412059 0.000000 0.169940
O O8 0.859372 0.751156 0.520072
O O9 0.001642 0.796319 0.384364
O O10 0.087815 0.743005 0.421208
O O11 0.981922 0.000000 0.456777
O O12 0.565569 0.500000 0.297017
O O13 0.594631 0.207408 0.266174
O O14 0.894793 0.500000 0.798695
O O15 0.735426 0.289900 0.874803
O O16 0.831426 0.500000 0.577963
O O17 0.906546 0.000000 0.087678
O O18 0.000000 0.778221 0.000000
#
# Coordination Sequence:
#
# PCOD8116187 Si02
#       7
#     8   8   8   8   8   8   8
#     4  11  22  36  53  76 110 146 179 220 268 315
#     4  10  19  33  56  83 109 138 179 221 258 311
#     4  10  18  30  50  75 103 137 177 223 271 313
#     4   9  18  33  52  76 105 138 176 221 267 314
#     4  10  21  35  56  81 106 139 176 216 263 317
#     4  10  20  31  47  73 104 139 178 223 268 311
#     4   9  19  38  61  85 112 139 170 211 262 318
#
# _framework density 8.9630179999999999
#
# number of rings (size 3 to 8) (size 9 to 14) (size 15 to 20)
#    0.000    2.143    1.429    3.000    0.000    4.286 
#    0.000    1.429    0.000    0.000    0.000    0.000 
#    0.000    0.000    0.000    0.000    0.000    0.000 
#
# Total GULP energy -346899.315141 kJ/mol
# GULP energy per Si atom -12389.261255 kJ/mol
# Density = 0.894262 g / cm^3
# Si number density = 8.963018 Si / 1000 Ang^3
#
#
#
# Elastic Constant Matrix: (Units=GPa)
#
#
# Indices 1 2 3 4 5 6 
#
# 1 67.0713 34.2581 49.8810 0.0000 -4.2236 -0.0017
# 2 34.2581 95.7783 56.5866 -0.0006 -0.8436 -0.0055
# 3 49.8810 56.5866 178.9220 -0.0001 2.9774 -0.0006
# 4 0.0000 -0.0006 -0.0001 35.3888 0.0004 1.8444
# 5 -4.2236 -0.8436 2.9774 0.0004 26.6060 -0.0004
# 6 -0.0017 -0.0055 -0.0006 1.8444 -0.0004 29.7943
#
#
#
# Elastic Compliance Matrix: (Units=1/GPa)
#
#
# Indices 1 2 3 4 5 6 
#
# 1 0.020846 -0.004864 -0.004334 0.000000 0.003640 0.000000
# 2 -0.004864 0.013995 -0.003070 0.000000 0.000015 0.000002
# 3 -0.004334 -0.003070 0.007796 0.000000 -0.001658 -0.000001
# 4 0.000000 0.000000 0.000000 0.028349 0.000000 -0.001755
# 5 0.003640 0.000015 -0.001658 0.000000 0.038349 0.000001
# 6 0.000000 0.000002 -0.000001 -0.001755 0.000001 0.033672
#
#
# Mechanical properties :
#
#
# Convention : Reuss Voigt Hill
#
# Bulk Modulus (GPa) = 55.24661 69.24701 62.24681
# Shear Modulus (GPa) = 28.80576 31.76089 30.28333
#
# Velocity S-wave (km/s) = 4.01299 4.21381 4.11463
# Velocity P-wave (km/s) = 7.23590 7.89861 7.57451
#
# Compressibility (1/GPa) = 0.01810066
#
# Stress axis : x y z
#
# Youngs Moduli (GPa) = 47.97053 71.45663 128.27268
#
# Poissons Ratio (x) = 0.34754 0.55593
# Poissons Ratio (y) = 0.23331 0.39383
# Poissons Ratio (z) = 0.20790 0.21939
#
# Static dielectric constant tensor:
#      x y z
#    x 3.189360 0.000000 -0.094260 
#    y 0.000000 3.531200 0.000000 
#    z -0.094260 0.000000 3.839330 
# 
# 
# High freq. dielectric constant tensor:
#      x y z
#    x 1.668180 0.000000 0.001360 
#    y 0.000000 1.712710 0.000000 
#    z 0.001360 0.000000 1.715960 
# 
# From -- ./inp_files/314434.got.cif
#   From: 2010.06.25/outbox.ucp.g09.slc.cvg/sg12_158_cif.got.tgz:314434.got - 2010.06.28 13:50:54.
