data_PCOD8116533
_publ_section_title
;
Structure prediction by ZEFSAII (Michael W. Deem and Ramdas Pophale) SiO2 
 PCOD8116533
Probable space group: C 2/M
;
_chemical_formula_sum "Si O2"
_cell_formula_units_Z 32
_cell_length_a 18.000000
_cell_length_b 9.000000
_cell_length_c 30.000000
_cell_angle_alpha 90.000000
_cell_angle_beta 40.000000
_cell_angle_gamma 90.000000
_cell_volume 3123.947783
_symmetry_space_group_name_H-M "C 2/M"
_symmetry_group_IT_number 12
_symmetry_cell_setting 'monoclinic'
loop_
_space_group_symop_operation_xyz
x,y,z
-x,y,-z
-x,-y,-z
x,-y,z
1/2+x,1/2+y,z
1/2-x,1/2+y,-z
1/2-x,1/2-y,-z
1/2+x,1/2-y,z
loop_
_atom_site_type_symbol
_atom_site_label
_atom_site_fract_x
_atom_site_fract_y
_atom_site_fract_z
Si Si1 0.534391 0.332760 0.195560
Si Si2 0.715733 0.825190 0.561651
Si Si3 0.281323 0.334788 0.285025
Si Si4 0.870958 0.677096 0.934222
Si Si5 0.742340 0.672315 0.218895
Si Si6 0.634566 0.829505 0.435437
Si Si7 0.962075 0.324832 0.065053
Si Si8 0.970308 0.673806 0.712303
O O1 0.585102 0.500000 0.168089
O O2 0.396602 0.334843 0.261243
O O3 0.583935 0.232351 0.133722
O O4 0.571312 0.262548 0.225125
O O5 0.750000 0.750000 0.500000
O O6 0.806907 0.781691 0.557119
O O7 0.589456 0.770917 0.635765
O O8 0.716595 0.000000 0.553762
O O9 0.262105 0.500000 0.273114
O O10 0.303186 0.208395 0.237929
O O11 0.176307 0.292781 0.366197
O O12 0.861403 0.500000 0.937928
O O13 0.956287 0.737055 0.933498
O O14 0.750000 0.750000 0.000000
O O15 0.706881 0.500000 0.232867
O O16 0.829269 0.714200 0.138378
O O17 0.632540 0.781575 0.273537
O O18 0.500000 0.798450 0.500000
O O19 0.664751 0.000000 0.434010
O O20 0.978039 0.500000 0.055518
O O21 0.000000 0.254018 0.000000
O O22 0.975284 0.500000 0.720380
#
# Coordination Sequence:
#
# PCOD8116533 Si02
#       8
#     8   8   8   8   8   8   8   8
#     4  11  22  40  66  91 121 163 209 259 311 368
#     4  11  25  43  64  89 125 166 206 256 311 370
#     4  10  21  39  63  90 124 161 204 257 309 366
#     4  11  23  40  63  92 126 164 208 258 311 368
#     4  11  23  39  64  93 123 163 207 253 308 368
#     4  10  22  41  65  92 123 162 206 254 310 367
#     4   9  20  39  60  85 121 162 203 249 299 356
#     4  11  25  43  63  91 126 163 205 259 314 364
#
# _framework density 10.243449
#
# number of rings (size 3 to 8) (size 9 to 14) (size 15 to 20)
#    0.000    1.500    2.500    1.875    3.500    2.750 
#    0.000    0.000    0.000    3.000    0.000    0.000 
#    0.000    0.000    0.000    0.000    0.000    0.000 
#
# Total GULP energy -396796.564569 kJ/mol
# GULP energy per Si atom -12399.892643 kJ/mol
# Density = 1.022013 g / cm^3
# Si number density = 10.243449 Si / 1000 Ang^3
#
#
#
# Elastic Constant Matrix: (Units=GPa)
#
#
# Indices 1 2 3 4 5 6 
#
# 1 57.7910 29.3418 36.0512 0.0002 0.6840 -0.0009
# 2 29.3418 77.0989 47.7183 0.0003 1.2719 -0.0027
# 3 36.0512 47.7183 143.1580 -0.0002 3.2188 -0.0001
# 4 0.0002 0.0003 -0.0002 35.5384 0.0001 3.0038
# 5 0.6840 1.2719 3.2188 0.0001 35.4555 0.0002
# 6 -0.0009 -0.0027 -0.0001 3.0038 0.0002 33.9564
#
#
#
# Elastic Compliance Matrix: (Units=1/GPa)
#
#
# Indices 1 2 3 4 5 6 
#
# 1 0.022828 -0.006463 -0.003597 0.000000 0.000118 0.000000
# 2 -0.006463 0.018172 -0.004427 0.000000 -0.000125 0.000001
# 3 -0.003597 -0.004427 0.009381 0.000000 -0.000623 0.000000
# 4 0.000000 0.000000 0.000000 0.028351 0.000000 -0.002508
# 5 0.000118 -0.000125 -0.000623 0.000000 0.028263 0.000000
# 6 0.000000 0.000001 0.000000 -0.002508 0.000000 0.029671
#
#
# Mechanical properties :
#
#
# Convention : Reuss Voigt Hill
#
# Bulk Modulus (GPa) = 46.71502 56.03006 51.37254
# Shear Modulus (GPa) = 28.93937 31.98583 30.46260
#
# Velocity S-wave (km/s) = 3.76251 3.95559 3.86026
# Velocity P-wave (km/s) = 6.45966 6.94772 6.70813
#
# Compressibility (1/GPa) = 0.02140639
#
# Stress axis : x y z
#
# Youngs Moduli (GPa) = 43.80634 55.02971 106.60234
#
# Poissons Ratio (x) = 0.35568 0.38344
# Poissons Ratio (y) = 0.28314 0.47190
# Poissons Ratio (z) = 0.15757 0.24360
#
# Static dielectric constant tensor:
#      x y z
#    x 3.628560 -0.000010 0.002430 
#    y -0.000010 3.546060 -0.000200 
#    z 0.002430 -0.000200 4.440270 
# 
# 
# High freq. dielectric constant tensor:
#      x y z
#    x 1.796130 0.000000 0.000540 
#    y 0.000000 1.791190 0.000000 
#    z 0.000540 0.000000 1.817740 
# 
# From -- ./inp_files/378101.got.cif
#   From: 2010.06.25/outbox.ucp.g09.slc.cvg/sg12_190_cif.got.tgz:378101.got - 2010.06.28 13:50:54.
