data_PCOD8116122
_publ_section_title
;
Structure prediction by ZEFSAII (Michael W. Deem and Ramdas Pophale) SiO2 
 PCOD8116122
Probable space group: C 2/M
;
_chemical_formula_sum "Si O2"
_cell_formula_units_Z 56
_cell_length_a 22.948279
_cell_length_b 9.251581
_cell_length_c 21.477576
_cell_angle_alpha 90.000000
_cell_angle_beta 131.437639
_cell_angle_gamma 90.000000
_cell_volume 3418.418457
_symmetry_space_group_name_H-M "C 2/M"
_symmetry_group_IT_number 12
_symmetry_cell_setting 'monoclinic'
loop_
_space_group_symop_operation_xyz
x,y,z
-x,y,-z
-x,-y,-z
x,-y,z
1/2+x,1/2+y,z
1/2-x,1/2+y,-z
1/2-x,1/2-y,-z
1/2+x,1/2-y,z
loop_
_atom_site_type_symbol
_atom_site_label
_atom_site_fract_x
_atom_site_fract_y
_atom_site_fract_z
Si Si1 0.746053 0.663414 0.592113
Si Si2 0.137453 0.831509 0.247678
Si Si3 0.085080 0.171897 0.075388
Si Si4 0.298934 0.330495 0.948257
Si Si5 0.652393 0.668619 0.879604
Si Si6 0.366399 0.836734 0.564559
Si Si7 0.020667 0.832222 0.275283
O O1 0.724199 0.500000 0.595687
O O2 0.786129 0.743098 0.678559
O O3 0.667711 0.748962 0.518328
O O4 0.804083 0.663962 0.575346
O O5 0.111731 0.774744 0.162005
O O6 0.066313 0.800915 0.243789
O O7 0.159669 0.000000 0.262856
O O8 0.145886 0.229518 0.067279
O O9 0.081080 0.000000 0.070535
O O10 0.000000 0.236237 0.000000
O O11 0.284696 0.500000 0.931371
O O12 0.215711 0.253400 0.883685
O O13 0.339948 0.291137 0.042360
O O14 0.666055 0.500000 0.878761
O O15 0.567709 0.716974 0.796889
O O16 0.444927 0.760053 0.643470
O O17 0.385507 0.000000 0.557114
O O18 0.027474 0.000000 0.298020
#
# Coordination Sequence:
#
# PCOD8116122 Si02
#       7
#     8   8   8   8   8   8   8
#     4   9  16  26  39  57  85 117 144 171 208 256
#     4   9  16  26  42  63  86 113 145 179 213 251
#     4   9  16  27  45  67  88 112 145 182 215 249
#     4   9  17  29  45  64  85 112 147 182 214 249
#     4   9  17  29  44  62  86 115 145 178 215 254
#     4   9  16  25  39  60  85 112 142 176 212 251
#     4   9  16  26  41  62  87 114 143 175 214 257
#
# _framework density 16.381844000000001
#
# number of rings (size 3 to 8) (size 9 to 14) (size 15 to 20)
#    0.000    3.000    0.000    1.714    0.000    7.429 
#    0.000    0.714    0.000    3.429    0.000    1.000 
#    0.000    8.000    0.000    0.000    0.000    0.000 
#
# Total GULP energy -347187.346720 kJ/mol
# GULP energy per Si atom -12399.548097 kJ/mol
# Density = 1.634456 g / cm^3
# Si number density = 16.381844 Si / 1000 Ang^3
#
#
#
# Elastic Constant Matrix: (Units=GPa)
#
#
# Indices 1 2 3 4 5 6 
#
# 1 84.6030 35.8976 61.8848 0.0000 12.3069 0.0000
# 2 35.8976 73.3763 64.6167 0.0000 12.0270 0.0000
# 3 61.8848 64.6167 155.0777 0.0000 19.4960 0.0000
# 4 0.0000 0.0000 0.0000 27.3263 0.0000 5.6177
# 5 12.3069 12.0270 19.4960 0.0000 23.6207 0.0000
# 6 0.0000 0.0000 0.0000 5.6177 0.0000 18.2318
#
#
#
# Elastic Compliance Matrix: (Units=1/GPa)
#
#
# Indices 1 2 3 4 5 6 
#
# 1 0.017526 -0.003555 -0.005124 0.000000 -0.003092 0.000000
# 2 -0.003555 0.022587 -0.007565 0.000000 -0.003405 0.000000
# 3 -0.005124 -0.007565 0.012079 0.000000 -0.003448 0.000000
# 4 0.000000 0.000000 0.000000 0.039070 0.000000 -0.012038
# 5 -0.003092 -0.003405 -0.003448 0.000000 0.048526 0.000000
# 6 0.000000 0.000000 0.000000 -0.012038 0.000000 0.058559
#
#
# Mechanical properties :
#
#
# Convention : Reuss Voigt Hill
#
# Bulk Modulus (GPa) = 50.74996 70.87280 60.81138
# Shear Modulus (GPa) = 21.06126 23.87963 22.47045
#
# Velocity S-wave (km/s) = 3.58948 3.82211 3.70762
# Velocity P-wave (km/s) = 6.94448 7.92685 7.45187
#
# Compressibility (1/GPa) = 0.01970445
#
# Stress axis : x y z
#
# Youngs Moduli (GPa) = 57.05750 44.27233 82.79104
#
# Poissons Ratio (x) = 0.15740 0.42421
# Poissons Ratio (y) = 0.20286 0.62630
# Poissons Ratio (z) = 0.29235 0.33491
#
# Static dielectric constant tensor:
#      x y z
#    x 2.831330 0.000000 0.115050 
#    y 0.000000 3.019340 0.000000 
#    z 0.115050 0.000000 3.209140 
# 
# 
# High freq. dielectric constant tensor:
#      x y z
#    x 1.587950 0.000000 0.014360 
#    y 0.000000 1.619220 0.000000 
#    z 0.014360 0.000000 1.637120 
# 
# From -- ./inp_files/287355.got.cif
#   From: 2010.06.25/outbox.cif.g09.slc.cpg/sg12_144_cif.got.tgz:287355.got - 2010.06.28 00:19:55.
