data_PCOD8116515
_publ_section_title
;
Structure prediction by ZEFSAII (Michael W. Deem and Ramdas Pophale) SiO2 
 PCOD8116515
Probable space group: C 2/M
;
_chemical_formula_sum "Si O2"
_cell_formula_units_Z 32
_cell_length_a 24.000000
_cell_length_b 9.000000
_cell_length_c 30.000000
_cell_angle_alpha 90.000000
_cell_angle_beta 150.000000
_cell_angle_gamma 90.000000
_cell_volume 3240.000000
_symmetry_space_group_name_H-M "C 2/M"
_symmetry_group_IT_number 12
_symmetry_cell_setting 'monoclinic'
loop_
_space_group_symop_operation_xyz
x,y,z
-x,y,-z
-x,-y,-z
x,-y,z
1/2+x,1/2+y,z
1/2-x,1/2+y,-z
1/2-x,1/2-y,-z
1/2+x,1/2-y,z
loop_
_atom_site_type_symbol
_atom_site_label
_atom_site_fract_x
_atom_site_fract_y
_atom_site_fract_z
Si Si1 0.182378 0.830592 0.749056
Si Si2 0.533448 0.830000 0.810858
Si Si3 0.557662 0.831730 0.085219
Si Si4 0.430327 0.676921 0.068449
Si Si5 0.018226 0.676779 0.565510
Si Si6 0.639022 0.671847 0.475732
Si Si7 0.871067 0.826598 0.630647
Si Si8 0.280694 0.167230 0.133870
O O1 0.311376 0.828128 0.828771
O O2 0.121486 0.750402 0.664697
O O3 0.168969 0.758107 0.789246
O O4 0.136239 0.000000 0.719621
O O5 0.567031 0.757056 0.881572
O O6 0.446031 0.728448 0.723535
O O7 0.639035 0.833381 0.852580
O O8 0.490288 0.000000 0.788756
O O9 0.537064 0.727073 0.113804
O O10 0.514972 0.000000 0.064476
O O11 0.500000 0.769260 0.000000
O O12 0.426738 0.500000 0.073873
O O13 0.331122 0.732765 0.966574
O O14 0.033032 0.500000 0.577670
O O15 0.000000 0.724646 0.500000
O O16 0.911769 0.727399 0.520265
O O17 0.633475 0.500000 0.486412
O O18 0.764955 0.721510 0.558396
O O19 0.578250 0.693243 0.384855
O O20 0.841604 0.000000 0.617861
O O21 0.260057 0.000000 0.137130
#
# Coordination Sequence:
#
# PCOD8116515 Si02
#       8
#     8   8   8   8   8   8   8   8
#     4  11  23  39  65  93 118 156 203 251 302 359
#     4  11  23  38  57  84 121 161 200 245 300 359
#     4  10  21  40  62  87 120 158 200 248 301 359
#     4  11  23  38  59  87 119 158 201 250 303 355
#     4  11  25  43  62  87 123 163 201 249 305 359
#     4  10  21  39  65  92 119 155 198 245 299 358
#     4  10  21  38  61  90 121 155 197 245 299 359
#     4  10  22  39  60  87 120 158 200 246 299 360
#
# _framework density 9.8765429999999999
#
# number of rings (size 3 to 8) (size 9 to 14) (size 15 to 20)
#    0.000    1.500    1.250    3.375    0.000    8.250 
#    0.000    2.500    0.000    0.000    0.000    0.000 
#    0.000    0.000    0.000    0.000    0.000    0.000 
#
# Total GULP energy -396487.571223 kJ/mol
# GULP energy per Si atom -12390.236601 kJ/mol
# Density = 0.985406 g / cm^3
# Si number density = 9.876543 Si / 1000 Ang^3
#
#
#
# Elastic Constant Matrix: (Units=GPa)
#
#
# Indices 1 2 3 4 5 6 
#
# 1 119.4822 45.1788 46.0241 0.0000 -36.3876 0.0000
# 2 45.1788 118.2700 43.4748 0.0002 -22.8223 -0.0005
# 3 46.0241 43.4748 111.2522 -0.0006 -42.2375 -0.0001
# 4 0.0000 0.0002 -0.0006 39.0553 -0.0001 -8.7885
# 5 -36.3876 -22.8223 -42.2375 -0.0001 44.2095 0.0000
# 6 0.0000 -0.0005 -0.0001 -8.7885 0.0000 38.1152
#
#
#
# Elastic Compliance Matrix: (Units=1/GPa)
#
#
# Indices 1 2 3 4 5 6 
#
# 1 0.012126 -0.002787 -0.001074 0.000000 0.007516 0.000000
# 2 -0.002787 0.010654 -0.002814 0.000000 0.000518 0.000000
# 3 -0.001074 -0.002814 0.015135 0.000000 0.012124 0.000000
# 4 0.000000 0.000000 0.000000 0.027006 0.000000 0.006227
# 5 0.007516 0.000518 0.012124 0.000000 0.040656 0.000000
# 6 0.000000 0.000000 0.000000 0.006227 0.000000 0.027672
#
#
# Mechanical properties :
#
#
# Convention : Reuss Voigt Hill
#
# Bulk Modulus (GPa) = 40.70722 68.70663 54.70693
# Shear Modulus (GPa) = 32.30252 38.56446 35.43349
#
# Velocity S-wave (km/s) = 4.04829 4.42331 4.23995
# Velocity P-wave (km/s) = 6.51953 7.80678 7.19201
#
# Compressibility (1/GPa) = 0.02456567
#
# Stress axis : x y z
#
# Youngs Moduli (GPa) = 82.46894 93.86058 66.07111
#
# Poissons Ratio (x) = 0.26159 0.07095
# Poissons Ratio (y) = 0.22984 0.18591
# Poissons Ratio (z) = 0.08856 0.26411
#
# Static dielectric constant tensor:
#      x y z
#    x 3.772510 0.000000 -0.312070 
#    y 0.000000 3.933850 0.000000 
#    z -0.312070 0.000000 3.904250 
# 
# 
# High freq. dielectric constant tensor:
#      x y z
#    x 1.784350 0.000000 -0.018460 
#    y 0.000000 1.788950 0.000000 
#    z -0.018460 0.000000 1.788730 
# 
# From -- ./inp_files/382528.got.cif
#   From: 2010.06.25/outbox.ucp.g09.slc.cvg/sg12_192_cif.got.tgz:382528.got - 2010.06.28 13:50:54.
