data_PCOD8116470
_publ_section_title
;
Structure prediction by ZEFSAII (Michael W. Deem and Ramdas Pophale) SiO2 
 PCOD8116470
Probable space group: C 2/M
;
_chemical_formula_sum "Si O2"
_cell_formula_units_Z 28
_cell_length_a 18.000000
_cell_length_b 9.000000
_cell_length_c 30.000000
_cell_angle_alpha 90.000000
_cell_angle_beta 40.000000
_cell_angle_gamma 90.000000
_cell_volume 3123.947783
_symmetry_space_group_name_H-M "C 2/M"
_symmetry_group_IT_number 12
_symmetry_cell_setting 'monoclinic'
loop_
_space_group_symop_operation_xyz
x,y,z
-x,y,-z
-x,-y,-z
x,-y,z
1/2+x,1/2+y,z
1/2-x,1/2+y,-z
1/2-x,1/2-y,-z
1/2+x,1/2-y,z
loop_
_atom_site_type_symbol
_atom_site_label
_atom_site_fract_x
_atom_site_fract_y
_atom_site_fract_z
Si Si1 0.741783 0.828923 0.275484
Si Si2 0.661447 0.824532 0.140370
Si Si3 0.986330 0.325052 0.141456
Si Si4 0.555513 0.825931 0.285431
Si Si5 0.466603 0.826186 0.567054
Si Si6 0.123662 0.178923 0.567477
Si Si7 0.591339 0.824704 0.996820
O O1 0.861221 0.740028 0.213385
O O2 0.660613 0.793448 0.270643
O O3 0.667408 0.791316 0.355481
O O4 0.778246 0.000000 0.259812
O O5 0.577008 0.780793 0.138413
O O6 0.599608 0.772770 0.215663
O O7 0.683246 0.000000 0.132620
O O8 0.786003 0.749938 0.072854
O O9 0.968039 0.500000 0.147319
O O10 0.037864 0.269713 0.069489
O O11 0.440658 0.740030 0.357478
O O12 0.523494 0.000000 0.298882
O O13 0.500000 0.791038 0.500000
O O14 0.548481 0.723282 0.559119
O O15 0.491280 0.000000 0.565972
O O16 0.250000 0.250000 0.500000
O O17 0.134206 0.000000 0.566415
O O18 0.613863 0.000000 0.988701
O O19 0.500000 0.783686 0.000000
#
# Coordination Sequence:
#
# PCOD8116470 Si02
#       7
#     8   8   8   8   8   8   8
#     4   9  18  33  54  77 101 135 176 215 259 315
#     4  10  21  36  55  79 106 137 174 220 268 312
#     4  10  21  35  51  76 109 139 171 217 267 313
#     4   9  19  37  56  76 104 137 178 224 269 320
#     4   9  19  37  58  81 112 145 180 226 275 325
#     4  11  22  36  56  81 110 145 185 227 273 326
#     4  10  21  36  54  77 106 140 176 214 260 317
#
# _framework density 8.9630179999999999
#
# number of rings (size 3 to 8) (size 9 to 14) (size 15 to 20)
#    0.000    2.286    0.000    3.429    0.000    5.714 
#    0.000    2.857    0.000    0.000    0.000    0.000 
#    0.000    0.000    0.000    0.000    0.000    0.000 
#
# Total GULP energy -346891.630356 kJ/mol
# GULP energy per Si atom -12388.986798 kJ/mol
# Density = 0.894262 g / cm^3
# Si number density = 8.963018 Si / 1000 Ang^3
#
#
#
# Elastic Constant Matrix: (Units=GPa)
#
#
# Indices 1 2 3 4 5 6 
#
# 1 113.6895 35.0176 83.7365 -0.0002 5.7291 -0.0008
# 2 35.0176 83.2272 59.7165 -0.0007 -8.3811 -0.0020
# 3 83.7365 59.7165 243.0031 0.0000 5.4709 -0.0001
# 4 -0.0002 -0.0007 0.0000 46.5544 0.0000 -5.8872
# 5 5.7291 -8.3811 5.4709 0.0000 51.1416 -0.0002
# 6 -0.0008 -0.0020 -0.0001 -5.8872 -0.0002 27.4313
#
#
#
# Elastic Compliance Matrix: (Units=1/GPa)
#
#
# Indices 1 2 3 4 5 6 
#
# 1 0.012331 -0.002805 -0.003527 0.000000 -0.001464 0.000000
# 2 -0.002805 0.015631 -0.002946 0.000000 0.003191 0.000001
# 3 -0.003527 -0.002946 0.006071 0.000000 -0.000737 0.000000
# 4 0.000000 0.000000 0.000000 0.022079 0.000000 0.004739
# 5 -0.001464 0.003191 -0.000737 0.000000 0.020319 0.000000
# 6 0.000000 0.000001 0.000000 0.004739 0.000000 0.037472
#
#
# Mechanical properties :
#
#
# Convention : Reuss Voigt Hill
#
# Bulk Modulus (GPa) = 64.61420 88.54010 76.57715
# Shear Modulus (GPa) = 36.33191 42.45543 39.39367
#
# Velocity S-wave (km/s) = 4.50685 4.87187 4.69291
# Velocity P-wave (km/s) = 7.95018 9.00810 8.49562
#
# Compressibility (1/GPa) = 0.01547647
#
# Stress axis : x y z
#
# Youngs Moduli (GPa) = 81.09364 63.97539 164.71209
#
# Poissons Ratio (x) = 0.17946 0.58094
# Poissons Ratio (y) = 0.22748 0.48531
# Poissons Ratio (z) = 0.28602 0.18850
#
# Static dielectric constant tensor:
#      x y z
#    x 3.481640 0.000000 0.188190 
#    y 0.000000 3.369490 0.000000 
#    z 0.188190 0.000000 4.149110 
# 
# 
# High freq. dielectric constant tensor:
#      x y z
#    x 1.700390 0.000000 0.005860 
#    y 0.000000 1.695580 0.000000 
#    z 0.005860 0.000000 1.753550 
# 
# From -- ./inp_files/313756.got.cif
#   From: 2010.06.25/outbox.ucp.g09.slc.cvg/sg12_157_cif.got.tgz:313756.got - 2010.06.28 13:50:54.
