data_PCOD8116896
_publ_section_title
;
Structure prediction by ZEFSAII (Michael W. Deem and Ramdas Pophale) SiO2 
 PCOD8116896
Probable space group: P 2/C
;
_chemical_formula_sum "Si O2"
_cell_formula_units_Z 26
_cell_length_a 8.482100
_cell_length_b 8.466813
_cell_length_c 26.395065
_cell_angle_alpha 90.000000
_cell_angle_beta 134.583229
_cell_angle_gamma 90.000000
_cell_volume 1350.104221
_symmetry_space_group_name_H-M "P 2/C"
_symmetry_group_IT_number 13
_symmetry_cell_setting 'monoclinic'
loop_
_space_group_symop_operation_xyz
x,y,z
-x,y,1/2-z
-x,-y,-z
x,-y,1/2+z
loop_
_atom_site_type_symbol
_atom_site_label
_atom_site_fract_x
_atom_site_fract_y
_atom_site_fract_z
Si Si1 0.230050 0.098986 0.821338
Si Si2 0.709945 0.660570 0.084881
Si Si3 0.825162 0.540320 0.900325
Si Si4 0.856844 0.454805 0.297573
Si Si5 0.505150 0.708021 0.193963
Si Si6 0.312150 0.550743 0.526363
Si Si7 0.000000 0.202821 0.250000
O O1 0.274996 0.164388 0.888054
O O2 0.424454 0.149982 0.826915
O O3 0.000000 0.177424 0.750000
O O4 0.202436 0.908502 0.815757
O O5 0.514190 0.570659 0.069752
O O6 0.931952 0.563393 0.144233
O O7 0.663166 0.677371 0.013872
O O8 0.770718 0.614092 0.832642
O O9 0.735279 0.357705 0.877480
O O10 0.700307 0.627760 0.919715
O O11 0.086700 0.548321 0.968796
O O12 0.671359 0.558133 0.227810
O O13 0.915193 0.306037 0.276930
O O14 0.500000 0.775394 0.250000
#
# Coordination Sequence:
#
# PCOD8116896 Si02
#       7
#     4   4   4   4   4   4   2
#     4  10  19  33  51  77 105 137 172 219 262 313
#     4  10  17  31  57  78 105 129 183 224 254 305
#     4   9  18  30  49  81 109 124 168 220 272 312
#     4  10  18  32  52  79 104 135 171 224 266 306
#     4  10  18  31  55  81 103 131 169 228 275 306
#     4   9  18  29  50  86  99 135 170 228 263 298
#     4  10  22  32  52  78 110 142 176 208 268 320
#
# _framework density 19.257773
#
# number of rings (size 3 to 8) (size 9 to 14) (size 15 to 20)
#    0.462    1.846    3.077    0.923    0.000    0.000 
#    0.000    2.308    0.000    9.231    0.000    0.000 
#    0.000    0.000    0.000    0.000    0.000    0.000 
#
# Total GULP energy -322091.704062 kJ/mol
# GULP energy per Si atom -12388.142464 kJ/mol
# Density = 1.921394 g / cm^3
# Si number density = 19.257773 Si / 1000 Ang^3
#
#
#
# Elastic Constant Matrix: (Units=GPa)
#
#
# Indices 1 2 3 4 5 6 
#
# 1 113.2949 32.3883 21.1498 0.0000 -31.8556 0.0000
# 2 32.3883 72.5418 11.4698 0.0000 -21.4781 0.0000
# 3 21.1498 11.4698 43.5954 0.0000 -12.1753 0.0000
# 4 0.0000 0.0000 0.0000 8.8063 0.0000 0.0375
# 5 -31.8556 -21.4781 -12.1753 0.0000 51.6769 0.0000
# 6 0.0000 0.0000 0.0000 0.0375 0.0000 22.6011
#
#
#
# Elastic Compliance Matrix: (Units=1/GPa)
#
#
# Indices 1 2 3 4 5 6 
#
# 1 0.011839 -0.003215 -0.003460 0.000000 0.005146 0.000000
# 2 -0.003215 0.016846 -0.001574 0.000000 0.004649 0.000000
# 3 -0.003460 -0.001574 0.025961 0.000000 0.003329 0.000000
# 4 0.000000 0.000000 0.000000 0.113556 0.000000 -0.000188
# 5 0.005146 0.004649 0.003329 0.000000 0.025240 0.000000
# 6 0.000000 0.000000 0.000000 -0.000188 0.000000 0.044246
#
#
# Mechanical properties :
#
#
# Convention : Reuss Voigt Hill
#
# Bulk Modulus (GPa) = 26.21445 39.93863 33.07654
# Shear Modulus (GPa) = 18.73354 27.57847 23.15601
#
# Velocity S-wave (km/s) = 3.12232 3.78838 3.47136
# Velocity P-wave (km/s) = 5.16144 6.31820 5.76889
#
# Compressibility (1/GPa) = 0.03814689
#
# Stress axis : x y z
#
# Youngs Moduli (GPa) = 84.46999 59.36185 38.51957
#
# Poissons Ratio (x) = 0.19084 0.13329
# Poissons Ratio (y) = 0.27155 0.06063
# Poissons Ratio (z) = 0.29229 0.09344
#
# Static dielectric constant tensor:
#      x y z
#    x 3.979080 0.000000 -0.225520 
#    y 0.000000 2.835490 0.000000 
#    z -0.225520 0.000000 3.774780 
# 
# 
# High freq. dielectric constant tensor:
#      x y z
#    x 1.778880 0.000000 -0.010100 
#    y 0.000000 1.670310 0.000000 
#    z -0.010100 0.000000 1.756590 
# 
# From -- ./inp_files/90985.got.cif
#   From: 2010.06.25/outbox.cif.g09.slc.cpg/sg13_46_cif.got.tgz:90985.got - 2010.06.28 04:50:58.
