data_PCOD8116460
_publ_section_title
;
Structure prediction by ZEFSAII (Michael W. Deem and Ramdas Pophale) SiO2 
 PCOD8116460
Probable space group: C 2/M
;
_chemical_formula_sum "Si O2"
_cell_formula_units_Z 32
_cell_length_a 30.000000
_cell_length_b 9.000000
_cell_length_c 24.000000
_cell_angle_alpha 90.000000
_cell_angle_beta 30.000000
_cell_angle_gamma 90.000000
_cell_volume 3240.000000
_symmetry_space_group_name_H-M "C 2/M"
_symmetry_group_IT_number 12
_symmetry_cell_setting 'monoclinic'
loop_
_space_group_symop_operation_xyz
x,y,z
-x,y,-z
-x,-y,-z
x,-y,z
1/2+x,1/2+y,z
1/2-x,1/2+y,-z
1/2-x,1/2-y,-z
1/2+x,1/2-y,z
loop_
_atom_site_type_symbol
_atom_site_label
_atom_site_fract_x
_atom_site_fract_y
_atom_site_fract_z
Si Si1 0.156753 0.325983 0.610240
Si Si2 0.010674 0.322167 0.284074
Si Si3 0.672049 0.679908 0.046192
Si Si4 0.873680 0.321460 0.624439
Si Si5 0.879150 0.671617 0.009164
Si Si6 0.531293 0.319581 0.383210
Si Si7 0.698237 0.171262 0.784529
Si Si8 0.922705 0.324277 0.187599
O O1 0.171743 0.500000 0.595213
O O2 0.250000 0.250000 0.500000
O O3 0.086345 0.286240 0.637326
O O4 0.127633 0.269657 0.702708
O O5 0.025902 0.500000 0.272740
O O6 0.079664 0.247728 0.167306
O O7 0.026006 0.242473 0.326465
O O8 0.675497 0.500000 0.046067
O O9 0.750000 0.750000 0.000000
O O10 0.676678 0.732712 0.976290
O O11 0.884452 0.500000 0.616444
O O12 0.881910 0.246046 0.677531
O O13 0.783102 0.279198 0.690794
O O14 0.948134 0.247286 0.505599
O O15 0.881789 0.500000 0.985712
O O16 0.835714 0.684972 0.116276
O O17 0.977630 0.739318 0.912966
O O18 0.532956 0.500000 0.381350
O O19 0.627184 0.230239 0.815067
O O20 0.724283 0.000000 0.742799
O O21 0.930621 0.500000 0.175443
#
# Coordination Sequence:
#
# PCOD8116460 Si02
#       8
#     8   8   8   8   8   8   8   8
#     4  10  22  39  62  91 128 165 207 256 310 374
#     4  11  23  43  67  95 128 165 207 259 319 376
#     4  12  26  43  65  93 126 167 212 261 315 377
#     4  11  23  41  61  88 126 164 203 254 311 364
#     4  10  20  40  65  90 123 160 205 258 313 371
#     4  11  23  41  65  90 121 160 207 254 307 371
#     4  10  21  36  63  94 121 157 208 257 306 369
#     4   9  18  38  63  90 120 160 203 255 311 365
#
# _framework density 9.8765429999999999
#
# number of rings (size 3 to 8) (size 9 to 14) (size 15 to 20)
#    0.000    1.500    1.250    4.875    3.500    3.000 
#    0.000    0.625    0.000    1.500    0.000    0.000 
#    0.000    0.000    0.000    0.000    0.000    0.000 
#
# Total GULP energy -396621.326952 kJ/mol
# GULP energy per Si atom -12394.416467 kJ/mol
# Density = 0.985406 g / cm^3
# Si number density = 9.876543 Si / 1000 Ang^3
#
#
#
# Elastic Constant Matrix: (Units=GPa)
#
#
# Indices 1 2 3 4 5 6 
#
# 1 169.5067 47.4377 22.0814 0.0049 -3.9381 -0.0011
# 2 47.4377 135.8098 23.2885 0.0201 -3.8993 -0.0078
# 3 22.0814 23.2885 52.4720 0.0076 -8.7958 -0.0066
# 4 0.0049 0.0201 0.0076 30.8628 -0.0033 0.7255
# 5 -3.9381 -3.8993 -8.7958 -0.0033 43.0576 -0.0001
# 6 -0.0011 -0.0078 -0.0066 0.7255 -0.0001 41.0369
#
#
#
# Elastic Compliance Matrix: (Units=1/GPa)
#
#
# Indices 1 2 3 4 5 6 
#
# 1 0.006715 -0.002014 -0.001925 0.000001 0.000038 -0.000001
# 2 -0.002014 0.008574 -0.002960 -0.000005 -0.000012 0.000001
# 3 -0.001925 -0.002960 0.021856 -0.000003 0.004021 0.000003
# 4 0.000001 -0.000005 -0.000003 0.032415 0.000002 -0.000573
# 5 0.000038 -0.000012 0.004021 0.000002 0.024048 0.000001
# 6 -0.000001 0.000001 0.000003 -0.000573 0.000001 0.024378
#
#
# Mechanical properties :
#
#
# Convention : Reuss Voigt Hill
#
# Bulk Modulus (GPa) = 42.83448 60.37821 51.60634
# Shear Modulus (GPa) = 35.82510 40.65686 38.24098
#
# Velocity S-wave (km/s) = 4.26331 4.54172 4.40472
# Velocity P-wave (km/s) = 6.77986 7.62468 7.21465
#
# Compressibility (1/GPa) = 0.02334568
#
# Stress axis : x y z
#
# Youngs Moduli (GPa) = 148.92320 116.63193 45.75482
#
# Poissons Ratio (x) = 0.23492 0.08809
# Poissons Ratio (y) = 0.29996 0.13543
# Poissons Ratio (z) = 0.28673 0.34521
#
# Static dielectric constant tensor:
#      x y z
#    x 4.358230 -0.000010 -0.003580 
#    y -0.000010 3.730380 0.000000 
#    z -0.003580 0.000000 3.509960 
# 
# 
# High freq. dielectric constant tensor:
#      x y z
#    x 1.812940 0.000000 -0.001690 
#    y 0.000000 1.769370 0.000000 
#    z -0.001690 0.000000 1.769770 
# 
# From -- ./inp_files/353421.got.cif
#   From: 2010.06.25/outbox.ucp.g09.slc.cvg/sg12_177_cif.got.tgz:353421.got - 2010.06.28 13:50:54.
