data_PCOD8116742
_publ_section_title
;
Structure prediction by ZEFSAII (Michael W. Deem and Ramdas Pophale) SiO2 
 PCOD8116742
Probable space group: P 2/C
;
_chemical_formula_sum "Si O2"
_cell_formula_units_Z 30
_cell_length_a 19.561122
_cell_length_b 13.452167
_cell_length_c 5.386235
_cell_angle_alpha 90.000000
_cell_angle_beta 89.114504
_cell_angle_gamma 90.000000
_cell_volume 1417.161814
_symmetry_space_group_name_H-M "P 2/C"
_symmetry_group_IT_number 13
_symmetry_cell_setting 'monoclinic'
loop_
_space_group_symop_operation_xyz
x,y,z
-x,y,1/2-z
-x,-y,-z
x,-y,1/2+z
loop_
_atom_site_type_symbol
_atom_site_label
_atom_site_fract_x
_atom_site_fract_y
_atom_site_fract_z
Si Si1 0.265393 0.473589 0.245722
Si Si2 0.000000 0.561003 0.250000
Si Si3 0.604543 0.043703 0.377547
Si Si4 0.148018 0.643320 0.238238
Si Si5 0.237864 0.046666 0.185875
Si Si6 0.458564 0.242623 0.998217
Si Si7 0.577203 0.539755 0.019712
Si Si8 0.199443 0.273018 0.244771
O O1 0.305982 0.514460 0.483666
O O2 0.194889 0.541671 0.216701
O O3 0.257239 0.356393 0.278602
O O4 0.068215 0.624391 0.246494
O O5 0.000000 0.500000 0.500000
O O6 0.683345 0.014897 0.340635
O O7 0.597525 0.159412 0.439925
O O8 0.570148 0.981878 0.610575
O O9 0.160847 0.702875 0.491508
O O10 0.155756 0.716130 0.999814
O O11 0.230999 0.164154 0.223765
O O12 0.204000 0.990776 0.427360
O O13 0.500000 0.260745 0.250000
O O14 0.419818 0.343163 0.928361
O O15 0.500000 0.209216 0.750000
O O16 0.613351 0.514759 0.753789
O O17 0.500000 0.500000 0.000000
#
# Coordination Sequence:
#
# PCOD8116742 Si02
#       8
#     4   2   4   4   4   4   4   4
#     4   8  14  25  41  67  99 131 159 192 247 298
#     4  12  20  30  48  78 126 160 186 206 252 326
#     4  10  23  40  54  77 111 136 166 224 283 331
#     4  10  19  30  48  81 112 146 172 209 258 314
#     4  10  21  39  60  78  98 132 179 235 286 319
#     4  12  21  32  56  82 105 146 179 206 261 325
#     4  10  16  30  48  73  99 131 174 208 236 267
#     4  10  18  32  53  75  99 134 183 223 261 310
#
# _framework density 21.169072
#
# number of rings (size 3 to 8) (size 9 to 14) (size 15 to 20)
#    0.000    1.867    2.667    4.800    0.000    1.600 
#    0.000    0.000    0.000    4.800    0.000    9.333 
#    0.000    0.000    0.000    0.000    0.000    0.000 
#
# Total GULP energy -371730.057327 kJ/mol
# GULP energy per Si atom -12391.001911 kJ/mol
# Density = 2.112089 g / cm^3
# Si number density = 21.169072 Si / 1000 Ang^3
#
#
#
# Elastic Constant Matrix: (Units=GPa)
#
#
# Indices 1 2 3 4 5 6 
#
# 1 46.8137 7.8788 35.1159 0.0000 -8.8485 0.0000
# 2 7.8788 137.6758 59.8316 0.0000 -5.4642 0.0000
# 3 35.1159 59.8316 233.8784 0.0000 -8.7041 0.0000
# 4 0.0000 0.0000 0.0000 39.5555 0.0000 -3.8789
# 5 -8.8485 -5.4642 -8.7041 0.0000 20.8630 0.0000
# 6 0.0000 0.0000 0.0000 -3.8789 0.0000 22.5137
#
#
#
# Elastic Compliance Matrix: (Units=1/GPa)
#
#
# Indices 1 2 3 4 5 6 
#
# 1 0.025821 0.000486 -0.003645 0.000000 0.009558 0.000000
# 2 0.000486 0.008215 -0.002120 0.000000 0.001473 0.000000
# 3 -0.003645 -0.002120 0.005371 0.000000 0.000139 0.000000
# 4 0.000000 0.000000 0.000000 0.025715 0.000000 0.004430
# 5 0.009558 0.001473 0.000139 0.000000 0.052429 0.000000
# 6 0.000000 0.000000 0.000000 0.004430 0.000000 0.045181
#
#
# Mechanical properties :
#
#
# Convention : Reuss Voigt Hill
#
# Bulk Modulus (GPa) = 34.66473 69.33562 52.00017
# Shear Modulus (GPa) = 27.33638 37.62254 32.47946
#
# Velocity S-wave (km/s) = 3.59741 4.22031 3.92125
# Velocity P-wave (km/s) = 5.80223 7.52146 6.71708
#
# Compressibility (1/GPa) = 0.02884777
#
# Stress axis : x y z
#
# Youngs Moduli (GPa) = 38.72888 121.72346 186.20036
#
# Poissons Ratio (x) = -0.05915 0.67879
# Poissons Ratio (y) = -0.01882 0.39471
# Poissons Ratio (z) = 0.14118 0.25803
#
# Static dielectric constant tensor:
#      x y z
#    x 2.547120 0.000000 -0.544170 
#    y 0.000000 3.632400 0.000000 
#    z -0.544170 0.000000 5.193780 
# 
# 
# High freq. dielectric constant tensor:
#      x y z
#    x 1.801160 0.000000 -0.007610 
#    y 0.000000 1.813190 0.000000 
#    z -0.007610 0.000000 1.888910 
# 
# From -- ./inp_files/6910.got.cif
#   From: 2010.06.25/outbox.cif.g09.slc.cpg/sg13_4_cif.got.tgz:6910.got - 2010.06.28 04:50:58.
