data_PCOD8116887
_publ_section_title
;
Structure prediction by ZEFSAII (Michael W. Deem and Ramdas Pophale) SiO2 
 PCOD8116887
Probable space group: P 2/C
;
_chemical_formula_sum "Si O2"
_cell_formula_units_Z 32
_cell_length_a 26.917932
_cell_length_b 12.580510
_cell_length_c 13.085062
_cell_angle_alpha 90.000000
_cell_angle_beta 21.373058
_cell_angle_gamma 90.000000
_cell_volume 1614.880888
_symmetry_space_group_name_H-M "P 2/C"
_symmetry_group_IT_number 13
_symmetry_cell_setting 'monoclinic'
loop_
_space_group_symop_operation_xyz
x,y,z
-x,y,1/2-z
-x,-y,-z
x,-y,1/2+z
loop_
_atom_site_type_symbol
_atom_site_label
_atom_site_fract_x
_atom_site_fract_y
_atom_site_fract_z
Si Si1 0.530740 0.484773 0.302268
Si Si2 0.634204 0.713706 0.144021
Si Si3 0.209960 0.384074 0.604216
Si Si4 0.352224 0.192628 0.252773
Si Si5 0.859287 0.294419 0.561134
Si Si6 0.245142 0.581343 0.424571
Si Si7 0.339296 0.887209 0.563075
Si Si8 0.352715 0.883510 0.978776
O O1 0.500000 0.439454 0.250000
O O2 0.582091 0.605558 0.191390
O O3 0.397043 0.471916 0.629790
O O4 0.645441 0.405430 0.120139
O O5 0.506668 0.771715 0.438996
O O6 0.744940 0.683869 0.019830
O O7 0.709965 0.789383 0.915468
O O8 0.240422 0.286549 0.470433
O O9 0.108761 0.348306 0.889718
O O10 0.153232 0.487340 0.651877
O O11 0.296248 0.124735 0.264030
O O12 0.357944 0.125965 0.346379
O O13 0.811781 0.388400 0.576158
O O14 0.745830 0.203912 0.783363
O O15 0.000000 0.244753 0.250000
O O16 0.285795 0.001046 0.627081
O O17 0.500000 0.884673 0.250000
O O18 0.500000 0.871580 0.750000
#
# Coordination Sequence:
#
# PCOD8116887 Si02
#       8
#     4   4   4   4   4   4   4   4
#     4  11  17  28  51  88 122 146 180 223 276 338
#     4  10  18  29  50  86 121 144 181 225 289 339
#     4  10  20  32  53  82 112 152 186 220 283 342
#     4  10  17  31  51  77 120 146 174 234 286 333
#     4  11  25  40  56  80 113 152 194 240 281 335
#     4  11  20  32  56  82 117 157 183 230 276 343
#     4   9  20  32  50  84 117 147 177 241 295 341
#     4  10  22  37  59  82 107 147 197 239 290 339
#
# _framework density 19.815704
#
# number of rings (size 3 to 8) (size 9 to 14) (size 15 to 20)
#    0.000    1.750    3.750    2.625    1.750    6.000 
#    0.000    0.000    0.000    6.750    0.000    0.875 
#    0.000    0.000    0.000    0.000    0.000    0.000 
#
# Total GULP energy -396680.108632 kJ/mol
# GULP energy per Si atom -12396.253395 kJ/mol
# Density = 1.977060 g / cm^3
# Si number density = 19.815704 Si / 1000 Ang^3
#
#
#
# Elastic Constant Matrix: (Units=GPa)
#
#
# Indices 1 2 3 4 5 6 
#
# 1 105.8168 52.4391 24.5284 0.0000 34.7840 0.0000
# 2 52.4391 118.8278 28.5063 0.0000 20.7161 0.0000
# 3 24.5284 28.5063 60.4904 0.0000 20.4268 0.0000
# 4 0.0000 0.0000 0.0000 8.6171 0.0000 9.3806
# 5 34.7840 20.7161 20.4268 0.0000 26.2398 0.0000
# 6 0.0000 0.0000 0.0000 9.3806 0.0000 21.8842
#
#
#
# Elastic Compliance Matrix: (Units=1/GPa)
#
#
# Indices 1 2 3 4 5 6 
#
# 1 0.018904 -0.004903 0.002442 0.000000 -0.023090 0.000000
# 2 -0.004903 0.011369 -0.003437 0.000000 0.000199 0.000000
# 3 0.002442 -0.003437 0.023521 0.000000 -0.018834 0.000000
# 4 0.000000 0.000000 0.000000 0.217578 0.000000 -0.093265
# 5 -0.023090 0.000199 -0.018834 0.000000 0.083223 0.000000
# 6 0.000000 0.000000 0.000000 -0.093265 0.000000 0.085673
#
#
# Mechanical properties :
#
#
# Convention : Reuss Voigt Hill
#
# Bulk Modulus (GPa) = 23.81009 55.12029 39.46519
# Shear Modulus (GPa) = 10.72818 23.32561 17.02689
#
# Velocity S-wave (km/s) = 2.32932 3.43465 2.93450
# Velocity P-wave (km/s) = 4.39046 6.60348 5.60723
#
# Compressibility (1/GPa) = 0.04199901
#
# Stress axis : x y z
#
# Youngs Moduli (GPa) = 52.89906 87.95883 42.51519
#
# Poissons Ratio (x) = 0.43125 -0.10383
# Poissons Ratio (y) = 0.25936 0.14612
# Poissons Ratio (z) = -0.12919 0.30230
#
# Static dielectric constant tensor:
#      x y z
#    x 3.810790 0.000000 0.412850 
#    y 0.000000 3.927560 0.000000 
#    z 0.412850 0.000000 3.280680 
# 
# 
# High freq. dielectric constant tensor:
#      x y z
#    x 1.781980 0.000000 0.033280 
#    y 0.000000 1.772210 0.000000 
#    z 0.033280 0.000000 1.725870 
# 
# From -- ./inp_files/59976.got.cif
#   From: 2010.06.25/outbox.cif.g09.slc.cpg/sg13_30_cif.got.tgz:59976.got - 2010.06.28 04:50:58.
