data_PCOD8116582
_publ_section_title
;
Structure prediction by ZEFSAII (Michael W. Deem and Ramdas Pophale) SiO2 
 PCOD8116582
Probable space group: C 2/M
;
_chemical_formula_sum "Si O2"
_cell_formula_units_Z 32
_cell_length_a 18.000000
_cell_length_b 9.000000
_cell_length_c 30.000000
_cell_angle_alpha 90.000000
_cell_angle_beta 40.000000
_cell_angle_gamma 90.000000
_cell_volume 3123.947783
_symmetry_space_group_name_H-M "C 2/M"
_symmetry_group_IT_number 12
_symmetry_cell_setting 'monoclinic'
loop_
_space_group_symop_operation_xyz
x,y,z
-x,y,-z
-x,-y,-z
x,-y,z
1/2+x,1/2+y,z
1/2-x,1/2+y,-z
1/2-x,1/2-y,-z
1/2+x,1/2-y,z
loop_
_atom_site_type_symbol
_atom_site_label
_atom_site_fract_x
_atom_site_fract_y
_atom_site_fract_z
Si Si1 0.520722 0.175646 0.201165
Si Si2 0.707283 0.822443 0.565365
Si Si3 0.296661 0.332222 0.285952
Si Si4 0.872632 0.822531 0.935071
Si Si5 0.761465 0.662387 0.216242
Si Si6 0.631876 0.830164 0.439651
Si Si7 0.974443 0.328741 0.061963
Si Si8 0.984535 0.832179 0.708278
O O1 0.385389 0.215374 0.266303
O O2 0.578848 0.258698 0.133274
O O3 0.567304 0.241587 0.225940
O O4 0.542118 0.000000 0.187965
O O5 0.750000 0.750000 0.500000
O O6 0.800232 0.782443 0.560121
O O7 0.583930 0.755488 0.636353
O O8 0.696783 0.000000 0.565175
O O9 0.345331 0.500000 0.266468
O O10 0.282322 0.294466 0.240957
O O11 0.177935 0.317103 0.367869
O O12 0.955530 0.776826 0.937192
O O13 0.862800 0.000000 0.936732
O O14 0.750000 0.750000 0.000000
O O15 0.800344 0.500000 0.217714
O O16 0.838117 0.690629 0.136387
O O17 0.625638 0.655660 0.272168
O O18 0.500000 0.778898 0.500000
O O19 0.644816 0.000000 0.451178
O O20 0.014692 0.500000 0.049171
O O21 0.000000 0.274886 0.000000
O O22 0.028215 0.000000 0.700818
#
# Coordination Sequence:
#
# PCOD8116582 Si02
#       8
#     8   8   8   8   8   8   8   8
#     4  12  24  42  67  96 129 169 216 267 320 380
#     4  12  26  44  66  93 129 172 215 267 323 385
#     4  11  22  39  66  95 128 167 210 267 321 375
#     4  12  26  44  67  97 130 170 216 268 323 381
#     4  10  23  41  64  94 130 169 211 262 318 378
#     4  10  23  43  66  95 129 167 213 266 322 381
#     4  10  22  42  66  94 130 170 211 261 318 379
#     4  11  24  43  66  97 132 171 216 265 322 382
#
# _framework density 10.243449
#
# number of rings (size 3 to 8) (size 9 to 14) (size 15 to 20)
#    0.000    1.000    2.500    4.125    3.500    2.000 
#    0.000    0.000    0.000    0.000    0.000    0.000 
#    0.000    0.000    0.000    0.000    0.000    0.000 
#
# Total GULP energy -396765.839422 kJ/mol
# GULP energy per Si atom -12398.932482 kJ/mol
# Density = 1.022013 g / cm^3
# Si number density = 10.243449 Si / 1000 Ang^3
#
#
#
# Elastic Constant Matrix: (Units=GPa)
#
#
# Indices 1 2 3 4 5 6 
#
# 1 57.8425 36.2545 38.3470 0.0001 3.9763 -0.0032
# 2 36.2545 163.7541 57.4611 0.0006 6.5887 -0.0034
# 3 38.3470 57.4611 143.6069 0.0001 5.6929 0.0000
# 4 0.0001 0.0006 0.0001 35.8177 0.0002 3.2793
# 5 3.9763 6.5887 5.6929 0.0002 43.7848 0.0001
# 6 -0.0032 -0.0034 0.0000 3.2793 0.0001 32.0880
#
#
#
# Elastic Compliance Matrix: (Units=1/GPa)
#
#
# Indices 1 2 3 4 5 6 
#
# 1 0.022512 -0.003315 -0.004647 0.000000 -0.000941 0.000002
# 2 -0.003315 0.007614 -0.002139 0.000000 -0.000567 0.000000
# 3 -0.004647 -0.002139 0.009078 0.000000 -0.000436 -0.000001
# 4 0.000000 0.000000 0.000000 0.028183 0.000000 -0.002880
# 5 -0.000941 -0.000567 -0.000436 0.000000 0.023066 0.000000
# 6 0.000002 0.000000 -0.000001 -0.002880 0.000000 0.031459
#
#
# Mechanical properties :
#
#
# Convention : Reuss Voigt Hill
#
# Bulk Modulus (GPa) = 52.63067 69.92540 61.27804
# Shear Modulus (GPa) = 33.68170 37.88082 35.78126
#
# Velocity S-wave (km/s) = 4.05910 4.30470 4.18370
# Velocity P-wave (km/s) = 6.90754 7.67549 7.30161
#
# Compressibility (1/GPa) = 0.01900033
#
# Stress axis : x y z
#
# Youngs Moduli (GPa) = 44.42047 131.33610 110.16194
#
# Poissons Ratio (x) = 0.43544 0.51197
# Poissons Ratio (y) = 0.14727 0.23562
# Poissons Ratio (z) = 0.20644 0.28090
#
# Static dielectric constant tensor:
#      x y z
#    x 3.636620 0.004090 0.008130 
#    y 0.004090 42.554830 -0.007510 
#    z 0.008130 -0.007510 4.061770 
# 
# 
# High freq. dielectric constant tensor:
#      x y z
#    x 1.787350 0.000000 0.002900 
#    y 0.000000 1.814810 0.000000 
#    z 0.002900 0.000000 1.825470 
# 
# From -- ./inp_files/378098.got.cif
#   From: 2010.06.25/outbox.ucp.g09.slc.cvg/sg12_190_cif.got.tgz:378098.got - 2010.06.28 13:50:54.
