data_PCOD8116696
_publ_section_title
;
Structure prediction by ZEFSAII (Michael W. Deem and Ramdas Pophale) SiO2 
 PCOD8116696
Probable space group: P 2/C
;
_chemical_formula_sum "Si O2"
_cell_formula_units_Z 20
_cell_length_a 22.841793
_cell_length_b 7.245929
_cell_length_c 5.346740
_cell_angle_alpha 90.000000
_cell_angle_beta 103.438081
_cell_angle_gamma 90.000000
_cell_volume 860.710810
_symmetry_space_group_name_H-M "P 2/C"
_symmetry_group_IT_number 13
_symmetry_cell_setting 'monoclinic'
loop_
_space_group_symop_operation_xyz
x,y,z
-x,y,1/2-z
-x,-y,-z
x,-y,1/2+z
loop_
_atom_site_type_symbol
_atom_site_label
_atom_site_fract_x
_atom_site_fract_y
_atom_site_fract_z
Si Si1 0.379336 0.787474 0.134368
Si Si2 0.879344 0.714284 0.631730
Si Si3 0.252928 0.380123 0.490655
Si Si4 0.429383 0.196273 0.184089
Si Si5 0.070763 0.696857 0.318728
O O1 0.408066 0.694168 0.413655
O O2 0.394282 0.003147 0.154056
O O3 0.307940 0.761877 0.060106
O O4 0.409774 0.694914 0.916913
O O5 0.807668 0.741119 0.557618
O O6 0.908658 0.806371 0.411635
O O7 0.895240 0.497887 0.650165
O O8 0.908050 0.806608 0.910577
O O9 0.255569 0.515904 0.729095
O O10 0.500000 0.159108 0.250000
O O11 0.000000 0.663506 0.250000
#
# Coordination Sequence:
#
# PCOD8116696 Si02
#       5
#     4   4   4   4   4
#     4  10  20  32  56  81  95 129 164 204 246 298
#     4  10  16  27  38  58  88 131 165 185 235 275
#     4  12  21  34  47  68 110 144 168 181 231 324
#     4  10  19  38  62  79  94 115 163 223 265 280
#     4  10  16  25  41  60  83 125 176 207 227 259
#
# _framework density 23.236609000000001
#
# number of rings (size 3 to 8) (size 9 to 14) (size 15 to 20)
#    0.000    1.600    4.000    7.200    0.000    0.000 
#    0.000    0.000    0.000   20.400    0.000    0.000 
#    0.000    0.000    0.000  122.400    0.000    0.000 
#
# Total GULP energy -247856.716432 kJ/mol
# GULP energy per Si atom -12392.835822 kJ/mol
# Density = 2.318372 g / cm^3
# Si number density = 23.236609 Si / 1000 Ang^3
#
#
#
# Elastic Constant Matrix: (Units=GPa)
#
#
# Indices 1 2 3 4 5 6 
#
# 1 211.7666 17.6823 74.6849 0.0000 14.6578 0.0000
# 2 17.6823 16.3952 -1.9629 0.0000 5.8233 0.0000
# 3 74.6849 -1.9629 261.4771 0.0000 -18.0886 0.0000
# 4 0.0000 0.0000 0.0000 -5.5261 0.0000 11.9044
# 5 14.6578 5.8233 -18.0886 0.0000 52.6976 0.0000
# 6 0.0000 0.0000 0.0000 11.9044 0.0000 38.2891
#
#
#
# Elastic Compliance Matrix: (Units=1/GPa)
#
#
# Indices 1 2 3 4 5 6 
#
# 1 0.006008 -0.006122 -0.001875 0.000000 -0.001638 0.000000
# 2 -0.006122 0.069724 0.001902 0.000000 -0.005349 0.000000
# 3 -0.001875 0.001902 0.004503 0.000000 0.001857 0.000000
# 4 0.000000 0.000000 0.000000 -0.108374 0.000000 0.033694
# 5 -0.001638 -0.005349 0.001857 0.000000 0.020660 0.000000
# 6 0.000000 0.000000 0.000000 0.033694 0.000000 0.015641
#
#
# Mechanical properties :
#
#
# Convention : Reuss Voigt Hill
#
# Bulk Modulus (GPa) = 14.69645 74.49416 44.59531
# Shear Modulus (GPa) = 116.18266 43.70776 79.94521
#
# Velocity S-wave (km/s) = 7.07873 4.34174 5.87193
# Velocity P-wave (km/s) = 8.55275 7.56722 8.07504
#
# Compressibility (1/GPa) = 0.06804363
#
# Stress axis : x y z
#
# Youngs Moduli (GPa) = 166.43891 14.34224 222.08200
#
# Poissons Ratio (x) = 0.08781 0.41649
# Poissons Ratio (y) = 1.01902 -0.42243
# Poissons Ratio (z) = 0.31214 -0.02728
#
# Static dielectric constant tensor:
#      x y z
#    x 4.514740 0.000000 -1.261760 
#    y 0.000000 3.175960 0.000000 
#    z -1.261760 0.000000 9.613380 
# 
# 
# High freq. dielectric constant tensor:
#      x y z
#    x 1.930320 0.000000 -0.009750 
#    y 0.000000 1.841330 0.000000 
#    z -0.009750 0.000000 1.969390 
# 
# From -- ./inp_files/5867.got.cif
#   From: 2010.06.25/outbox.cif.g09.slc.cpg/sg13_3_cif.got.tgz:5867.got - 2010.06.28 04:50:58.
