data_PCOD8116640
_publ_section_title
;
Structure prediction by ZEFSAII (Michael W. Deem and Ramdas Pophale) SiO2 
 PCOD8116640
Probable space group: P 2/C
;
_chemical_formula_sum "Si O2"
_cell_formula_units_Z 20
_cell_length_a 26.074459
_cell_length_b 7.724851
_cell_length_c 5.180977
_cell_angle_alpha 90.000000
_cell_angle_beta 72.708701
_cell_angle_gamma 90.000000
_cell_volume 996.396510
_symmetry_space_group_name_H-M "P 2/C"
_symmetry_group_IT_number 13
_symmetry_cell_setting 'monoclinic'
loop_
_space_group_symop_operation_xyz
x,y,z
-x,y,1/2-z
-x,-y,-z
x,-y,1/2+z
loop_
_atom_site_type_symbol
_atom_site_label
_atom_site_fract_x
_atom_site_fract_y
_atom_site_fract_z
Si Si1 0.349470 0.611790 0.003822
Si Si2 0.859940 0.894056 0.265239
Si Si3 0.743000 0.114385 0.860651
Si Si4 0.976696 0.197084 0.534842
Si Si5 0.562376 0.890083 0.651455
O O1 0.347217 0.460877 0.796366
O O2 0.405046 0.713077 0.882542
O O3 0.299181 0.735210 0.032145
O O4 0.802784 0.800639 0.296554
O O5 0.912295 0.780854 0.126399
O O6 0.862509 0.944734 0.562518
O O7 0.734839 0.032039 0.590752
O O8 0.000000 0.294044 0.750000
O O9 0.000000 0.000000 0.500000
O O10 0.000000 0.294054 0.250000
O O11 0.500000 0.839547 0.750000
O O12 0.578238 0.990009 0.368025
#
# Coordination Sequence:
#
# PCOD8116640 Si02
#       5
#     4   4   4   4   4
#     4  12  24  38  58  83 114 148 188 231 273 318
#     4  10  16  25  40  64  91 132 163 203 261 324
#     4  10  21  36  55  75 106 144 185 226 270 330
#     4  10  14  20  34  56  93 125 145 196 265 328
#     4  10  21  39  63  88 116 149 185 223 273 331
#
# _framework density 20.072327999999999
#
# number of rings (size 3 to 8) (size 9 to 14) (size 15 to 20)
#    0.000    1.600    4.000    3.600    0.000    0.800 
#    0.000    0.000    0.000    0.000    0.000    0.000 
#    0.000    4.800    0.000    0.000    0.000    0.000 
#
# Total GULP energy -247903.806216 kJ/mol
# GULP energy per Si atom -12395.190311 kJ/mol
# Density = 2.002664 g / cm^3
# Si number density = 20.072328 Si / 1000 Ang^3
#
#
#
# Elastic Constant Matrix: (Units=GPa)
#
#
# Indices 1 2 3 4 5 6 
#
# 1 77.7878 48.1218 89.2079 0.0000 -23.8199 0.0000
# 2 48.1218 41.8147 9.2731 0.0000 -8.7596 0.0000
# 3 89.2079 9.2731 83.0769 0.0000 18.1692 0.0000
# 4 0.0000 0.0000 0.0000 20.3359 0.0000 6.9849
# 5 -23.8199 -8.7596 18.1692 0.0000 40.2003 0.0000
# 6 0.0000 0.0000 0.0000 6.9849 0.0000 3.0236
#
#
#
# Elastic Compliance Matrix: (Units=1/GPa)
#
#
# Indices 1 2 3 4 5 6 
#
# 1 -0.011519 0.007745 0.014013 0.000000 -0.011471 0.000000
# 2 0.007745 0.021411 -0.014127 0.000000 0.015640 0.000000
# 3 0.014013 -0.014127 -0.002858 0.000000 0.006516 0.000000
# 4 0.000000 0.000000 0.000000 0.238107 0.000000 -0.550063
# 5 -0.011471 0.015640 0.006516 0.000000 0.018541 0.000000
# 6 0.000000 0.000000 0.000000 -0.550063 0.000000 1.601462
#
#
# Mechanical properties :
#
#
# Convention : Reuss Voigt Hill
#
# Bulk Modulus (GPa) = 44.85201 55.09833 49.97517
# Shear Modulus (GPa) = 2.69206 16.45040 9.57123
#
# Velocity S-wave (km/s) = 1.15935 2.86589 2.18603
# Velocity P-wave (km/s) = 4.91791 6.20166 5.59672
#
# Compressibility (1/GPa) = 0.02229555
#
# Stress axis : x y z
#
# Youngs Moduli (GPa) = -86.81638 46.70565 -349.88556
#
# Poissons Ratio (x) = -0.36176 4.90286
# Poissons Ratio (y) = 0.67243 -4.94299
# Poissons Ratio (z) = 1.21654 0.65983
#
# Static dielectric constant tensor:
#      x y z
#    x 4.187490 0.000000 0.383150 
#    y 0.000000 2.948980 0.000000 
#    z 0.383150 0.000000 5.231060 
# 
# 
# High freq. dielectric constant tensor:
#      x y z
#    x 1.809650 0.000000 0.002560 
#    y 0.000000 1.710760 0.000000 
#    z 0.002560 0.000000 1.817550 
# 
# From -- ./inp_files/7692.got.cif
#   From: 2010.06.25/outbox.cif.g09.slc.cpg/sg13_4_cif.got.tgz:7692.got - 2010.06.28 04:50:58.
