data_PCOD8116087
_publ_section_title
;
Structure prediction by ZEFSAII (Michael W. Deem and Ramdas Pophale) SiO2 
 PCOD8116087
Probable space group: C 2/M
;
_chemical_formula_sum "Si O2"
_cell_formula_units_Z 64
_cell_length_a 19.719854
_cell_length_b 9.344729
_cell_length_c 21.925578
_cell_angle_alpha 90.000000
_cell_angle_beta 89.860559
_cell_angle_gamma 90.000000
_cell_volume 4040.361009
_symmetry_space_group_name_H-M "C 2/M"
_symmetry_group_IT_number 12
_symmetry_cell_setting 'monoclinic'
loop_
_space_group_symop_operation_xyz
x,y,z
-x,y,-z
-x,-y,-z
x,-y,z
1/2+x,1/2+y,z
1/2-x,1/2+y,-z
1/2-x,1/2-y,-z
1/2+x,1/2-y,z
loop_
_atom_site_type_symbol
_atom_site_label
_atom_site_fract_x
_atom_site_fract_y
_atom_site_fract_z
Si Si1 0.134796 0.166527 0.041016
Si Si2 0.614319 0.838942 0.360380
Si Si3 0.622051 0.167590 0.222759
Si Si4 0.476741 0.666704 0.859636
Si Si5 0.268580 0.832385 0.874486
Si Si6 0.188032 0.338529 0.476350
Si Si7 0.432698 0.662991 0.538011
Si Si8 0.619937 0.331285 0.904269
O O1 0.198330 0.250242 0.069024
O O2 0.066144 0.194022 0.078926
O O3 0.154401 0.000000 0.040388
O O4 0.122831 0.227723 0.973287
O O5 0.631591 0.784109 0.292747
O O6 0.683194 0.838038 0.401848
O O7 0.559902 0.734159 0.394160
O O8 0.584149 0.000000 0.358188
O O9 0.556968 0.248561 0.196065
O O10 0.691481 0.209592 0.187482
O O11 0.607884 0.000000 0.216622
O O12 0.477228 0.500000 0.842100
O O13 0.553050 0.728105 0.869845
O O14 0.189197 0.788354 0.868490
O O15 0.274655 0.000000 0.888585
O O16 0.190504 0.500000 0.502069
O O17 0.250000 0.250000 0.500000
O O18 0.121564 0.254970 0.501035
O O19 0.500000 0.672488 0.500000
O O20 0.408133 0.500000 0.545857
O O21 0.610807 0.500000 0.908040
#
# Coordination Sequence:
#
# PCOD8116087 Si02
#       8
#     8   8   8   8   8   8   8   8
#     4   9  16  27  43  63  86 113 145 181 224 276
#     4   8  17  30  48  67  88 124 158 183 220 271
#     4   9  17  32  48  63  84 116 156 186 217 261
#     4   9  17  28  44  64  85 114 149 186 225 267
#     4   9  17  28  45  64  85 113 146 185 223 265
#     4   9  17  29  48  72  98 127 155 186 226 269
#     4   9  17  29  48  74 100 121 148 186 227 269
#     4   9  16  27  43  63  87 113 143 182 230 276
#
# _framework density 15.840168999999999
#
# number of rings (size 3 to 8) (size 9 to 14) (size 15 to 20)
#    0.750    2.375    0.000    1.125    0.000    3.000 
#    0.000    1.250    2.750    3.000    0.000    0.000 
#    0.000    0.000    0.000    0.000    0.000    0.000 
#
# Total GULP energy -396465.394158 kJ/mol
# GULP energy per Si atom -12389.543567 kJ/mol
# Density = 1.580412 g / cm^3
# Si number density = 15.840169 Si / 1000 Ang^3
#
#
#
# Elastic Constant Matrix: (Units=GPa)
#
#
# Indices 1 2 3 4 5 6 
#
# 1 114.8967 45.1514 44.3828 0.0000 4.6516 0.0000
# 2 45.1514 71.5239 37.8418 0.0000 -0.0536 0.0000
# 3 44.3828 37.8418 92.4249 0.0000 -0.4239 0.0000
# 4 0.0000 0.0000 0.0000 19.6605 0.0000 2.9070
# 5 4.6516 -0.0536 -0.4239 0.0000 16.4704 0.0000
# 6 0.0000 0.0000 0.0000 2.9070 0.0000 24.2830
#
#
#
# Elastic Compliance Matrix: (Units=1/GPa)
#
#
# Indices 1 2 3 4 5 6 
#
# 1 0.012627 -0.006072 -0.003594 0.000000 -0.003678 0.000000
# 2 -0.006072 0.020768 -0.005580 0.000000 0.001639 0.000000
# 3 -0.003594 -0.005580 0.014836 0.000000 0.001379 0.000000
# 4 0.000000 0.000000 0.000000 0.051780 0.000000 -0.006199
# 5 -0.003678 0.001639 0.001379 0.000000 0.061795 0.000000
# 6 0.000000 0.000000 0.000000 -0.006199 0.000000 0.041923
#
#
# Mechanical properties :
#
#
# Convention : Reuss Voigt Hill
#
# Bulk Modulus (GPa) = 56.37277 59.28859 57.83068
# Shear Modulus (GPa) = 20.82166 22.18073 21.50120
#
# Velocity S-wave (km/s) = 3.62952 3.74610 3.68827
# Velocity P-wave (km/s) = 7.29591 7.49810 7.39769
#
# Compressibility (1/GPa) = 0.01773906
#
# Stress axis : x y z
#
# Youngs Moduli (GPa) = 79.19518 48.15118 67.40191
#
# Poissons Ratio (x) = 0.29239 0.24226
# Poissons Ratio (y) = 0.48089 0.37608
# Poissons Ratio (z) = 0.28465 0.26867
#
# Static dielectric constant tensor:
#      x y z
#    x 2.992090 0.000000 0.004880 
#    y 0.000000 3.036380 0.000000 
#    z 0.004880 0.000000 2.917290 
# 
# 
# High freq. dielectric constant tensor:
#      x y z
#    x 1.598370 0.000000 -0.000310 
#    y 0.000000 1.603200 0.000000 
#    z -0.000310 0.000000 1.588470 
# 
# From -- ./inp_files/315086.got.cif
#   From: 2010.06.25/outbox.cif.g09.slc.cpg/sg12_158_cif.got.tgz:315086.got - 2010.06.28 00:19:55.
