data_PCOD8116291
_publ_section_title
;
Structure prediction by ZEFSAII (Michael W. Deem and Ramdas Pophale) SiO2 
 PCOD8116291
Probable space group: C 2/M
;
_chemical_formula_sum "Si O2"
_cell_formula_units_Z 32
_cell_length_a 18.000000
_cell_length_b 9.000000
_cell_length_c 30.000000
_cell_angle_alpha 90.000000
_cell_angle_beta 40.000000
_cell_angle_gamma 90.000000
_cell_volume 3123.947783
_symmetry_space_group_name_H-M "C 2/M"
_symmetry_group_IT_number 12
_symmetry_cell_setting 'monoclinic'
loop_
_space_group_symop_operation_xyz
x,y,z
-x,y,-z
-x,-y,-z
x,-y,z
1/2+x,1/2+y,z
1/2-x,1/2+y,-z
1/2-x,1/2-y,-z
1/2+x,1/2-y,z
loop_
_atom_site_type_symbol
_atom_site_label
_atom_site_fract_x
_atom_site_fract_y
_atom_site_fract_z
Si Si1 0.652032 0.664190 0.775606
Si Si2 0.251613 0.331008 0.862909
Si Si3 0.088455 0.665732 0.334881
Si Si4 0.652861 0.836419 0.689184
Si Si5 0.538819 0.669158 0.918636
Si Si6 0.914442 0.835181 0.577530
Si Si7 0.691660 0.166861 0.986228
Si Si8 0.979376 0.172168 0.713695
O O1 0.645381 0.500000 0.756298
O O2 0.777659 0.686339 0.739814
O O3 0.627421 0.791735 0.751607
O O4 0.558907 0.680406 0.856759
O O5 0.230765 0.500000 0.855670
O O6 0.141731 0.234391 0.900335
O O7 0.275824 0.330228 0.904839
O O8 0.366073 0.257291 0.789002
O O9 0.044585 0.500000 0.346686
O O10 0.068784 0.706957 0.394674
O O11 0.011815 0.775818 0.341025
O O12 0.786972 0.832145 0.616063
O O13 0.596460 0.719900 0.682622
O O14 0.600526 0.000000 0.705995
O O15 0.520499 0.500000 0.942121
O O16 0.423864 0.760366 0.979938
O O17 0.000000 0.789771 0.500000
O O18 0.940576 0.000000 0.585065
O O19 0.665750 0.000000 0.014074
O O20 0.750000 0.250000 0.000000
O O21 0.967726 0.000000 0.722390
#
# Coordination Sequence:
#
# PCOD8116291 Si02
#       8
#     8   8   8   8   8   8   8   8
#     4   9  19  35  55  81 113 147 183 229 283 339
#     4  10  23  41  60  81 111 151 193 237 289 348
#     4  10  19  35  58  87 118 149 189 236 279 333
#     4  10  21  35  56  86 117 149 189 235 282 334
#     4  11  22  38  61  86 113 147 190 237 290 349
#     4   9  19  38  62  87 118 156 194 232 279 339
#     4  11  25  43  59  82 114 151 194 243 295 350
#     4  11  22  37  58  84 117 154 190 237 293 343
#
# _framework density 10.243449
#
# number of rings (size 3 to 8) (size 9 to 14) (size 15 to 20)
#    0.000    1.875    1.250    2.250    1.750    5.250 
#    0.000    0.625    0.000    0.000    0.000    0.000 
#    0.000    0.000    0.000    0.000    0.000    0.000 
#
# Total GULP energy -396716.336576 kJ/mol
# GULP energy per Si atom -12397.385518 kJ/mol
# Density = 1.022013 g / cm^3
# Si number density = 10.243449 Si / 1000 Ang^3
#
#
#
# Elastic Constant Matrix: (Units=GPa)
#
#
# Indices 1 2 3 4 5 6 
#
# 1 77.1962 47.3793 27.1885 0.0008 -5.5468 0.0017
# 2 47.3793 86.9284 33.0725 -0.0002 -0.1362 0.0031
# 3 27.1885 33.0725 63.4006 -0.0002 3.9651 0.0001
# 4 0.0008 -0.0002 -0.0002 35.0812 0.0000 3.9433
# 5 -5.5468 -0.1362 3.9651 0.0000 -6.6203 0.0002
# 6 0.0017 0.0031 0.0001 3.9433 0.0002 38.3239
#
#
#
# Elastic Compliance Matrix: (Units=1/GPa)
#
#
# Indices 1 2 3 4 5 6 
#
# 1 0.018098 -0.009134 -0.001985 0.000000 -0.016164 0.000000
# 2 -0.009134 0.018818 -0.006124 0.000000 0.003598 -0.000001
# 3 -0.001985 -0.006124 0.018995 0.000000 0.013166 0.000000
# 4 0.000000 0.000000 0.000000 0.028839 0.000000 -0.002967
# 5 -0.016164 0.003598 0.013166 0.000000 -0.129696 0.000001
# 6 0.000000 -0.000001 0.000000 -0.002967 0.000001 0.026399
#
#
# Mechanical properties :
#
#
# Convention : Reuss Voigt Hill
#
# Bulk Modulus (GPa) = 46.67709 49.20064 47.93886
# Shear Modulus (GPa) = 216.63388 21.34928 118.99158
#
# Velocity S-wave (km/s) = 10.29428 3.23165 7.62941
# Velocity P-wave (km/s) = 12.81131 6.16381 10.05291
#
# Compressibility (1/GPa) = 0.02142379
#
# Stress axis : x y z
#
# Youngs Moduli (GPa) = 55.25539 53.14148 52.64456
#
# Poissons Ratio (x) = 0.48539 0.10452
# Poissons Ratio (y) = 0.50470 0.32240
# Poissons Ratio (z) = 0.10970 0.32545
#
# Static dielectric constant tensor:
#      x y z
#    x 3.462820 0.000000 -0.062480 
#    y 0.000000 3.576560 0.000000 
#    z -0.062480 0.000000 3.418650 
# 
# 
# High freq. dielectric constant tensor:
#      x y z
#    x 1.782090 0.000000 0.004840 
#    y 0.000000 1.798920 0.000000 
#    z 0.004840 0.000000 1.774580 
# 
# From -- ./inp_files/377987.got.cif
#   From: 2010.06.25/outbox.ucp.g09.slc.cvg/sg12_189_cif.got.tgz:377987.got - 2010.06.28 13:50:54.
