data_PCOD8116045
_publ_section_title
;
Structure prediction by ZEFSAII (Michael W. Deem and Ramdas Pophale) SiO2 
 PCOD8116045
Probable space group: C 2/M
;
_chemical_formula_sum "Si O2"
_cell_formula_units_Z 64
_cell_length_a 18.983752
_cell_length_b 9.310175
_cell_length_c 22.824934
_cell_angle_alpha 90.000000
_cell_angle_beta 68.907071
_cell_angle_gamma 90.000000
_cell_volume 3763.831032
_symmetry_space_group_name_H-M "C 2/M"
_symmetry_group_IT_number 12
_symmetry_cell_setting 'monoclinic'
loop_
_space_group_symop_operation_xyz
x,y,z
-x,y,-z
-x,-y,-z
x,-y,z
1/2+x,1/2+y,z
1/2-x,1/2+y,-z
1/2-x,1/2-y,-z
1/2+x,1/2-y,z
loop_
_atom_site_type_symbol
_atom_site_label
_atom_site_fract_x
_atom_site_fract_y
_atom_site_fract_z
Si Si1 0.209293 0.166244 0.631530
Si Si2 0.158427 0.166046 0.457765
Si Si3 0.272569 0.833538 0.734526
Si Si4 0.810596 0.830601 0.942705
Si Si5 0.073152 0.832175 0.596257
Si Si6 0.582421 0.332708 0.989503
Si Si7 0.228546 0.168726 0.876188
Si Si8 0.592392 0.665899 0.351105
O O1 0.262839 0.251396 0.571184
O O2 0.219627 0.214331 0.695946
O O3 0.123569 0.198990 0.638450
O O4 0.229140 0.000000 0.617458
O O5 0.111692 0.232191 0.526174
O O6 0.110516 0.189803 0.413643
O O7 0.177673 0.000000 0.462992
O O8 0.227835 0.798216 0.807339
O O9 0.351048 0.748891 0.708601
O O10 0.293081 0.000000 0.724628
O O11 0.800430 0.755743 0.882265
O O12 0.793287 0.000000 0.943642
O O13 0.750000 0.750000 0.000000
O O14 0.892280 0.805740 0.949985
O O15 0.990790 0.766477 0.633408
O O16 0.061461 0.000000 0.587794
O O17 0.575110 0.500000 0.978662
O O18 0.648604 0.274283 0.926397
O O19 0.500000 0.261035 0.000000
O O20 0.239661 0.000000 0.886623
O O21 0.597340 0.500000 0.331613
#
# Coordination Sequence:
#
# PCOD8116045 Si02
#       8
#     8   8   8   8   8   8   8   8
#     4   9  17  29  44  62  86 114 146 184 221 263
#     4   9  16  27  44  64  86 113 143 177 223 277
#     4   9  18  32  46  61  84 117 152 181 217 262
#     4   9  16  27  46  71  95 118 145 177 210 247
#     4   9  16  27  44  65  87 111 142 183 229 271
#     4   8  14  26  45  70  95 114 137 173 213 249
#     4   9  17  30  48  65  86 120 153 180 214 258
#     4   9  17  29  45  64  85 111 145 184 223 264
#
# _framework density 17.003951000000001
#
# number of rings (size 3 to 8) (size 9 to 14) (size 15 to 20)
#    0.000    3.125    0.000    1.875    0.000    2.000 
#    0.000    2.500    0.000   16.875    0.000    0.000 
#    0.000    0.000    0.000    0.000    0.000    0.000 
#
# Total GULP energy -396548.351687 kJ/mol
# GULP energy per Si atom -12392.135990 kJ/mol
# Density = 1.696525 g / cm^3
# Si number density = 17.003951 Si / 1000 Ang^3
#
#
#
# Elastic Constant Matrix: (Units=GPa)
#
#
# Indices 1 2 3 4 5 6 
#
# 1 121.8215 29.5788 48.0165 0.0000 0.4264 0.0000
# 2 29.5788 36.9845 24.2136 0.0000 1.9712 -0.0001
# 3 48.0165 24.2136 97.0627 0.0000 -0.1662 0.0000
# 4 0.0000 0.0000 0.0000 21.3742 0.0000 0.0450
# 5 0.4264 1.9712 -0.1662 0.0000 16.0150 0.0000
# 6 0.0000 -0.0001 0.0000 0.0450 0.0000 19.8061
#
#
#
# Elastic Compliance Matrix: (Units=1/GPa)
#
#
# Indices 1 2 3 4 5 6 
#
# 1 0.011360 -0.006491 -0.004000 0.000000 0.000455 0.000000
# 2 -0.006491 0.036291 -0.005850 0.000000 -0.004355 0.000000
# 3 -0.004000 -0.005850 0.013742 0.000000 0.000969 0.000000
# 4 0.000000 0.000000 0.000000 0.046786 0.000000 -0.000106
# 5 0.000455 -0.004355 0.000969 0.000000 0.062975 0.000000
# 6 0.000000 0.000000 0.000000 -0.000106 0.000000 0.050490
#
#
# Mechanical properties :
#
#
# Convention : Reuss Voigt Hill
#
# Bulk Modulus (GPa) = 34.82768 51.05406 42.94087
# Shear Modulus (GPa) = 18.94693 21.70972 20.32833
#
# Velocity S-wave (km/s) = 3.34168 3.57703 3.46136
# Velocity P-wave (km/s) = 5.95111 6.86660 6.42518
#
# Compressibility (1/GPa) = 0.02871279
#
# Stress axis : x y z
#
# Youngs Moduli (GPa) = 88.03172 27.55474 72.76862
#
# Poissons Ratio (x) = 0.17885 0.29104
# Poissons Ratio (y) = 0.57139 0.42569
# Poissons Ratio (z) = 0.35209 0.16119
#
# Static dielectric constant tensor:
#      x y z
#    x 3.495890 0.000000 0.211480 
#    y 0.000000 3.092110 0.000000 
#    z 0.211480 0.000000 3.321670 
# 
# 
# High freq. dielectric constant tensor:
#      x y z
#    x 1.655030 0.000000 0.014320 
#    y 0.000000 1.629120 0.000000 
#    z 0.014320 0.000000 1.642800 
# 
# From -- ./inp_files/341968.got.cif
#   From: 2010.06.25/outbox.cif.g09.slc.cpg/sg12_171_cif.got.tgz:341968.got - 2010.06.28 00:19:55.
