data_PCOD8116928
_publ_section_title
;
Structure prediction by ZEFSAII (Michael W. Deem and Ramdas Pophale) SiO2 
 PCOD8116928
Probable space group: P 2/C
;
_chemical_formula_sum "Si O2"
_cell_formula_units_Z 32
_cell_length_a 20.043666
_cell_length_b 12.629458
_cell_length_c 19.682832
_cell_angle_alpha 90.000000
_cell_angle_beta 21.146545
_cell_angle_gamma 90.000000
_cell_volume 1797.468620
_symmetry_space_group_name_H-M "P 2/C"
_symmetry_group_IT_number 13
_symmetry_cell_setting 'monoclinic'
loop_
_space_group_symop_operation_xyz
x,y,z
-x,y,1/2-z
-x,-y,-z
x,-y,1/2+z
loop_
_atom_site_type_symbol
_atom_site_label
_atom_site_fract_x
_atom_site_fract_y
_atom_site_fract_z
Si Si1 0.814241 0.729493 0.311984
Si Si2 0.175522 0.141629 0.437086
Si Si3 0.346814 0.757115 0.172828
Si Si4 0.235126 0.220203 0.233521
Si Si5 0.048819 0.595486 0.502354
Si Si6 0.925037 0.929181 0.011112
Si Si7 0.299319 0.723143 0.932385
Si Si8 0.971048 0.460063 0.852350
O O1 0.653038 0.750302 0.410047
O O2 0.772025 0.769262 0.428121
O O3 0.853294 0.602727 0.282308
O O4 0.983106 0.796119 0.121963
O O5 0.265829 0.170425 0.278973
O O6 0.307272 0.178050 0.373246
O O7 0.147812 0.014668 0.474578
O O8 0.240128 0.652617 0.300417
O O9 0.244739 0.858680 0.300940
O O10 0.561563 0.763074 0.992671
O O11 0.131275 0.331685 0.333396
O O12 0.098821 0.141843 0.319530
O O13 0.083310 0.555166 0.546427
O O14 0.000000 0.500000 0.500000
O O15 0.000000 0.000000 0.000000
O O16 0.500000 0.673171 0.750000
O O17 0.181473 0.630831 0.010591
O O18 0.000000 0.510240 0.750000
#
# Coordination Sequence:
#
# PCOD8116928 Si02
#       8
#     4   4   4   4   4   4   4   4
#     4  10  17  33  53  76 112 141 169 219 279 321
#     4  10  17  35  53  77 109 146 174 214 274 328
#     4  11  20  34  54  85 112 140 176 232 268 312
#     4  10  21  33  52  83 111 139 183 228 267 312
#     4  11  19  36  55  78 113 143 184 226 271 324
#     4   9  18  34  53  75 111 139 174 213 268 324
#     4  10  20  33  52  82 112 134 175 226 273 325
#     4   9  19  35  54  73 107 148 176 218 277 329
#
# _framework density 17.802814000000001
#
# number of rings (size 3 to 8) (size 9 to 14) (size 15 to 20)
#    0.000    2.000    5.000    2.625    0.000    2.500 
#    6.750    0.000    0.000    6.000    0.000    0.000 
#    0.000    0.000    0.000    0.000    0.000    0.000 
#
# Total GULP energy -396465.867532 kJ/mol
# GULP energy per Si atom -12389.558360 kJ/mol
# Density = 1.776229 g / cm^3
# Si number density = 17.802814 Si / 1000 Ang^3
#
#
#
# Elastic Constant Matrix: (Units=GPa)
#
#
# Indices 1 2 3 4 5 6 
#
# 1 81.6028 41.4282 25.6344 0.0000 6.2708 0.0000
# 2 41.4282 110.0445 43.6681 0.0000 2.7110 0.0000
# 3 25.6344 43.6681 109.9368 0.0000 -10.4984 0.0000
# 4 0.0000 0.0000 0.0000 13.2146 0.0000 5.5095
# 5 6.2708 2.7110 -10.4984 0.0000 24.1882 0.0000
# 6 0.0000 0.0000 0.0000 5.5095 0.0000 20.7801
#
#
#
# Elastic Compliance Matrix: (Units=1/GPa)
#
#
# Indices 1 2 3 4 5 6 
#
# 1 0.015801 -0.004995 -0.002126 0.000000 -0.004459 0.000000
# 2 -0.004995 0.012610 -0.004022 0.000000 -0.001864 0.000000
# 3 -0.002126 -0.004022 0.011773 0.000000 0.006112 0.000000
# 4 0.000000 0.000000 0.000000 0.085078 0.000000 -0.022557
# 5 -0.004459 -0.001864 0.006112 0.000000 0.045360 0.000000
# 6 0.000000 0.000000 0.000000 -0.022557 0.000000 0.054104
#
#
# Mechanical properties :
#
#
# Convention : Reuss Voigt Hill
#
# Bulk Modulus (GPa) = 55.87390 58.11617 56.99503
# Shear Modulus (GPa) = 19.76458 24.36014 22.06236
#
# Velocity S-wave (km/s) = 3.33557 3.70311 3.52414
# Velocity P-wave (km/s) = 6.80351 7.14138 6.97449
#
# Compressibility (1/GPa) = 0.01789744
#
# Stress axis : x y z
#
# Youngs Moduli (GPa) = 63.28749 79.30456 84.93922
#
# Poissons Ratio (x) = 0.39612 0.18059
# Poissons Ratio (y) = 0.31612 0.34162
# Poissons Ratio (z) = 0.13456 0.31896
#
# Static dielectric constant tensor:
#      x y z
#    x 3.087880 0.000000 0.008520 
#    y 0.000000 1.171710 0.000000 
#    z 0.008520 0.000000 3.306100 
# 
# 
# High freq. dielectric constant tensor:
#      x y z
#    x 1.670700 0.000000 -0.003480 
#    y 0.000000 1.681490 0.000000 
#    z -0.003480 0.000000 1.681400 
# 
# From -- ./inp_files/81803.got.cif
#   From: 2010.06.25/outbox.cif.g09.slc.cpg/sg13_41_cif.got.tgz:81803.got - 2010.06.28 04:50:58.
