data_PCOD8116940
_publ_section_title
;
Structure prediction by ZEFSAII (Michael W. Deem and Ramdas Pophale) SiO2 
 PCOD8116940
Probable space group: P 2/C
;
_chemical_formula_sum "Si O2"
_cell_formula_units_Z 30
_cell_length_a 9.914263
_cell_length_b 9.150665
_cell_length_c 16.910671
_cell_angle_alpha 90.000000
_cell_angle_beta 71.485593
_cell_angle_gamma 90.000000
_cell_volume 1454.768745
_symmetry_space_group_name_H-M "P 2/C"
_symmetry_group_IT_number 13
_symmetry_cell_setting 'monoclinic'
loop_
_space_group_symop_operation_xyz
x,y,z
-x,y,1/2-z
-x,-y,-z
x,-y,1/2+z
loop_
_atom_site_type_symbol
_atom_site_label
_atom_site_fract_x
_atom_site_fract_y
_atom_site_fract_z
Si Si1 0.862413 0.526634 0.400216
Si Si2 0.754175 0.733677 0.005471
Si Si3 0.655910 0.643134 0.187368
Si Si4 0.000000 0.184883 0.250000
Si Si5 0.076480 0.224249 0.493790
Si Si6 0.166128 0.238587 0.713324
Si Si7 0.828615 0.003912 0.404210
Si Si8 0.158301 0.370246 0.330384
O O1 0.751533 0.399996 0.443721
O O2 0.852564 0.653794 0.465330
O O3 0.817565 0.597411 0.324637
O O4 0.023784 0.473764 0.370273
O O5 0.649325 0.697373 0.097552
O O6 0.910585 0.748781 0.012722
O O7 0.714438 0.880776 0.962789
O O8 0.500000 0.658600 0.250000
O O9 0.759419 0.755548 0.215430
O O10 0.704122 0.474119 0.188954
O O11 0.865822 0.288240 0.249352
O O12 0.951134 0.092959 0.334843
O O13 0.098177 0.069444 0.532965
O O14 0.162752 0.241367 0.395494
O O15 0.239736 0.114397 0.643577
O O16 0.000000 0.195093 0.750000
#
# Coordination Sequence:
#
# PCOD8116940 Si02
#       8
#     4   4   4   2   4   4   4   4
#     4  10  17  33  61  90 114 157 198 254 312 351
#     4  11  20  36  57  90 125 160 203 252 307 370
#     4  12  25  41  63  90 122 167 214 257 306 364
#     4  12  22  30  58 102 128 152 194 256 316 364
#     4  10  18  33  58  92 124 152 197 254 316 359
#     4  11  21  38  63  95 129 155 199 259 310 362
#     4  11  23  32  56  97 126 158 194 247 316 374
#     4  11  19  34  59  88 124 151 201 259 307 353
#
# _framework density 20.621835000000001
#
# number of rings (size 3 to 8) (size 9 to 14) (size 15 to 20)
#    0.000    1.067    7.333    2.800    0.000    0.000 
#    0.000    1.333    0.000    3.200    0.000    0.000 
#    0.000    0.000    0.000    0.000    0.000    0.000 
#
# Total GULP energy -371781.832745 kJ/mol
# GULP energy per Si atom -12392.727758 kJ/mol
# Density = 2.057490 g / cm^3
# Si number density = 20.621835 Si / 1000 Ang^3
#
#
#
# Elastic Constant Matrix: (Units=GPa)
#
#
# Indices 1 2 3 4 5 6 
#
# 1 33.9390 14.4188 25.7579 0.0000 -5.4871 0.0000
# 2 14.4188 119.1769 57.9909 0.0000 4.1623 0.0000
# 3 25.7579 57.9909 105.7606 0.0000 -0.9939 0.0000
# 4 0.0000 0.0000 0.0000 39.8951 0.0000 10.4041
# 5 -5.4871 4.1623 -0.9939 0.0000 26.6566 0.0000
# 6 0.0000 0.0000 0.0000 10.4041 0.0000 10.0512
#
#
#
# Elastic Compliance Matrix: (Units=1/GPa)
#
#
# Indices 1 2 3 4 5 6 
#
# 1 0.037571 -0.000530 -0.008789 0.000000 0.007489 0.000000
# 2 -0.000530 0.011562 -0.006231 0.000000 -0.002147 0.000000
# 3 -0.008789 -0.006231 0.015010 0.000000 -0.000277 0.000000
# 4 0.000000 0.000000 0.000000 0.034334 0.000000 -0.035539
# 5 0.007489 -0.002147 -0.000277 0.000000 0.039381 0.000000
# 6 0.000000 0.000000 0.000000 -0.035539 0.000000 0.136277
#
#
# Mechanical properties :
#
#
# Convention : Reuss Voigt Hill
#
# Bulk Modulus (GPa) = 30.26419 50.57906 40.42162
# Shear Modulus (GPa) = 15.81030 26.03450 20.92240
#
# Velocity S-wave (km/s) = 2.77190 3.55698 3.18870
# Velocity P-wave (km/s) = 4.99522 6.43814 5.76203
#
# Compressibility (1/GPa) = 0.03304235
#
# Stress axis : x y z
#
# Youngs Moduli (GPa) = 26.61607 86.49159 66.62350
#
# Poissons Ratio (x) = 0.04587 0.58557
# Poissons Ratio (y) = 0.01412 0.41510
# Poissons Ratio (z) = 0.23394 0.53890
#
# Static dielectric constant tensor:
#      x y z
#    x 3.097520 0.000000 0.436970 
#    y 0.000000 4.219120 0.000000 
#    z 0.436970 0.000000 4.131850 
# 
# 
# High freq. dielectric constant tensor:
#      x y z
#    x 1.724710 0.000000 0.039900 
#    y 0.000000 1.825120 0.000000 
#    z 0.039900 0.000000 1.821940 
# 
# From -- ./inp_files/66297.got.cif
#   From: 2010.06.25/outbox.cif.g09.slc.cpg/sg13_34_cif.got.tgz:66297.got - 2010.06.28 04:50:58.
