data_PCOD8116479
_publ_section_title
;
Structure prediction by ZEFSAII (Michael W. Deem and Ramdas Pophale) SiO2 
 PCOD8116479
Probable space group: C 2/M
;
_chemical_formula_sum "Si O2"
_cell_formula_units_Z 24
_cell_length_a 18.000000
_cell_length_b 9.000000
_cell_length_c 30.000000
_cell_angle_alpha 90.000000
_cell_angle_beta 30.000000
_cell_angle_gamma 90.000000
_cell_volume 2430.000000
_symmetry_space_group_name_H-M "C 2/M"
_symmetry_group_IT_number 12
_symmetry_cell_setting 'monoclinic'
loop_
_space_group_symop_operation_xyz
x,y,z
-x,y,-z
-x,-y,-z
x,-y,z
1/2+x,1/2+y,z
1/2-x,1/2+y,-z
1/2-x,1/2-y,-z
1/2+x,1/2-y,z
loop_
_atom_site_type_symbol
_atom_site_label
_atom_site_fract_x
_atom_site_fract_y
_atom_site_fract_z
Si Si1 0.822279 0.825489 0.251538
Si Si2 0.523354 0.669140 0.915801
Si Si3 0.951488 0.162792 0.571465
Si Si4 0.266368 0.329283 0.109801
Si Si5 0.266488 0.838396 0.446996
Si Si6 0.539028 0.673078 0.726843
O O1 0.913795 0.754243 0.162127
O O2 0.658296 0.758002 0.340809
O O3 0.908427 0.783660 0.251346
O O4 0.802120 0.000000 0.254774
O O5 0.488907 0.500000 0.921767
O O6 0.645480 0.680715 0.890242
O O7 0.367643 0.734168 0.016085
O O8 0.000000 0.244229 0.500000
O O9 0.098333 0.137256 0.522019
O O10 0.879166 0.000000 0.598241
O O11 0.218171 0.500000 0.125910
O O12 0.129647 0.222144 0.188250
O O13 0.250000 0.750000 0.500000
O O14 0.359970 0.753934 0.361394
O O15 0.341913 0.000000 0.415423
O O16 0.551725 0.500000 0.710532
#
# Coordination Sequence:
#
# PCOD8116479 Si02
#       6
#     8   8   8   8   8   8
#     4  10  21  36  57  83 113 150 191 232 276 333
#     4   8  17  36  59  84 108 142 191 235 280 338
#     4  10  21  39  59  81 112 147 186 231 276 329
#     4   9  18  36  61  82 109 147 189 235 282 336
#     4  11  24  41  60  83 114 149 187 231 281 336
#     4  11  23  37  54  83 119 149 186 234 282 332
#
# _framework density 9.8765429999999999
#
# number of rings (size 3 to 8) (size 9 to 14) (size 15 to 20)
#    0.000    2.167    1.667    2.000    2.333    3.000 
#    0.000    2.500    0.000    0.000    0.000    0.000 
#    0.000    0.000    0.000    0.000    0.000    0.000 
#
# Total GULP energy -297394.085214 kJ/mol
# GULP energy per Si atom -12391.420217 kJ/mol
# Density = 0.985406 g / cm^3
# Si number density = 9.876543 Si / 1000 Ang^3
#
#
#
# Elastic Constant Matrix: (Units=GPa)
#
#
# Indices 1 2 3 4 5 6 
#
# 1 61.5515 42.3458 68.2796 0.0004 29.5177 -0.0031
# 2 42.3458 65.1770 52.5033 -0.0005 12.6016 0.0047
# 3 68.2796 52.5033 209.8993 -0.0009 38.7025 -0.0022
# 4 0.0004 -0.0005 -0.0009 35.5948 0.0005 -1.7729
# 5 29.5177 12.6016 38.7025 0.0005 44.5439 -0.0013
# 6 -0.0031 0.0047 -0.0022 -1.7729 -0.0013 19.5955
#
#
#
# Elastic Compliance Matrix: (Units=1/GPa)
#
#
# Indices 1 2 3 4 5 6 
#
# 1 0.048509 -0.022417 -0.006448 0.000000 -0.020201 0.000011
# 2 -0.022417 0.029658 -0.001570 0.000000 0.007828 -0.000010
# 3 -0.006448 -0.001570 0.007603 0.000000 -0.001889 0.000000
# 4 0.000000 0.000000 0.000000 0.028221 0.000000 0.002553
# 5 -0.020201 0.007828 -0.001889 0.000000 0.035263 -0.000003
# 6 0.000011 -0.000010 0.000000 0.002553 -0.000003 0.051263
#
#
# Mechanical properties :
#
#
# Convention : Reuss Voigt Hill
#
# Bulk Modulus (GPa) = 40.15924 73.65392 56.90658
# Shear Modulus (GPa) = 18.54008 31.51342 25.02675
#
# Velocity S-wave (km/s) = 3.06697 3.99854 3.56333
# Velocity P-wave (km/s) = 5.73729 7.66068 6.76766
#
# Compressibility (1/GPa) = 0.02490087
#
# Stress axis : x y z
#
# Youngs Moduli (GPa) = 20.61475 33.71755 131.53413
#
# Poissons Ratio (x) = 0.75584 0.84810
# Poissons Ratio (y) = 0.46211 0.20650
# Poissons Ratio (z) = 0.13292 0.05293
#
# Static dielectric constant tensor:
#      x y z
#    x 3.262860 0.003010 0.061920 
#    y 0.003010 -29.087500 0.003620 
#    z 0.061920 0.003620 3.688360 
# 
# 
# High freq. dielectric constant tensor:
#      x y z
#    x 1.756250 0.000000 0.015110 
#    y 0.000000 1.744810 0.000000 
#    z 0.015110 0.000000 1.789380 
# 
# From -- ./inp_files/244668.got.cif
#   From: 2010.06.25/outbox.ucp.g09.slc.cvg/sg12_123_cif.got.tgz:244668.got - 2010.06.28 13:50:54.
