data_PCOD8116936
_publ_section_title
;
Structure prediction by ZEFSAII (Michael W. Deem and Ramdas Pophale) SiO2 
 PCOD8116936
Probable space group: P 2/C
;
_chemical_formula_sum "Si O2"
_cell_formula_units_Z 26
_cell_length_a 9.813047
_cell_length_b 11.061656
_cell_length_c 19.938395
_cell_angle_alpha 90.000000
_cell_angle_beta 40.750444
_cell_angle_gamma 90.000000
_cell_volume 1412.770109
_symmetry_space_group_name_H-M "P 2/C"
_symmetry_group_IT_number 13
_symmetry_cell_setting 'monoclinic'
loop_
_space_group_symop_operation_xyz
x,y,z
-x,y,1/2-z
-x,-y,-z
x,-y,1/2+z
loop_
_atom_site_type_symbol
_atom_site_label
_atom_site_fract_x
_atom_site_fract_y
_atom_site_fract_z
Si Si1 0.853724 0.599760 0.437995
Si Si2 0.862548 0.668821 0.949555
Si Si3 0.000000 0.531637 0.250000
Si Si4 0.384634 0.354798 0.081634
Si Si5 0.156744 0.180139 0.249215
Si Si6 0.003519 0.808567 0.018207
Si Si7 0.259344 0.979201 0.830563
O O1 0.906777 0.470971 0.452531
O O2 0.612986 0.591506 0.504731
O O3 0.890773 0.707731 0.475182
O O4 0.997764 0.615338 0.317641
O O5 0.652529 0.681662 0.982878
O O6 0.054809 0.715830 0.833080
O O7 0.846033 0.746884 0.023469
O O8 0.206590 0.449580 0.169881
O O9 0.361528 0.236849 0.137613
O O10 0.221954 0.065773 0.269023
O O11 0.000000 0.134189 0.250000
O O12 0.188241 0.879674 0.911513
O O13 0.870252 0.898052 0.113493
O O14 0.500000 0.008791 0.750000
#
# Coordination Sequence:
#
# PCOD8116936 Si02
#       7
#     4   4   2   4   4   4   4
#     4  11  20  34  57  84 113 145 174 219 275 331
#     4   9  17  34  56  79 113 139 173 221 272 320
#     4  10  18  34  52  84 122 134 174 224 270 320
#     4  10  17  33  59  84 105 150 177 215 265 323
#     4   9  16  33  59  79 101 141 190 224 255 311
#     4  10  22  38  56  79 112 144 181 229 270 318
#     4  10  21  40  56  76 108 148 187 227 269 313
#
# _framework density 18.403561
#
# number of rings (size 3 to 8) (size 9 to 14) (size 15 to 20)
#    0.000    2.154    3.846    3.231    0.000    0.000 
#    6.923    0.000    0.000    7.385    0.000    0.000 
#    0.000    0.000    0.000    0.000    0.000    0.000 
#
# Total GULP energy -322278.170560 kJ/mol
# GULP energy per Si atom -12395.314252 kJ/mol
# Density = 1.836167 g / cm^3
# Si number density = 18.403561 Si / 1000 Ang^3
#
#
#
# Elastic Constant Matrix: (Units=GPa)
#
#
# Indices 1 2 3 4 5 6 
#
# 1 82.7993 38.3908 33.0049 0.0000 1.4168 0.0000
# 2 38.3908 87.8316 22.9747 0.0000 7.8667 0.0000
# 3 33.0049 22.9747 64.9632 0.0000 -1.6292 0.0000
# 4 0.0000 0.0000 0.0000 22.8199 0.0000 9.0368
# 5 1.4168 7.8667 -1.6292 0.0000 28.0670 0.0000
# 6 0.0000 0.0000 0.0000 9.0368 0.0000 13.6683
#
#
#
# Elastic Compliance Matrix: (Units=1/GPa)
#
#
# Indices 1 2 3 4 5 6 
#
# 1 0.017525 -0.005915 -0.006802 0.000000 0.000378 0.000000
# 2 -0.005915 0.014956 -0.002385 0.000000 -0.004032 0.000000
# 3 -0.006802 -0.002385 0.019747 0.000000 0.002158 0.000000
# 4 0.000000 0.000000 0.000000 0.059364 0.000000 -0.039248
# 5 0.000378 -0.004032 0.002158 0.000000 0.036865 0.000000
# 6 0.000000 0.000000 0.000000 -0.039248 0.000000 0.099111
#
#
# Mechanical properties :
#
#
# Convention : Reuss Voigt Hill
#
# Bulk Modulus (GPa) = 45.40719 47.14835 46.27777
# Shear Modulus (GPa) = 17.53687 22.32594 19.93141
#
# Velocity S-wave (km/s) = 3.09027 3.48678 3.29450
# Velocity P-wave (km/s) = 6.12043 6.47186 6.29859
#
# Compressibility (1/GPa) = 0.02202294
#
# Stress axis : x y z
#
# Youngs Moduli (GPa) = 57.06211 66.86407 50.64050
#
# Poissons Ratio (x) = 0.39547 0.34447
# Poissons Ratio (y) = 0.33750 0.12080
# Poissons Ratio (z) = 0.38816 0.15950
#
# Static dielectric constant tensor:
#      x y z
#    x 3.560160 0.000000 0.290180 
#    y 0.000000 3.321560 0.000000 
#    z 0.290180 0.000000 3.404210 
# 
# 
# High freq. dielectric constant tensor:
#      x y z
#    x 1.712150 0.000000 0.012500 
#    y 0.000000 1.704710 0.000000 
#    z 0.012500 0.000000 1.702610 
# 
# From -- ./inp_files/59578.got.cif
#   From: 2010.06.25/outbox.cif.g09.slc.cpg/sg13_30_cif.got.tgz:59578.got - 2010.06.28 04:50:58.
