data_PCOD8116612
_publ_section_title
;
Structure prediction by ZEFSAII (Michael W. Deem and Ramdas Pophale) SiO2 
 PCOD8116612
Probable space group: C 2/M
;
_chemical_formula_sum "Si O2"
_cell_formula_units_Z 30
_cell_length_a 12.000000
_cell_length_b 21.000000
_cell_length_c 24.000000
_cell_angle_alpha 90.000000
_cell_angle_beta 30.000000
_cell_angle_gamma 90.000000
_cell_volume 3024.000000
_symmetry_space_group_name_H-M "C 2/M"
_symmetry_group_IT_number 12
_symmetry_cell_setting 'monoclinic'
loop_
_space_group_symop_operation_xyz
x,y,z
-x,y,-z
-x,-y,-z
x,-y,z
1/2+x,1/2+y,z
1/2-x,1/2+y,-z
1/2-x,1/2-y,-z
1/2+x,1/2-y,z
loop_
_atom_site_type_symbol
_atom_site_label
_atom_site_fract_x
_atom_site_fract_y
_atom_site_fract_z
Si Si1 0.512201 0.074689 0.290132
Si Si2 0.436264 0.924969 0.962929
Si Si3 0.140512 0.150982 0.519711
Si Si4 0.500000 0.287660 0.000000
Si Si5 0.981864 0.761627 0.800539
Si Si6 0.285394 0.786256 0.565757
Si Si7 0.023520 0.864402 0.876125
Si Si8 0.858571 0.375501 0.240899
O O1 0.311458 0.107516 0.411089
O O2 0.749044 0.096209 0.213598
O O3 0.501818 0.089930 0.228044
O O4 0.489025 0.000000 0.308968
O O5 0.595371 0.899818 0.842795
O O6 0.462298 0.000000 0.951550
O O7 0.500000 0.901338 0.000000
O O8 0.183332 0.907578 0.054856
O O9 0.215072 0.162728 0.550426
O O10 0.126939 0.219245 0.496150
O O11 0.899851 0.116817 0.628508
O O12 0.716105 0.241993 0.904915
O O13 0.470640 0.330666 0.957725
O O14 0.084418 0.775704 0.695732
O O15 0.057545 0.814150 0.812009
O O16 0.075642 0.697880 0.787081
O O17 0.500000 0.819242 0.500000
#
# Coordination Sequence:
#
# PCOD8116612 Si02
#       8
#     8   8   8   4   8   8   8   8
#     4  12  25  46  71 101 141 181 233 285 337 408
#     4  11  27  48  67  93 134 187 239 279 338 418
#     4  11  24  39  67 100 136 177 223 282 344 405
#     4  12  24  42  63 106 141 166 224 286 350 412
#     4  12  25  38  67 102 140 175 222 284 346 419
#     4  11  21  40  64  94 139 176 219 275 344 416
#     4  12  25  43  70  98 139 182 229 282 349 404
#     4  12  24  43  69 105 133 180 227 289 352 403
#
# _framework density 9.9206350000000008
#
# number of rings (size 3 to 8) (size 9 to 14) (size 15 to 20)
#    0.000    0.400    5.333    2.400    6.533    1.600 
#    0.000    2.000    0.000    1.200    0.000    0.000 
#    0.000    0.000    0.000    0.000    0.000    0.000 
#
# Total GULP energy -371869.218962 kJ/mol
# GULP energy per Si atom -12395.640632 kJ/mol
# Density = 0.989806 g / cm^3
# Si number density = 9.920635 Si / 1000 Ang^3
#
#
#
# Elastic Constant Matrix: (Units=GPa)
#
#
# Indices 1 2 3 4 5 6 
#
# 1 170.7843 37.6505 62.5231 -0.0403 8.7626 0.0349
# 2 37.6505 83.8133 23.5297 -0.0618 7.4341 0.0547
# 3 62.5231 23.5297 145.8176 0.1276 1.3383 -0.0590
# 4 -0.0403 -0.0618 0.1276 27.7545 0.0213 4.7229
# 5 8.7626 7.4341 1.3383 0.0213 54.2734 -0.0243
# 6 0.0349 0.0547 -0.0590 4.7229 -0.0243 27.8584
#
#
#
# Elastic Compliance Matrix: (Units=1/GPa)
#
#
# Indices 1 2 3 4 5 6 
#
# 1 0.007470 -0.002501 -0.002792 0.000021 -0.000795 -0.000015
# 2 -0.002501 0.013487 -0.001091 0.000038 -0.001417 -0.000033
# 3 -0.002792 -0.001091 0.008227 -0.000050 0.000397 0.000032
# 4 0.000021 0.000038 -0.000050 0.037101 -0.000025 -0.006290
# 5 -0.000795 -0.001417 0.000397 -0.000025 0.018738 0.000025
# 6 -0.000015 -0.000033 0.000032 -0.006290 0.000025 0.036962
#
#
# Mechanical properties :
#
#
# Convention : Reuss Voigt Hill
#
# Bulk Modulus (GPa) = 60.91660 71.98020 66.44840
# Shear Modulus (GPa) = 35.65699 40.42471 38.04085
#
# Velocity S-wave (km/s) = 4.24384 4.51866 4.38340
# Velocity P-wave (km/s) = 7.40150 7.97378 7.69296
#
# Compressibility (1/GPa) = 0.01641589
#
# Stress axis : x y z
#
# Youngs Moduli (GPa) = 133.87548 74.14643 121.54458
#
# Poissons Ratio (x) = 0.18545 0.33934
# Poissons Ratio (y) = 0.33485 0.13259
# Poissons Ratio (z) = 0.37377 0.08088
#
# Static dielectric constant tensor:
#      x y z
#    x 4.316930 -0.000040 0.042580 
#    y -0.000040 3.507270 0.000280 
#    z 0.042580 0.000280 4.053890 
# 
# 
# High freq. dielectric constant tensor:
#      x y z
#    x 1.815050 0.000000 0.004620 
#    y 0.000000 1.761690 0.000030 
#    z 0.004620 0.000030 1.805520 
# 
# From -- ./inp_files/336857.got.cif
#   From: 2010.06.25/outbox.ucp.g09.slc.cvg/sg12_169_cif.got.tgz:336857.got - 2010.06.28 13:50:54.
