data_PCOD8116526
_publ_section_title
;
Structure prediction by ZEFSAII (Michael W. Deem and Ramdas Pophale) SiO2 
 PCOD8116526
Probable space group: C 2/M
;
_chemical_formula_sum "Si O2"
_cell_formula_units_Z 32
_cell_length_a 18.000000
_cell_length_b 9.000000
_cell_length_c 30.000000
_cell_angle_alpha 90.000000
_cell_angle_beta 40.000000
_cell_angle_gamma 90.000000
_cell_volume 3123.947783
_symmetry_space_group_name_H-M "C 2/M"
_symmetry_group_IT_number 12
_symmetry_cell_setting 'monoclinic'
loop_
_space_group_symop_operation_xyz
x,y,z
-x,y,-z
-x,-y,-z
x,-y,z
1/2+x,1/2+y,z
1/2-x,1/2+y,-z
1/2-x,1/2-y,-z
1/2+x,1/2-y,z
loop_
_atom_site_type_symbol
_atom_site_label
_atom_site_fract_x
_atom_site_fract_y
_atom_site_fract_z
Si Si1 0.868645 0.175909 0.720332
Si Si2 0.797797 0.326785 0.934259
Si Si3 0.825964 0.175891 0.556962
Si Si4 0.948676 0.171469 0.980455
Si Si5 0.136164 0.831385 0.828910
Si Si6 0.519258 0.329237 0.792840
Si Si7 0.944458 0.176782 0.590701
Si Si8 0.429386 0.824874 0.319143
O O1 0.745417 0.234158 0.793833
O O2 0.894758 0.241371 0.659301
O O3 0.969995 0.232838 0.704761
O O4 0.867605 0.000000 0.722009
O O5 0.832212 0.500000 0.926158
O O6 0.898625 0.231699 0.866586
O O7 0.750000 0.250000 0.000000
O O8 0.688072 0.310886 0.952527
O O9 0.866782 0.240570 0.586097
O O10 0.696128 0.228112 0.604241
O O11 0.920683 0.227596 0.476861
O O12 0.824896 0.000000 0.561741
O O13 0.017567 0.234823 0.905601
O O14 0.982628 0.000000 0.964584
O O15 0.000000 0.253365 0.000000
O O16 0.117817 0.821940 0.784748
O O17 0.162532 0.000000 0.831461
O O18 0.501477 0.500000 0.784735
O O19 0.566931 0.217658 0.734135
O O20 0.939944 0.000000 0.593124
O O21 0.449385 0.000000 0.316148
#
# Coordination Sequence:
#
# PCOD8116526 Si02
#       8
#     8   8   8   8   8   8   8   8
#     4  11  23  37  55  84 120 154 191 238 291 342
#     4  11  21  37  61  88 115 151 194 240 291 345
#     4   8  15  31  57  85 111 145 193 238 280 340
#     4   9  19  36  58  83 111 146 187 230 284 341
#     4  10  21  39  60  82 113 153 192 234 289 346
#     4  11  23  40  60  85 117 151 192 245 297 344
#     4   8  15  31  56  84 114 147 185 237 290 335
#     4  11  23  38  57  84 115 154 198 237 286 348
#
# _framework density 10.243449
#
# number of rings (size 3 to 8) (size 9 to 14) (size 15 to 20)
#    0.000    2.125    1.250    3.000    1.750    2.500 
#    0.000    0.000    0.000    4.125    0.000    8.750 
#    0.000    0.000    0.000    0.000    0.000    0.000 
#
# Total GULP energy -396525.405695 kJ/mol
# GULP energy per Si atom -12391.418928 kJ/mol
# Density = 1.022013 g / cm^3
# Si number density = 10.243449 Si / 1000 Ang^3
#
#
#
# Elastic Constant Matrix: (Units=GPa)
#
#
# Indices 1 2 3 4 5 6 
#
# 1 67.9098 19.6994 17.6139 0.0002 -19.2024 0.0013
# 2 19.6994 57.0347 16.6746 0.0006 -12.4467 0.0011
# 3 17.6139 16.6746 79.4098 0.0000 -25.2639 0.0001
# 4 0.0002 0.0006 0.0000 18.6094 0.0001 3.0710
# 5 -19.2024 -12.4467 -25.2639 0.0001 36.1152 0.0003
# 6 0.0013 0.0011 0.0001 3.0710 0.0003 14.7670
#
#
#
# Elastic Compliance Matrix: (Units=1/GPa)
#
#
# Indices 1 2 3 4 5 6 
#
# 1 0.018391 -0.004460 -0.000670 0.000000 0.007773 -0.000002
# 2 -0.004460 0.020418 -0.002333 0.000000 0.003033 -0.000001
# 3 -0.000670 -0.002333 0.016544 0.000000 0.010413 0.000000
# 4 0.000000 0.000000 0.000000 0.055646 0.000000 -0.011572
# 5 0.007773 0.003033 0.010413 0.000000 0.040152 -0.000002
# 6 -0.000002 -0.000001 0.000000 -0.011572 -0.000002 0.070125
#
#
# Mechanical properties :
#
#
# Convention : Reuss Voigt Hill
#
# Bulk Modulus (GPa) = 24.73601 34.70336 29.71968
# Shear Modulus (GPa) = 20.02587 23.92274 21.97431
#
# Velocity S-wave (km/s) = 3.12989 3.42088 3.27861
# Velocity P-wave (km/s) = 5.01616 5.70783 5.37314
#
# Compressibility (1/GPa) = 0.04042689
#
# Stress axis : x y z
#
# Youngs Moduli (GPa) = 54.37526 48.97717 60.44389
#
# Poissons Ratio (x) = 0.21844 0.04049
# Poissons Ratio (y) = 0.24251 0.14102
# Poissons Ratio (z) = 0.03643 0.11426
#
# Static dielectric constant tensor:
#      x y z
#    x 4.305060 -0.000020 -0.325300 
#    y -0.000020 3.382210 0.000040 
#    z -0.325300 0.000040 3.099190 
# 
# 
# High freq. dielectric constant tensor:
#      x y z
#    x 1.793990 0.000000 -0.013580 
#    y 0.000000 1.764950 0.000000 
#    z -0.013580 0.000000 1.812080 
# 
# From -- ./inp_files/377992.got.cif
#   From: 2010.06.25/outbox.ucp.g09.slc.cvg/sg12_189_cif.got.tgz:377992.got - 2010.06.28 13:50:54.
