data_PCOD8116776
_publ_section_title
;
Structure prediction by ZEFSAII (Michael W. Deem and Ramdas Pophale) SiO2 
 PCOD8116776
Probable space group: P 2/C
;
_chemical_formula_sum "Si O2"
_cell_formula_units_Z 30
_cell_length_a 12.127420
_cell_length_b 14.209597
_cell_length_c 13.147488
_cell_angle_alpha 90.000000
_cell_angle_beta 43.953482
_cell_angle_gamma 90.000000
_cell_volume 1572.529534
_symmetry_space_group_name_H-M "P 2/C"
_symmetry_group_IT_number 13
_symmetry_cell_setting 'monoclinic'
loop_
_space_group_symop_operation_xyz
x,y,z
-x,y,1/2-z
-x,-y,-z
x,-y,1/2+z
loop_
_atom_site_type_symbol
_atom_site_label
_atom_site_fract_x
_atom_site_fract_y
_atom_site_fract_z
Si Si1 0.934593 0.435199 0.180974
Si Si2 0.500000 0.364336 0.750000
Si Si3 0.868545 0.803793 0.079965
Si Si4 0.654766 0.801358 0.035950
Si Si5 0.543251 0.895447 0.836565
Si Si6 0.643112 0.912599 0.349678
Si Si7 0.802071 0.234739 0.229385
Si Si8 0.800183 0.410676 0.651046
O O1 0.830211 0.346818 0.211065
O O2 0.829295 0.529971 0.235837
O O3 0.000000 0.419788 0.250000
O O4 0.089791 0.450480 0.010715
O O5 0.405579 0.302863 0.896296
O O6 0.620157 0.429081 0.734055
O O7 0.755380 0.838640 0.063898
O O8 0.816655 0.870813 0.207536
O O9 0.832317 0.699428 0.145017
O O10 0.049484 0.816157 0.924322
O O11 0.502771 0.866612 0.116780
O O12 0.778582 0.798247 0.860817
O O13 0.500000 0.918881 0.750000
O O14 0.643325 0.797493 0.773976
O O15 0.649826 0.977154 0.817882
O O16 0.384390 0.891255 0.011897
#
# Coordination Sequence:
#
# PCOD8116776 Si02
#       8
#     4   2   4   4   4   4   4   4
#     4  10  19  37  54  74 109 150 184 222 275 331
#     4  10  16  30  56  84 110 134 184 240 266 328
#     4  10  17  33  56  83 108 139 182 230 264 328
#     4  10  16  30  56  84 107 137 177 227 272 322
#     4  10  22  38  54  78 113 146 179 226 277 329
#     4  10  19  35  60  80 105 148 183 215 275 331
#     4  10  21  33  53  78 110 144 181 227 279 314
#     4   9  19  32  54  81 108 139 183 228 273 323
#
# _framework density 19.077544
#
# number of rings (size 3 to 8) (size 9 to 14) (size 15 to 20)
#    0.000    2.133    2.667    3.600    0.000    0.533 
#    1.200    7.333    0.000    0.000    0.000    0.000 
#    0.000    0.000    0.000    0.000    0.000    0.000 
#
# Total GULP energy -371767.182599 kJ/mol
# GULP energy per Si atom -12392.239420 kJ/mol
# Density = 1.903412 g / cm^3
# Si number density = 19.077544 Si / 1000 Ang^3
#
#
#
# Elastic Constant Matrix: (Units=GPa)
#
#
# Indices 1 2 3 4 5 6 
#
# 1 60.5126 26.3531 31.8995 0.0000 5.5090 0.0000
# 2 26.3531 61.7044 33.0986 0.0000 -0.2633 0.0000
# 3 31.8995 33.0986 135.0361 0.0000 -1.1504 0.0000
# 4 0.0000 0.0000 0.0000 20.4630 0.0000 -2.8724
# 5 5.5090 -0.2633 -1.1504 0.0000 26.2617 0.0000
# 6 0.0000 0.0000 0.0000 -2.8724 0.0000 25.5346
#
#
#
# Elastic Compliance Matrix: (Units=1/GPa)
#
#
# Indices 1 2 3 4 5 6 
#
# 1 0.022077 -0.007633 -0.003385 0.000000 -0.004856 0.000000
# 2 -0.007633 0.021299 -0.003403 0.000000 0.001666 0.000000
# 3 -0.003385 -0.003403 0.009048 0.000000 0.001072 0.000000
# 4 0.000000 0.000000 0.000000 0.049653 0.000000 0.005586
# 5 -0.004856 0.001666 0.001072 0.000000 0.039161 0.000000
# 6 0.000000 0.000000 0.000000 0.005586 0.000000 0.039791
#
#
# Mechanical properties :
#
#
# Convention : Reuss Voigt Hill
#
# Bulk Modulus (GPa) = 42.40881 48.88394 45.64638
# Shear Modulus (GPa) = 22.96401 25.51199 24.23800
#
# Velocity S-wave (km/s) = 3.47323 3.66085 3.56827
# Velocity P-wave (km/s) = 6.19374 6.59913 6.39965
#
# Compressibility (1/GPa) = 0.02358000
#
# Stress axis : x y z
#
# Youngs Moduli (GPa) = 45.29701 46.95065 110.51598
#
# Poissons Ratio (x) = 0.35839 0.37415
# Poissons Ratio (y) = 0.34577 0.37610
# Poissons Ratio (z) = 0.15335 0.15978
#
# Static dielectric constant tensor:
#      x y z
#    x 3.380660 0.000000 -0.053620 
#    y 0.000000 3.453200 0.000000 
#    z -0.053620 0.000000 3.766090 
# 
# 
# High freq. dielectric constant tensor:
#      x y z
#    x 1.711000 0.000000 -0.003680 
#    y 0.000000 1.727470 0.000000 
#    z -0.003680 0.000000 1.753850 
# 
# From -- ./inp_files/34588.got.cif
#   From: 2010.06.25/outbox.cif.g09.slc.cpg/sg13_18_cif.got.tgz:34588.got - 2010.06.28 04:50:58.
