data_PCOD8116448
_publ_section_title
;
Structure prediction by ZEFSAII (Michael W. Deem and Ramdas Pophale) SiO2 
 PCOD8116448
Probable space group: C 2/M
;
_chemical_formula_sum "Si O2"
_cell_formula_units_Z 28
_cell_length_a 21.000000
_cell_length_b 18.000000
_cell_length_c 21.000000
_cell_angle_alpha 90.000000
_cell_angle_beta 20.000000
_cell_angle_gamma 90.000000
_cell_volume 2714.955898
_symmetry_space_group_name_H-M "C 2/M"
_symmetry_group_IT_number 12
_symmetry_cell_setting 'monoclinic'
loop_
_space_group_symop_operation_xyz
x,y,z
-x,y,-z
-x,-y,-z
x,-y,z
1/2+x,1/2+y,z
1/2-x,1/2+y,-z
1/2-x,1/2-y,-z
1/2+x,1/2-y,z
loop_
_atom_site_type_symbol
_atom_site_label
_atom_site_fract_x
_atom_site_fract_y
_atom_site_fract_z
Si Si1 0.778948 0.639706 0.479707
Si Si2 0.559267 0.197807 0.017733
Si Si3 0.037524 0.762916 0.174006
Si Si4 0.214550 0.416208 0.660826
Si Si5 0.520068 0.695944 0.407758
Si Si6 0.444085 0.142835 0.454658
Si Si7 0.284645 0.411967 0.211695
O O1 0.566227 0.661622 0.702848
O O2 0.781926 0.579704 0.419895
O O3 0.888280 0.607483 0.439005
O O4 0.899640 0.703460 0.333288
O O5 0.534584 0.259534 0.098208
O O6 0.452870 0.125463 0.144517
O O7 0.500000 0.222475 0.000000
O O8 0.774565 0.177702 0.809167
O O9 0.250000 0.750000 0.000000
O O10 0.210822 0.500000 0.690068
O O11 0.405390 0.377363 0.501465
O O12 0.500000 0.718067 0.500000
O O13 0.436111 0.768063 0.450696
O O14 0.292146 0.118179 0.649400
O O15 0.654874 0.120405 0.276875
O O16 0.266682 0.500000 0.227545
O O17 0.500000 0.386747 0.000000
#
# Coordination Sequence:
#
# PCOD8116448 Si02
#       7
#     8   8   8   8   8   8   8
#     4  10  22  38  61  91 122 163 217 260 322 394
#     4  11  23  39  64  94 128 163 215 275 335 400
#     4  10  20  39  62  90 128 163 199 266 335 396
#     4  11  26  46  63  87 129 181 229 279 331 391
#     4  12  23  40  64  98 129 163 217 276 338 394
#     4  11  21  38  66  98 130 168 215 273 333 394
#     4  10  23  41  61  93 136 173 210 260 327 408
#
# _framework density 10.313243
#
# number of rings (size 3 to 8) (size 9 to 14) (size 15 to 20)
#    0.000    1.286    2.857    5.143    0.000    6.286 
#    0.000    0.000    0.000    0.000    0.000    0.000 
#    0.000    0.000    0.000    0.000    0.000    0.000 
#
# Total GULP energy -346877.635510 kJ/mol
# GULP energy per Si atom -12388.486983 kJ/mol
# Density = 1.028977 g / cm^3
# Si number density = 10.313243 Si / 1000 Ang^3
#
#
#
# Elastic Constant Matrix: (Units=GPa)
#
#
# Indices 1 2 3 4 5 6 
#
# 1 138.0866 12.8612 40.6895 -0.0110 16.2976 0.0014
# 2 12.8612 74.6988 24.0022 -0.0712 2.5425 0.0188
# 3 40.6895 24.0022 179.5458 -0.0363 6.7242 0.0058
# 4 -0.0110 -0.0712 -0.0363 27.6548 0.0062 -0.8816
# 5 16.2976 2.5425 6.7242 0.0062 37.7262 0.0024
# 6 0.0014 0.0188 0.0058 -0.8816 0.0024 23.2670
#
#
#
# Elastic Compliance Matrix: (Units=1/GPa)
#
#
# Indices 1 2 3 4 5 6 
#
# 1 0.008170 -0.000775 -0.001629 0.000000 -0.003187 0.000001
# 2 -0.000775 0.014076 -0.001694 0.000033 -0.000312 -0.000010
# 3 -0.001629 -0.001694 0.006176 0.000003 -0.000283 0.000000
# 4 0.000000 0.000033 0.000003 0.036204 -0.000009 0.001372
# 5 -0.003187 -0.000312 -0.000283 -0.000009 0.027955 -0.000003
# 6 0.000001 -0.000010 0.000000 0.001372 -0.000003 0.043031
#
#
# Mechanical properties :
#
#
# Convention : Reuss Voigt Hill
#
# Bulk Modulus (GPa) = 49.44202 60.82634 55.13418
# Shear Modulus (GPa) = 33.21176 38.71484 35.96330
#
# Velocity S-wave (km/s) = 4.01702 4.33708 4.18011
# Velocity P-wave (km/s) = 6.74815 7.39147 7.07712
#
# Compressibility (1/GPa) = 0.02022571
#
# Stress axis : x y z
#
# Youngs Moduli (GPa) = 122.39861 71.04498 161.92252
#
# Poissons Ratio (x) = 0.05505 0.26370
# Poissons Ratio (y) = 0.09485 0.27436
# Poissons Ratio (z) = 0.19934 0.12038
#
# Static dielectric constant tensor:
#      x y z
#    x 4.361440 -0.000090 0.201940 
#    y -0.000090 3.467980 0.000340 
#    z 0.201940 0.000340 4.299500 
# 
# 
# High freq. dielectric constant tensor:
#      x y z
#    x 1.835540 -0.000010 0.009560 
#    y -0.000010 1.777080 0.000020 
#    z 0.009560 0.000020 1.841370 
# 
# From -- ./inp_files/322673.got.cif
#   From: 2010.06.25/outbox.ucp.g09.slc.cvg/sg12_162_cif.got.tgz:322673.got - 2010.06.28 13:50:54.
