data_PCOD8116534
_publ_section_title
;
Structure prediction by ZEFSAII (Michael W. Deem and Ramdas Pophale) SiO2 
 PCOD8116534
Probable space group: C 2/M
;
_chemical_formula_sum "Si O2"
_cell_formula_units_Z 28
_cell_length_a 21.000000
_cell_length_b 18.000000
_cell_length_c 21.000000
_cell_angle_alpha 90.000000
_cell_angle_beta 160.000000
_cell_angle_gamma 90.000000
_cell_volume 2714.955898
_symmetry_space_group_name_H-M "C 2/M"
_symmetry_group_IT_number 12
_symmetry_cell_setting 'monoclinic'
loop_
_space_group_symop_operation_xyz
x,y,z
-x,y,-z
-x,-y,-z
x,-y,z
1/2+x,1/2+y,z
1/2-x,1/2+y,-z
1/2-x,1/2-y,-z
1/2+x,1/2-y,z
loop_
_atom_site_type_symbol
_atom_site_label
_atom_site_fract_x
_atom_site_fract_y
_atom_site_fract_z
Si Si1 0.414023 0.168040 0.484450
Si Si2 0.915727 0.586786 0.718298
Si Si3 0.594598 0.914528 0.020654
Si Si4 0.627375 0.914021 0.792239
Si Si5 0.392436 0.684564 0.628044
Si Si6 0.830781 0.215036 0.217665
Si Si7 0.486671 0.673484 0.115466
O O1 0.500000 0.133991 0.500000
O O2 0.470134 0.119576 0.598147
O O3 0.520896 0.247089 0.594628
O O4 0.185969 0.171085 0.264702
O O5 0.886517 0.500000 0.688453
O O6 0.972783 0.610925 0.844023
O O7 0.714187 0.619423 0.510012
O O8 0.074237 0.610949 0.814997
O O9 0.652235 0.000000 0.066550
O O10 0.500000 0.900969 0.000000
O O11 0.783595 0.866469 0.200038
O O12 0.606561 0.000000 0.765207
O O13 0.836572 0.893178 0.965924
O O14 0.250000 0.750000 0.500000
O O15 0.575066 0.710150 0.762460
O O16 0.462134 0.665723 0.763153
O O17 0.630045 0.255461 0.018721
#
# Coordination Sequence:
#
# PCOD8116534 Si02
#       7
#     8   8   8   8   8   8   8
#     4  11  25  42  62  95 128 163 211 258 310 374
#     4  10  21  39  63  91 124 163 210 258 310 376
#     4  10  23  42  63  90 127 166 207 259 315 375
#     4  10  22  42  66  94 125 166 213 255 308 376
#     4  12  20  37  63  94 125 159 208 265 311 361
#     4  11  24  37  65  91 124 168 211 255 314 381
#     4  11  22  40  62  94 127 165 206 261 316 364
#
# _framework density 10.313243
#
# number of rings (size 3 to 8) (size 9 to 14) (size 15 to 20)
#    0.000    1.286    2.857    3.000    2.000    3.714 
#    0.000    0.714    0.000    3.000    0.000    0.000 
#    0.000    0.000    0.000    0.000    0.000    0.000 
#
# Total GULP energy -346907.612235 kJ/mol
# GULP energy per Si atom -12389.557580 kJ/mol
# Density = 1.028977 g / cm^3
# Si number density = 10.313243 Si / 1000 Ang^3
#
#
#
# Elastic Constant Matrix: (Units=GPa)
#
#
# Indices 1 2 3 4 5 6 
#
# 1 133.9490 26.9331 41.6586 0.0009 9.8716 -0.0061
# 2 26.9331 59.4419 29.6756 -0.0178 6.2536 -0.0211
# 3 41.6586 29.6756 135.3853 0.0317 24.2747 -0.0081
# 4 0.0009 -0.0178 0.0317 22.7044 0.0029 4.5281
# 5 9.8716 6.2536 24.2747 0.0029 43.2678 -0.0057
# 6 -0.0061 -0.0211 -0.0081 4.5281 -0.0057 27.1837
#
#
#
# Elastic Compliance Matrix: (Units=1/GPa)
#
#
# Indices 1 2 3 4 5 6 
#
# 1 0.008693 -0.002915 -0.001952 0.000000 -0.000467 -0.000001
# 2 -0.002915 0.019876 -0.003407 0.000018 -0.000296 0.000011
# 3 -0.001952 -0.003407 0.009524 -0.000016 -0.004405 0.000001
# 4 0.000000 0.000018 -0.000016 0.045558 0.000002 -0.007589
# 5 -0.000467 -0.000296 -0.004405 0.000002 0.025733 0.000003
# 6 -0.000001 0.000011 0.000001 -0.007589 0.000003 0.038051
#
#
# Mechanical properties :
#
#
# Convention : Reuss Voigt Hill
#
# Bulk Modulus (GPa) = 46.41483 58.36788 52.39136
# Shear Modulus (GPa) = 29.21180 33.99843 31.60512
#
# Velocity S-wave (km/s) = 3.76736 4.06432 3.91865
# Velocity P-wave (km/s) = 6.44014 7.09816 6.77714
#
# Compressibility (1/GPa) = 0.02154484
#
# Stress axis : x y z
#
# Youngs Moduli (GPa) = 115.03193 50.31224 105.00209
#
# Poissons Ratio (x) = 0.14667 0.20499
# Poissons Ratio (y) = 0.33534 0.35769
# Poissons Ratio (z) = 0.22457 0.17139
#
# Static dielectric constant tensor:
#      x y z
#    x 4.048050 0.000570 -0.032240 
#    y 0.000570 3.514730 0.003890 
#    z -0.032240 0.003890 3.247220 
# 
# 
# High freq. dielectric constant tensor:
#      x y z
#    x 1.819530 -0.000010 0.001100 
#    y -0.000010 1.801060 -0.000020 
#    z 0.001100 -0.000020 1.821860 
# 
# From -- ./inp_files/322744.got.cif
#   From: 2010.06.25/outbox.ucp.g09.slc.cvg/sg12_162_cif.got.tgz:322744.got - 2010.06.28 13:50:54.
