data_PCOD8116848
_publ_section_title
;
Structure prediction by ZEFSAII (Michael W. Deem and Ramdas Pophale) SiO2 
 PCOD8116848
Probable space group: P 2/C
;
_chemical_formula_sum "Si O2"
_cell_formula_units_Z 24
_cell_length_a 8.980053
_cell_length_b 8.873875
_cell_length_c 20.510964
_cell_angle_alpha 90.000000
_cell_angle_beta 48.600276
_cell_angle_gamma 90.000000
_cell_volume 1226.042988
_symmetry_space_group_name_H-M "P 2/C"
_symmetry_group_IT_number 13
_symmetry_cell_setting 'monoclinic'
loop_
_space_group_symop_operation_xyz
x,y,z
-x,y,1/2-z
-x,-y,-z
x,-y,1/2+z
loop_
_atom_site_type_symbol
_atom_site_label
_atom_site_fract_x
_atom_site_fract_y
_atom_site_fract_z
Si Si1 0.434014 0.578615 0.599400
Si Si2 0.669441 0.062313 0.253969
Si Si3 0.635259 0.912238 0.910294
Si Si4 0.817198 0.421722 0.926939
Si Si5 0.983294 0.869707 0.326900
Si Si6 0.120529 0.356343 0.282777
O O1 0.372057 0.732199 0.577349
O O2 0.337475 0.440912 0.587720
O O3 0.676056 0.560472 0.532356
O O4 0.336616 0.573625 0.699691
O O5 0.500000 0.066672 0.250000
O O6 0.567489 0.061946 0.354914
O O7 0.824803 0.199923 0.198829
O O8 0.800224 0.911608 0.207957
O O9 0.856162 0.976479 0.856888
O O10 0.500000 0.000000 0.000000
O O11 0.893575 0.250726 0.902920
O O12 0.001472 0.538307 0.868377
O O13 0.000000 0.794574 0.250000
O O14 0.000000 0.333114 0.250000
#
# Coordination Sequence:
#
# PCOD8116848 Si02
#       6
#     4   4   4   4   4   4
#     4   9  17  28  48  81 113 128 175 225 273 315
#     4  10  21  36  54  76 109 147 182 218 275 329
#     4  10  18  34  57  83 104 138 180 229 266 319
#     4  10  17  28  51  82 108 134 175 233 270 311
#     4  10  18  30  53  80 108 136 181 225 268 317
#     4   9  17  33  54  76 104 142 183 223 269 324
#
# _framework density 19.575168999999999
#
# number of rings (size 3 to 8) (size 9 to 14) (size 15 to 20)
#    0.000    2.333    1.667    5.000    0.000    0.000 
#    0.000    1.667    0.000    4.000    0.000    0.000 
#    0.000    0.000    0.000    0.000    0.000    0.000 
#
# Total GULP energy -297313.591027 kJ/mol
# GULP energy per Si atom -12388.066293 kJ/mol
# Density = 1.953061 g / cm^3
# Si number density = 19.575169 Si / 1000 Ang^3
#
#
#
# Elastic Constant Matrix: (Units=GPa)
#
#
# Indices 1 2 3 4 5 6 
#
# 1 90.1324 35.7263 34.4246 0.0000 -5.8930 0.0000
# 2 35.7263 80.7465 35.8679 0.0000 -12.8314 0.0000
# 3 34.4246 35.8679 135.4019 0.0000 -32.7425 0.0000
# 4 0.0000 0.0000 0.0000 36.6556 0.0000 -12.5370
# 5 -5.8930 -12.8314 -32.7425 0.0000 22.2596 0.0000
# 6 0.0000 0.0000 0.0000 -12.5370 0.0000 15.3184
#
#
#
# Elastic Compliance Matrix: (Units=1/GPa)
#
#
# Indices 1 2 3 4 5 6 
#
# 1 0.014221 -0.005546 -0.003118 0.000000 -0.004019 0.000000
# 2 -0.005546 0.016440 -0.001565 0.000000 0.005706 0.000000
# 3 -0.003118 -0.001565 0.012688 0.000000 0.016936 0.000000
# 4 0.000000 0.000000 0.000000 0.037886 0.000000 0.031007
# 5 -0.004019 0.005706 0.016936 0.000000 0.072061 0.000000
# 6 0.000000 0.000000 0.000000 0.031007 0.000000 0.090658
#
#
# Mechanical properties :
#
#
# Convention : Reuss Voigt Hill
#
# Bulk Modulus (GPa) = 43.68478 57.59094 50.63786
# Shear Modulus (GPa) = 18.37941 28.19754 23.28847
#
# Velocity S-wave (km/s) = 3.06750 3.79948 3.45294
# Velocity P-wave (km/s) = 5.90855 6.98085 6.46696
#
# Compressibility (1/GPa) = 0.02289127
#
# Stress axis : x y z
#
# Youngs Moduli (GPa) = 70.31767 60.82674 78.81351
#
# Poissons Ratio (x) = 0.33732 0.24577
# Poissons Ratio (y) = 0.38995 0.12336
# Poissons Ratio (z) = 0.21928 0.09520
#
# Static dielectric constant tensor:
#      x y z
#    x 3.010700 0.000000 -0.511060 
#    y 0.000000 3.531750 0.000000 
#    z -0.511060 0.000000 4.137670 
# 
# 
# High freq. dielectric constant tensor:
#      x y z
#    x 1.692500 0.000000 -0.042960 
#    y 0.000000 1.765220 0.000000 
#    z -0.042960 0.000000 1.773810 
# 
# From -- ./inp_files/69414.got.cif
#   From: 2010.06.25/outbox.cif.g09.slc.cpg/sg13_35_cif.got.tgz:69414.got - 2010.06.28 04:50:58.
