data_PCOD8116851
_publ_section_title
;
Structure prediction by ZEFSAII (Michael W. Deem and Ramdas Pophale) SiO2 
 PCOD8116851
Probable space group: P 2/C
;
_chemical_formula_sum "Si O2"
_cell_formula_units_Z 32
_cell_length_a 13.825044
_cell_length_b 4.963857
_cell_length_c 25.662445
_cell_angle_alpha 90.000000
_cell_angle_beta 100.843645
_cell_angle_gamma 90.000000
_cell_volume 1729.653398
_symmetry_space_group_name_H-M "P 2/C"
_symmetry_group_IT_number 13
_symmetry_cell_setting 'monoclinic'
loop_
_space_group_symop_operation_xyz
x,y,z
-x,y,1/2-z
-x,-y,-z
x,-y,1/2+z
loop_
_atom_site_type_symbol
_atom_site_label
_atom_site_fract_x
_atom_site_fract_y
_atom_site_fract_z
Si Si1 0.852819 0.557105 0.654933
Si Si2 0.612559 0.052255 0.999855
Si Si3 0.836761 0.925895 0.334868
Si Si4 0.730017 0.048553 0.418015
Si Si5 0.726161 0.552172 0.049577
Si Si6 0.885551 0.056190 0.726256
Si Si7 0.837892 0.451592 0.965051
Si Si8 0.950106 0.424782 0.384140
O O1 0.752948 0.497639 0.612717
O O2 0.847369 0.854702 0.678110
O O3 0.940053 0.521357 0.622570
O O4 0.868120 0.356663 0.704451
O O5 0.683435 0.850759 0.038830
O O6 0.641272 0.350034 0.021388
O O7 0.628775 0.018822 0.938600
O O8 0.500000 0.000000 0.000000
O O9 0.733663 0.975687 0.356329
O O10 0.821290 0.982417 0.272136
O O11 0.920587 0.120836 0.367035
O O12 0.874998 0.622364 0.346211
O O13 0.754988 0.362907 0.427722
O O14 0.814949 0.863009 0.453480
O O15 0.827023 0.515747 0.025378
O O16 0.000000 0.002953 0.750000
O O17 0.941156 0.526397 0.946420
#
# Coordination Sequence:
#
# PCOD8116851 Si02
#       8
#     4   4   4   4   4   4   4   4
#     4  12  22  32  48  71 103 137 172 207 244 279
#     4  10  19  36  59  79  98 123 156 200 256 316
#     4  10  18  30  47  67  99 128 173 214 230 268
#     4   8  16  29  48  74  95 120 157 203 245 287
#     4  10  21  35  49  77 106 127 158 203 248 304
#     4  12  21  33  48  70  96 141 185 210 232 267
#     4   8  16  29  46  65  99 130 160 192 234 292
#     4  10  17  29  46  68  93 137 170 200 237 273
#
# _framework density 18.500814999999999
#
# number of rings (size 3 to 8) (size 9 to 14) (size 15 to 20)
#    0.000    2.000    2.500    2.250    0.000    0.500 
#    0.000    0.000    0.000   10.500    0.000    5.250 
#    0.000    0.000    0.000    0.000    0.000    0.000 
#
# Total GULP energy -396559.245954 kJ/mol
# GULP energy per Si atom -12392.476436 kJ/mol
# Density = 1.845871 g / cm^3
# Si number density = 18.500815 Si / 1000 Ang^3
#
#
#
# Elastic Constant Matrix: (Units=GPa)
#
#
# Indices 1 2 3 4 5 6 
#
# 1 75.8507 1.6786 36.8932 0.0000 -26.7094 0.0000
# 2 1.6786 68.4763 3.7203 0.0000 -2.6912 0.0000
# 3 36.8932 3.7203 82.3740 0.0000 -21.1960 0.0000
# 4 0.0000 0.0000 0.0000 24.4123 0.0000 -6.9346
# 5 -26.7094 -2.6912 -21.1960 0.0000 22.0227 0.0000
# 6 0.0000 0.0000 0.0000 -6.9346 0.0000 17.7541
#
#
#
# Elastic Compliance Matrix: (Units=1/GPa)
#
#
# Indices 1 2 3 4 5 6 
#
# 1 0.024160 0.000635 -0.004373 0.000000 0.025171 0.000000
# 2 0.000635 0.014695 -0.000383 0.000000 0.002197 0.000000
# 3 -0.004373 -0.000383 0.016932 0.000000 0.010947 0.000000
# 4 0.000000 0.000000 0.000000 0.046075 0.000000 0.017996
# 5 0.025171 0.002197 0.010947 0.000000 0.086739 0.000000
# 6 0.000000 0.000000 0.000000 0.017996 0.000000 0.063354
#
#
# Mechanical properties :
#
#
# Convention : Reuss Voigt Hill
#
# Bulk Modulus (GPa) = 21.03215 34.58725 27.80970
# Shear Modulus (GPa) = 18.11295 25.13173 21.62234
#
# Velocity S-wave (km/s) = 3.13235 3.68966 3.42237
# Velocity P-wave (km/s) = 4.94723 6.07347 5.53905
#
# Compressibility (1/GPa) = 0.04754626
#
# Stress axis : x y z
#
# Youngs Moduli (GPa) = 41.39094 68.04959 59.05944
#
# Poissons Ratio (x) = -0.04318 0.25824
# Poissons Ratio (y) = -0.02627 0.02259
# Poissons Ratio (z) = 0.18098 0.02603
#
# Static dielectric constant tensor:
#      x y z
#    x 3.207150 0.000000 -0.594700 
#    y 0.000000 3.525270 0.000000 
#    z -0.594700 0.000000 3.333130 
# 
# 
# High freq. dielectric constant tensor:
#      x y z
#    x 1.672760 0.000000 -0.051740 
#    y 0.000000 1.742340 0.000000 
#    z -0.051740 0.000000 1.694850 
# 
# From -- ./inp_files/86005.got.cif
#   From: 2010.06.25/outbox.cif.g09.slc.cpg/sg13_44_cif.got.tgz:86005.got - 2010.06.28 04:50:58.
