data_PCOD8116869
_publ_section_title
;
Structure prediction by ZEFSAII (Michael W. Deem and Ramdas Pophale) SiO2 
 PCOD8116869
Probable space group: P 2/C
;
_chemical_formula_sum "Si O2"
_cell_formula_units_Z 28
_cell_length_a 19.146435
_cell_length_b 11.597245
_cell_length_c 22.209306
_cell_angle_alpha 90.000000
_cell_angle_beta 18.499366
_cell_angle_gamma 90.000000
_cell_volume 1564.731495
_symmetry_space_group_name_H-M "P 2/C"
_symmetry_group_IT_number 13
_symmetry_cell_setting 'monoclinic'
loop_
_space_group_symop_operation_xyz
x,y,z
-x,y,1/2-z
-x,-y,-z
x,-y,1/2+z
loop_
_atom_site_type_symbol
_atom_site_label
_atom_site_fract_x
_atom_site_fract_y
_atom_site_fract_z
Si Si1 0.868219 0.655236 0.112223
Si Si2 0.254703 0.622037 0.470630
Si Si3 0.335441 0.107157 0.012358
Si Si4 0.116774 0.126871 0.068705
Si Si5 0.380858 0.375032 0.995074
Si Si6 0.816768 0.084766 0.624083
Si Si7 0.927144 0.478578 0.157162
O O1 0.638809 0.598393 0.278416
O O2 0.869451 0.792967 0.111317
O O3 0.908816 0.609222 0.147084
O O4 0.054083 0.609286 0.914629
O O5 0.500000 0.656045 0.250000
O O6 0.097130 0.733711 0.589373
O O7 0.254050 0.577946 0.539761
O O8 0.146798 0.522246 0.518722
O O9 0.297997 0.091339 0.970909
O O10 0.359224 0.238326 0.013348
O O11 0.117182 0.064138 0.225683
O O12 0.564237 0.044504 0.845491
O O13 0.183652 0.089612 0.947711
O O14 0.286216 0.439752 0.130705
O O15 0.000000 0.000000 0.500000
#
# Coordination Sequence:
#
# PCOD8116869 Si02
#       7
#     4   4   4   4   4   4   4
#     4  10  21  33  47  73 105 139 169 208 256 313
#     4  11  17  29  50  77 107 131 167 219 262 316
#     4   9  18  30  54  78 102 128 165 225 268 301
#     4  10  17  32  51  79 104 123 167 221 270 305
#     4  10  17  30  50  77 102 131 170 207 265 311
#     4  11  21  34  51  75 105 140 177 215 258 315
#     4  11  19  31  49  73 109 134 160 206 264 321
#
# _framework density 17.894444
#
# number of rings (size 3 to 8) (size 9 to 14) (size 15 to 20)
#    0.000    1.714    4.286    3.000    0.000    0.571 
#    0.000    0.000    0.000    1.714    7.429    0.000 
#    0.000    0.000    0.000    0.000    0.000    0.000 
#
# Total GULP energy -346964.719696 kJ/mol
# GULP energy per Si atom -12391.597132 kJ/mol
# Density = 1.785372 g / cm^3
# Si number density = 17.894444 Si / 1000 Ang^3
#
#
#
# Elastic Constant Matrix: (Units=GPa)
#
#
# Indices 1 2 3 4 5 6 
#
# 1 91.9173 40.9673 37.2817 0.0000 -2.3126 0.0000
# 2 40.9673 53.8372 37.2838 0.0000 -7.7865 0.0000
# 3 37.2817 37.2838 102.9675 0.0000 -5.9126 0.0000
# 4 0.0000 0.0000 0.0000 18.5182 0.0000 -5.4049
# 5 -2.3126 -7.7865 -5.9126 0.0000 34.5161 0.0000
# 6 0.0000 0.0000 0.0000 -5.4049 0.0000 18.1642
#
#
#
# Elastic Compliance Matrix: (Units=1/GPa)
#
#
# Indices 1 2 3 4 5 6 
#
# 1 0.016861 -0.011741 -0.001960 0.000000 -0.001855 0.000000
# 2 -0.011741 0.033554 -0.007584 0.000000 0.005484 0.000000
# 3 -0.001960 -0.007584 0.013191 0.000000 0.000418 0.000000
# 4 0.000000 0.000000 0.000000 0.059137 0.000000 0.017597
# 5 -0.001855 0.005484 0.000418 0.000000 0.030156 0.000000
# 6 0.000000 0.000000 0.000000 0.017597 0.000000 0.060289
#
#
# Mechanical properties :
#
#
# Convention : Reuss Voigt Hill
#
# Bulk Modulus (GPa) = 47.53594 53.30972 50.42283
# Shear Modulus (GPa) = 19.02809 23.11896 21.07353
#
# Velocity S-wave (km/s) = 3.26445 3.59829 3.43542
# Velocity P-wave (km/s) = 6.38992 6.86436 6.63139
#
# Compressibility (1/GPa) = 0.02103671
#
# Stress axis : x y z
#
# Youngs Moduli (GPa) = 59.31006 29.80293 75.80705
#
# Poissons Ratio (x) = 0.34991 0.14858
# Poissons Ratio (y) = 0.69636 0.57489
# Poissons Ratio (z) = 0.11624 0.22601
#
# Static dielectric constant tensor:
#      x y z
#    x 3.474980 0.000000 -0.061900 
#    y 0.000000 2.768920 0.000000 
#    z -0.061900 0.000000 3.669730 
# 
# 
# High freq. dielectric constant tensor:
#      x y z
#    x 1.697030 0.000000 0.001410 
#    y 0.000000 1.617280 0.000000 
#    z 0.001410 0.000000 1.717860 
# 
# From -- ./inp_files/81027.got.cif
#   From: 2010.06.25/outbox.cif.g09.slc.cpg/sg13_41_cif.got.tgz:81027.got - 2010.06.28 04:50:58.
