data_PCOD8116379
_publ_section_title
;
Structure prediction by ZEFSAII (Michael W. Deem and Ramdas Pophale) SiO2 
 PCOD8116379
Probable space group: C 2/M
;
_chemical_formula_sum "Si O2"
_cell_formula_units_Z 32
_cell_length_a 24.000000
_cell_length_b 9.000000
_cell_length_c 30.000000
_cell_angle_alpha 90.000000
_cell_angle_beta 30.000000
_cell_angle_gamma 90.000000
_cell_volume 3240.000000
_symmetry_space_group_name_H-M "C 2/M"
_symmetry_group_IT_number 12
_symmetry_cell_setting 'monoclinic'
loop_
_space_group_symop_operation_xyz
x,y,z
-x,y,-z
-x,-y,-z
x,-y,z
1/2+x,1/2+y,z
1/2-x,1/2+y,-z
1/2-x,1/2-y,-z
1/2+x,1/2-y,z
loop_
_atom_site_type_symbol
_atom_site_label
_atom_site_fract_x
_atom_site_fract_y
_atom_site_fract_z
Si Si1 0.877073 0.325529 0.600711
Si Si2 0.719170 0.832456 0.647529
Si Si3 0.520978 0.323607 0.072521
Si Si4 0.930339 0.828918 0.782779
Si Si5 0.974490 0.666976 0.843244
Si Si6 0.671339 0.673495 0.590198
Si Si7 0.706549 0.170573 0.889193
Si Si8 0.214963 0.327158 0.779761
O O1 0.873519 0.500000 0.613871
O O2 0.803187 0.285313 0.609684
O O3 0.825576 0.237479 0.678748
O O4 0.000000 0.274346 0.500000
O O5 0.608329 0.834524 0.754154
O O6 0.694512 0.769062 0.617013
O O7 0.768591 0.000000 0.610092
O O8 0.516324 0.500000 0.075138
O O9 0.573013 0.265771 0.083212
O O10 0.396811 0.260788 0.154675
O O11 0.600544 0.268250 0.977425
O O12 0.936273 0.731577 0.822838
O O13 0.819154 0.776474 0.835137
O O14 0.037560 0.808003 0.675408
O O15 0.924176 0.000000 0.801880
O O16 0.927052 0.500000 0.880527
O O17 0.703247 0.500000 0.572897
O O18 0.750000 0.750000 0.500000
O O19 0.733427 0.193010 0.819105
O O20 0.677145 0.000000 0.920461
O O21 0.201766 0.500000 0.775376
#
# Coordination Sequence:
#
# PCOD8116379 Si02
#       8
#     8   8   8   8   8   8   8   8
#     4  11  24  40  60  90 124 158 198 249 307 360
#     4  10  20  36  59  84 113 153 199 246 298 354
#     4  12  24  38  62  91 120 158 203 251 307 367
#     4   9  20  39  60  85 119 158 199 248 304 359
#     4  10  20  36  61  89 117 153 198 247 296 356
#     4  10  20  35  58  87 119 155 200 248 300 363
#     4  10  23  42  62  86 121 161 203 251 303 364
#     4  11  23  41  64  89 120 162 207 253 301 358
#
# _framework density 9.8765429999999999
#
# number of rings (size 3 to 8) (size 9 to 14) (size 15 to 20)
#    0.000    1.625    1.250    3.375    0.000    7.000 
#    0.000    1.250    0.000    0.000    0.000    0.000 
#    0.000    0.000    0.000    0.000    0.000    0.000 
#
# Total GULP energy -396704.247536 kJ/mol
# GULP energy per Si atom -12397.007735 kJ/mol
# Density = 0.985406 g / cm^3
# Si number density = 9.876543 Si / 1000 Ang^3
#
#
#
# Elastic Constant Matrix: (Units=GPa)
#
#
# Indices 1 2 3 4 5 6 
#
# 1 69.4823 44.3627 48.4959 -0.0010 -9.2275 0.0028
# 2 44.3627 132.7506 62.4390 -0.0094 8.6415 0.0256
# 3 48.4959 62.4390 139.5051 0.0012 11.6290 -0.0003
# 4 -0.0010 -0.0094 0.0012 38.9301 -0.0002 3.9010
# 5 -9.2275 8.6415 11.6290 -0.0002 17.6843 0.0001
# 6 0.0028 0.0256 -0.0003 3.9010 0.0001 26.9980
#
#
#
# Elastic Compliance Matrix: (Units=1/GPa)
#
#
# Indices 1 2 3 4 5 6 
#
# 1 0.027857 -0.006793 -0.008603 -0.000001 0.023512 0.000004
# 2 -0.006793 0.011263 -0.002037 0.000004 -0.007709 -0.000010
# 3 -0.008603 -0.002037 0.012021 -0.000001 -0.011398 0.000003
# 4 -0.000001 0.000004 -0.000001 0.026064 -0.000001 -0.003766
# 5 0.023512 -0.007709 -0.011398 -0.000001 0.080078 0.000005
# 6 0.000004 -0.000010 0.000003 -0.003766 0.000005 0.037584
#
#
# Mechanical properties :
#
#
# Convention : Reuss Voigt Hill
#
# Bulk Modulus (GPa) = 61.44894 72.48147 66.96520
# Shear Modulus (GPa) = 21.26225 29.15183 25.20704
#
# Velocity S-wave (km/s) = 3.28441 3.84580 3.57614
# Velocity P-wave (km/s) = 6.74976 7.51622 7.14328
#
# Compressibility (1/GPa) = 0.01627367
#
# Stress axis : x y z
#
# Youngs Moduli (GPa) = 35.89796 88.78659 83.18938
#
# Poissons Ratio (x) = 0.60315 0.71570
# Poissons Ratio (y) = 0.24386 0.16945
# Poissons Ratio (z) = 0.30884 0.18085
#
# Static dielectric constant tensor:
#      x y z
#    x 3.467490 -0.000020 0.004530 
#    y -0.000020 3.713000 0.000020 
#    z 0.004530 0.000020 4.013260 
# 
# 
# High freq. dielectric constant tensor:
#      x y z
#    x 1.762760 0.000000 0.007780 
#    y 0.000000 1.782980 0.000000 
#    z 0.007780 0.000000 1.781890 
# 
# From -- ./inp_files/382393.got.cif
#   From: 2010.06.25/outbox.ucp.g09.slc.cvg/sg12_192_cif.got.tgz:382393.got - 2010.06.28 13:50:54.
