data_PCOD8116497
_publ_section_title
;
Structure prediction by ZEFSAII (Michael W. Deem and Ramdas Pophale) SiO2 
 PCOD8116497
Probable space group: C 2/M
;
_chemical_formula_sum "Si O2"
_cell_formula_units_Z 32
_cell_length_a 18.000000
_cell_length_b 9.000000
_cell_length_c 30.000000
_cell_angle_alpha 90.000000
_cell_angle_beta 40.000000
_cell_angle_gamma 90.000000
_cell_volume 3123.947783
_symmetry_space_group_name_H-M "C 2/M"
_symmetry_group_IT_number 12
_symmetry_cell_setting 'monoclinic'
loop_
_space_group_symop_operation_xyz
x,y,z
-x,y,-z
-x,-y,-z
x,-y,z
1/2+x,1/2+y,z
1/2-x,1/2+y,-z
1/2-x,1/2-y,-z
1/2+x,1/2-y,z
loop_
_atom_site_type_symbol
_atom_site_label
_atom_site_fract_x
_atom_site_fract_y
_atom_site_fract_z
Si Si1 0.723707 0.172982 0.881208
Si Si2 0.324758 0.825280 0.503376
Si Si3 0.322365 0.670743 0.004390
Si Si4 0.305421 0.174487 0.270650
Si Si5 0.909496 0.828492 0.136091
Si Si6 0.173566 0.834248 0.653391
Si Si7 0.929128 0.836072 0.725762
Si Si8 0.578514 0.826357 0.359431
O O1 0.638863 0.239668 0.883484
O O2 0.855523 0.199073 0.804157
O O3 0.695408 0.000000 0.900906
O O4 0.703342 0.254851 0.936702
O O5 0.250000 0.750000 0.500000
O O6 0.280476 0.779503 0.573195
O O7 0.457169 0.775183 0.436241
O O8 0.311717 0.000000 0.502613
O O9 0.284614 0.500000 0.025222
O O10 0.453887 0.686085 0.929130
O O11 0.250000 0.750000 0.000000
O O12 0.365088 0.257180 0.202226
O O13 0.363415 0.220546 0.290681
O O14 0.175365 0.230968 0.339804
O O15 0.313457 0.000000 0.258797
O O16 0.869861 0.000000 0.152456
O O17 0.064046 0.839882 0.671852
O O18 0.199186 0.000000 0.660830
O O19 0.906203 0.710379 0.699801
O O20 0.889676 0.000000 0.725935
O O21 0.599718 0.000000 0.356770
#
# Coordination Sequence:
#
# PCOD8116497 Si02
#       8
#     8   8   8   8   8   8   8   8
#     4  11  23  40  66  99 130 165 211 255 305 371
#     4  10  21  37  62  92 122 162 209 258 312 372
#     4  11  26  45  66  95 131 168 209 255 311 369
#     4  12  26  42  62  92 126 163 210 261 314 370
#     4  11  24  44  68  93 125 166 209 256 310 370
#     4  10  22  41  62  88 127 167 204 255 317 375
#     4  10  21  38  63  93 125 163 208 256 308 367
#     4  11  22  38  63  93 125 163 209 258 311 373
#
# _framework density 10.243449
#
# number of rings (size 3 to 8) (size 9 to 14) (size 15 to 20)
#    0.000    1.250    2.500    3.000    1.750    6.000 
#    0.000    2.500    0.000    0.000    0.000    0.000 
#    0.000    0.000    0.000    0.000    0.000    0.000 
#
# Total GULP energy -396800.420797 kJ/mol
# GULP energy per Si atom -12400.013150 kJ/mol
# Density = 1.022013 g / cm^3
# Si number density = 10.243449 Si / 1000 Ang^3
#
#
#
# Elastic Constant Matrix: (Units=GPa)
#
#
# Indices 1 2 3 4 5 6 
#
# 1 56.3342 31.1457 35.3137 0.0005 17.0948 0.0051
# 2 31.1457 112.8699 57.9691 0.0003 6.9684 0.0049
# 3 35.3137 57.9691 112.2972 -0.0001 8.0318 -0.0005
# 4 0.0005 0.0003 -0.0001 34.0490 -0.0004 3.5896
# 5 17.0948 6.9684 8.0318 -0.0004 35.7163 0.0000
# 6 0.0051 0.0049 -0.0005 3.5896 0.0000 35.2104
#
#
#
# Elastic Compliance Matrix: (Units=1/GPa)
#
#
# Indices 1 2 3 4 5 6 
#
# 1 0.026652 -0.003785 -0.005659 0.000000 -0.010745 -0.000003
# 2 -0.003785 0.012627 -0.005368 0.000000 0.000555 -0.000001
# 3 -0.005659 -0.005368 0.013402 0.000000 0.000742 0.000002
# 4 0.000000 0.000000 0.000000 0.029688 0.000000 -0.003027
# 5 -0.010745 0.000555 0.000742 0.000000 0.032866 0.000001
# 6 -0.000003 -0.000001 0.000002 -0.003027 0.000001 0.028709
#
#
# Mechanical properties :
#
#
# Convention : Reuss Voigt Hill
#
# Bulk Modulus (GPa) = 43.36817 58.92869 51.14843
# Shear Modulus (GPa) = 27.58582 31.46667 29.52624
#
# Velocity S-wave (km/s) = 3.67346 3.92336 3.80047
# Velocity P-wave (km/s) = 6.26156 7.02497 6.65422
#
# Compressibility (1/GPa) = 0.02305839
#
# Stress axis : x y z
#
# Youngs Moduli (GPa) = 37.52112 79.19818 74.61472
#
# Poissons Ratio (x) = 0.29973 0.42223
# Poissons Ratio (y) = 0.14200 0.40050
# Poissons Ratio (z) = 0.21233 0.42510
#
# Static dielectric constant tensor:
#      x y z
#    x 3.541160 0.000000 -0.151120 
#    y 0.000000 3.970200 0.000000 
#    z -0.151120 0.000000 3.983090 
# 
# 
# High freq. dielectric constant tensor:
#      x y z
#    x 1.792090 0.000000 0.000330 
#    y 0.000000 1.806060 0.000000 
#    z 0.000330 0.000000 1.823980 
# 
# From -- ./inp_files/378212.got.cif
#   From: 2010.06.25/outbox.ucp.g09.slc.cvg/sg12_190_cif.got.tgz:378212.got - 2010.06.28 13:50:54.
