data_PCOD8116259
_publ_section_title
;
Structure prediction by ZEFSAII (Michael W. Deem and Ramdas Pophale) SiO2 
 PCOD8116259
Probable space group: C 2/M
;
_chemical_formula_sum "Si O2"
_cell_formula_units_Z 32
_cell_length_a 18.000000
_cell_length_b 9.000000
_cell_length_c 30.000000
_cell_angle_alpha 90.000000
_cell_angle_beta 40.000000
_cell_angle_gamma 90.000000
_cell_volume 3123.947783
_symmetry_space_group_name_H-M "C 2/M"
_symmetry_group_IT_number 12
_symmetry_cell_setting 'monoclinic'
loop_
_space_group_symop_operation_xyz
x,y,z
-x,y,-z
-x,-y,-z
x,-y,z
1/2+x,1/2+y,z
1/2-x,1/2+y,-z
1/2-x,1/2-y,-z
1/2+x,1/2-y,z
loop_
_atom_site_type_symbol
_atom_site_label
_atom_site_fract_x
_atom_site_fract_y
_atom_site_fract_z
Si Si1 0.544164 0.823231 0.293092
Si Si2 0.640426 0.666051 0.066700
Si Si3 0.602588 0.332879 0.840946
Si Si4 0.632947 0.328169 0.566200
Si Si5 0.852260 0.169363 0.837462
Si Si6 0.707620 0.675175 0.288464
Si Si7 0.461283 0.669816 0.563705
Si Si8 0.626949 0.668838 0.929887
O O1 0.423276 0.752399 0.365184
O O2 0.572506 0.770383 0.230137
O O3 0.644558 0.768630 0.279324
O O4 0.534311 0.000000 0.298532
O O5 0.676260 0.500000 0.040028
O O6 0.529454 0.715558 0.089078
O O7 0.593480 0.684169 0.138700
O O8 0.750000 0.750000 0.000000
O O9 0.608612 0.500000 0.818403
O O10 0.659292 0.219642 0.779039
O O11 0.661280 0.326001 0.862082
O O12 0.652672 0.500000 0.569079
O O13 0.750000 0.250000 0.500000
O O14 0.555242 0.308220 0.558462
O O15 0.722065 0.225127 0.907529
O O16 0.850041 0.000000 0.820624
O O17 0.684983 0.500000 0.291605
O O18 0.660366 0.726292 0.359010
O O19 0.500000 0.754081 0.500000
O O20 0.442471 0.500000 0.559406
O O21 0.637904 0.500000 0.943103
O O22 0.500000 0.730794 0.000000
#
# Coordination Sequence:
#
# PCOD8116259 Si02
#       8
#     8   8   8   8   8   8   8   8
#     4  11  21  36  59  84 113 151 193 235 283 337
#     4  10  23  41  59  80 112 153 188 231 287 343
#     4  10  20  36  56  79 111 148 185 225 278 337
#     4  10  20  36  59  86 118 151 187 232 282 336
#     4  11  22  37  57  83 115 147 187 236 286 334
#     4  10  19  33  57  86 113 145 184 232 283 329
#     4   8  16  33  56  81 112 146 182 225 270 320
#     4  10  20  34  56  83 108 141 185 230 275 330
#
# _framework density 10.243449
#
# number of rings (size 3 to 8) (size 9 to 14) (size 15 to 20)
#    0.000    2.000    1.250    3.750    0.000    2.750 
#    2.250    0.000    0.000   12.750    0.000    0.000 
#    0.000    0.000    0.000    0.000    0.000    0.000 
#
# Total GULP energy -396532.763491 kJ/mol
# GULP energy per Si atom -12391.648859 kJ/mol
# Density = 1.022013 g / cm^3
# Si number density = 10.243449 Si / 1000 Ang^3
#
#
#
# Elastic Constant Matrix: (Units=GPa)
#
#
# Indices 1 2 3 4 5 6 
#
# 1 19.1616 19.9285 13.1502 0.0004 5.3065 0.0022
# 2 19.9285 107.5667 54.8353 0.0020 -8.5017 0.0023
# 3 13.1502 54.8353 141.4051 -0.0001 4.1157 -0.0001
# 4 0.0004 0.0020 -0.0001 37.7814 0.0000 -5.8324
# 5 5.3065 -8.5017 4.1157 0.0000 18.4135 0.0006
# 6 0.0022 0.0023 -0.0001 -5.8324 0.0006 17.2018
#
#
#
# Elastic Compliance Matrix: (Units=1/GPa)
#
#
# Indices 1 2 3 4 5 6 
#
# 1 0.078128 -0.016981 0.000204 -0.000001 -0.030401 -0.000007
# 2 -0.016981 0.016078 -0.005047 -0.000001 0.013445 -0.000001
# 3 0.000204 -0.005047 0.009139 0.000000 -0.004432 0.000001
# 4 -0.000001 -0.000001 0.000000 0.027930 0.000000 0.009470
# 5 -0.030401 0.013445 -0.004432 0.000000 0.070267 -0.000001
# 6 -0.000007 -0.000001 0.000001 0.009470 -0.000001 0.061344
#
#
# Mechanical properties :
#
#
# Convention : Reuss Voigt Hill
#
# Bulk Modulus (GPa) = 16.75132 49.32904 33.04018
# Shear Modulus (GPa) = 15.31706 26.69399 21.00552
#
# Velocity S-wave (km/s) = 2.73729 3.61360 3.20553
# Velocity P-wave (km/s) = 4.26435 6.44526 5.46471
#
# Compressibility (1/GPa) = 0.05969677
#
# Stress axis : x y z
#
# Youngs Moduli (GPa) = 12.79958 62.19603 109.42041
#
# Poissons Ratio (x) = 1.05618 -0.02237
# Poissons Ratio (y) = 0.21736 0.55225
# Poissons Ratio (z) = -0.00262 0.31391
#
# Static dielectric constant tensor:
#      x y z
#    x 3.364720 0.000000 0.082760 
#    y 0.000000 3.641670 0.000000 
#    z 0.082760 0.000000 3.992470 
# 
# 
# High freq. dielectric constant tensor:
#      x y z
#    x 1.767910 0.000000 0.007030 
#    y 0.000000 1.782830 0.000000 
#    z 0.007030 0.000000 1.823430 
# 
# From -- ./inp_files/378222.got.cif
#   From: 2010.06.25/outbox.ucp.g09.slc.cvg/sg12_190_cif.got.tgz:378222.got - 2010.06.28 13:50:54.
