data_PCOD8116392
_publ_section_title
;
Structure prediction by ZEFSAII (Michael W. Deem and Ramdas Pophale) SiO2 
 PCOD8116392
Probable space group: C 2/M
;
_chemical_formula_sum "Si O2"
_cell_formula_units_Z 30
_cell_length_a 9.000000
_cell_length_b 21.000000
_cell_length_c 27.000000
_cell_angle_alpha 90.000000
_cell_angle_beta 40.000000
_cell_angle_gamma 90.000000
_cell_volume 3280.145172
_symmetry_space_group_name_H-M "C 2/M"
_symmetry_group_IT_number 12
_symmetry_cell_setting 'monoclinic'
loop_
_space_group_symop_operation_xyz
x,y,z
-x,y,-z
-x,-y,-z
x,-y,z
1/2+x,1/2+y,z
1/2-x,1/2+y,-z
1/2-x,1/2-y,-z
1/2+x,1/2-y,z
loop_
_atom_site_type_symbol
_atom_site_label
_atom_site_fract_x
_atom_site_fract_y
_atom_site_fract_z
Si Si1 0.565369 0.671648 0.721152
Si Si2 0.290543 0.663666 0.587497
Si Si3 0.554721 0.269904 0.352684
Si Si4 0.579911 0.805561 0.880921
Si Si5 0.500000 0.876299 0.000000
Si Si6 0.649419 0.924646 0.298127
Si Si7 0.988968 0.073236 0.119464
Si Si8 0.167440 0.180174 0.912494
O O1 0.494762 0.685548 0.682257
O O2 0.325913 0.660352 0.810838
O O3 0.723108 0.607869 0.686738
O O4 0.706730 0.729463 0.711435
O O5 0.500000 0.637402 0.500000
O O6 0.416335 0.686517 0.606061
O O7 0.163517 0.721306 0.590283
O O8 0.102712 0.607805 0.646563
O O9 0.424055 0.816894 0.871456
O O10 0.629431 0.730771 0.877738
O O11 0.464302 0.834140 0.959834
O O12 0.259951 0.915814 0.064542
O O13 0.817213 0.910929 0.208766
O O14 0.616073 0.000000 0.316338
O O15 0.896673 0.112384 0.095367
O O16 0.964047 0.000000 0.110437
O O17 0.000000 0.197234 0.000000
#
# Coordination Sequence:
#
# PCOD8116392 Si02
#       8
#     8   8   8   8   4   8   8   8
#     4  10  20  36  58  85 118 152 188 238 289 349
#     4  10  20  37  63  92 123 153 188 237 294 353
#     4   9  20  35  60  94 120 148 187 237 295 354
#     4  12  23  35  60  86 116 149 190 246 298 350
#     4  12  21  42  62  84 111 154 204 244 302 342
#     4  10  23  41  59  82 116 159 200 240 287 345
#     4  11  25  43  59  80 115 158 203 246 290 347
#     4  12  24  38  55  85 118 148 192 248 298 349
#
# _framework density 9.145937
#
# number of rings (size 3 to 8) (size 9 to 14) (size 15 to 20)
#    0.000    1.333    3.333    2.600    7.467    0.533 
#    0.000    1.333    0.000    0.800    0.000    0.000 
#    0.000    0.000    0.000    0.000    0.000    0.000 
#
# Total GULP energy -371847.463355 kJ/mol
# GULP energy per Si atom -12394.915445 kJ/mol
# Density = 0.912512 g / cm^3
# Si number density = 9.145937 Si / 1000 Ang^3
#
#
#
# Elastic Constant Matrix: (Units=GPa)
#
#
# Indices 1 2 3 4 5 6 
#
# 1 165.7624 60.7264 40.2350 0.0110 -5.2669 0.0106
# 2 60.7264 115.5168 35.1763 -0.0002 -0.5454 -0.0084
# 3 40.2350 35.1763 109.7964 0.0720 -17.6752 -0.0284
# 4 0.0110 -0.0002 0.0720 24.9365 -0.0414 -0.5980
# 5 -5.2669 -0.5454 -17.6752 -0.0414 30.4248 -0.0049
# 6 0.0106 -0.0084 -0.0284 -0.5980 -0.0049 30.5532
#
#
#
# Elastic Compliance Matrix: (Units=1/GPa)
#
#
# Indices 1 2 3 4 5 6 
#
# 1 0.007751 -0.003572 -0.001644 0.000002 0.000323 -0.000005
# 2 -0.003572 0.011327 -0.002633 0.000006 -0.001945 0.000002
# 3 -0.001644 -0.002633 0.011584 -0.000022 0.006398 0.000011
# 4 0.000002 0.000006 -0.000022 0.040121 0.000042 0.000785
# 5 0.000323 -0.001945 0.006398 0.000042 0.036606 0.000012
# 6 -0.000005 0.000002 0.000011 0.000785 0.000012 0.032745
#
#
# Mechanical properties :
#
#
# Convention : Reuss Voigt Hill
#
# Bulk Modulus (GPa) = 66.83044 73.70565 70.26804
# Shear Modulus (GPa) = 31.09073 34.17875 32.63474
#
# Velocity S-wave (km/s) = 4.12722 4.32733 4.22846
# Velocity P-wave (km/s) = 7.70239 8.08390 7.89545
#
# Compressibility (1/GPa) = 0.01496324
#
# Stress axis : x y z
#
# Youngs Moduli (GPa) = 129.02025 88.28187 86.32876
#
# Poissons Ratio (x) = 0.31538 0.14191
# Poissons Ratio (y) = 0.46092 0.22731
# Poissons Ratio (z) = 0.21208 0.23245
#
# Static dielectric constant tensor:
#      x y z
#    x 3.751230 0.000020 -0.176950 
#    y 0.000020 3.320970 0.000030 
#    z -0.176950 0.000030 3.407750 
# 
# 
# High freq. dielectric constant tensor:
#      x y z
#    x 1.741900 0.000000 -0.015500 
#    y 0.000000 1.698320 0.000000 
#    z -0.015500 0.000000 1.714590 
# 
# From -- ./inp_files/258157.got.cif
#   From: 2010.06.25/outbox.ucp.g09.slc.cvg/sg12_130_cif.got.tgz:258157.got - 2010.06.28 13:50:54.
