data_PCOD8116674
_publ_section_title
;
Structure prediction by ZEFSAII (Michael W. Deem and Ramdas Pophale) SiO2 
 PCOD8116674
Probable space group: P 2/C
;
_chemical_formula_sum "Si O2"
_cell_formula_units_Z 32
_cell_length_a 9.250804
_cell_length_b 34.952118
_cell_length_c 5.216566
_cell_angle_alpha 90.000000
_cell_angle_beta 89.775648
_cell_angle_gamma 90.000000
_cell_volume 1686.686444
_symmetry_space_group_name_H-M "P 2/C"
_symmetry_group_IT_number 13
_symmetry_cell_setting 'monoclinic'
loop_
_space_group_symop_operation_xyz
x,y,z
-x,y,1/2-z
-x,-y,-z
x,-y,1/2+z
loop_
_atom_site_type_symbol
_atom_site_label
_atom_site_fract_x
_atom_site_fract_y
_atom_site_fract_z
Si Si1 0.661483 0.015179 0.432893
Si Si2 0.327062 0.141388 0.732816
Si Si3 0.327979 0.271899 0.247573
Si Si4 0.832330 0.649186 0.741481
Si Si5 0.329468 0.522772 0.254036
Si Si6 0.663712 0.897641 0.770629
Si Si7 0.832601 0.398427 0.741240
Si Si8 0.328534 0.772085 0.246388
O O1 0.667888 0.057279 0.317606
O O2 0.500000 0.000000 0.500000
O O3 0.738225 0.011235 0.711225
O O4 0.500000 0.138636 0.750000
O O5 0.264078 0.116097 0.496644
O O6 0.271236 0.184806 0.710955
O O7 0.259647 0.123573 0.992377
O O8 0.500000 0.275261 0.250000
O O9 0.263583 0.313691 0.218942
O O10 0.270215 0.252774 0.509119
O O11 0.271810 0.246136 0.011287
O O12 0.792229 0.630457 0.470122
O O13 0.000000 0.660876 0.750000
O O14 0.792566 0.620215 0.969801
O O15 0.500000 0.528626 0.250000
O O16 0.277750 0.503677 0.519027
O O17 0.259194 0.563780 0.221525
O O18 0.500000 0.883219 0.750000
O O19 0.000000 0.409792 0.750000
O O20 0.500000 0.772605 0.250000
#
# Coordination Sequence:
#
# PCOD8116674 Si02
#       8
#     4   4   4   4   4   4   4   4
#     4  10  17  22  29  37  58  84 121 173 221 266
#     4   9  17  24  35  49  69  93 125 170 223 278
#     4  10  19  31  51  70  92 122 156 187 235 296
#     4  10  21  36  52  76 104 129 160 201 246 287
#     4  10  21  36  54  78 106 137 172 210 248 283
#     4  10  16  22  31  44  60  90 127 164 225 283
#     4  10  21  36  54  75 103 134 165 203 243 287
#     4   9  17  30  43  63  87 110 143 190 234 281
#
# _framework density 18.972111000000002
#
# number of rings (size 3 to 8) (size 9 to 14) (size 15 to 20)
#    0.000    2.250    1.250    3.000    3.500    4.500 
#    0.000    0.000    0.000    0.000    0.000    0.000 
#    0.000    0.000    0.000    0.000    0.000    0.000 
#
# Total GULP energy -396644.584322 kJ/mol
# GULP energy per Si atom -12395.143260 kJ/mol
# Density = 1.892893 g / cm^3
# Si number density = 18.972111 Si / 1000 Ang^3
#
#
#
# Elastic Constant Matrix: (Units=GPa)
#
#
# Indices 1 2 3 4 5 6 
#
# 1 12.3589 23.9279 18.8554 0.0000 -0.4663 0.0000
# 2 23.9279 120.2803 50.2061 0.0000 -2.0601 0.0000
# 3 18.8554 50.2061 167.2896 0.0000 -1.9470 0.0000
# 4 0.0000 0.0000 0.0000 36.1763 0.0000 2.2176
# 5 -0.4663 -2.0601 -1.9470 0.0000 8.2758 0.0000
# 6 0.0000 0.0000 0.0000 2.2176 0.0000 -8.2095
#
#
#
# Elastic Compliance Matrix: (Units=1/GPa)
#
#
# Indices 1 2 3 4 5 6 
#
# 1 0.141614 -0.024592 -0.008583 0.000000 -0.000162 0.000000
# 2 -0.024592 0.013799 -0.001349 0.000000 0.001732 0.000000
# 3 -0.008583 -0.001349 0.007361 0.000000 0.000912 0.000000
# 4 0.000000 0.000000 0.000000 0.027192 0.000000 0.007345
# 5 -0.000162 0.001732 0.000912 0.000000 0.121470 0.000000
# 6 0.000000 0.000000 0.000000 0.007345 0.000000 -0.119826
#
#
# Mechanical properties :
#
#
# Convention : Reuss Voigt Hill
#
# Bulk Modulus (GPa) = 10.66951 53.98974 32.32963
# Shear Modulus (GPa) = 17.12914 21.04450 19.08682
#
# Velocity S-wave (km/s) = 3.00802 3.33413 3.17526
# Velocity P-wave (km/s) = 4.20717 6.58339 5.52455
#
# Compressibility (1/GPa) = 0.09372502
#
# Stress axis : x y z
#
# Youngs Moduli (GPa) = 7.06144 72.46890 135.85819
#
# Poissons Ratio (x) = 1.78216 1.16606
# Poissons Ratio (y) = 0.17366 0.18332
# Poissons Ratio (z) = 0.06061 0.09778
#
# Static dielectric constant tensor:
#      x y z
#    x 2.835150 0.000000 0.085890 
#    y 0.000000 3.459830 0.000000 
#    z 0.085890 0.000000 5.665950 
# 
# 
# High freq. dielectric constant tensor:
#      x y z
#    x 1.656740 0.000000 0.001350 
#    y 0.000000 1.748890 0.000000 
#    z 0.001350 0.000000 1.772750 
# 
# From -- ./inp_files/2729.got.cif
#   From: 2010.06.25/outbox.cif.g09.slc.cpg/sg13_2_cif.got.tgz:2729.got - 2010.06.28 04:50:58.
