data_PCOD8116925
_publ_section_title
;
Structure prediction by ZEFSAII (Michael W. Deem and Ramdas Pophale) SiO2 
 PCOD8116925
Probable space group: P 2/C
;
_chemical_formula_sum "Si O2"
_cell_formula_units_Z 32
_cell_length_a 17.465380
_cell_length_b 13.221727
_cell_length_c 13.098272
_cell_angle_alpha 90.000000
_cell_angle_beta 147.633559
_cell_angle_gamma 90.000000
_cell_volume 1619.211464
_symmetry_space_group_name_H-M "P 2/C"
_symmetry_group_IT_number 13
_symmetry_cell_setting 'monoclinic'
loop_
_space_group_symop_operation_xyz
x,y,z
-x,y,1/2-z
-x,-y,-z
x,-y,1/2+z
loop_
_atom_site_type_symbol
_atom_site_label
_atom_site_fract_x
_atom_site_fract_y
_atom_site_fract_z
Si Si1 0.586428 0.172465 0.950473
Si Si2 0.707958 0.333560 0.341409
Si Si3 0.857181 0.160524 0.635903
Si Si4 0.141992 0.485601 0.845572
Si Si5 0.577157 0.249909 0.546193
Si Si6 0.179451 0.672563 0.758005
Si Si7 0.118584 0.684148 0.160669
Si Si8 0.620017 0.050882 0.468174
O O1 0.500000 0.168177 0.750000
O O2 0.618643 0.057549 0.023319
O O3 0.487070 0.235146 0.914729
O O4 0.738797 0.227597 0.111310
O O5 0.778319 0.231133 0.464118
O O6 0.741696 0.427886 0.453206
O O7 0.536534 0.315317 0.147921
O O8 0.768241 0.357605 0.296821
O O9 0.900076 0.225040 0.782132
O O10 0.765613 0.064619 0.567957
O O11 0.000000 0.113539 0.750000
O O12 0.213238 0.586647 0.880209
O O13 0.098908 0.419928 0.698993
O O14 0.000000 0.509558 0.750000
O O15 0.726218 0.311128 0.719404
O O16 0.603465 0.138993 0.531334
O O17 0.008249 0.691840 0.565143
O O18 0.500000 0.061070 0.250000
#
# Coordination Sequence:
#
# PCOD8116925 Si02
#       8
#     4   4   4   4   4   4   4   4
#     4  10  24  44  57  85 126 166 203 244 303 375
#     4  10  19  38  62  93 118 160 201 255 304 350
#     4  10  17  32  59  96 124 146 201 261 298 344
#     4  11  22  37  63  92 123 158 209 250 302 365
#     4  10  21  38  67  91 120 153 202 257 307 359
#     4  11  22  41  63  82 125 166 201 243 310 360
#     4  10  20  36  62  93 117 156 202 253 302 363
#     4  10  19  36  65  92 120 159 202 246 309 365
#
# _framework density 19.762705
#
# number of rings (size 3 to 8) (size 9 to 14) (size 15 to 20)
#    0.000    1.750    3.750    1.500    0.000    1.000 
#    2.250    6.875    0.000    0.000    0.000    0.000 
#    0.000    0.000    0.000    0.000    0.000    0.000 
#
# Total GULP energy -396746.670134 kJ/mol
# GULP energy per Si atom -12398.333442 kJ/mol
# Density = 1.971772 g / cm^3
# Si number density = 19.762705 Si / 1000 Ang^3
#
#
#
# Elastic Constant Matrix: (Units=GPa)
#
#
# Indices 1 2 3 4 5 6 
#
# 1 80.0056 34.1135 36.6253 0.0000 15.7745 0.0000
# 2 34.1135 76.8711 41.7557 0.0000 -0.3456 0.0000
# 3 36.6253 41.7557 120.3108 0.0000 20.7393 0.0000
# 4 0.0000 0.0000 0.0000 22.3550 0.0000 -1.7253
# 5 15.7745 -0.3456 20.7393 0.0000 32.6027 0.0000
# 6 0.0000 0.0000 0.0000 -1.7253 0.0000 32.0862
#
#
#
# Elastic Compliance Matrix: (Units=1/GPa)
#
#
# Indices 1 2 3 4 5 6 
#
# 1 0.017746 -0.007009 -0.001659 0.000000 -0.007605 0.000000
# 2 -0.007009 0.019319 -0.005831 0.000000 0.007305 0.000000
# 3 -0.001659 -0.005831 0.012032 0.000000 -0.006913 0.000000
# 4 0.000000 0.000000 0.000000 0.044919 0.000000 0.002415
# 5 -0.007605 0.007305 -0.006913 0.000000 0.038827 0.000000
# 6 0.000000 0.000000 0.000000 0.002415 0.000000 0.031296
#
#
# Mechanical properties :
#
#
# Convention : Reuss Voigt Hill
#
# Bulk Modulus (GPa) = 49.74784 55.79739 52.77261
# Shear Modulus (GPa) = 25.02049 28.38832 26.70441
#
# Velocity S-wave (km/s) = 3.56201 3.79418 3.67993
# Velocity P-wave (km/s) = 6.49188 6.89125 6.69454
#
# Compressibility (1/GPa) = 0.02010138
#
# Stress axis : x y z
#
# Youngs Moduli (GPa) = 56.34920 51.76263 83.11104
#
# Poissons Ratio (x) = 0.36278 0.13788
# Poissons Ratio (y) = 0.39492 0.48459
# Poissons Ratio (z) = 0.09348 0.30181
#
# Static dielectric constant tensor:
#      x y z
#    x 3.636720 0.000000 0.144420 
#    y 0.000000 3.645770 0.000000 
#    z 0.144420 0.000000 3.655530 
# 
# 
# High freq. dielectric constant tensor:
#      x y z
#    x 1.769960 0.000000 0.008040 
#    y 0.000000 1.753650 0.000000 
#    z 0.008040 0.000000 1.771980 
# 
# From -- ./inp_files/55853.got.cif
#   From: 2010.06.25/outbox.cif.g09.slc.cpg/sg13_28_cif.got.tgz:55853.got - 2010.06.28 04:50:58.
