data_PCOD8116775
_publ_section_title
;
Structure prediction by ZEFSAII (Michael W. Deem and Ramdas Pophale) SiO2 
 PCOD8116775
Probable space group: P 2/C
;
_chemical_formula_sum "Si O2"
_cell_formula_units_Z 22
_cell_length_a 8.464568
_cell_length_b 8.612416
_cell_length_c 26.816833
_cell_angle_alpha 90.000000
_cell_angle_beta 32.783533
_cell_angle_gamma 90.000000
_cell_volume 1058.544116
_symmetry_space_group_name_H-M "P 2/C"
_symmetry_group_IT_number 13
_symmetry_cell_setting 'monoclinic'
loop_
_space_group_symop_operation_xyz
x,y,z
-x,y,1/2-z
-x,-y,-z
x,-y,1/2+z
loop_
_atom_site_type_symbol
_atom_site_label
_atom_site_fract_x
_atom_site_fract_y
_atom_site_fract_z
Si Si1 0.813322 0.338640 0.509097
Si Si2 0.350413 0.867067 0.737538
Si Si3 0.195216 0.878810 0.395875
Si Si4 0.552380 0.441183 0.149596
Si Si5 0.214607 0.082534 0.056399
Si Si6 0.500000 0.349646 0.750000
O O1 0.880619 0.212848 0.534281
O O2 0.573330 0.466400 0.591108
O O3 0.702802 0.251536 0.488559
O O4 0.118849 0.422043 0.416322
O O5 0.500000 0.816111 0.750000
O O6 0.387769 0.724117 0.688548
O O7 0.009897 0.901451 0.837703
O O8 0.510345 0.019400 0.673678
O O9 0.238700 0.759697 0.338618
O O10 0.924750 0.986455 0.452429
O O11 0.382017 0.546607 0.235238
O O12 0.500000 0.000000 0.000000
#
# Coordination Sequence:
#
# PCOD8116775 Si02
#       6
#     4   4   4   4   4   2
#     4  10  20  33  57  91 108 144 193 247 279 336
#     4  10  17  34  56  85 109 146 190 239 283 348
#     4  10  19  34  59  82 106 143 202 236 277 334
#     4  10  18  30  59  87 114 138 197 245 287 328
#     4  11  21  35  56  85 116 149 187 236 292 345
#     4  10  16  30  54  84 106 144 184 236 282 334
#
# _framework density 20.783262000000001
#
# number of rings (size 3 to 8) (size 9 to 14) (size 15 to 20)
#    0.000    1.818    7.273    0.545    0.000    0.000 
#    0.000    0.909    0.000   19.636    0.000    0.000 
#    0.000    0.000    0.000    0.000    0.000    0.000 
#
# Total GULP energy -272689.982812 kJ/mol
# GULP energy per Si atom -12394.999219 kJ/mol
# Density = 2.073596 g / cm^3
# Si number density = 20.783262 Si / 1000 Ang^3
#
#
#
# Elastic Constant Matrix: (Units=GPa)
#
#
# Indices 1 2 3 4 5 6 
#
# 1 31.5077 20.4787 29.9270 0.0000 -6.4734 0.0000
# 2 20.4787 118.6404 45.8189 0.0000 0.2802 0.0000
# 3 29.9270 45.8189 103.6774 0.0000 -6.4531 0.0000
# 4 0.0000 0.0000 0.0000 44.9093 0.0000 14.8471
# 5 -6.4734 0.2802 -6.4531 0.0000 20.9484 0.0000
# 6 0.0000 0.0000 0.0000 14.8471 0.0000 31.0144
#
#
#
# Elastic Compliance Matrix: (Units=1/GPa)
#
#
# Indices 1 2 3 4 5 6 
#
# 1 0.047196 -0.003835 -0.011233 0.000000 0.011175 0.000000
# 2 -0.003835 0.010525 -0.003698 0.000000 -0.002465 0.000000
# 3 -0.011233 -0.003698 0.014589 0.000000 0.001072 0.000000
# 4 0.000000 0.000000 0.000000 0.026454 0.000000 -0.012664
# 5 0.011175 -0.002465 0.001072 0.000000 0.051553 0.000000
# 6 0.000000 0.000000 0.000000 -0.012664 0.000000 0.038305
#
#
# Mechanical properties :
#
#
# Convention : Reuss Voigt Hill
#
# Bulk Modulus (GPa) = 28.75349 49.58609 39.16979
# Shear Modulus (GPa) = 21.03083 29.88115 25.45599
#
# Velocity S-wave (km/s) = 3.18451 3.79588 3.50356
# Velocity P-wave (km/s) = 5.23320 6.56674 5.93753
#
# Compressibility (1/GPa) = 0.03477839
#
# Stress axis : x y z
#
# Youngs Moduli (GPa) = 21.18806 95.01518 68.54609
#
# Poissons Ratio (x) = 0.36436 0.76999
# Poissons Ratio (y) = 0.08125 0.25346
# Poissons Ratio (z) = 0.23801 0.35134
#
# Static dielectric constant tensor:
#      x y z
#    x 3.033280 0.000000 0.405980 
#    y 0.000000 4.191020 0.000000 
#    z 0.405980 0.000000 3.955720 
# 
# 
# High freq. dielectric constant tensor:
#      x y z
#    x 1.725850 0.000000 0.042000 
#    y 0.000000 1.841330 0.000000 
#    z 0.042000 0.000000 1.822240 
# 
# From -- ./inp_files/67929.got.cif
#   From: 2010.06.25/outbox.cif.g09.slc.cpg/sg13_34_cif.got.tgz:67929.got - 2010.06.28 04:50:58.
