data_PCOD8116217
_publ_section_title
;
Structure prediction by ZEFSAII (Michael W. Deem and Ramdas Pophale) SiO2 
 PCOD8116217
Probable space group: C 2/M
;
_chemical_formula_sum "Si O2"
_cell_formula_units_Z 28
_cell_length_a 30.000000
_cell_length_b 9.000000
_cell_length_c 18.000000
_cell_angle_alpha 90.000000
_cell_angle_beta 40.000000
_cell_angle_gamma 90.000000
_cell_volume 3123.947783
_symmetry_space_group_name_H-M "C 2/M"
_symmetry_group_IT_number 12
_symmetry_cell_setting 'monoclinic'
loop_
_space_group_symop_operation_xyz
x,y,z
-x,y,-z
-x,-y,-z
x,-y,z
1/2+x,1/2+y,z
1/2-x,1/2+y,-z
1/2-x,1/2-y,-z
1/2+x,1/2-y,z
loop_
_atom_site_type_symbol
_atom_site_label
_atom_site_fract_x
_atom_site_fract_y
_atom_site_fract_z
Si Si1 0.750864 0.335935 0.204625
Si Si2 0.408905 0.827772 0.342074
Si Si3 0.095845 0.661914 0.935454
Si Si4 0.936038 0.674418 0.863396
Si Si5 0.290252 0.173500 0.606465
Si Si6 0.296447 0.323414 0.003117
Si Si7 0.139056 0.173561 0.744482
O O1 0.723773 0.500000 0.214198
O O2 0.823498 0.354630 0.151713
O O3 0.699207 0.262780 0.330331
O O4 0.758651 0.223146 0.126876
O O5 0.487941 0.793230 0.267895
O O6 0.357022 0.781920 0.473492
O O7 0.387644 0.735954 0.298136
O O8 0.401433 0.000000 0.330767
O O9 0.064580 0.500000 0.955502
O O10 0.087513 0.768399 0.875266
O O11 0.059373 0.726557 0.056082
O O12 0.915943 0.500000 0.885742
O O13 0.875950 0.764176 0.897119
O O14 0.219444 0.219775 0.654273
O O15 0.288231 0.000000 0.627931
O O16 0.297415 0.500000 0.993746
O O17 0.250000 0.250000 0.000000
O O18 0.130773 0.000000 0.753233
#
# Coordination Sequence:
#
# PCOD8116217 Si02
#       7
#     8   8   8   8   8   8   8
#     4   9  17  31  52  77 102 130 164 203 246 293
#     4  10  20  33  49  68  98 138 176 212 252 298
#     4   8  15  29  47  65  91 127 166 206 252 301
#     4   9  19  35  52  73 100 132 168 205 250 305
#     4   9  18  32  49  71  99 136 177 214 251 291
#     4  11  21  35  58  84 107 128 154 195 244 299
#     4  10  19  29  44  68  97 129 175 224 258 290
#
# _framework density 8.9630179999999999
#
# number of rings (size 3 to 8) (size 9 to 14) (size 15 to 20)
#    0.000    2.571    0.000    3.429    0.000    5.714 
#    0.000    2.857    0.000    0.857    0.000    6.000 
#    0.000    0.000    0.000    0.000    0.000    0.000 
#
# Total GULP energy -347059.043384 kJ/mol
# GULP energy per Si atom -12394.965835 kJ/mol
# Density = 0.894262 g / cm^3
# Si number density = 8.963018 Si / 1000 Ang^3
#
#
#
# Elastic Constant Matrix: (Units=GPa)
#
#
# Indices 1 2 3 4 5 6 
#
# 1 75.6656 44.4885 34.1826 -0.0173 -3.6140 0.0066
# 2 44.4885 80.6260 19.4786 -0.0538 -1.5611 0.0227
# 3 34.1826 19.4786 56.4129 -0.0673 -9.3354 0.0295
# 4 -0.0173 -0.0538 -0.0673 22.1956 0.0072 3.9761
# 5 -3.6140 -1.5611 -9.3354 0.0072 16.1558 -0.0018
# 6 0.0066 0.0227 0.0295 3.9761 -0.0018 27.7607
#
#
#
# Elastic Compliance Matrix: (Units=1/GPa)
#
#
# Indices 1 2 3 4 5 6 
#
# 1 0.024765 -0.010904 -0.011609 -0.000046 -0.002222 0.000022
# 2 -0.010904 0.018367 0.000171 0.000040 -0.000565 -0.000018
# 3 -0.011609 0.000171 0.026841 0.000075 0.012929 -0.000036
# 4 -0.000046 0.000040 0.000075 0.046241 0.000016 -0.006623
# 5 -0.002222 -0.000565 0.012929 0.000016 0.068817 -0.000011
# 6 0.000022 -0.000018 -0.000036 -0.006623 -0.000011 0.036971
#
#
# Mechanical properties :
#
#
# Convention : Reuss Voigt Hill
#
# Bulk Modulus (GPa) = 39.53921 45.44488 42.49205
# Shear Modulus (GPa) = 18.17424 20.85940 19.51682
#
# Velocity S-wave (km/s) = 3.18755 3.41491 3.30319
# Velocity P-wave (km/s) = 5.97093 6.39963 6.18899
#
# Compressibility (1/GPa) = 0.02529135
#
# Stress axis : x y z
#
# Youngs Moduli (GPa) = 40.37913 54.44526 37.25608
#
# Poissons Ratio (x) = 0.59365 0.43251
# Poissons Ratio (y) = 0.44028 -0.00639
# Poissons Ratio (z) = 0.46876 -0.00934
#
# Static dielectric constant tensor:
#      x y z
#    x 3.144820 0.000010 0.099420 
#    y 0.000010 3.468580 0.000070 
#    z 0.099420 0.000070 3.704340 
# 
# 
# High freq. dielectric constant tensor:
#      x y z
#    x 1.663170 0.000000 0.000520 
#    y 0.000000 1.695910 0.000000 
#    z 0.000520 0.000000 1.691060 
# 
# From -- ./inp_files/287327.got.cif
#   From: 2010.06.25/outbox.ucp.g09.slc.cvg/sg12_144_cif.got.tgz:287327.got - 2010.06.28 13:50:54.
