data_PCOD8116198
_publ_section_title
;
Structure prediction by ZEFSAII (Michael W. Deem and Ramdas Pophale) SiO2 
 PCOD8116198
Probable space group: C 2/M
;
_chemical_formula_sum "Si O2"
_cell_formula_units_Z 24
_cell_length_a 24.000000
_cell_length_b 9.000000
_cell_length_c 21.000000
_cell_angle_alpha 90.000000
_cell_angle_beta 40.000000
_cell_angle_gamma 90.000000
_cell_volume 2915.684598
_symmetry_space_group_name_H-M "C 2/M"
_symmetry_group_IT_number 12
_symmetry_cell_setting 'monoclinic'
loop_
_space_group_symop_operation_xyz
x,y,z
-x,y,-z
-x,-y,-z
x,-y,z
1/2+x,1/2+y,z
1/2-x,1/2+y,-z
1/2-x,1/2-y,-z
1/2+x,1/2-y,z
loop_
_atom_site_type_symbol
_atom_site_label
_atom_site_fract_x
_atom_site_fract_y
_atom_site_fract_z
Si Si1 0.087192 0.180185 0.733998
Si Si2 0.072291 0.322328 0.882707
Si Si3 0.233505 0.832841 0.274521
Si Si4 0.227340 0.827423 0.427120
Si Si5 0.450166 0.322290 0.609170
Si Si6 0.942286 0.319898 0.370217
O O1 0.050022 0.242266 0.834567
O O2 0.184549 0.238116 0.638487
O O3 0.033259 0.250038 0.721090
O O4 0.082562 0.000000 0.737713
O O5 0.074759 0.500000 0.868317
O O6 0.168938 0.263811 0.820625
O O7 0.000000 0.281827 0.000000
O O8 0.204050 0.823808 0.373349
O O9 0.151219 0.765875 0.307345
O O10 0.242792 0.000000 0.242898
O O11 0.153314 0.740695 0.529975
O O12 0.235167 0.000000 0.443185
O O13 0.500000 0.279581 0.500000
O O14 0.456084 0.500000 0.614721
O O15 0.490819 0.238331 0.634494
O O16 0.943890 0.500000 0.366453
#
# Coordination Sequence:
#
# PCOD8116198 Si02
#       6
#     8   8   8   8   8   8
#     4  11  22  35  51  75 104 136 174 217 264 312
#     4   9  18  35  59  83 105 132 167 213 266 318
#     4   8  15  29  51  76 102 134 172 208 251 304
#     4  10  18  33  52  73 103 140 176 212 257 310
#     4  10  18  32  51  72 102 144 181 211 248 302
#     4  12  23  33  47  72 106 143 178 215 258 306
#
# _framework density 8.2313430000000007
#
# number of rings (size 3 to 8) (size 9 to 14) (size 15 to 20)
#    0.000    2.000    1.667    5.000    0.000    0.667 
#    0.000    0.833    0.000    1.000    0.000    0.000 
#    0.000    0.000    0.000    0.000    0.000    0.000 
#
# Total GULP energy -297336.655940 kJ/mol
# GULP energy per Si atom -12389.027331 kJ/mol
# Density = 0.821261 g / cm^3
# Si number density = 8.231343 Si / 1000 Ang^3
#
#
#
# Elastic Constant Matrix: (Units=GPa)
#
#
# Indices 1 2 3 4 5 6 
#
# 1 133.6712 46.1406 53.9183 0.0000 10.7837 0.0000
# 2 46.1406 119.6279 34.8031 0.0006 8.6884 -0.0010
# 3 53.9183 34.8031 114.8783 0.0015 6.7528 -0.0004
# 4 0.0000 0.0006 0.0015 25.4567 -0.0005 3.6264
# 5 10.7837 8.6884 6.7528 -0.0005 25.7219 0.0001
# 6 0.0000 -0.0010 -0.0004 3.6264 0.0001 33.5349
#
#
#
# Elastic Compliance Matrix: (Units=1/GPa)
#
#
# Indices 1 2 3 4 5 6 
#
# 1 0.010114 -0.002620 -0.003815 0.000000 -0.002354 0.000000
# 2 -0.002620 0.009995 -0.001690 0.000000 -0.001834 0.000000
# 3 -0.003815 -0.001690 0.011050 -0.000001 -0.000731 0.000000
# 4 0.000000 0.000000 -0.000001 0.039897 0.000001 -0.004314
# 5 -0.002354 -0.001834 -0.000731 0.000001 0.040675 0.000000
# 6 0.000000 0.000000 0.000000 -0.004314 0.000000 0.030286
#
#
# Mechanical properties :
#
#
# Convention : Reuss Voigt Hill
#
# Bulk Modulus (GPa) = 67.07635 70.87791 68.97713
# Shear Modulus (GPa) = 30.62998 32.49705 31.56351
#
# Velocity S-wave (km/s) = 4.31811 4.44777 4.38342
# Velocity P-wave (km/s) = 8.10521 8.33811 8.22248
#
# Compressibility (1/GPa) = 0.01490838
#
# Stress axis : x y z
#
# Youngs Moduli (GPa) = 98.87103 100.05150 90.49382
#
# Poissons Ratio (x) = 0.26216 0.34523
# Poissons Ratio (y) = 0.25907 0.15297
# Poissons Ratio (z) = 0.37719 0.16913
#
# Static dielectric constant tensor:
#      x y z
#    x 3.530260 0.000000 0.016880 
#    y 0.000000 3.218860 0.000000 
#    z 0.016880 0.000000 3.204870 
# 
# 
# High freq. dielectric constant tensor:
#      x y z
#    x 1.655260 0.000000 0.004310 
#    y 0.000000 1.638240 0.000000 
#    z 0.004310 0.000000 1.620780 
# 
# From -- ./inp_files/323511.got.cif
#   From: 2010.06.25/outbox.ucp.g09.slc.cvg/sg12_162_cif.got.tgz:323511.got - 2010.06.28 13:50:54.
