data_PCOD8116636
_publ_section_title
;
Structure prediction by ZEFSAII (Michael W. Deem and Ramdas Pophale) SiO2 
 PCOD8116636
Probable space group: P 2/C
;
_chemical_formula_sum "Si O2"
_cell_formula_units_Z 32
_cell_length_a 19.750846
_cell_length_b 21.555073
_cell_length_c 5.252676
_cell_angle_alpha 90.000000
_cell_angle_beta 81.718161
_cell_angle_gamma 90.000000
_cell_volume 2212.906126
_symmetry_space_group_name_H-M "P 2/C"
_symmetry_group_IT_number 13
_symmetry_cell_setting 'monoclinic'
loop_
_space_group_symop_operation_xyz
x,y,z
-x,y,1/2-z
-x,-y,-z
x,-y,1/2+z
loop_
_atom_site_type_symbol
_atom_site_label
_atom_site_fract_x
_atom_site_fract_y
_atom_site_fract_z
Si Si1 0.204782 0.477515 0.677678
Si Si2 0.920046 0.158546 0.296218
Si Si3 0.826912 0.959416 0.803742
Si Si4 0.073430 0.565662 0.762074
Si Si5 0.322567 0.037565 0.045415
Si Si6 0.080236 0.765710 0.203984
Si Si7 0.114832 0.629266 0.233199
Si Si8 0.529033 0.070691 0.484271
O O1 0.246025 0.504079 0.411819
O O2 0.130519 0.512151 0.749744
O O3 0.189909 0.404163 0.666578
O O4 0.882262 0.093548 0.302543
O O5 0.899132 0.191754 0.569095
O O6 0.000000 0.143488 0.250000
O O7 0.898776 0.200495 0.067831
O O8 0.750475 0.929160 0.865732
O O9 0.837107 0.990697 0.522956
O O10 0.086103 0.614361 0.527809
O O11 0.000000 0.533177 0.750000
O O12 0.068329 0.604679 0.026096
O O13 0.388999 0.079009 0.064532
O O14 0.326638 0.981535 0.247134
O O15 0.123824 0.702776 0.201367
O O16 0.000000 0.749008 0.250000
O O17 0.500000 0.104943 0.250000
O O18 0.500000 0.000000 0.500000
O O19 0.500000 0.104958 0.750000
#
# Coordination Sequence:
#
# PCOD8116636 Si02
#       8
#     4   4   4   4   4   4   4   4
#     4   8  16  24  31  45  66  88 107 128 151 183
#     4  10  21  35  46  58  71  84 108 145 191 230
#     4  10  21  33  48  62  74  89 110 142 178 223
#     4  10  17  23  32  47  68  88 107 129 152 186
#     4  10  16  25  37  57  78  96 117 132 152 189
#     4  10  19  30  44  56  69  86 107 140 178 223
#     4  10  18  26  36  50  65  85 109 129 159 200
#     4  10  14  20  34  53  79 106 118 127 143 168
#
# _framework density 14.460623
#
# number of rings (size 3 to 8) (size 9 to 14) (size 15 to 20)
#    0.000    2.250    2.500    2.625    0.000    6.500 
#    0.000    0.000    0.000    0.000    0.000    0.000 
#    0.000    0.000    0.000    0.000    0.000    0.000 
#
# Total GULP energy -396470.763643 kJ/mol
# GULP energy per Si atom -12389.711364 kJ/mol
# Density = 1.442771 g / cm^3
# Si number density = 14.460623 Si / 1000 Ang^3
#
#
#
# Elastic Constant Matrix: (Units=GPa)
#
#
# Indices 1 2 3 4 5 6 
#
# 1 41.7137 25.9105 17.1471 0.0000 2.1056 0.0000
# 2 25.9105 56.4750 16.5394 0.0000 1.1394 0.0000
# 3 17.1471 16.5394 101.9494 0.0000 16.1701 0.0000
# 4 0.0000 0.0000 0.0000 16.2460 0.0000 2.9536
# 5 2.1056 1.1394 16.1701 0.0000 14.6859 0.0000
# 6 0.0000 0.0000 0.0000 2.9536 0.0000 0.3774
#
#
#
# Elastic Compliance Matrix: (Units=1/GPa)
#
#
# Indices 1 2 3 4 5 6 
#
# 1 0.034620 -0.014887 -0.003397 0.000000 -0.000069 0.000000
# 2 -0.014887 0.025055 -0.001928 0.000000 0.002313 0.000000
# 3 -0.003397 -0.001928 0.012833 0.000000 -0.013493 0.000000
# 4 0.000000 0.000000 0.000000 -0.145539 0.000000 1.139092
# 5 -0.000069 0.002313 -0.013493 0.000000 0.082780 0.000000
# 6 0.000000 0.000000 0.000000 1.139092 0.000000 -6.265448
#
#
# Mechanical properties :
#
#
# Convention : Reuss Voigt Hill
#
# Bulk Modulus (GPa) = 31.16761 35.48134 33.32447
# Shear Modulus (GPa) = -0.80586 15.63128 7.41271
#
# Velocity S-wave (km/s) = -0.74732 3.29135 2.26655
# Velocity P-wave (km/s) = 4.56679 6.24770 5.47217
#
# Compressibility (1/GPa) = 0.03208459
#
# Stress axis : x y z
#
# Youngs Moduli (GPa) = 28.88509 39.91211 77.92431
#
# Poissons Ratio (x) = 0.59418 0.26469
# Poissons Ratio (y) = 0.43002 0.15021
# Poissons Ratio (z) = 0.09811 0.07694
#
# Static dielectric constant tensor:
#      x y z
#    x 2.549950 0.000000 0.287640 
#    y 0.000000 2.479400 0.000000 
#    z 0.287640 0.000000 3.859980 
# 
# 
# High freq. dielectric constant tensor:
#      x y z
#    x 1.494970 0.000000 0.021010 
#    y 0.000000 1.506990 0.000000 
#    z 0.021010 0.000000 1.592350 
# 
# From -- ./inp_files/6470.got.cif
#   From: 2010.06.25/outbox.cif.g09.slc.cpg/sg13_4_cif.got.tgz:6470.got - 2010.06.28 04:50:58.
