data_PCOD8116605
_publ_section_title
;
Structure prediction by ZEFSAII (Michael W. Deem and Ramdas Pophale) SiO2 
 PCOD8116605
Probable space group: C 2/M
;
_chemical_formula_sum "Si O2"
_cell_formula_units_Z 24
_cell_length_a 18.000000
_cell_length_b 15.000000
_cell_length_c 18.000000
_cell_angle_alpha 90.000000
_cell_angle_beta 30.000000
_cell_angle_gamma 90.000000
_cell_volume 2430.000000
_symmetry_space_group_name_H-M "C 2/M"
_symmetry_group_IT_number 12
_symmetry_cell_setting 'monoclinic'
loop_
_space_group_symop_operation_xyz
x,y,z
-x,y,-z
-x,-y,-z
x,-y,z
1/2+x,1/2+y,z
1/2-x,1/2+y,-z
1/2-x,1/2-y,-z
1/2+x,1/2-y,z
loop_
_atom_site_type_symbol
_atom_site_label
_atom_site_fract_x
_atom_site_fract_y
_atom_site_fract_z
Si Si1 0.911287 0.760915 0.896844
Si Si2 0.662614 0.500000 0.266982
Si Si3 0.832833 0.286306 0.617029
Si Si4 0.657406 0.826345 0.891947
Si Si5 0.285322 0.829375 0.404906
Si Si6 0.175150 0.000000 0.432129
Si Si7 0.150758 0.104464 0.673423
O O1 0.040615 0.698726 0.749366
O O2 0.980010 0.861562 0.831526
O O3 0.750000 0.750000 0.000000
O O4 0.882230 0.739307 0.007194
O O5 0.742889 0.410507 0.167965
O O6 0.664434 0.500000 0.353679
O O7 0.490979 0.500000 0.387972
O O8 0.744146 0.232669 0.756570
O O9 0.830757 0.229321 0.543125
O O10 0.744875 0.376900 0.668096
O O11 0.000000 0.307051 0.500000
O O12 0.500000 0.864622 0.000000
O O13 0.225145 0.836405 0.541883
O O14 0.278782 0.922332 0.370243
O O15 0.152447 0.000000 0.652667
#
# Coordination Sequence:
#
# PCOD8116605 Si02
#       7
#     8   4   8   8   8   4   8
#     4  11  26  43  64  94 130 169 210 258 331 388
#     4  11  23  34  64 100 134 159 204 265 325 391
#     4  11  23  40  69  95 126 168 219 263 320 384
#     4  12  22  41  62  95 130 169 207 260 326 385
#     4  11  22  42  65  94 130 166 212 260 317 386
#     4  11  20  38  62 102 127 162 210 259 315 383
#     4  11  25  46  67  92 127 174 222 267 312 375
#
# _framework density 9.8765429999999999
#
# number of rings (size 3 to 8) (size 9 to 14) (size 15 to 20)
#    0.000    0.833    5.833    3.250    7.000    1.000 
#    1.500    1.667    0.000    0.000    0.000    0.000 
#    0.000    0.000    0.000    0.000    0.000    0.000 
#
# Total GULP energy -297364.984463 kJ/mol
# GULP energy per Si atom -12390.207686 kJ/mol
# Density = 0.985406 g / cm^3
# Si number density = 9.876543 Si / 1000 Ang^3
#
#
#
# Elastic Constant Matrix: (Units=GPa)
#
#
# Indices 1 2 3 4 5 6 
#
# 1 106.8508 45.5917 54.6649 -0.0014 -23.8148 0.0006
# 2 45.5917 85.7961 54.1389 -0.0062 2.4769 0.0035
# 3 54.6649 54.1389 133.7124 -0.0046 -16.1656 0.0034
# 4 -0.0014 -0.0062 -0.0046 34.3720 0.0021 3.0096
# 5 -23.8148 2.4769 -16.1656 0.0021 56.5249 -0.0009
# 6 0.0006 0.0035 0.0034 3.0096 -0.0009 21.9262
#
#
#
# Elastic Compliance Matrix: (Units=1/GPa)
#
#
# Indices 1 2 3 4 5 6 
#
# 1 0.014709 -0.006202 -0.002818 -0.000001 0.005663 0.000001
# 2 -0.006202 0.018645 -0.005623 0.000003 -0.005038 -0.000003
# 3 -0.002818 -0.005623 0.011180 0.000000 0.002257 -0.000001
# 4 -0.000001 0.000003 0.000000 0.029447 -0.000002 -0.004042
# 5 0.005663 -0.005038 0.002257 -0.000002 0.020943 0.000001
# 6 0.000001 -0.000003 -0.000001 -0.004042 0.000001 0.046162
#
#
# Mechanical properties :
#
#
# Convention : Reuss Voigt Hill
#
# Bulk Modulus (GPa) = 65.57666 70.57225 68.07446
# Shear Modulus (GPa) = 28.49764 34.02888 31.26326
#
# Velocity S-wave (km/s) = 3.80240 4.15506 3.98264
# Velocity P-wave (km/s) = 7.24899 7.66969 7.46231
#
# Compressibility (1/GPa) = 0.01524933
#
# Stress axis : x y z
#
# Youngs Moduli (GPa) = 67.98738 53.63511 89.44498
#
# Poissons Ratio (x) = 0.33262 0.25202
# Poissons Ratio (y) = 0.42163 0.50292
# Poissons Ratio (z) = 0.19156 0.30157
#
# Static dielectric constant tensor:
#      x y z
#    x 3.930500 -0.000010 -0.082200 
#    y -0.000010 3.751230 0.000000 
#    z -0.082200 0.000000 3.902420 
# 
# 
# High freq. dielectric constant tensor:
#      x y z
#    x 1.780450 0.000000 -0.002840 
#    y 0.000000 1.767130 0.000000 
#    z -0.002840 0.000000 1.786110 
# 
# From -- ./inp_files/278054.got.cif
#   From: 2010.06.25/outbox.ucp.g09.slc.cvg/sg12_140_cif.got.tgz:278054.got - 2010.06.28 13:50:54.
