data_PCOD8116127
_publ_section_title
;
Structure prediction by ZEFSAII (Michael W. Deem and Ramdas Pophale) SiO2 
 PCOD8116127
Probable space group: C 2/M
;
_chemical_formula_sum "Si O2"
_cell_formula_units_Z 40
_cell_length_a 10.095815
_cell_length_b 28.807079
_cell_length_c 8.602193
_cell_angle_alpha 90.000000
_cell_angle_beta 47.751304
_cell_angle_gamma 90.000000
_cell_volume 1851.904061
_symmetry_space_group_name_H-M "C 2/M"
_symmetry_group_IT_number 12
_symmetry_cell_setting 'monoclinic'
loop_
_space_group_symop_operation_xyz
x,y,z
-x,y,-z
-x,-y,-z
x,-y,z
1/2+x,1/2+y,z
1/2-x,1/2+y,-z
1/2-x,1/2-y,-z
1/2+x,1/2-y,z
loop_
_atom_site_type_symbol
_atom_site_label
_atom_site_fract_x
_atom_site_fract_y
_atom_site_fract_z
Si Si1 0.761964 0.114170 0.421761
Si Si2 0.382027 0.115424 0.812745
Si Si3 0.069776 0.947426 0.121105
Si Si4 0.363381 0.288759 0.253844
Si Si5 0.108762 0.279887 0.202288
O O1 0.591534 0.101979 0.664366
O O2 0.690362 0.111989 0.303738
O O3 0.849091 0.165496 0.373972
O O4 0.912619 0.076428 0.345452
O O5 0.375739 0.168257 0.878732
O O6 0.254618 0.080456 0.008890
O O7 0.099926 0.000000 0.152767
O O8 0.000000 0.945464 0.000000
O O9 0.163404 0.279734 0.342047
O O10 0.417220 0.244188 0.317185
O O11 0.500000 0.297649 0.000000
O O12 0.250000 0.250000 0.000000
#
# Coordination Sequence:
#
# PCOD8116127 Si02
#       5
#     8   8   8   8   8
#     4   9  16  27  41  58  83 114 146 177 217 262
#     4   9  17  27  40  59  84 114 144 178 219 261
#     4   9  16  26  40  58  82 112 145 180 218 263
#     4   9  16  27  43  62  87 119 150 180 214 256
#     4   9  16  27  43  62  88 120 149 179 215 256
#
# _framework density 21.599391000000001
#
# number of rings (size 3 to 8) (size 9 to 14) (size 15 to 20)
#    0.000    3.000    0.000    4.200    0.000    1.600 
#    0.000    4.000    0.000    0.000    0.000    0.000 
#    0.000   20.000    0.000   30.600    0.000   46.000 
#
# Total GULP energy -247777.757296 kJ/mol
# GULP energy per Si atom -12388.887865 kJ/mol
# Density = 2.155023 g / cm^3
# Si number density = 21.599391 Si / 1000 Ang^3
#
#
#
# Elastic Constant Matrix: (Units=GPa)
#
#
# Indices 1 2 3 4 5 6 
#
# 1 51.7498 53.3565 32.5257 0.0000 -26.7710 0.0000
# 2 53.3565 209.3062 78.6289 0.0000 -45.8861 0.0000
# 3 32.5257 78.6289 100.7670 0.0000 -50.6169 0.0000
# 4 0.0000 0.0000 0.0000 21.3241 0.0000 -9.7649
# 5 -26.7710 -45.8861 -50.6169 0.0000 34.3175 0.0000
# 6 0.0000 0.0000 0.0000 -9.7649 0.0000 27.5481
#
#
#
# Elastic Compliance Matrix: (Units=1/GPa)
#
#
# Indices 1 2 3 4 5 6 
#
# 1 0.038337 -0.005477 0.012517 0.000000 0.041045 0.000000
# 2 -0.005477 0.007758 -0.004713 0.000000 -0.000851 0.000000
# 3 0.012517 -0.004713 0.043614 0.000000 0.067790 0.000000
# 4 0.000000 0.000000 0.000000 0.055982 0.000000 0.019844
# 5 0.041045 -0.000851 0.067790 0.000000 0.160009 0.000000
# 6 0.000000 0.000000 0.000000 0.019844 0.000000 0.043334
#
#
# Mechanical properties :
#
#
# Convention : Reuss Voigt Hill
#
# Bulk Modulus (GPa) = 10.59748 76.76058 43.67903
# Shear Modulus (GPa) = 13.30375 29.79208 21.54792
#
# Velocity S-wave (km/s) = 2.48449 3.71792 3.16193
# Velocity P-wave (km/s) = 3.62592 7.35160 5.79626
#
# Compressibility (1/GPa) = 0.09436202
#
# Stress axis : x y z
#
# Youngs Moduli (GPa) = 26.08464 128.90274 22.92860
#
# Poissons Ratio (x) = 0.70594 -0.28699
# Poissons Ratio (y) = 0.14285 0.10807
# Poissons Ratio (z) = -0.32649 0.60754
#
# Static dielectric constant tensor:
#      x y z
#    x 4.283790 0.000000 -1.145150 
#    y 0.000000 4.114250 0.000000 
#    z -1.145150 0.000000 5.185080 
# 
# 
# High freq. dielectric constant tensor:
#      x y z
#    x 1.796790 0.000000 -0.050040 
#    y 0.000000 1.841080 0.000000 
#    z -0.050040 0.000000 1.849130 
# 
# From -- ./inp_files/53674.got.cif
#   From: 2010.06.25/outbox.cif.g09.slc.cpg/sg12_27_cif.got.tgz:53674.got - 2010.06.28 00:19:55.
