data_PCOD8116932
_publ_section_title
;
Structure prediction by ZEFSAII (Michael W. Deem and Ramdas Pophale) SiO2 
 PCOD8116932
Probable space group: P 2/C
;
_chemical_formula_sum "Si O2"
_cell_formula_units_Z 28
_cell_length_a 11.621141
_cell_length_b 15.861727
_cell_length_c 9.428065
_cell_angle_alpha 90.000000
_cell_angle_beta 48.809106
_cell_angle_gamma 90.000000
_cell_volume 1307.794831
_symmetry_space_group_name_H-M "P 2/C"
_symmetry_group_IT_number 13
_symmetry_cell_setting 'monoclinic'
loop_
_space_group_symop_operation_xyz
x,y,z
-x,y,1/2-z
-x,-y,-z
x,-y,1/2+z
loop_
_atom_site_type_symbol
_atom_site_label
_atom_site_fract_x
_atom_site_fract_y
_atom_site_fract_z
Si Si1 0.814976 0.586001 0.400801
Si Si2 0.043802 0.266229 0.366940
Si Si3 0.408511 0.896064 0.063686
Si Si4 0.150015 0.450009 0.332753
Si Si5 0.296190 0.018039 0.928635
Si Si6 0.245851 0.112900 0.235210
Si Si7 0.151903 0.238196 0.716869
O O1 0.755065 0.510240 0.349892
O O2 0.749085 0.565683 0.609683
O O3 0.756886 0.679288 0.411419
O O4 0.000000 0.590246 0.250000
O O5 0.110816 0.360159 0.294945
O O6 0.162029 0.199779 0.337927
O O7 0.000000 0.231847 0.250000
O O8 0.894971 0.264076 0.585985
O O9 0.377912 0.918321 0.253122
O O10 0.273068 0.836984 0.116059
O O11 0.576995 0.857809 0.916444
O O12 0.413792 0.975255 0.948469
O O13 0.000000 0.500000 0.500000
O O14 0.208847 0.949902 0.898970
O O15 0.191614 0.070941 0.127244
O O16 0.000000 0.214964 0.750000
#
# Coordination Sequence:
#
# PCOD8116932 Si02
#       7
#     4   4   4   4   4   4   4
#     4   9  17  31  53  80 109 146 187 224 268 335
#     4  12  23  35  55  90 121 144 186 244 287 335
#     4  11  21  38  63  80 109 152 197 243 280 340
#     4  10  17  33  56  82 111 150 192 225 266 342
#     4  10  21  40  62  80 106 156 207 235 276 352
#     4  11  22  39  60  85 109 149 202 239 283 336
#     4  11  21  37  54  85 119 147 186 235 293 343
#
# _framework density 21.410086
#
# number of rings (size 3 to 8) (size 9 to 14) (size 15 to 20)
#    0.000    1.429    4.286    6.429    0.000    0.000 
#    0.000   14.286    0.000    0.857    0.000    0.000 
#    0.000    0.000    0.000    0.000    0.000    0.000 
#
# Total GULP energy -346876.190769 kJ/mol
# GULP energy per Si atom -12388.435385 kJ/mol
# Density = 2.136136 g / cm^3
# Si number density = 21.410086 Si / 1000 Ang^3
#
#
#
# Elastic Constant Matrix: (Units=GPa)
#
#
# Indices 1 2 3 4 5 6 
#
# 1 59.4529 39.0942 36.3399 0.0000 18.0442 0.0000
# 2 39.0942 116.3857 20.8855 0.0000 -4.2480 0.0000
# 3 36.3399 20.8855 74.8114 0.0000 35.2877 0.0000
# 4 0.0000 0.0000 0.0000 24.3737 0.0000 14.8976
# 5 18.0442 -4.2480 35.2877 0.0000 33.7923 0.0000
# 6 0.0000 0.0000 0.0000 14.8976 0.0000 19.3997
#
#
#
# Elastic Compliance Matrix: (Units=1/GPa)
#
#
# Indices 1 2 3 4 5 6 
#
# 1 0.030446 -0.009135 -0.007940 0.000000 -0.009115 0.000000
# 2 -0.009135 0.012846 -0.004358 0.000000 0.011043 0.000000
# 3 -0.007940 -0.004358 0.032908 0.000000 -0.030673 0.000000
# 4 0.000000 0.000000 0.000000 0.077319 0.000000 -0.059376
# 5 -0.009115 0.011043 -0.030673 0.000000 0.067878 0.000000
# 6 0.000000 0.000000 0.000000 -0.059376 0.000000 0.097144
#
#
# Mechanical properties :
#
#
# Convention : Reuss Voigt Hill
#
# Bulk Modulus (GPa) = 29.99857 49.25436 39.62646
# Shear Modulus (GPa) = 13.42215 25.80183 19.61199
#
# Velocity S-wave (km/s) = 2.50653 3.47526 3.02986
# Velocity P-wave (km/s) = 4.73484 6.25766 5.54874
#
# Compressibility (1/GPa) = 0.03333493
#
# Stress axis : x y z
#
# Youngs Moduli (GPa) = 32.84468 77.84737 30.38732
#
# Poissons Ratio (x) = 0.71112 0.24128
# Poissons Ratio (y) = 0.30003 0.13243
# Poissons Ratio (z) = 0.26079 0.33925
#
# Static dielectric constant tensor:
#      x y z
#    x 3.644770 0.000000 0.728850 
#    y 0.000000 4.302780 0.000000 
#    z 0.728850 0.000000 4.227870 
# 
# 
# High freq. dielectric constant tensor:
#      x y z
#    x 1.799730 0.000000 0.051450 
#    y 0.000000 1.848440 0.000000 
#    z 0.051450 0.000000 1.839740 
# 
# From -- ./inp_files/16652.got.cif
#   From: 2010.06.25/outbox.cif.g09.slc.cpg/sg13_9_cif.got.tgz:16652.got - 2010.06.28 04:50:58.
