data_PCOD8116501
_publ_section_title
;
Structure prediction by ZEFSAII (Michael W. Deem and Ramdas Pophale) SiO2 
 PCOD8116501
Probable space group: C 2/M
;
_chemical_formula_sum "Si O2"
_cell_formula_units_Z 24
_cell_length_a 27.000000
_cell_length_b 9.000000
_cell_length_c 15.000000
_cell_angle_alpha 90.000000
_cell_angle_beta 140.000000
_cell_angle_gamma 90.000000
_cell_volume 2342.960837
_symmetry_space_group_name_H-M "C 2/M"
_symmetry_group_IT_number 12
_symmetry_cell_setting 'monoclinic'
loop_
_space_group_symop_operation_xyz
x,y,z
-x,y,-z
-x,-y,-z
x,-y,z
1/2+x,1/2+y,z
1/2-x,1/2+y,-z
1/2-x,1/2-y,-z
1/2+x,1/2-y,z
loop_
_atom_site_type_symbol
_atom_site_label
_atom_site_fract_x
_atom_site_fract_y
_atom_site_fract_z
Si Si1 0.899387 0.173404 0.930881
Si Si2 0.066732 0.173697 0.218216
Si Si3 0.918011 0.330002 0.249454
Si Si4 0.192465 0.669531 0.054758
Si Si5 0.089839 0.329927 0.426024
Si Si6 0.135960 0.169763 0.663448
O O1 0.887753 0.208006 0.810302
O O2 0.829555 0.248887 0.884995
O O3 0.896835 0.000000 0.944203
O O4 0.980012 0.233146 0.082091
O O5 0.109450 0.258616 0.357378
O O6 0.066698 0.000000 0.240817
O O7 0.900163 0.500000 0.249748
O O8 0.924499 0.240699 0.351012
O O9 0.998903 0.310485 0.312693
O O10 0.851493 0.264069 0.092381
O O11 0.166256 0.500000 0.027915
O O12 0.283614 0.687985 0.173181
O O13 0.115975 0.500000 0.461430
O O14 0.136672 0.250917 0.569495
O O15 0.114182 0.000000 0.615772
#
# Coordination Sequence:
#
# PCOD8116501 Si02
#       6
#     8   8   8   8   8   8
#     4   9  18  33  57  86 113 142 178 225 275 325
#     4   9  18  34  56  85 115 141 178 226 274 325
#     4  10  21  38  58  81 109 143 187 233 274 322
#     4  10  21  38  57  82 114 146 183 228 275 324
#     4  11  22  37  58  83 112 147 184 227 277 326
#     4  11  24  38  55  80 113 150 186 227 274 327
#
# _framework density 10.243449
#
# number of rings (size 3 to 8) (size 9 to 14) (size 15 to 20)
#    0.000    2.000    1.667    3.000    0.000    6.000 
#    0.000    2.500    0.000    0.000    0.000    0.000 
#    0.000    0.000    0.000    0.000    0.000    0.000 
#
# Total GULP energy -297601.369366 kJ/mol
# GULP energy per Si atom -12400.057057 kJ/mol
# Density = 1.022013 g / cm^3
# Si number density = 10.243449 Si / 1000 Ang^3
#
#
#
# Elastic Constant Matrix: (Units=GPa)
#
#
# Indices 1 2 3 4 5 6 
#
# 1 70.3087 40.3565 14.0263 0.0000 -29.5534 0.0000
# 2 40.3565 73.7655 38.3598 0.0000 -19.7882 0.0000
# 3 14.0263 38.3598 90.0555 0.0000 -27.6900 0.0000
# 4 0.0000 0.0000 0.0000 27.8811 0.0000 -10.3337
# 5 -29.5534 -19.7882 -27.6900 0.0000 30.6058 0.0000
# 6 0.0000 0.0000 0.0000 -10.3337 0.0000 33.3188
#
#
#
# Elastic Compliance Matrix: (Units=1/GPa)
#
#
# Indices 1 2 3 4 5 6 
#
# 1 0.036238 -0.016778 0.012367 0.000000 0.035332 0.000000
# 2 -0.016778 0.026106 -0.011497 0.000000 -0.009724 0.000000
# 3 0.012367 -0.011497 0.021420 0.000000 0.023888 0.000000
# 4 0.000000 0.000000 0.000000 0.040525 0.000000 0.012569
# 5 0.035332 -0.009724 0.023888 0.000000 0.082116 0.000000
# 6 0.000000 0.000000 0.000000 0.012569 0.000000 0.033911
#
#
# Mechanical properties :
#
#
# Convention : Reuss Voigt Hill
#
# Bulk Modulus (GPa) = 19.25031 46.62388 32.93709
# Shear Modulus (GPa) = 17.27428 27.78694 22.53061
#
# Velocity S-wave (km/s) = 2.90692 3.68683 3.31986
# Velocity P-wave (km/s) = 4.54793 6.39773 5.55043
#
# Compressibility (1/GPa) = 0.05194722
#
# Stress axis : x y z
#
# Youngs Moduli (GPa) = 27.59545 38.30591 46.68517
#
# Poissons Ratio (x) = 0.64270 -0.57733
# Poissons Ratio (y) = 0.46300 0.53672
# Poissons Ratio (z) = -0.34126 0.44038
#
# Static dielectric constant tensor:
#      x y z
#    x 3.505120 0.000000 -0.180780 
#    y 0.000000 3.544810 0.000000 
#    z -0.180780 0.000000 3.621200 
# 
# 
# High freq. dielectric constant tensor:
#      x y z
#    x 1.785360 0.000000 -0.021970 
#    y 0.000000 1.787490 0.000000 
#    z -0.021970 0.000000 1.799570 
# 
# From -- ./inp_files/229866.got.cif
#   From: 2010.06.25/outbox.ucp.g09.slc.cvg/sg12_115_cif.got.tgz:229866.got - 2010.06.28 13:50:54.
