data_PCOD8116322
_publ_section_title
;
Structure prediction by ZEFSAII (Michael W. Deem and Ramdas Pophale) SiO2 
 PCOD8116322
Probable space group: C 2/M
;
_chemical_formula_sum "Si O2"
_cell_formula_units_Z 32
_cell_length_a 24.000000
_cell_length_b 9.000000
_cell_length_c 21.000000
_cell_angle_alpha 90.000000
_cell_angle_beta 60.000000
_cell_angle_gamma 90.000000
_cell_volume 3928.291232
_symmetry_space_group_name_H-M "C 2/M"
_symmetry_group_IT_number 12
_symmetry_cell_setting 'monoclinic'
loop_
_space_group_symop_operation_xyz
x,y,z
-x,y,-z
-x,-y,-z
x,-y,z
1/2+x,1/2+y,z
1/2-x,1/2+y,-z
1/2-x,1/2-y,-z
1/2+x,1/2-y,z
loop_
_atom_site_type_symbol
_atom_site_label
_atom_site_fract_x
_atom_site_fract_y
_atom_site_fract_z
Si Si1 0.164809 0.676071 0.925317
Si Si2 0.095079 0.330012 0.095456
Si Si3 0.301136 0.824130 0.516602
Si Si4 0.649463 0.327776 0.805698
Si Si5 0.769750 0.669759 0.339728
Si Si6 0.606846 0.166091 0.640754
Si Si7 0.470544 0.330823 0.217505
Si Si8 0.726031 0.827999 0.076484
O O1 0.169889 0.500000 0.917113
O O2 0.132593 0.744204 0.880931
O O3 0.237398 0.744610 0.886931
O O4 0.122806 0.724255 0.011055
O O5 0.074182 0.500000 0.100605
O O6 0.148593 0.311060 0.120851
O O7 0.033269 0.240048 0.151276
O O8 0.250000 0.750000 0.500000
O O9 0.292041 0.750511 0.591762
O O10 0.371724 0.792594 0.444356
O O11 0.288147 0.000000 0.528250
O O12 0.664648 0.500000 0.809632
O O13 0.711551 0.253980 0.736187
O O14 0.586959 0.305822 0.798563
O O15 0.751350 0.500000 0.334514
O O16 0.829708 0.679508 0.352753
O O17 0.549714 0.266870 0.701623
O O18 0.579472 0.000000 0.658247
O O19 0.486954 0.500000 0.220076
O O20 0.746089 0.000000 0.064670
O O21 0.750000 0.750000 0.000000
#
# Coordination Sequence:
#
# PCOD8116322 Si02
#       8
#     8   8   8   8   8   8   8   8
#     4  10  20  33  49  68  87 114 149 185 225 267
#     4   9  19  33  48  65  87 115 146 180 223 269
#     4   9  15  23  37  57  79 108 144 180 217 258
#     4  10  20  32  44  62  90 122 152 185 221 262
#     4   9  16  26  40  58  81 112 146 181 218 259
#     4   8  15  26  39  55  80 113 145 177 216 259
#     4  10  20  30  43  63  88 119 153 186 220 257
#     4   9  17  31  50  70  88 109 139 180 227 269
#
# _framework density 8.1460360000000005
#
# number of rings (size 3 to 8) (size 9 to 14) (size 15 to 20)
#    0.000    2.750    0.000    3.750    0.000    8.500 
#    0.000    2.500    0.000    0.000    0.000    0.000 
#    0.000    1.000    0.000   10.500    0.000    7.625 
#
# Total GULP energy -396527.279811 kJ/mol
# GULP energy per Si atom -12391.477494 kJ/mol
# Density = 0.812749 g / cm^3
# Si number density = 8.146036 Si / 1000 Ang^3
#
#
#
# Elastic Constant Matrix: (Units=GPa)
#
#
# Indices 1 2 3 4 5 6 
#
# 1 23.2824 32.5051 34.0977 0.0000 -6.1268 -0.0004
# 2 32.5051 118.1620 69.9552 0.0008 -15.1700 -0.0007
# 3 34.0977 69.9552 125.9645 0.0001 -24.1752 -0.0002
# 4 0.0000 0.0008 0.0001 34.1209 -0.0001 -2.0800
# 5 -6.1268 -15.1700 -24.1752 -0.0001 6.8820 0.0001
# 6 -0.0004 -0.0007 -0.0002 -2.0800 0.0001 21.9538
#
#
#
# Elastic Compliance Matrix: (Units=1/GPa)
#
#
# Indices 1 2 3 4 5 6 
#
# 1 0.086967 -0.015499 -0.020353 0.000000 -0.028240 0.000001
# 2 -0.015499 0.015590 -0.001582 0.000000 0.015011 0.000000
# 3 -0.020353 -0.001582 0.031244 0.000000 0.088148 0.000000
# 4 0.000000 0.000000 0.000000 0.029478 0.000000 0.002793
# 5 -0.028240 0.015011 0.088148 0.000000 0.462902 0.000000
# 6 0.000001 0.000000 0.000000 0.002793 0.000000 0.045815
#
#
# Mechanical properties :
#
#
# Convention : Reuss Voigt Hill
#
# Bulk Modulus (GPa) = 16.96862 60.05830 38.51346
# Shear Modulus (GPa) = 6.52308 21.31474 13.91891
#
# Velocity S-wave (km/s) = 2.00313 3.62095 2.92607
# Velocity P-wave (km/s) = 3.97340 7.37735 5.92508
#
# Compressibility (1/GPa) = 0.05893229
#
# Stress axis : x y z
#
# Youngs Moduli (GPa) = 11.49864 64.14296 32.00599
#
# Poissons Ratio (x) = 0.99417 0.65143
# Poissons Ratio (y) = 0.17822 0.05062
# Poissons Ratio (z) = 0.23404 0.10145
#
# Static dielectric constant tensor:
#      x y z
#    x 2.819910 0.000000 -0.082330 
#    y 0.000000 3.290520 0.000000 
#    z -0.082330 0.000000 3.552840 
# 
# 
# High freq. dielectric constant tensor:
#      x y z
#    x 1.568270 0.000000 -0.009410 
#    y 0.000000 1.643570 0.000000 
#    z -0.009410 0.000000 1.631460 
# 
# From -- ./inp_files/323692.got.cif
#   From: 2010.06.25/outbox.ucp.g09.slc.cvg/sg12_162_cif.got.tgz:323692.got - 2010.06.28 13:50:54.
