data_PCOD8116266
_publ_section_title
;
Structure prediction by ZEFSAII (Michael W. Deem and Ramdas Pophale) SiO2 
 PCOD8116266
Probable space group: C 2/M
;
_chemical_formula_sum "Si O2"
_cell_formula_units_Z 28
_cell_length_a 9.000000
_cell_length_b 18.000000
_cell_length_c 27.000000
_cell_angle_alpha 90.000000
_cell_angle_beta 40.000000
_cell_angle_gamma 90.000000
_cell_volume 2811.553005
_symmetry_space_group_name_H-M "C 2/M"
_symmetry_group_IT_number 12
_symmetry_cell_setting 'monoclinic'
loop_
_space_group_symop_operation_xyz
x,y,z
-x,y,-z
-x,-y,-z
x,-y,z
1/2+x,1/2+y,z
1/2-x,1/2+y,-z
1/2-x,1/2-y,-z
1/2+x,1/2-y,z
loop_
_atom_site_type_symbol
_atom_site_label
_atom_site_fract_x
_atom_site_fract_y
_atom_site_fract_z
Si Si1 0.340580 0.335354 0.254093
Si Si2 0.001918 0.166599 0.580107
Si Si3 0.791208 0.417184 0.272522
Si Si4 0.137547 0.677312 0.588796
Si Si5 0.640197 0.793346 0.203915
Si Si6 0.227096 0.582364 0.836924
Si Si7 0.008916 0.288162 0.053388
O O1 0.446349 0.270082 0.261390
O O2 0.294330 0.297017 0.213374
O O3 0.528209 0.400387 0.198728
O O4 0.103105 0.365933 0.339380
O O5 0.083493 0.239103 0.587597
O O6 0.214861 0.136493 0.491888
O O7 0.931896 0.106009 0.638471
O O8 0.779420 0.182470 0.603198
O O9 0.858904 0.500000 0.270177
O O10 0.717614 0.409944 0.234806
O O11 0.022617 0.371543 0.223637
O O12 0.805493 0.771088 0.115934
O O13 0.145054 0.500000 0.872561
O O14 0.025266 0.639380 0.903463
O O15 0.250000 0.250000 0.000000
O O16 0.000000 0.316940 0.000000
#
# Coordination Sequence:
#
# PCOD8116266 Si02
#       7
#     8   8   8   8   8   8   8
#     4  11  19  35  61  86 115 153 196 245 283 340
#     4  10  21  34  54  88 115 150 195 245 299 336
#     4  11  22  39  57  80 119 160 197 240 291 342
#     4  10  19  34  56  86 116 147 195 248 294 334
#     4  11  21  36  61  88 115 147 196 240 287 347
#     4  10  24  41  60  86 119 157 194 238 292 349
#     4  11  22  39  63  90 115 146 186 238 293 350
#
# _framework density 9.9589090000000002
#
# number of rings (size 3 to 8) (size 9 to 14) (size 15 to 20)
#    0.000    1.429    2.857    4.286    2.000    0.857 
#    0.000    2.857    0.000    4.286    0.000    0.000 
#    0.000    0.000    0.000    0.000    0.000    0.000 
#
# Total GULP energy -347133.375661 kJ/mol
# GULP energy per Si atom -12397.620559 kJ/mol
# Density = 0.993624 g / cm^3
# Si number density = 9.958909 Si / 1000 Ang^3
#
#
#
# Elastic Constant Matrix: (Units=GPa)
#
#
# Indices 1 2 3 4 5 6 
#
# 1 75.4163 35.3238 37.0208 0.0084 -4.5633 -0.0029
# 2 35.3238 116.0763 62.2785 0.0150 -2.9710 -0.0073
# 3 37.0208 62.2785 142.6852 0.0153 -9.5086 -0.0021
# 4 0.0084 0.0150 0.0153 20.5561 0.0287 3.8282
# 5 -4.5633 -2.9710 -9.5086 0.0287 35.9333 -0.0150
# 6 -0.0029 -0.0073 -0.0021 3.8282 -0.0150 11.0087
#
#
#
# Elastic Compliance Matrix: (Units=1/GPa)
#
#
# Indices 1 2 3 4 5 6 
#
# 1 0.016254 -0.003519 -0.002609 -0.000004 0.001083 0.000004
# 2 -0.003519 0.012016 -0.004372 -0.000005 -0.000610 0.000007
# 3 -0.002609 -0.004372 0.009719 -0.000006 0.001879 0.000003
# 4 -0.000004 -0.000005 -0.000006 0.052016 -0.000052 -0.018088
# 5 0.001083 -0.000610 0.001879 -0.000052 0.028414 0.000057
# 6 0.000004 0.000007 0.000003 -0.018088 0.000057 0.097128
#
#
# Mechanical properties :
#
#
# Convention : Reuss Voigt Hill
#
# Bulk Modulus (GPa) = 58.86321 67.04711 62.95516
# Shear Modulus (GPa) = 20.64320 26.80327 23.72323
#
# Velocity S-wave (km/s) = 3.22284 3.67235 3.45491
# Velocity P-wave (km/s) = 6.59288 7.19142 6.89864
#
# Compressibility (1/GPa) = 0.01698854
#
# Stress axis : x y z
#
# Youngs Moduli (GPa) = 61.52244 83.22125 102.88991
#
# Poissons Ratio (x) = 0.29283 0.26847
# Poissons Ratio (y) = 0.21648 0.44988
# Poissons Ratio (z) = 0.16053 0.36388
#
# Static dielectric constant tensor:
#      x y z
#    x 3.691760 0.000050 -0.028490 
#    y 0.000050 3.368510 0.000010 
#    z -0.028490 0.000010 3.945740 
# 
# 
# High freq. dielectric constant tensor:
#      x y z
#    x 1.776900 0.000000 0.002350 
#    y 0.000000 1.736210 0.000000 
#    z 0.002350 0.000000 1.787950 
# 
# From -- ./inp_files/356679.got.cif
#   From: 2010.06.25/outbox.ucp.g09.slc.cvg/sg12_179_cif.got.tgz:356679.got - 2010.06.28 13:50:54.
