data_PCOD8116546
_publ_section_title
;
Structure prediction by ZEFSAII (Michael W. Deem and Ramdas Pophale) SiO2 
 PCOD8116546
Probable space group: C 2/M
;
_chemical_formula_sum "Si O2"
_cell_formula_units_Z 32
_cell_length_a 24.000000
_cell_length_b 9.000000
_cell_length_c 21.000000
_cell_angle_alpha 90.000000
_cell_angle_beta 50.000000
_cell_angle_gamma 90.000000
_cell_volume 3474.777594
_symmetry_space_group_name_H-M "C 2/M"
_symmetry_group_IT_number 12
_symmetry_cell_setting 'monoclinic'
loop_
_space_group_symop_operation_xyz
x,y,z
-x,y,-z
-x,-y,-z
x,-y,z
1/2+x,1/2+y,z
1/2-x,1/2+y,-z
1/2-x,1/2-y,-z
1/2+x,1/2-y,z
loop_
_atom_site_type_symbol
_atom_site_label
_atom_site_fract_x
_atom_site_fract_y
_atom_site_fract_z
Si Si1 0.714443 0.681634 0.847853
Si Si2 0.791824 0.824351 0.910695
Si Si3 0.062185 0.677335 0.007905
Si Si4 0.046464 0.172554 0.159395
Si Si5 0.703074 0.678571 0.331578
Si Si6 0.804138 0.174603 0.511526
Si Si7 0.968733 0.175080 0.347499
Si Si8 0.552624 0.175260 0.401710
O O1 0.714492 0.500000 0.846476
O O2 0.771428 0.741967 0.859256
O O3 0.736341 0.745105 0.760655
O O4 0.634906 0.741392 0.928227
O O5 0.876555 0.799879 0.862972
O O6 0.772724 0.000000 0.919710
O O7 0.750000 0.750000 0.000000
O O8 0.075628 0.500000 0.004125
O O9 0.040109 0.737472 0.096030
O O10 0.000000 0.709293 0.000000
O O11 0.987542 0.217807 0.258891
O O12 0.036203 0.000000 0.148614
O O13 0.708089 0.500000 0.320774
O O14 0.710662 0.722371 0.402430
O O15 0.626086 0.736130 0.362763
O O16 0.750000 0.250000 0.500000
O O17 0.885605 0.216006 0.427668
O O18 0.791313 0.000000 0.515920
O O19 0.019532 0.264188 0.359778
O O20 0.983335 0.000000 0.346249
O O21 0.500000 0.205390 0.500000
O O22 0.569028 0.000000 0.381906
#
# Coordination Sequence:
#
# PCOD8116546 Si02
#       8
#     8   8   8   8   8   8   8   8
#     4  12  25  41  64  94 126 163 206 255 312 370
#     4  11  21  36  61  94 128 163 199 247 307 370
#     4  11  25  44  65  89 121 161 208 258 310 368
#     4  10  22  39  63  92 122 158 203 250 304 367
#     4  11  23  41  64  91 125 166 208 252 307 371
#     4  10  23  41  63  88 119 161 208 257 306 362
#     4  10  21  40  63  90 122 161 206 248 303 369
#     4  11  22  36  60  95 129 161 201 252 308 366
#
# _framework density 9.2092220000000005
#
# number of rings (size 3 to 8) (size 9 to 14) (size 15 to 20)
#    0.000    1.250    2.500    3.375    0.000    6.000 
#    0.000    2.500    0.000    0.000    0.000    0.000 
#    0.000    0.000    0.000    0.000    0.000    0.000 
#
# Total GULP energy -396474.815415 kJ/mol
# GULP energy per Si atom -12389.837982 kJ/mol
# Density = 0.918826 g / cm^3
# Si number density = 9.209222 Si / 1000 Ang^3
#
#
#
# Elastic Constant Matrix: (Units=GPa)
#
#
# Indices 1 2 3 4 5 6 
#
# 1 146.6006 50.5179 60.7830 -0.0010 22.9233 0.0013
# 2 50.5179 134.0501 54.3989 -0.0023 10.9630 0.0031
# 3 60.7830 54.3989 189.9119 -0.0004 26.6034 0.0010
# 4 -0.0010 -0.0023 -0.0004 44.3154 0.0006 6.5073
# 5 22.9233 10.9630 26.6034 0.0006 44.3189 -0.0007
# 6 0.0013 0.0031 0.0010 6.5073 -0.0007 41.8434
#
#
#
# Elastic Compliance Matrix: (Units=1/GPa)
#
#
# Indices 1 2 3 4 5 6 
#
# 1 0.008817 -0.002381 -0.001729 0.000000 -0.002934 0.000000
# 2 -0.002381 0.009104 -0.001859 0.000000 0.000096 -0.000001
# 3 -0.001729 -0.001859 0.006727 0.000000 -0.002684 0.000000
# 4 0.000000 0.000000 0.000000 0.023093 -0.000001 -0.003591
# 5 -0.002934 0.000096 -0.002684 -0.000001 0.025669 0.000001
# 6 0.000000 -0.000001 0.000000 -0.003591 0.000001 0.024457
#
#
# Mechanical properties :
#
#
# Convention : Reuss Voigt Hill
#
# Bulk Modulus (GPa) = 78.67711 89.10689 83.89200
# Shear Modulus (GPa) = 43.84310 46.41972 45.13141
#
# Velocity S-wave (km/s) = 4.88422 5.02569 4.95546
# Velocity P-wave (km/s) = 8.63809 9.06427 8.85374
#
# Compressibility (1/GPa) = 0.01271018
#
# Stress axis : x y z
#
# Youngs Moduli (GPa) = 113.41116 109.84303 148.64408
#
# Poissons Ratio (x) = 0.26158 0.25701
# Poissons Ratio (y) = 0.27007 0.27632
# Poissons Ratio (z) = 0.19609 0.20419
#
# Static dielectric constant tensor:
#      x y z
#    x 3.753020 0.000000 0.238920 
#    y 0.000000 3.792330 0.000000 
#    z 0.238920 0.000000 4.267140 
# 
# 
# High freq. dielectric constant tensor:
#      x y z
#    x 1.736120 0.000000 0.016280 
#    y 0.000000 1.742190 0.000000 
#    z 0.016280 0.000000 1.766930 
# 
# From -- ./inp_files/324114.got.cif
#   From: 2010.06.25/outbox.ucp.g09.slc.cvg/sg12_163_cif.got.tgz:324114.got - 2010.06.28 13:50:54.
