data_PCOD8116258
_publ_section_title
;
Structure prediction by ZEFSAII (Michael W. Deem and Ramdas Pophale) SiO2 
 PCOD8116258
Probable space group: C 2/M
;
_chemical_formula_sum "Si O2"
_cell_formula_units_Z 32
_cell_length_a 18.000000
_cell_length_b 9.000000
_cell_length_c 30.000000
_cell_angle_alpha 90.000000
_cell_angle_beta 40.000000
_cell_angle_gamma 90.000000
_cell_volume 3123.947783
_symmetry_space_group_name_H-M "C 2/M"
_symmetry_group_IT_number 12
_symmetry_cell_setting 'monoclinic'
loop_
_space_group_symop_operation_xyz
x,y,z
-x,y,-z
-x,-y,-z
x,-y,z
1/2+x,1/2+y,z
1/2-x,1/2+y,-z
1/2-x,1/2-y,-z
1/2+x,1/2-y,z
loop_
_atom_site_type_symbol
_atom_site_label
_atom_site_fract_x
_atom_site_fract_y
_atom_site_fract_z
Si Si1 0.755363 0.327836 0.065547
Si Si2 0.829261 0.325906 0.712088
Si Si3 0.344946 0.333318 0.793611
Si Si4 0.752804 0.671275 0.428366
Si Si5 0.919192 0.329312 0.434642
Si Si6 0.426213 0.672422 0.928225
Si Si7 0.094903 0.167025 0.709605
Si Si8 0.392907 0.175017 0.209173
O O1 0.788703 0.500000 0.049220
O O2 0.711219 0.278402 0.134292
O O3 0.655603 0.293317 0.076023
O O4 0.869314 0.234759 0.999751
O O5 0.808252 0.500000 0.716301
O O6 0.809589 0.283879 0.772598
O O7 0.738038 0.231673 0.726038
O O8 0.952261 0.276806 0.635961
O O9 0.299696 0.500000 0.803015
O O10 0.483522 0.337366 0.729462
O O11 0.739736 0.500000 0.421185
O O12 0.844901 0.697187 0.424782
O O13 0.629297 0.733074 0.501824
O O14 0.795838 0.760038 0.365351
O O15 0.914966 0.500000 0.451426
O O16 0.452607 0.500000 0.922400
O O17 0.545836 0.756968 0.862863
O O18 0.050189 0.263310 0.771929
O O19 0.129508 0.000000 0.708613
O O20 0.401544 0.000000 0.202921
#
# Coordination Sequence:
#
# PCOD8116258 Si02
#       8
#     8   8   8   8   8   8   8   8
#     4   9  18  34  56  86 118 149 188 236 286 339
#     4  11  23  40  60  84 118 154 194 238 288 347
#     4  10  20  36  59  87 118 150 191 237 286 340
#     4  10  19  33  56  88 118 148 190 239 286 338
#     4   9  19  35  55  83 116 153 190 232 288 343
#     4  10  19  35  57  85 117 152 191 234 289 342
#     4  11  21  37  60  87 118 152 192 240 288 338
#     4  12  25  40  59  84 117 156 196 237 289 346
#
# _framework density 10.243449
#
# number of rings (size 3 to 8) (size 9 to 14) (size 15 to 20)
#    0.000    1.750    2.500    2.625    0.000    3.000 
#    0.000    1.250    0.000    7.500    0.000    0.000 
#    0.000    0.000    0.000    0.000    0.000    0.000 
#
# Total GULP energy -396807.842639 kJ/mol
# GULP energy per Si atom -12400.245082 kJ/mol
# Density = 1.022013 g / cm^3
# Si number density = 10.243449 Si / 1000 Ang^3
#
#
#
# Elastic Constant Matrix: (Units=GPa)
#
#
# Indices 1 2 3 4 5 6 
#
# 1 21.4267 18.1735 10.4908 0.0008 -3.8202 0.0056
# 2 18.1735 116.5544 69.1317 0.0008 -3.5240 0.0020
# 3 10.4908 69.1317 145.1593 -0.0003 3.0886 -0.0011
# 4 0.0008 0.0008 -0.0003 41.9463 0.0000 3.1562
# 5 -3.8202 -3.5240 3.0886 0.0000 23.9684 0.0010
# 6 0.0056 0.0020 -0.0011 3.1562 0.0010 25.0871
#
#
#
# Elastic Compliance Matrix: (Units=1/GPa)
#
#
# Indices 1 2 3 4 5 6 
#
# 1 0.055118 -0.008230 -0.000225 0.000000 0.007604 -0.000012
# 2 -0.008230 0.013337 -0.005787 0.000000 0.001395 0.000001
# 3 -0.000225 -0.005787 0.009707 0.000000 -0.002138 0.000001
# 4 0.000000 0.000000 0.000000 0.024068 0.000000 -0.003028
# 5 0.007604 0.001395 -0.002138 0.000000 0.043414 -0.000004
# 6 -0.000012 0.000001 0.000001 -0.003028 -0.000004 0.040242
#
#
# Mechanical properties :
#
#
# Convention : Reuss Voigt Hill
#
# Bulk Modulus (GPa) = 20.13030 53.19248 36.66139
# Shear Modulus (GPa) = 21.65159 30.55667 26.10413
#
# Velocity S-wave (km/s) = 3.25445 3.86621 3.57345
# Velocity P-wave (km/s) = 4.89584 6.77869 5.91269
#
# Compressibility (1/GPa) = 0.04967636
#
# Stress axis : x y z
#
# Youngs Moduli (GPa) = 18.14303 74.97666 103.02158
#
# Poissons Ratio (x) = 0.61709 0.02322
# Poissons Ratio (y) = 0.14933 0.59616
# Poissons Ratio (z) = 0.00409 0.43387
#
# Static dielectric constant tensor:
#      x y z
#    x 3.338120 0.000000 -0.017110 
#    y 0.000000 3.667210 0.000000 
#    z -0.017110 0.000000 3.887830 
# 
# 
# High freq. dielectric constant tensor:
#      x y z
#    x 1.758300 0.000000 0.001930 
#    y 0.000000 1.801450 0.000000 
#    z 0.001930 0.000000 1.817210 
# 
# From -- ./inp_files/378027.got.cif
#   From: 2010.06.25/outbox.ucp.g09.slc.cvg/sg12_190_cif.got.tgz:378027.got - 2010.06.28 13:50:54.
