data_PCOD8116234
_publ_section_title
;
Structure prediction by ZEFSAII (Michael W. Deem and Ramdas Pophale) SiO2 
 PCOD8116234
Probable space group: C 2/M
;
_chemical_formula_sum "Si O2"
_cell_formula_units_Z 32
_cell_length_a 24.000000
_cell_length_b 9.000000
_cell_length_c 30.000000
_cell_angle_alpha 90.000000
_cell_angle_beta 30.000000
_cell_angle_gamma 90.000000
_cell_volume 3240.000000
_symmetry_space_group_name_H-M "C 2/M"
_symmetry_group_IT_number 12
_symmetry_cell_setting 'monoclinic'
loop_
_space_group_symop_operation_xyz
x,y,z
-x,y,-z
-x,-y,-z
x,-y,z
1/2+x,1/2+y,z
1/2-x,1/2+y,-z
1/2-x,1/2-y,-z
1/2+x,1/2-y,z
loop_
_atom_site_type_symbol
_atom_site_label
_atom_site_fract_x
_atom_site_fract_y
_atom_site_fract_z
Si Si1 0.835831 0.324940 0.832395
Si Si2 0.311203 0.323316 0.500646
Si Si3 0.636524 0.165524 0.010624
Si Si4 0.066797 0.332780 0.910544
Si Si5 0.710649 0.823634 0.666920
Si Si6 0.262700 0.173806 0.723639
Si Si7 0.451825 0.826916 0.661630
Si Si8 0.960357 0.323184 0.832443
O O1 0.829784 0.500000 0.839029
O O2 0.915423 0.261984 0.816473
O O3 0.879283 0.272790 0.754329
O O4 0.712189 0.265328 0.926428
O O5 0.302406 0.500000 0.500622
O O6 0.250000 0.250000 0.500000
O O7 0.261145 0.275818 0.583744
O O8 0.438584 0.272632 0.414283
O O9 0.513433 0.161569 0.076080
O O10 0.621747 0.231806 0.070929
O O11 0.687830 0.000000 0.976842
O O12 0.108335 0.500000 0.893742
O O13 0.171453 0.235506 0.821979
O O14 0.000000 0.266694 0.000000
O O15 0.768138 0.750417 0.670929
O O16 0.584590 0.763108 0.753721
O O17 0.719892 0.000000 0.666709
O O18 0.382483 0.199411 0.664283
O O19 0.238570 0.000000 0.733634
O O20 0.484751 0.000000 0.644114
O O21 0.964261 0.500000 0.829941
#
# Coordination Sequence:
#
# PCOD8116234 Si02
#       8
#     8   8   8   8   8   8   8   8
#     4  10  20  35  56  80 111 155 197 240 298 358
#     4  11  24  42  69  98 123 156 197 246 302 361
#     4  10  19  32  51  79 113 149 192 243 296 350
#     4  10  20  35  56  80 114 162 206 248 301 363
#     4  10  21  41  65  87 118 160 202 246 301 368
#     4  11  23  38  59  88 121 159 202 255 309 352
#     4  10  23  42  60  84 123 161 197 245 304 362
#     4   9  17  33  56  79 109 148 190 238 293 352
#
# _framework density 9.8765429999999999
#
# number of rings (size 3 to 8) (size 9 to 14) (size 15 to 20)
#    0.000    1.875    1.250    2.625    0.000    5.750 
#    0.000    3.125    0.000    0.000    0.000    0.000 
#    0.000    0.000    0.000    0.000    0.000    0.000 
#
# Total GULP energy -396701.166310 kJ/mol
# GULP energy per Si atom -12396.911447 kJ/mol
# Density = 0.985406 g / cm^3
# Si number density = 9.876543 Si / 1000 Ang^3
#
#
#
# Elastic Constant Matrix: (Units=GPa)
#
#
# Indices 1 2 3 4 5 6 
#
# 1 130.3134 39.4701 51.3573 0.0822 17.1382 -0.1157
# 2 39.4701 63.9211 43.4406 0.0489 4.6491 0.0045
# 3 51.3573 43.4406 131.4145 0.0109 16.5486 -0.0353
# 4 0.0822 0.0489 0.0109 32.9880 -0.0230 2.2448
# 5 17.1382 4.6491 16.5486 -0.0230 44.0799 0.0794
# 6 -0.1157 0.0045 -0.0353 2.2448 0.0794 32.2451
#
#
#
# Elastic Compliance Matrix: (Units=1/GPa)
#
#
# Indices 1 2 3 4 5 6 
#
# 1 0.010296 -0.004718 -0.002123 -0.000023 -0.002708 0.000044
# 2 -0.004718 0.022345 -0.005749 -0.000016 0.001636 -0.000029
# 3 -0.002123 -0.005749 0.010663 0.000008 -0.002572 0.000011
# 4 -0.000023 -0.000016 0.000008 0.030458 0.000027 -0.002121
# 5 -0.002708 0.001636 -0.002572 0.000027 0.024532 -0.000075
# 6 0.000044 -0.000029 0.000011 -0.002121 -0.000075 0.031160
#
#
# Mechanical properties :
#
#
# Convention : Reuss Voigt Hill
#
# Bulk Modulus (GPa) = 55.17124 66.02053 60.59589
# Shear Modulus (GPa) = 31.11853 34.62133 32.86993
#
# Velocity S-wave (km/s) = 3.97341 4.19107 4.08369
# Velocity P-wave (km/s) = 7.00298 7.54424 7.27864
#
# Compressibility (1/GPa) = 0.01812539
#
# Stress axis : x y z
#
# Youngs Moduli (GPa) = 97.12840 44.75234 93.77893
#
# Poissons Ratio (x) = 0.21112 0.19910
# Poissons Ratio (y) = 0.45821 0.53912
# Poissons Ratio (z) = 0.20621 0.25727
#
# Static dielectric constant tensor:
#      x y z
#    x 3.948900 -0.000060 0.222260 
#    y -0.000060 3.458270 0.000030 
#    z 0.222260 0.000030 3.683940 
# 
# 
# High freq. dielectric constant tensor:
#      x y z
#    x 1.797280 0.000000 0.014480 
#    y 0.000000 1.751750 0.000000 
#    z 0.014480 0.000000 1.778040 
# 
# From -- ./inp_files/382363.got.cif
#   From: 2010.06.25/outbox.ucp.g09.slc.cvg/sg12_192_cif.got.tgz:382363.got - 2010.06.28 13:50:54.
