data_PCOD8116081
_publ_section_title
;
Structure prediction by ZEFSAII (Michael W. Deem and Ramdas Pophale) SiO2 
 PCOD8116081
Probable space group: C 2/M
;
_chemical_formula_sum "Si O2"
_cell_formula_units_Z 48
_cell_length_a 14.013665
_cell_length_b 9.616781
_cell_length_c 25.139677
_cell_angle_alpha 90.000000
_cell_angle_beta 57.056777
_cell_angle_gamma 90.000000
_cell_volume 2843.228283
_symmetry_space_group_name_H-M "C 2/M"
_symmetry_group_IT_number 12
_symmetry_cell_setting 'monoclinic'
loop_
_space_group_symop_operation_xyz
x,y,z
-x,y,-z
-x,-y,-z
x,-y,z
1/2+x,1/2+y,z
1/2-x,1/2+y,-z
1/2-x,1/2-y,-z
1/2+x,1/2-y,z
loop_
_atom_site_type_symbol
_atom_site_label
_atom_site_fract_x
_atom_site_fract_y
_atom_site_fract_z
Si Si1 0.567565 0.662070 0.834612
Si Si2 0.758085 0.162174 0.833793
Si Si3 0.188837 0.841628 0.061886
Si Si4 0.507388 0.664792 0.737197
Si Si5 0.168048 0.838179 0.594799
Si Si6 0.381108 0.660721 0.510825
O O1 0.599868 0.500000 0.828245
O O2 0.657956 0.750487 0.839009
O O3 0.445064 0.690214 0.897592
O O4 0.566916 0.714975 0.773631
O O5 0.758011 0.189417 0.896710
O O6 0.877347 0.217416 0.772905
O O7 0.739403 0.000000 0.826749
O O8 0.210786 0.000000 0.039281
O O9 0.250000 0.750000 0.000000
O O10 0.501781 0.500000 0.740722
O O11 0.578373 0.718817 0.665163
O O12 0.283774 0.752938 0.567297
O O13 0.113162 0.811404 0.553882
O O14 0.196100 0.000000 0.595261
O O15 0.500000 0.707474 0.500000
O O16 0.354640 0.500000 0.531323
#
# Coordination Sequence:
#
# PCOD8116081 Si02
#       6
#     8   8   8   8   8   8
#     4   9  18  33  50  69  94 122 154 193 233 273
#     4   9  18  33  51  71  95 123 155 191 232 277
#     4   9  19  34  50  69  96 127 156 189 230 276
#     4   8  16  32  50  67  92 125 156 187 230 281
#     4   9  17  31  50  68  90 124 159 189 227 277
#     4   9  18  31  46  68  97 123 151 192 236 274
#
# _framework density 16.882218000000002
#
# number of rings (size 3 to 8) (size 9 to 14) (size 15 to 20)
#    0.000    3.167    0.000    2.000    0.000    3.667 
#    0.000    9.167    0.000    0.000    0.000    0.000 
#    0.000    0.000    0.000    0.000    0.000    0.000 
#
# Total GULP energy -297559.250434 kJ/mol
# GULP energy per Si atom -12398.302101 kJ/mol
# Density = 1.684379 g / cm^3
# Si number density = 16.882218 Si / 1000 Ang^3
#
#
#
# Elastic Constant Matrix: (Units=GPa)
#
#
# Indices 1 2 3 4 5 6 
#
# 1 148.8261 65.8121 66.8400 0.0000 -13.5286 0.0000
# 2 65.8121 63.4477 61.1988 0.0000 -5.6726 0.0000
# 3 66.8400 61.1988 146.4776 0.0000 -2.7256 0.0000
# 4 0.0000 0.0000 0.0000 26.6233 0.0000 -4.0813
# 5 -13.5286 -5.6726 -2.7256 0.0000 12.3839 0.0000
# 6 0.0000 0.0000 0.0000 -4.0813 0.0000 33.0101
#
#
#
# Elastic Compliance Matrix: (Units=1/GPa)
#
#
# Indices 1 2 3 4 5 6 
#
# 1 0.013274 -0.012232 -0.000784 0.000000 0.008725 0.000000
# 2 -0.012232 0.038887 -0.010626 0.000000 0.002112 0.000000
# 3 -0.000784 -0.010626 0.011565 0.000000 -0.003179 0.000000
# 4 0.000000 0.000000 0.000000 0.038287 0.000000 0.004734
# 5 0.008725 0.002112 -0.003179 0.000000 0.090549 0.000000
# 6 0.000000 0.000000 0.000000 0.004734 0.000000 0.030879
#
#
# Mechanical properties :
#
#
# Convention : Reuss Voigt Hill
#
# Bulk Modulus (GPa) = 60.82146 82.93926 71.88036
# Shear Modulus (GPa) = 18.10247 25.39685 21.74966
#
# Velocity S-wave (km/s) = 3.27812 3.88281 3.59321
# Velocity P-wave (km/s) = 7.10164 8.32685 7.73853
#
# Compressibility (1/GPa) = 0.01644156
#
# Stress axis : x y z
#
# Youngs Moduli (GPa) = 75.33802 25.71548 86.46550
#
# Poissons Ratio (x) = 0.31455 0.06779
# Poissons Ratio (y) = 0.92152 0.91881
# Poissons Ratio (z) = 0.05907 0.27326
#
# Static dielectric constant tensor:
#      x y z
#    x 3.135330 0.000000 0.001620 
#    y 0.000000 2.966990 0.000000 
#    z 0.001620 0.000000 3.354470 
# 
# 
# High freq. dielectric constant tensor:
#      x y z
#    x 1.653200 0.000000 -0.000290 
#    y 0.000000 1.633370 0.000000 
#    z -0.000290 0.000000 1.655380 
# 
# From -- ./inp_files/303860.got.cif
#   From: 2010.06.25/outbox.cif.g09.slc.cpg/sg12_152_cif.got.tgz:303860.got - 2010.06.28 00:19:55.
