data_PCOD8116451
_publ_section_title
;
Structure prediction by ZEFSAII (Michael W. Deem and Ramdas Pophale) SiO2 
 PCOD8116451
Probable space group: C 2/M
;
_chemical_formula_sum "Si O2"
_cell_formula_units_Z 32
_cell_length_a 18.000000
_cell_length_b 9.000000
_cell_length_c 30.000000
_cell_angle_alpha 90.000000
_cell_angle_beta 40.000000
_cell_angle_gamma 90.000000
_cell_volume 3123.947783
_symmetry_space_group_name_H-M "C 2/M"
_symmetry_group_IT_number 12
_symmetry_cell_setting 'monoclinic'
loop_
_space_group_symop_operation_xyz
x,y,z
-x,y,-z
-x,-y,-z
x,-y,z
1/2+x,1/2+y,z
1/2-x,1/2+y,-z
1/2-x,1/2-y,-z
1/2+x,1/2-y,z
loop_
_atom_site_type_symbol
_atom_site_label
_atom_site_fract_x
_atom_site_fract_y
_atom_site_fract_z
Si Si1 0.260093 0.666439 0.283707
Si Si2 0.988115 0.333298 0.634576
Si Si3 0.010172 0.824868 0.274962
Si Si4 0.711178 0.827567 0.645735
Si Si5 0.332185 0.324647 0.498439
Si Si6 0.669872 0.675240 0.000852
Si Si7 0.913184 0.176194 0.133738
Si Si8 0.240866 0.324561 0.137585
O O1 0.285549 0.500000 0.290571
O O2 0.149159 0.659368 0.302914
O O3 0.223875 0.783599 0.338623
O O4 0.364833 0.725423 0.204408
O O5 0.040757 0.500000 0.613482
O O6 0.023134 0.244430 0.662292
O O7 0.041869 0.248973 0.566912
O O8 0.121680 0.758977 0.200158
O O9 0.900824 0.776853 0.295955
O O10 0.023425 0.000000 0.272966
O O11 0.790181 0.784972 0.567390
O O12 0.676918 0.000000 0.660330
O O13 0.338832 0.500000 0.487920
O O14 0.250000 0.250000 0.500000
O O15 0.672572 0.500000 0.006776
O O16 0.711711 0.718998 0.932563
O O17 0.750000 0.750000 0.000000
O O18 0.541291 0.739712 0.067709
O O19 0.832442 0.237108 0.131303
O O20 0.913999 0.000000 0.130113
O O21 0.219679 0.500000 0.152073
#
# Coordination Sequence:
#
# PCOD8116451 Si02
#       8
#     8   8   8   8   8   8   8   8
#     4  10  22  40  63  91 124 162 202 252 308 365
#     4  11  22  40  65  92 124 159 202 256 308 366
#     4  12  24  38  62  92 122 160 207 256 307 367
#     4  11  25  42  61  88 125 162 203 255 308 364
#     4  11  23  39  62  89 121 164 206 256 309 361
#     4  10  22  38  61  91 124 162 201 247 302 360
#     4   9  18  38  64  88 118 158 205 248 293 359
#     4  10  20  39  64  89 119 161 209 251 299 358
#
# _framework density 10.243449
#
# number of rings (size 3 to 8) (size 9 to 14) (size 15 to 20)
#    0.000    1.500    2.500    2.625    1.750    5.000 
#    0.000    3.125    0.000    1.500    0.000    0.000 
#    0.000    0.000    0.000    0.000    0.000    0.000 
#
# Total GULP energy -396789.494700 kJ/mol
# GULP energy per Si atom -12399.671709 kJ/mol
# Density = 1.022013 g / cm^3
# Si number density = 10.243449 Si / 1000 Ang^3
#
#
#
# Elastic Constant Matrix: (Units=GPa)
#
#
# Indices 1 2 3 4 5 6 
#
# 1 52.9125 23.9773 35.0415 0.0014 11.3892 0.0081
# 2 23.9773 85.9303 57.4275 0.0029 8.1166 0.0049
# 3 35.0415 57.4275 152.9744 0.0003 5.2109 0.0030
# 4 0.0014 0.0029 0.0003 32.9077 0.0003 1.5086
# 5 11.3892 8.1166 5.2109 0.0003 36.7966 0.0023
# 6 0.0081 0.0049 0.0030 1.5086 0.0023 29.8399
#
#
#
# Elastic Compliance Matrix: (Units=1/GPa)
#
#
# Indices 1 2 3 4 5 6 
#
# 1 0.024547 -0.003530 -0.004085 0.000000 -0.006241 -0.000005
# 2 -0.003530 0.016297 -0.005249 -0.000001 -0.001759 -0.000001
# 3 -0.004085 -0.005249 0.009406 0.000000 0.001090 0.000001
# 4 0.000000 -0.000001 0.000000 0.030459 0.000000 -0.001540
# 5 -0.006241 -0.001759 0.001090 0.000000 0.029342 0.000000
# 6 -0.000005 -0.000001 0.000001 -0.001540 0.000000 0.033590
#
#
# Mechanical properties :
#
#
# Convention : Reuss Voigt Hill
#
# Bulk Modulus (GPa) = 40.78072 58.30109 49.54090
# Shear Modulus (GPa) = 28.16212 31.60022 29.88117
#
# Velocity S-wave (km/s) = 3.71164 3.93168 3.82324
# Velocity P-wave (km/s) = 6.19010 7.00930 6.61240
#
# Compressibility (1/GPa) = 0.02452139
#
# Stress axis : x y z
#
# Youngs Moduli (GPa) = 40.73737 61.36262 106.31106
#
# Poissons Ratio (x) = 0.21660 0.43432
# Poissons Ratio (y) = 0.14380 0.55806
# Poissons Ratio (z) = 0.16643 0.32211
#
# Static dielectric constant tensor:
#      x y z
#    x 3.571860 0.000000 -0.039500 
#    y 0.000000 3.596420 -0.000010 
#    z -0.039500 -0.000010 3.980330 
# 
# 
# High freq. dielectric constant tensor:
#      x y z
#    x 1.793300 0.000000 0.001530 
#    y 0.000000 1.784760 0.000000 
#    z 0.001530 0.000000 1.819700 
# 
# From -- ./inp_files/378014.got.cif
#   From: 2010.06.25/outbox.ucp.g09.slc.cvg/sg12_190_cif.got.tgz:378014.got - 2010.06.28 13:50:54.
