data_PCOD8116679
_publ_section_title
;
Structure prediction by ZEFSAII (Michael W. Deem and Ramdas Pophale) SiO2 
 PCOD8116679
Probable space group: P 2/C
;
_chemical_formula_sum "Si O2"
_cell_formula_units_Z 20
_cell_length_a 21.517694
_cell_length_b 8.430142
_cell_length_c 5.359712
_cell_angle_alpha 90.000000
_cell_angle_beta 75.576975
_cell_angle_gamma 90.000000
_cell_volume 941.594987
_symmetry_space_group_name_H-M "P 2/C"
_symmetry_group_IT_number 13
_symmetry_cell_setting 'monoclinic'
loop_
_space_group_symop_operation_xyz
x,y,z
-x,y,1/2-z
-x,-y,-z
x,-y,1/2+z
loop_
_atom_site_type_symbol
_atom_site_label
_atom_site_fract_x
_atom_site_fract_y
_atom_site_fract_z
Si Si1 0.473328 0.322083 0.026671
Si Si2 0.121152 0.599954 0.378836
Si Si3 0.321345 0.321268 0.178657
Si Si4 0.928181 0.934399 0.071819
Si Si5 0.267866 0.676510 0.232134
O O1 0.500000 0.235348 0.250000
O O2 0.397340 0.320401 0.102657
O O3 0.500000 0.235348 0.750000
O O4 0.500000 0.500000 0.000000
O O5 0.109511 0.499993 0.640470
O O6 0.070706 0.743783 0.429290
O O7 0.191477 0.676119 0.308517
O O8 0.295344 0.499487 0.204665
O O9 0.294147 0.235565 0.456024
O O10 0.294145 0.235564 0.955690
O O11 0.892797 0.000002 0.357202
O O12 0.000000 0.000000 0.000000
#
# Coordination Sequence:
#
# PCOD8116679 Si02
#       5
#     4   4   4   4   4
#     4  10  16  22  31  49  78 134 192 210 242 334
#     4  12  21  37  62  94 112 143 201 252 273 343
#     4  10  16  25  38  58 101 128 172 234 286 310
#     4  10  23  45  64  85 124 161 184 223 297 365
#     4  10  16  27  41  68  98 125 167 235 287 310
#
# _framework density 21.240556000000002
#
# number of rings (size 3 to 8) (size 9 to 14) (size 15 to 20)
#    0.000    1.600    4.000    7.200    0.000    0.000 
#    0.000   12.000    0.000    0.000    0.000    0.000 
#    0.000    0.000    0.000    0.000    0.000  244.000 
#
# Total GULP energy -247837.035653 kJ/mol
# GULP energy per Si atom -12391.851783 kJ/mol
# Density = 2.119221 g / cm^3
# Si number density = 21.240556 Si / 1000 Ang^3
#
#
#
# Elastic Constant Matrix: (Units=GPa)
#
#
# Indices 1 2 3 4 5 6 
#
# 1 108.3486 41.2506 53.9178 0.0000 -7.1840 0.0000
# 2 41.2506 60.5337 46.9830 0.0000 1.3958 0.0000
# 3 53.9178 46.9830 255.9874 0.0000 43.3675 0.0000
# 4 0.0000 0.0000 0.0000 13.1706 0.0000 2.2270
# 5 -7.1840 1.3958 43.3675 0.0000 24.9652 0.0000
# 6 0.0000 0.0000 0.0000 2.2270 0.0000 4.0873
#
#
#
# Elastic Compliance Matrix: (Units=1/GPa)
#
#
# Indices 1 2 3 4 5 6 
#
# 1 0.014501 -0.007409 -0.003502 0.000000 0.010670 0.000000
# 2 -0.007409 0.024002 -0.003197 0.000000 0.002079 0.000000
# 3 -0.003502 -0.003197 0.007611 0.000000 -0.014050 0.000000
# 4 0.000000 0.000000 0.000000 0.083631 0.000000 -0.045566
# 5 0.010670 0.002079 -0.014050 0.000000 0.067417 0.000000
# 6 0.000000 0.000000 0.000000 -0.045566 0.000000 0.269485
#
#
# Mechanical properties :
#
#
# Convention : Reuss Voigt Hill
#
# Bulk Modulus (GPa) = 55.87446 78.79696 67.33571
# Shear Modulus (GPa) = 9.98343 27.29251 18.63797
#
# Velocity S-wave (km/s) = 2.17034 3.58847 2.96543
# Velocity P-wave (km/s) = 5.71342 7.37207 6.59510
#
# Compressibility (1/GPa) = 0.01789726
#
# Stress axis : x y z
#
# Youngs Moduli (GPa) = 68.96278 41.66294 131.38624
#
# Poissons Ratio (x) = 0.30870 0.46012
# Poissons Ratio (y) = 0.51097 0.42003
# Poissons Ratio (z) = 0.24151 0.13319
#
# Static dielectric constant tensor:
#      x y z
#    x 2.513760 0.000000 -4.986440 
#    y 0.000000 2.848200 0.000000 
#    z -4.986440 0.000000 -17.827050 
# 
# 
# High freq. dielectric constant tensor:
#      x y z
#    x 1.829580 0.000000 0.013490 
#    y 0.000000 1.744860 0.000000 
#    z 0.013490 0.000000 1.884600 
# 
# From -- ./inp_files/6732.got.cif
#   From: 2010.06.25/outbox.cif.g09.slc.cpg/sg13_4_cif.got.tgz:6732.got - 2010.06.28 04:50:58.
