data_PCOD8116560
_publ_section_title
;
Structure prediction by ZEFSAII (Michael W. Deem and Ramdas Pophale) SiO2 
 PCOD8116560
Probable space group: C 2/M
;
_chemical_formula_sum "Si O2"
_cell_formula_units_Z 32
_cell_length_a 18.000000
_cell_length_b 9.000000
_cell_length_c 30.000000
_cell_angle_alpha 90.000000
_cell_angle_beta 40.000000
_cell_angle_gamma 90.000000
_cell_volume 3123.947783
_symmetry_space_group_name_H-M "C 2/M"
_symmetry_group_IT_number 12
_symmetry_cell_setting 'monoclinic'
loop_
_space_group_symop_operation_xyz
x,y,z
-x,y,-z
-x,-y,-z
x,-y,z
1/2+x,1/2+y,z
1/2-x,1/2+y,-z
1/2-x,1/2-y,-z
1/2+x,1/2-y,z
loop_
_atom_site_type_symbol
_atom_site_label
_atom_site_fract_x
_atom_site_fract_y
_atom_site_fract_z
Si Si1 0.696046 0.666388 0.716599
Si Si2 0.790968 0.175685 0.436180
Si Si3 0.625195 0.173376 0.435340
Si Si4 0.247073 0.168265 0.792694
Si Si5 0.870092 0.327516 0.072270
Si Si6 0.792504 0.825210 0.935630
Si Si7 0.961759 0.825805 0.712634
Si Si8 0.523844 0.825985 0.203085
O O1 0.663019 0.500000 0.714092
O O2 0.823222 0.704829 0.637901
O O3 0.681387 0.669384 0.776087
O O4 0.611226 0.788082 0.735094
O O5 0.750000 0.250000 0.500000
O O6 0.711715 0.237225 0.432792
O O7 0.920822 0.226379 0.364651
O O8 0.784174 0.000000 0.445124
O O9 0.500000 0.250649 0.500000
O O10 0.611022 0.000000 0.450644
O O11 0.164725 0.231793 0.868883
O O12 0.355743 0.274262 0.730882
O O13 0.284223 0.000000 0.788031
O O14 0.856049 0.500000 0.091456
O O15 0.794294 0.285484 0.064379
O O16 0.000000 0.286428 0.000000
O O17 0.915960 0.755338 0.866291
O O18 0.804864 0.000000 0.937687
O O19 0.750000 0.750000 0.000000
O O20 0.927268 0.738891 0.773519
O O21 0.961338 0.000000 0.722767
O O22 0.545974 0.000000 0.189757
#
# Coordination Sequence:
#
# PCOD8116560 Si02
#       8
#     8   8   8   8   8   8   8   8
#     4  10  22  41  62  90 125 161 206 254 309 369
#     4  10  22  38  61  89 121 159 203 251 308 370
#     4   9  18  36  61  85 117 161 203 246 301 365
#     4  11  24  39  63  96 123 158 207 258 303 362
#     4  10  23  43  64  87 123 167 204 245 304 368
#     4  11  24  42  65  93 127 165 203 253 308 363
#     4  11  22  41  64  87 123 167 205 254 313 369
#     4  12  24  40  65  93 122 160 210 262 307 363
#
# _framework density 10.243449
#
# number of rings (size 3 to 8) (size 9 to 14) (size 15 to 20)
#    0.000    1.500    2.500    2.250    3.500    2.750 
#    0.000    0.000    0.000    0.750    0.000    0.000 
#    0.000    0.000    0.000    0.000    0.000    0.000 
#
# Total GULP energy -396759.808005 kJ/mol
# GULP energy per Si atom -12398.744000 kJ/mol
# Density = 1.022013 g / cm^3
# Si number density = 10.243449 Si / 1000 Ang^3
#
#
#
# Elastic Constant Matrix: (Units=GPa)
#
#
# Indices 1 2 3 4 5 6 
#
# 1 58.5869 28.5923 39.0062 0.0001 3.1422 0.0029
# 2 28.5923 87.6373 47.3609 0.0003 8.1558 0.0000
# 3 39.0062 47.3609 143.4143 -0.0001 8.8487 -0.0010
# 4 0.0001 0.0003 -0.0001 35.3020 0.0000 4.3017
# 5 3.1422 8.1558 8.8487 0.0000 40.2360 0.0010
# 6 0.0029 0.0000 -0.0010 4.3017 0.0010 24.5692
#
#
#
# Elastic Compliance Matrix: (Units=1/GPa)
#
#
# Indices 1 2 3 4 5 6 
#
# 1 0.022449 -0.004916 -0.004497 0.000000 0.000232 -0.000003
# 2 -0.004916 0.015100 -0.003532 0.000000 -0.001900 0.000001
# 3 -0.004497 -0.003532 0.009424 0.000000 -0.001005 0.000001
# 4 0.000000 0.000000 0.000000 0.028945 0.000000 -0.005068
# 5 0.000232 -0.001900 -0.001005 0.000000 0.025441 -0.000001
# 6 -0.000003 0.000001 0.000001 -0.005068 -0.000001 0.041589
#
#
# Mechanical properties :
#
#
# Convention : Reuss Voigt Hill
#
# Bulk Modulus (GPa) = 47.42929 57.72860 52.57894
# Shear Modulus (GPa) = 28.43069 31.66671 30.04870
#
# Velocity S-wave (km/s) = 3.72929 3.93581 3.83394
# Velocity P-wave (km/s) = 6.46102 6.99240 6.73195
#
# Compressibility (1/GPa) = 0.02108402
#
# Stress axis : x y z
#
# Youngs Moduli (GPa) = 44.54532 66.22390 106.10703
#
# Poissons Ratio (x) = 0.32553 0.47714
# Poissons Ratio (y) = 0.21897 0.37482
# Poissons Ratio (z) = 0.20031 0.23394
#
# Static dielectric constant tensor:
#      x y z
#    x 3.688680 0.000000 -0.080610 
#    y 0.000000 3.577290 0.000000 
#    z -0.080610 0.000000 3.867950 
# 
# 
# High freq. dielectric constant tensor:
#      x y z
#    x 1.791340 0.000000 0.001790 
#    y 0.000000 1.784700 0.000000 
#    z 0.001790 0.000000 1.819170 
# 
# From -- ./inp_files/377971.got.cif
#   From: 2010.06.25/outbox.ucp.g09.slc.cvg/sg12_189_cif.got.tgz:377971.got - 2010.06.28 13:50:54.
