data_PCOD8116735
_publ_section_title
;
Structure prediction by ZEFSAII (Michael W. Deem and Ramdas Pophale) SiO2 
 PCOD8116735
Probable space group: P 2/C
;
_chemical_formula_sum "Si O2"
_cell_formula_units_Z 28
_cell_length_a 20.918277
_cell_length_b 13.778947
_cell_length_c 5.251574
_cell_angle_alpha 90.000000
_cell_angle_beta 83.706277
_cell_angle_gamma 90.000000
_cell_volume 1504.547848
_symmetry_space_group_name_H-M "P 2/C"
_symmetry_group_IT_number 13
_symmetry_cell_setting 'monoclinic'
loop_
_space_group_symop_operation_xyz
x,y,z
-x,y,1/2-z
-x,-y,-z
x,-y,1/2+z
loop_
_atom_site_type_symbol
_atom_site_label
_atom_site_fract_x
_atom_site_fract_y
_atom_site_fract_z
Si Si1 0.421795 0.960717 0.636599
Si Si2 0.571192 0.458665 0.448476
Si Si3 0.065178 0.559770 0.291952
Si Si4 0.277416 0.957506 0.202565
Si Si5 0.301918 0.741520 0.108061
Si Si6 0.793881 0.564411 0.335475
Si Si7 0.383577 0.253824 0.071172
O O1 0.421403 0.846516 0.581647
O O2 0.457213 0.019212 0.391923
O O3 0.351423 0.008691 0.713138
O O4 0.500000 0.500000 0.500000
O O5 0.608021 0.493159 0.689856
O O6 0.567111 0.343000 0.419553
O O7 0.062182 0.529801 0.589825
O O8 0.133915 0.610464 0.209670
O O9 0.000000 0.622308 0.250000
O O10 0.267177 0.844531 0.153631
O O11 0.243778 0.983834 0.485976
O O12 0.252933 0.654774 0.170339
O O13 0.356074 0.736394 0.300099
O O14 0.329698 0.736920 0.811101
O O15 0.782236 0.509949 0.607930
#
# Coordination Sequence:
#
# PCOD8116735 Si02
#       7
#     4   4   4   4   4   4   4
#     4  10  16  30  48  73 101 117 151 198 233 277
#     4  10  23  42  57  73  96 127 165 203 225 267
#     4   8  14  27  46  61  80 122 174 207 238 273
#     4  10  16  30  46  66 100 127 154 194 228 280
#     4  12  21  30  49  75 105 134 157 188 244 301
#     4  10  21  33  42  65 105 138 159 203 240 278
#     4  12  21  32  55  77  95 133 162 188 239 293
#
# _framework density 18.610242
#
# number of rings (size 3 to 8) (size 9 to 14) (size 15 to 20)
#    0.000    1.714    5.714    1.714    0.000    3.429 
#    0.000    0.000    0.000    0.000    0.000   12.000 
#    0.000    1.143    0.000    0.000    0.000    2.571 
#
# Total GULP energy -346900.269064 kJ/mol
# GULP energy per Si atom -12389.295324 kJ/mol
# Density = 1.856788 g / cm^3
# Si number density = 18.610242 Si / 1000 Ang^3
#
#
#
# Elastic Constant Matrix: (Units=GPa)
#
#
# Indices 1 2 3 4 5 6 
#
# 1 33.3193 28.3158 6.8329 0.0000 5.6585 0.0000
# 2 28.3158 128.8089 24.5868 0.0000 7.2148 0.0000
# 3 6.8329 24.5868 136.2220 0.0000 11.4714 0.0000
# 4 0.0000 0.0000 0.0000 27.9668 0.0000 2.4097
# 5 5.6585 7.2148 11.4714 0.0000 15.4732 0.0000
# 6 0.0000 0.0000 0.0000 2.4097 0.0000 2.6066
#
#
#
# Elastic Compliance Matrix: (Units=1/GPa)
#
#
# Indices 1 2 3 4 5 6 
#
# 1 0.038490 -0.007940 0.000401 0.000000 -0.010671 0.000000
# 2 -0.007940 0.009798 -0.001312 0.000000 -0.000692 0.000000
# 3 0.000401 -0.001312 0.008019 0.000000 -0.005480 0.000000
# 4 0.000000 0.000000 0.000000 0.038851 0.000000 -0.035915
# 5 -0.010671 -0.000692 -0.005480 0.000000 0.072916 0.000000
# 6 0.000000 0.000000 0.000000 -0.035915 0.000000 0.416837
#
#
# Mechanical properties :
#
#
# Convention : Reuss Voigt Hill
#
# Bulk Modulus (GPa) = 25.90290 46.42457 36.16374
# Shear Modulus (GPa) = 8.12371 25.11698 16.62035
#
# Velocity S-wave (km/s) = 2.09157 3.67772 2.99168
# Velocity P-wave (km/s) = 4.44767 6.56003 5.60427
#
# Compressibility (1/GPa) = 0.03860571
#
# Stress axis : x y z
#
# Youngs Moduli (GPa) = 25.98050 102.06067 124.70214
#
# Poissons Ratio (x) = 0.81037 -0.05001
# Poissons Ratio (y) = 0.20629 0.16360
# Poissons Ratio (z) = -0.01042 0.13389
#
# Static dielectric constant tensor:
#      x y z
#    x 3.079370 0.000000 0.341360 
#    y 0.000000 3.370250 0.000000 
#    z 0.341360 0.000000 3.315210 
# 
# 
# High freq. dielectric constant tensor:
#      x y z
#    x 1.673060 0.000000 0.006840 
#    y 0.000000 1.699220 0.000000 
#    z 0.006840 0.000000 1.771620 
# 
# From -- ./inp_files/6864.got.cif
#   From: 2010.06.25/outbox.cif.g09.slc.cpg/sg13_4_cif.got.tgz:6864.got - 2010.06.28 04:50:58.
