data_PCOD8116791
_publ_section_title
;
Structure prediction by ZEFSAII (Michael W. Deem and Ramdas Pophale) SiO2 
 PCOD8116791
Probable space group: P 2/C
;
_chemical_formula_sum "Si O2"
_cell_formula_units_Z 30
_cell_length_a 12.373337
_cell_length_b 8.755600
_cell_length_c 25.797545
_cell_angle_alpha 90.000000
_cell_angle_beta 143.997949
_cell_angle_gamma 90.000000
_cell_volume 1642.824666
_symmetry_space_group_name_H-M "P 2/C"
_symmetry_group_IT_number 13
_symmetry_cell_setting 'monoclinic'
loop_
_space_group_symop_operation_xyz
x,y,z
-x,y,1/2-z
-x,-y,-z
x,-y,1/2+z
loop_
_atom_site_type_symbol
_atom_site_label
_atom_site_fract_x
_atom_site_fract_y
_atom_site_fract_z
Si Si1 0.942063 0.709187 0.087020
Si Si2 0.851861 0.626970 0.236350
Si Si3 0.148570 0.375204 0.573222
Si Si4 0.407039 0.380312 0.323964
Si Si5 0.513111 0.203841 0.552650
Si Si6 0.261129 0.589137 0.011175
Si Si7 0.437025 0.858142 0.545429
Si Si8 0.500000 0.548832 0.750000
O O1 0.060227 0.734805 0.184907
O O2 0.060643 0.742363 0.080642
O O3 0.891504 0.528040 0.069211
O O4 0.772361 0.825955 0.018636
O O5 0.780530 0.468630 0.234155
O O6 0.688566 0.724959 0.148502
O O7 0.000000 0.585578 0.250000
O O8 0.198707 0.304644 0.536104
O O9 0.330505 0.442576 0.669392
O O10 0.000000 0.500000 0.500000
O O11 0.574227 0.484100 0.406047
O O12 0.418960 0.219970 0.359108
O O13 0.429561 0.348031 0.271001
O O14 0.327765 0.299466 0.491681
O O15 0.539096 0.214613 0.501708
O O16 0.482934 0.035328 0.562802
#
# Coordination Sequence:
#
# PCOD8116791 Si02
#       8
#     4   4   4   4   4   4   4   2
#     4  10  18  33  56  81 103 131 181 226 270 310
#     4  11  20  32  54  83 107 132 174 232 269 314
#     4   9  17  31  53  84 108 135 175 223 275 319
#     4   9  19  32  55  78 104 135 176 218 266 315
#     4  10  21  37  53  73 110 147 180 211 270 330
#     4   8  18  32  55  80 100 135 174 218 260 322
#     4  10  21  37  54  73 106 151 178 216 265 328
#     4  10  16  32  54  82 112 138 172 226 278 318
#
# _framework density 18.261229
#
# number of rings (size 3 to 8) (size 9 to 14) (size 15 to 20)
#    0.000    2.400    2.667    0.800    1.867    1.600 
#    0.000    2.667    2.933    0.000    0.000    0.000 
#    0.000    0.000    0.000    0.000    0.000    0.000 
#
# Total GULP energy -371759.348551 kJ/mol
# GULP energy per Si atom -12391.978285 kJ/mol
# Density = 1.821967 g / cm^3
# Si number density = 18.261229 Si / 1000 Ang^3
#
#
#
# Elastic Constant Matrix: (Units=GPa)
#
#
# Indices 1 2 3 4 5 6 
#
# 1 126.2543 35.3347 25.6513 0.0000 -5.6928 0.0000
# 2 35.3347 49.8065 17.1943 0.0000 -4.7889 0.0000
# 3 25.6513 17.1943 76.1458 0.0000 2.3278 0.0000
# 4 0.0000 0.0000 0.0000 13.8656 0.0000 -5.9595
# 5 -5.6928 -4.7889 2.3278 0.0000 28.1109 0.0000
# 6 0.0000 0.0000 0.0000 -5.9595 0.0000 15.8809
#
#
#
# Elastic Compliance Matrix: (Units=1/GPa)
#
#
# Indices 1 2 3 4 5 6 
#
# 1 0.010176 -0.006415 -0.002014 0.000000 0.001135 0.000000
# 2 -0.006415 0.026307 -0.003887 0.000000 0.003504 0.000000
# 3 -0.002014 -0.003887 0.014759 0.000000 -0.002292 0.000000
# 4 0.000000 0.000000 0.000000 0.085991 0.000000 0.032269
# 5 0.001135 0.003504 -0.002292 0.000000 0.036590 0.000000
# 6 0.000000 0.000000 0.000000 0.032269 0.000000 0.075078
#
#
# Mechanical properties :
#
#
# Convention : Reuss Voigt Hill
#
# Bulk Modulus (GPa) = 37.57828 45.39634 41.48731
# Shear Modulus (GPa) = 17.70520 23.17325 20.43922
#
# Velocity S-wave (km/s) = 3.11714 3.56615 3.34918
# Velocity P-wave (km/s) = 5.79468 6.47070 6.14199
#
# Compressibility (1/GPa) = 0.02661112
#
# Stress axis : x y z
#
# Youngs Moduli (GPa) = 98.26780 38.01214 67.75572
#
# Poissons Ratio (x) = 0.24385 0.13648
# Poissons Ratio (y) = 0.63039 0.26333
# Poissons Ratio (z) = 0.19793 0.14773
#
# Static dielectric constant tensor:
#      x y z
#    x 4.026090 0.000000 -0.030180 
#    y 0.000000 3.011950 0.000000 
#    z -0.030180 0.000000 3.479930 
# 
# 
# High freq. dielectric constant tensor:
#      x y z
#    x 1.737100 0.000000 -0.002740 
#    y 0.000000 1.650070 0.000000 
#    z -0.002740 0.000000 1.712880 
# 
# From -- ./inp_files/92132.got.cif
#   From: 2010.06.25/outbox.cif.g09.slc.cpg/sg13_47_cif.got.tgz:92132.got - 2010.06.28 04:50:58.
