data_PCOD8116340
_publ_section_title
;
Structure prediction by ZEFSAII (Michael W. Deem and Ramdas Pophale) SiO2 
 PCOD8116340
Probable space group: C 2/M
;
_chemical_formula_sum "Si O2"
_cell_formula_units_Z 24
_cell_length_a 21.000000
_cell_length_b 18.000000
_cell_length_c 21.000000
_cell_angle_alpha 90.000000
_cell_angle_beta 20.000000
_cell_angle_gamma 90.000000
_cell_volume 2714.955898
_symmetry_space_group_name_H-M "C 2/M"
_symmetry_group_IT_number 12
_symmetry_cell_setting 'monoclinic'
loop_
_space_group_symop_operation_xyz
x,y,z
-x,y,-z
-x,-y,-z
x,-y,z
1/2+x,1/2+y,z
1/2-x,1/2+y,-z
1/2-x,1/2-y,-z
1/2+x,1/2-y,z
loop_
_atom_site_type_symbol
_atom_site_label
_atom_site_fract_x
_atom_site_fract_y
_atom_site_fract_z
Si Si1 0.151973 0.327784 0.578991
Si Si2 0.067272 0.915666 0.311869
Si Si3 0.641898 0.913726 0.715535
Si Si4 0.393795 0.182306 0.035196
Si Si5 0.750557 0.294503 0.933177
Si Si6 0.006998 0.913065 0.220833
O O1 0.250000 0.250000 0.500000
O O2 0.087303 0.367080 0.704670
O O3 0.297794 0.381699 0.406444
O O4 0.965565 0.312587 0.712381
O O5 0.856816 0.904376 0.532804
O O6 0.075803 0.897275 0.228357
O O7 0.133038 0.000000 0.262475
O O8 0.195307 0.859063 0.232019
O O9 0.523137 0.881385 0.884350
O O10 0.592255 0.000000 0.750017
O O11 0.500000 0.209240 0.000000
O O12 0.356212 0.251804 0.023559
O O13 0.750000 0.250000 0.000000
O O14 0.643609 0.372192 0.043518
O O15 0.005781 0.000000 0.206493
#
# Coordination Sequence:
#
# PCOD8116340 Si02
#       6
#     8   8   8   8   8   8
#     4  11  18  32  56  81 110 141 182 229 277 314
#     4   9  18  33  52  78 111 145 179 216 260 322
#     4  10  20  34  53  79 110 145 182 220 268 329
#     4  12  24  36  51  77 110 148 186 223 266 320
#     4  12  20  36  58  81 107 146 186 224 272 322
#     4  10  20  34  57  88 113 136 178 232 280 326
#
# _framework density 8.8399230000000006
#
# number of rings (size 3 to 8) (size 9 to 14) (size 15 to 20)
#    0.000    1.333    5.000    3.000    0.000    4.667 
#    0.000    1.667    0.000    0.500    0.000    1.167 
#    0.000    0.000    0.000    0.000    0.000    0.000 
#
# Total GULP energy -297561.205499 kJ/mol
# GULP energy per Si atom -12398.383562 kJ/mol
# Density = 0.881980 g / cm^3
# Si number density = 8.839923 Si / 1000 Ang^3
#
#
#
# Elastic Constant Matrix: (Units=GPa)
#
#
# Indices 1 2 3 4 5 6 
#
# 1 95.2479 46.9459 28.4870 0.0283 -21.3855 -0.0043
# 2 46.9459 124.1883 45.5288 -0.0429 -10.4447 -0.0005
# 3 28.4870 45.5288 90.5190 -0.0314 -19.6988 -0.0074
# 4 0.0283 -0.0429 -0.0314 37.2393 0.0026 -3.9178
# 5 -21.3855 -10.4447 -19.6988 0.0026 23.7654 0.0048
# 6 -0.0043 -0.0005 -0.0074 -3.9178 0.0048 24.4428
#
#
#
# Elastic Compliance Matrix: (Units=1/GPa)
#
#
# Indices 1 2 3 4 5 6 
#
# 1 0.015575 -0.004952 0.000202 -0.000018 0.012006 -0.000003
# 2 -0.004952 0.011449 -0.004971 0.000013 -0.003545 0.000001
# 3 0.000202 -0.004971 0.015920 0.000007 0.011193 0.000004
# 4 -0.000018 0.000013 0.000007 0.027314 -0.000009 0.004378
# 5 0.012006 -0.003545 0.011193 -0.000009 0.060601 -0.000008
# 6 -0.000003 0.000001 0.000004 0.004378 -0.000008 0.041614
#
#
# Mechanical properties :
#
#
# Convention : Reuss Voigt Hill
#
# Bulk Modulus (GPa) = 42.55168 61.31983 51.93575
# Shear Modulus (GPa) = 25.03139 29.68908 27.36024
#
# Velocity S-wave (km/s) = 3.76681 4.10232 3.93814
# Velocity P-wave (km/s) = 6.56039 7.56290 7.07941
#
# Compressibility (1/GPa) = 0.02350083
#
# Stress axis : x y z
#
# Youngs Moduli (GPa) = 64.20563 87.34643 62.81345
#
# Poissons Ratio (x) = 0.43253 -0.01269
# Poissons Ratio (y) = 0.31794 0.31228
# Poissons Ratio (z) = -0.01297 0.43424
#
# Static dielectric constant tensor:
#      x y z
#    x 3.049830 -0.000080 -0.273430 
#    y -0.000080 3.432850 0.000200 
#    z -0.273430 0.000200 3.593100 
# 
# 
# High freq. dielectric constant tensor:
#      x y z
#    x 1.635300 -0.000010 -0.026420 
#    y -0.000010 1.695040 0.000020 
#    z -0.026420 0.000020 1.703230 
# 
# From -- ./inp_files/317456.got.cif
#   From: 2010.06.25/outbox.ucp.g09.slc.cvg/sg12_159_cif.got.tgz:317456.got - 2010.06.28 13:50:54.
