data_PCOD8116156
_publ_section_title
;
Structure prediction by ZEFSAII (Michael W. Deem and Ramdas Pophale) SiO2 
 PCOD8116156
Probable space group: C 2/M
;
_chemical_formula_sum "Si O2"
_cell_formula_units_Z 56
_cell_length_a 24.946540
_cell_length_b 9.501575
_cell_length_c 16.569304
_cell_angle_alpha 90.000000
_cell_angle_beta 55.838175
_cell_angle_gamma 90.000000
_cell_volume 3249.784145
_symmetry_space_group_name_H-M "C 2/M"
_symmetry_group_IT_number 12
_symmetry_cell_setting 'monoclinic'
loop_
_space_group_symop_operation_xyz
x,y,z
-x,y,-z
-x,-y,-z
x,-y,z
1/2+x,1/2+y,z
1/2-x,1/2+y,-z
1/2-x,1/2-y,-z
1/2+x,1/2-y,z
loop_
_atom_site_type_symbol
_atom_site_label
_atom_site_fract_x
_atom_site_fract_y
_atom_site_fract_z
Si Si1 0.156235 0.662130 0.594894
Si Si2 0.835334 0.838270 0.001658
Si Si3 0.228873 0.334950 0.215584
Si Si4 0.125263 0.664005 0.180698
Si Si5 0.252928 0.665587 0.373862
Si Si6 0.485945 0.162459 0.247176
Si Si7 0.980150 0.839266 0.929892
O O1 0.168480 0.500000 0.607801
O O2 0.190460 0.700103 0.481651
O O3 0.184328 0.756297 0.643642
O O4 0.079703 0.693008 0.647619
O O5 0.834765 0.747717 0.920751
O O6 0.903578 0.823375 0.988064
O O7 0.820274 0.000000 0.991452
O O8 0.782406 0.775462 0.108230
O O9 0.239497 0.500000 0.214564
O O10 0.157275 0.300036 0.240530
O O11 0.237394 0.271681 0.298090
O O12 0.133874 0.500000 0.153325
O O13 0.049161 0.707172 0.246480
O O14 0.268074 0.500000 0.359472
O O15 0.482412 0.249427 0.168112
O O16 0.491333 0.000000 0.218429
O O17 0.002827 0.000000 0.900109
O O18 0.000000 0.779899 0.000000
#
# Coordination Sequence:
#
# PCOD8116156 Si02
#       7
#     8   8   8   8   8   8   8
#     4   9  18  33  49  69  95 120 150 189 232 277
#     4   9  17  29  44  65  93 121 151 189 227 263
#     4   9  17  29  48  70  91 117 154 193 227 266
#     4   9  17  31  47  66  92 123 155 184 221 273
#     4   9  18  32  51  71  91 118 153 192 232 272
#     4   9  18  31  47  65  92 125 150 181 229 276
#     4   9  18  29  43  66  93 119 154 192 221 263
#
# _framework density 17.231914
#
# number of rings (size 3 to 8) (size 9 to 14) (size 15 to 20)
#    0.000    3.000    0.000    0.429    2.000    0.857 
#    0.000    2.143    0.000    4.286    0.000    0.000 
#    0.000    9.143    0.000    0.000    0.000    0.000 
#
# Total GULP energy -347116.178022 kJ/mol
# GULP energy per Si atom -12397.006358 kJ/mol
# Density = 1.719269 g / cm^3
# Si number density = 17.231914 Si / 1000 Ang^3
#
#
#
# Elastic Constant Matrix: (Units=GPa)
#
#
# Indices 1 2 3 4 5 6 
#
# 1 102.1395 29.3120 69.6740 0.0000 5.9686 0.0000
# 2 29.3120 35.5746 30.1057 0.0000 2.1055 0.0001
# 3 69.6740 30.1057 95.2387 0.0000 0.3968 0.0000
# 4 0.0000 0.0000 0.0000 21.8770 0.0000 1.1496
# 5 5.9686 2.1055 0.3968 0.0000 31.2541 0.0000
# 6 0.0000 0.0001 0.0000 1.1496 0.0000 20.2134
#
#
#
# Elastic Compliance Matrix: (Units=1/GPa)
#
#
# Indices 1 2 3 4 5 6 
#
# 1 0.020710 -0.005533 -0.013388 0.000000 -0.003412 0.000000
# 2 -0.005533 0.040040 -0.008603 0.000000 -0.001532 0.000000
# 3 -0.013388 -0.008603 0.023002 0.000000 0.002844 0.000000
# 4 0.000000 0.000000 0.000000 0.045847 0.000000 -0.002607
# 5 -0.003412 -0.001532 0.002844 0.000000 0.032714 0.000000
# 6 0.000000 0.000000 0.000000 -0.002607 0.000000 0.049620
#
#
# Mechanical properties :
#
#
# Convention : Reuss Voigt Hill
#
# Bulk Modulus (GPa) = 34.83752 54.57068 44.70410
# Shear Modulus (GPa) = 18.08000 21.59299 19.83650
#
# Velocity S-wave (km/s) = 3.24267 3.54373 3.39654
# Velocity P-wave (km/s) = 5.85497 6.96284 6.43280
#
# Compressibility (1/GPa) = 0.02870468
#
# Stress axis : x y z
#
# Youngs Moduli (GPa) = 48.28544 24.97524 43.47492
#
# Poissons Ratio (x) = 0.13818 0.58204
# Poissons Ratio (y) = 0.26714 0.37401
# Poissons Ratio (z) = 0.64644 0.21486
#
# Static dielectric constant tensor:
#      x y z
#    x 3.378400 0.000000 -0.027580 
#    y 0.000000 3.113140 0.000000 
#    z -0.027580 0.000000 3.229330 
# 
# 
# High freq. dielectric constant tensor:
#      x y z
#    x 1.673760 0.000000 -0.006220 
#    y 0.000000 1.646020 0.000000 
#    z -0.006220 0.000000 1.651380 
# 
# From -- ./inp_files/238336.got.cif
#   From: 2010.06.25/outbox.cif.g09.slc.cpg/sg12_120_cif.got.tgz:238336.got - 2010.06.28 00:19:55.
