data_PCOD8116807
_publ_section_title
;
Structure prediction by ZEFSAII (Michael W. Deem and Ramdas Pophale) SiO2 
 PCOD8116807
Probable space group: P 2/C
;
_chemical_formula_sum "Si O2"
_cell_formula_units_Z 28
_cell_length_a 15.940232
_cell_length_b 19.377656
_cell_length_c 5.183334
_cell_angle_alpha 90.000000
_cell_angle_beta 120.201178
_cell_angle_gamma 90.000000
_cell_volume 1383.731185
_symmetry_space_group_name_H-M "P 2/C"
_symmetry_group_IT_number 13
_symmetry_cell_setting 'monoclinic'
loop_
_space_group_symop_operation_xyz
x,y,z
-x,y,1/2-z
-x,-y,-z
x,-y,1/2+z
loop_
_atom_site_type_symbol
_atom_site_label
_atom_site_fract_x
_atom_site_fract_y
_atom_site_fract_z
Si Si1 0.165193 0.954515 0.196628
Si Si2 0.796825 0.316656 0.621241
Si Si3 0.500000 0.164871 0.750000
Si Si4 0.401255 0.737420 0.709819
Si Si5 0.320270 0.856525 0.240811
Si Si6 0.114329 0.460435 0.900629
Si Si7 0.000000 0.142260 0.250000
Si Si8 0.839356 0.767884 0.702391
O O1 0.268814 0.915400 0.331357
O O2 0.160356 0.986507 0.472586
O O3 0.073415 0.904044 0.032049
O O4 0.680400 0.321151 0.375877
O O5 0.837510 0.391918 0.634434
O O6 0.823238 0.288617 0.948180
O O7 0.845019 0.266348 0.488935
O O8 0.427702 0.216858 0.494971
O O9 0.575765 0.115853 0.711896
O O10 0.500000 0.703597 0.750000
O O11 0.348626 0.789219 0.438625
O O12 0.242696 0.827987 0.913484
O O13 0.147012 0.518059 0.739592
O O14 0.000000 0.449182 0.750000
O O15 0.059072 0.192771 0.156050
#
# Coordination Sequence:
#
# PCOD8116807 Si02
#       8
#     4   4   2   4   4   4   2   4
#     4  11  25  41  60  79 112 156 197 229 276 348
#     4  11  21  37  59  90 118 151 194 238 284 345
#     4  10  16  34  60  80 114 144 176 236 316 340
#     4   9  19  34  59  89 115 146 184 239 308 348
#     4   9  20  35  55  82 114 145 183 238 287 347
#     4  10  22  39  58  82 119 166 200 230 269 327
#     4  10  24  40  60  86 118 146 190 240 300 344
#     4  10  22  34  57  89 118 144 184 244 296 333
#
# _framework density 20.235143000000001
#
# number of rings (size 3 to 8) (size 9 to 14) (size 15 to 20)
#    0.000    2.000    1.429    1.286    4.000    4.571 
#    0.000    0.714    0.000    0.857    0.000    0.000 
#    0.000    0.000    0.000    0.000    0.000    0.000 
#
# Total GULP energy -346881.687324 kJ/mol
# GULP energy per Si atom -12388.631690 kJ/mol
# Density = 2.018909 g / cm^3
# Si number density = 20.235143 Si / 1000 Ang^3
#
#
#
# Elastic Constant Matrix: (Units=GPa)
#
#
# Indices 1 2 3 4 5 6 
#
# 1 112.6559 36.8918 18.9127 0.0000 7.2980 0.0000
# 2 36.8918 59.0766 -8.8705 0.0000 8.8434 0.0000
# 3 18.9127 -8.8705 24.9532 0.0000 -3.6207 0.0000
# 4 0.0000 0.0000 0.0000 24.0293 0.0000 3.7314
# 5 7.2980 8.8434 -3.6207 0.0000 20.3538 0.0000
# 6 0.0000 0.0000 0.0000 3.7314 0.0000 16.8774
#
#
#
# Elastic Compliance Matrix: (Units=1/GPa)
#
#
# Indices 1 2 3 4 5 6 
#
# 1 0.015775 -0.011833 -0.016668 0.000000 -0.003480 0.000000
# 2 -0.011833 0.027728 0.018162 0.000000 -0.004574 0.000000
# 3 -0.016668 0.018162 0.060447 0.000000 0.008838 0.000000
# 4 0.000000 0.000000 0.000000 0.043095 0.000000 -0.009528
# 5 -0.003480 -0.004574 0.008838 0.000000 0.053938 0.000000
# 6 0.000000 0.000000 0.000000 -0.009528 0.000000 0.061357
#
#
# Mechanical properties :
#
#
# Convention : Reuss Voigt Hill
#
# Bulk Modulus (GPa) = 12.00880 32.28375 22.14628
# Shear Modulus (GPa) = 16.08873 22.23554 19.16213
#
# Velocity S-wave (km/s) = 2.82279 3.31850 3.08063
# Velocity P-wave (km/s) = 4.07084 5.53825 4.86024
#
# Compressibility (1/GPa) = 0.08327226
#
# Stress axis : x y z
#
# Youngs Moduli (GPa) = 63.39051 36.06421 16.54350
#
# Poissons Ratio (x) = 0.42675 0.27575
# Poissons Ratio (y) = 0.75010 -0.30046
# Poissons Ratio (z) = 1.05659 -0.65499
#
# Static dielectric constant tensor:
#      x y z
#    x 4.429980 0.000000 0.088860 
#    y 0.000000 3.424590 0.000000 
#    z 0.088860 0.000000 3.512010 
# 
# 
# High freq. dielectric constant tensor:
#      x y z
#    x 1.813300 0.000000 0.000630 
#    y 0.000000 1.753330 0.000000 
#    z 0.000630 0.000000 1.789260 
# 
# From -- ./inp_files/5237.got.cif
#   From: 2010.06.25/outbox.cif.g09.slc.cpg/sg13_3_cif.got.tgz:5237.got - 2010.06.28 04:50:58.
