data_PCOD8116954
_publ_section_title
;
Structure prediction by ZEFSAII (Michael W. Deem and Ramdas Pophale) SiO2 
 PCOD8116954
Probable space group: P 2/C
;
_chemical_formula_sum "Si O2"
_cell_formula_units_Z 32
_cell_length_a 26.352434
_cell_length_b 9.744765
_cell_length_c 19.621829
_cell_angle_alpha 90.000000
_cell_angle_beta 161.964819
_cell_angle_gamma 90.000000
_cell_volume 1560.033113
_symmetry_space_group_name_H-M "P 2/C"
_symmetry_group_IT_number 13
_symmetry_cell_setting 'monoclinic'
loop_
_space_group_symop_operation_xyz
x,y,z
-x,y,1/2-z
-x,-y,-z
x,-y,1/2+z
loop_
_atom_site_type_symbol
_atom_site_label
_atom_site_fract_x
_atom_site_fract_y
_atom_site_fract_z
Si Si1 0.831509 0.763048 0.828108
Si Si2 0.892107 0.060609 0.752883
Si Si3 0.307235 0.981931 0.119103
Si Si4 0.478570 0.372662 0.522124
Si Si5 0.740150 0.175954 0.810169
Si Si6 0.623913 0.692224 0.348851
Si Si7 0.663538 0.030403 0.579169
Si Si8 0.057038 0.263115 0.172267
O O1 0.717058 0.651910 0.720073
O O2 0.927578 0.691238 0.887488
O O3 0.699575 0.867168 0.625555
O O4 0.956699 0.835923 0.040421
O O5 0.744455 0.098993 0.616075
O O6 0.822711 0.076983 0.587328
O O7 0.940819 0.902998 0.824823
O O8 0.220927 0.927506 0.077534
O O9 0.373277 0.855660 0.157839
O O10 0.472223 0.068662 0.342424
O O11 0.500000 0.500000 0.500000
O O12 0.561492 0.241450 0.591877
O O13 0.572327 0.391452 0.714796
O O14 0.753442 0.088868 0.759348
O O15 0.880074 0.295085 0.981149
O O16 0.500000 0.651105 0.250000
O O17 0.808311 0.657380 0.610022
#
# Coordination Sequence:
#
# PCOD8116954 Si02
#       8
#     4   4   4   4   4   4   4   4
#     4  11  18  36  59  85 125 158 192 240 312 373
#     4  10  19  30  53  88 132 158 188 236 308 383
#     4  10  20  28  50  90 130 158 191 237 306 370
#     4  11  25  40  58  84 116 163 212 259 300 346
#     4  11  21  35  57  91 121 151 204 253 303 353
#     4  10  17  34  61  86 114 150 201 253 295 353
#     4  11  17  33  55  87 121 163 193 239 305 385
#     4  10  18  32  60  95 117 147 193 250 305 368
#
# _framework density 20.512385999999999
#
# number of rings (size 3 to 8) (size 9 to 14) (size 15 to 20)
#    0.000    1.500    6.250    3.000    0.000    4.500 
#    0.000    0.625    0.000    4.500    0.000    0.000 
#    0.000    0.000    0.000    0.000    0.000    0.000 
#
# Total GULP energy -396541.829724 kJ/mol
# GULP energy per Si atom -12391.932179 kJ/mol
# Density = 2.046570 g / cm^3
# Si number density = 20.512386 Si / 1000 Ang^3
#
#
#
# Elastic Constant Matrix: (Units=GPa)
#
#
# Indices 1 2 3 4 5 6 
#
# 1 126.6632 31.6534 56.6540 0.0000 -3.0071 0.0000
# 2 31.6534 30.7566 22.8756 0.0000 -9.3506 0.0000
# 3 56.6540 22.8756 132.9793 0.0000 -3.0525 0.0000
# 4 0.0000 0.0000 0.0000 16.8851 0.0000 0.1510
# 5 -3.0071 -9.3506 -3.0525 0.0000 41.7340 0.0000
# 6 0.0000 0.0000 0.0000 0.1510 0.0000 25.9805
#
#
#
# Elastic Compliance Matrix: (Units=1/GPa)
#
#
# Indices 1 2 3 4 5 6 
#
# 1 0.011926 -0.010298 -0.003348 0.000000 -0.001693 0.000000
# 2 -0.010298 0.048969 -0.003808 0.000000 0.009951 0.000000
# 3 -0.003348 -0.003808 0.009592 0.000000 -0.000393 0.000000
# 4 0.000000 0.000000 0.000000 0.059227 0.000000 -0.000344
# 5 -0.001693 0.009951 -0.000393 0.000000 0.026040 0.000000
# 6 0.000000 0.000000 0.000000 -0.000344 0.000000 0.038492
#
#
# Mechanical properties :
#
#
# Convention : Reuss Voigt Hill
#
# Bulk Modulus (GPa) = 28.10643 56.97389 42.54016
# Shear Modulus (GPa) = 20.74556 28.86767 24.80662
#
# Velocity S-wave (km/s) = 3.18365 3.75551 3.48134
# Velocity P-wave (km/s) = 5.21978 6.82941 6.07811
#
# Compressibility (1/GPa) = 0.03557905
#
# Stress axis : x y z
#
# Youngs Moduli (GPa) = 83.85159 20.42093 104.24821
#
# Poissons Ratio (x) = 0.21029 0.34904
# Poissons Ratio (y) = 0.86350 0.39699
# Poissons Ratio (z) = 0.28075 0.07777
#
# Static dielectric constant tensor:
#      x y z
#    x 4.003710 0.000000 0.088460 
#    y 0.000000 2.905800 0.000000 
#    z 0.088460 0.000000 4.009920 
# 
# 
# High freq. dielectric constant tensor:
#      x y z
#    x 1.819870 0.000000 0.008950 
#    y 0.000000 1.705490 0.000000 
#    z 0.008950 0.000000 1.819160 
# 
# From -- ./inp_files/71490.got.cif
#   From: 2010.06.25/outbox.cif.g09.slc.cpg/sg13_36_cif.got.tgz:71490.got - 2010.06.28 04:50:58.
