data_PCOD8116756
_publ_section_title
;
Structure prediction by ZEFSAII (Michael W. Deem and Ramdas Pophale) SiO2 
 PCOD8116756
Probable space group: P 2/C
;
_chemical_formula_sum "Si O2"
_cell_formula_units_Z 32
_cell_length_a 22.696142
_cell_length_b 11.043096
_cell_length_c 22.088501
_cell_angle_alpha 90.000000
_cell_angle_beta 19.762150
_cell_angle_gamma 90.000000
_cell_volume 1871.868051
_symmetry_space_group_name_H-M "P 2/C"
_symmetry_group_IT_number 13
_symmetry_cell_setting 'monoclinic'
loop_
_space_group_symop_operation_xyz
x,y,z
-x,y,1/2-z
-x,-y,-z
x,-y,1/2+z
loop_
_atom_site_type_symbol
_atom_site_label
_atom_site_fract_x
_atom_site_fract_y
_atom_site_fract_z
Si Si1 0.450506 0.389604 0.728779
Si Si2 0.896236 0.235248 0.040307
Si Si3 0.940672 0.976612 0.989134
Si Si4 0.791107 0.619472 0.205129
Si Si5 0.392827 0.191082 0.693905
Si Si6 0.869109 0.523115 0.511278
Si Si7 0.757171 0.809991 0.801485
Si Si8 0.756127 0.542885 0.849961
O O1 0.500000 0.375929 0.750000
O O2 0.419138 0.253792 0.733963
O O3 0.271293 0.464519 0.897027
O O4 0.600029 0.465175 0.549136
O O5 0.821508 0.334922 0.066136
O O6 0.762602 0.201904 0.223432
O O7 0.929407 0.110688 0.970171
O O8 0.071939 0.284896 0.901059
O O9 0.756618 0.908932 0.160560
O O10 0.092002 0.893691 0.814476
O O11 0.000000 0.000000 0.000000
O O12 0.639169 0.697295 0.321248
O O13 0.880487 0.535653 0.067539
O O14 0.705884 0.537369 0.339846
O O15 0.572638 0.129821 0.498232
O O16 0.063029 0.506976 0.295824
O O17 0.784319 0.681064 0.805464
#
# Coordination Sequence:
#
# PCOD8116756 Si02
#       8
#     4   4   4   4   4   4   4   4
#     4  10  23  36  51  76  99 128 178 217 248 298
#     4  10  17  29  48  72 108 133 158 194 248 304
#     4  10  19  32  43  72 111 136 160 201 235 304
#     4  10  16  30  49  79 105 130 160 198 252 326
#     4  10  20  31  51  73 103 140 164 203 256 302
#     4  10  18  32  53  73 103 134 162 203 258 303
#     4  10  17  28  46  69 103 137 160 189 240 303
#     4  10  18  31  53  76 101 130 161 207 260 308
#
# _framework density 17.095222
#
# number of rings (size 3 to 8) (size 9 to 14) (size 15 to 20)
#    0.000    2.000    5.000    1.500    1.750    4.000 
#    0.000    0.000    0.000    0.750    0.000    7.000 
#    0.000    0.000    0.000    0.000    0.000    0.000 
#
# Total GULP energy -396655.161145 kJ/mol
# GULP energy per Si atom -12395.473786 kJ/mol
# Density = 1.705631 g / cm^3
# Si number density = 17.095222 Si / 1000 Ang^3
#
#
#
# Elastic Constant Matrix: (Units=GPa)
#
#
# Indices 1 2 3 4 5 6 
#
# 1 79.2894 25.8575 27.3365 0.0000 -7.8032 0.0000
# 2 25.8575 112.1328 41.1658 0.0000 -9.4148 0.0000
# 3 27.3365 41.1658 99.0237 0.0000 -15.9205 0.0000
# 4 0.0000 0.0000 0.0000 19.3993 0.0000 -4.2034
# 5 -7.8032 -9.4148 -15.9205 0.0000 16.7496 0.0000
# 6 0.0000 0.0000 0.0000 -4.2034 0.0000 12.1441
#
#
#
# Elastic Compliance Matrix: (Units=1/GPa)
#
#
# Indices 1 2 3 4 5 6 
#
# 1 0.014513 -0.002123 -0.002631 0.000000 0.003067 0.000000
# 2 -0.002123 0.010896 -0.003680 0.000000 0.001637 0.000000
# 3 -0.002631 -0.003680 0.013958 0.000000 0.009973 0.000000
# 4 0.000000 0.000000 0.000000 0.055728 0.000000 0.019289
# 5 0.003067 0.001637 0.009973 0.000000 0.071532 0.000000
# 6 0.000000 0.000000 0.000000 0.019289 0.000000 0.089020
#
#
# Mechanical properties :
#
#
# Convention : Reuss Voigt Hill
#
# Bulk Modulus (GPa) = 44.44649 53.24063 48.84356
# Shear Modulus (GPa) = 17.85613 22.73102 20.29357
#
# Velocity S-wave (km/s) = 3.23539 3.65042 3.44916
# Velocity P-wave (km/s) = 6.32557 6.99847 6.67051
#
# Compressibility (1/GPa) = 0.02249897
#
# Stress axis : x y z
#
# Youngs Moduli (GPa) = 68.90211 91.77489 71.64254
#
# Poissons Ratio (x) = 0.19488 0.18847
# Poissons Ratio (y) = 0.14631 0.26367
# Poissons Ratio (z) = 0.18126 0.33776
#
# Static dielectric constant tensor:
#      x y z
#    x 2.743340 0.000000 -0.120390 
#    y 0.000000 3.630060 0.000000 
#    z -0.120390 0.000000 3.386940 
# 
# 
# High freq. dielectric constant tensor:
#      x y z
#    x 1.602290 0.000000 -0.020870 
#    y 0.000000 1.663650 0.000000 
#    z -0.020870 0.000000 1.666370 
# 
# From -- ./inp_files/81815.got.cif
#   From: 2010.06.25/outbox.cif.g09.slc.cpg/sg13_41_cif.got.tgz:81815.got - 2010.06.28 04:50:58.
