data_PCOD8116968
_publ_section_title
;
Structure prediction by ZEFSAII (Michael W. Deem and Ramdas Pophale) SiO2 
 PCOD8116968
Probable space group: P 2/C
;
_chemical_formula_sum "Si O2"
_cell_formula_units_Z 30
_cell_length_a 11.217337
_cell_length_b 7.937460
_cell_length_c 17.072280
_cell_angle_alpha 90.000000
_cell_angle_beta 76.787186
_cell_angle_gamma 90.000000
_cell_volume 1479.827875
_symmetry_space_group_name_H-M "P 2/C"
_symmetry_group_IT_number 13
_symmetry_cell_setting 'monoclinic'
loop_
_space_group_symop_operation_xyz
x,y,z
-x,y,1/2-z
-x,-y,-z
x,-y,1/2+z
loop_
_atom_site_type_symbol
_atom_site_label
_atom_site_fract_x
_atom_site_fract_y
_atom_site_fract_z
Si Si1 0.929808 0.349413 0.053470
Si Si2 0.500000 0.606861 0.750000
Si Si3 0.922401 0.810537 0.834972
Si Si4 0.369164 0.175642 0.977240
Si Si5 0.332878 0.325748 0.145158
Si Si6 0.815389 0.908648 0.462567
Si Si7 0.378701 0.329936 0.558091
Si Si8 0.670405 0.497036 0.093319
O O1 0.792767 0.400538 0.096817
O O2 0.999825 0.314552 0.122879
O O3 0.917089 0.178874 0.003054
O O4 0.000000 0.500000 0.000000
O O5 0.587395 0.724922 0.790392
O O6 0.414956 0.490545 0.817811
O O7 0.810640 0.701546 0.816675
O O8 0.000000 0.878768 0.750000
O O9 0.883272 0.967520 0.893739
O O10 0.366003 0.199843 0.070693
O O11 0.296647 0.000852 0.971323
O O12 0.512991 0.198330 0.932666
O O13 0.292349 0.317201 0.942162
O O14 0.364572 0.520871 0.122660
O O15 0.750947 0.763873 0.421215
O O16 0.404489 0.407060 0.466964
#
# Coordination Sequence:
#
# PCOD8116968 Si02
#       8
#     4   2   4   4   4   4   4   4
#     4  11  22  42  65  90 115 159 223 259 287 355
#     4  12  18  34  56  90 118 148 192 242 312 354
#     4  11  23  41  58  87 127 165 198 247 319 366
#     4  10  17  36  56  89 117 148 189 245 306 356
#     4  10  20  34  61  83 116 153 198 246 290 359
#     4  10  22  35  64  84 115 159 203 251 300 365
#     4  10  17  36  55  88 114 152 197 245 297 352
#     4  10  20  32  60  87 116 151 194 251 295 356
#
# _framework density 20.272627
#
# number of rings (size 3 to 8) (size 9 to 14) (size 15 to 20)
#    0.000    1.600    2.667    5.600    0.000    0.000 
#    0.000    5.333    0.000    1.600    0.000    0.000 
#    0.000    0.000    0.000    0.000    0.000    0.000 
#
# Total GULP energy -371816.542910 kJ/mol
# GULP energy per Si atom -12393.884764 kJ/mol
# Density = 2.022649 g / cm^3
# Si number density = 20.272627 Si / 1000 Ang^3
#
#
#
# Elastic Constant Matrix: (Units=GPa)
#
#
# Indices 1 2 3 4 5 6 
#
# 1 120.2498 37.7980 51.1285 0.0000 9.6664 0.0000
# 2 37.7980 77.5826 32.2790 0.0000 2.7850 0.0000
# 3 51.1285 32.2790 96.3704 0.0000 0.5481 0.0000
# 4 0.0000 0.0000 0.0000 10.3101 0.0000 1.0311
# 5 9.6664 2.7850 0.5481 0.0000 36.0170 0.0000
# 6 0.0000 0.0000 0.0000 1.0311 0.0000 41.8757
#
#
#
# Elastic Compliance Matrix: (Units=1/GPa)
#
#
# Indices 1 2 3 4 5 6 
#
# 1 0.011809 -0.003546 -0.005061 0.000000 -0.002818 0.000000
# 2 -0.003546 0.016084 -0.003504 0.000000 -0.000239 0.000000
# 3 -0.005061 -0.003504 0.014228 0.000000 0.001413 0.000000
# 4 0.000000 0.000000 0.000000 0.097231 0.000000 -0.002394
# 5 -0.002818 -0.000239 0.001413 0.000000 0.028518 0.000000
# 6 0.000000 0.000000 0.000000 -0.002394 0.000000 0.023939
#
#
# Mechanical properties :
#
#
# Convention : Reuss Voigt Hill
#
# Bulk Modulus (GPa) = 55.87713 59.62374 57.75044
# Shear Modulus (GPa) = 22.52258 29.17372 25.84815
#
# Velocity S-wave (km/s) = 3.33676 3.79762 3.57463
# Velocity P-wave (km/s) = 6.51675 6.97883 6.75174
#
# Compressibility (1/GPa) = 0.01789641
#
# Stress axis : x y z
#
# Youngs Moduli (GPa) = 84.67841 62.17402 70.28553
#
# Poissons Ratio (x) = 0.22050 0.35575
# Poissons Ratio (y) = 0.30031 0.24630
# Poissons Ratio (z) = 0.42860 0.21788
#
# Static dielectric constant tensor:
#      x y z
#    x 4.077130 0.000000 0.094480 
#    y 0.000000 3.640460 0.000000 
#    z 0.094480 0.000000 3.468630 
# 
# 
# High freq. dielectric constant tensor:
#      x y z
#    x 1.817630 0.000000 0.003440 
#    y 0.000000 1.774930 0.000000 
#    z 0.003440 0.000000 1.761510 
# 
# From -- ./inp_files/66029.got.cif
#   From: 2010.06.25/outbox.cif.g09.slc.cpg/sg13_34_cif.got.tgz:66029.got - 2010.06.28 04:50:58.
