data_PCOD8116130
_publ_section_title
;
Structure prediction by ZEFSAII (Michael W. Deem and Ramdas Pophale) SiO2 
 PCOD8116130
Probable space group: C 2/M
;
_chemical_formula_sum "Si O2"
_cell_formula_units_Z 56
_cell_length_a 21.333952
_cell_length_b 22.755616
_cell_length_c 7.570831
_cell_angle_alpha 90.000000
_cell_angle_beta 90.000000
_cell_angle_gamma 90.000000
_cell_volume 3675.390275
_symmetry_space_group_name_H-M "C 2/M"
_symmetry_group_IT_number 12
_symmetry_cell_setting 'monoclinic'
loop_
_space_group_symop_operation_xyz
x,y,z
-x,y,-z
-x,-y,-z
x,-y,z
1/2+x,1/2+y,z
1/2-x,1/2+y,-z
1/2-x,1/2-y,-z
1/2+x,1/2-y,z
loop_
_atom_site_type_symbol
_atom_site_label
_atom_site_fract_x
_atom_site_fract_y
_atom_site_fract_z
Si Si1 0.357459 0.384918 0.703426
Si Si2 0.427444 0.735547 0.700667
Si Si3 0.572556 0.735547 0.700669
Si Si4 0.857459 0.115081 0.296572
Si Si5 0.569790 0.500000 0.709011
Si Si6 0.930209 0.000000 0.709010
Si Si7 0.725274 0.657474 0.000001
Si Si8 0.346852 0.779063 1.000000
O O1 0.404946 0.331016 0.729840
O O2 0.335736 0.390694 0.499999
O O3 0.393280 0.442461 0.772670
O O4 0.295659 0.376965 0.823275
O O5 0.500000 0.737955 0.751653
O O6 0.415606 0.755737 0.499999
O O7 0.389946 0.780579 0.825332
O O8 0.595054 0.668984 0.729842
O O9 0.610053 0.780579 0.825334
O O10 0.893281 0.057539 0.227329
O O11 0.795659 0.123034 0.176722
O O12 0.500000 0.500000 0.792109
O O13 0.564210 0.500000 0.500001
O O14 0.800762 0.664492 0.000000
O O15 0.694240 0.720914 0.999999
#
# Coordination Sequence:
#
# PCOD8116130 Si02
#       8
#     8   8   8   8   4   4   8   8
#     4   9  17  28  41  57  80 108 136 168 199 228
#     4   9  16  26  41  60  80 103 131 163 201 240
#     4   9  16  26  41  60  80 103 131 163 201 240
#     4   9  17  28  41  57  80 108 136 168 199 228
#     4   9  16  27  43  61  82 109 139 170 202 230
#     4   9  16  27  43  61  82 109 139 170 202 230
#     4   9  18  29  39  54  74 102 141 172 197 231
#     4   9  17  28  40  54  75 102 134 171 201 231
#
# _framework density 15.236478
#
# number of rings (size 3 to 8) (size 9 to 14) (size 15 to 20)
#    0.000    3.000    0.000    1.286    0.000    5.143 
#    0.000    8.571    0.000    0.000    0.000    0.000 
#    0.000    0.000    0.000   10.286    0.000   59.429 
#
# Total GULP energy -347129.034691 kJ/mol
# GULP energy per Si atom -12397.465525 kJ/mol
# Density = 1.520180 g / cm^3
# Si number density = 15.236478 Si / 1000 Ang^3
#
#
#
# Elastic Constant Matrix: (Units=GPa)
#
#
# Indices 1 2 3 4 5 6 
#
# 1 117.1286 54.6039 67.4150 0.0000 -0.0001 0.0000
# 2 54.6039 51.7323 36.0845 0.0000 0.0000 0.0000
# 3 67.4150 36.0845 98.6214 0.0000 0.0003 0.0000
# 4 0.0000 0.0000 0.0000 13.3249 0.0000 0.0003
# 5 -0.0001 0.0000 0.0003 0.0000 24.4072 0.0000
# 6 0.0000 0.0000 0.0000 0.0003 0.0000 25.6829
#
#
#
# Elastic Compliance Matrix: (Units=1/GPa)
#
#
# Indices 1 2 3 4 5 6 
#
# 1 0.020927 -0.016261 -0.008356 0.000000 0.000000 0.000000
# 2 -0.016261 0.038589 -0.003004 0.000000 0.000000 0.000000
# 3 -0.008356 -0.003004 0.016951 0.000000 0.000000 0.000000
# 4 0.000000 0.000000 0.000000 0.075047 0.000000 -0.000001
# 5 0.000000 0.000000 0.000000 0.000000 0.040971 0.000000
# 6 0.000000 0.000000 0.000000 -0.000001 0.000000 0.038936
#
#
# Mechanical properties :
#
#
# Convention : Reuss Voigt Hill
#
# Bulk Modulus (GPa) = 47.11157 64.85433 55.98295
# Shear Modulus (GPa) = 17.02195 19.97495 18.49845
#
# Velocity S-wave (km/s) = 3.34606 3.62470 3.48816
# Velocity P-wave (km/s) = 6.77610 7.75728 7.28323
#
# Compressibility (1/GPa) = 0.02122621
#
# Stress axis : x y z
#
# Youngs Moduli (GPa) = 47.78402 25.91420 58.99462
#
# Poissons Ratio (x) = 0.42138 0.49295
# Poissons Ratio (y) = 0.77700 0.17721
# Poissons Ratio (z) = 0.39928 0.07784
#
# Static dielectric constant tensor:
#      x y z
#    x 2.993940 0.000000 0.000000 
#    y 0.000000 2.712460 0.000000 
#    z 0.000000 0.000000 3.059350 
# 
# 
# High freq. dielectric constant tensor:
#      x y z
#    x 1.568370 0.000000 0.000000 
#    y 0.000000 1.536020 0.000000 
#    z 0.000000 0.000000 1.597150 
# 
# From -- ./inp_files/88793.got.cif
#   From: 2010.06.25/outbox.cif.g09.slc.cpg/sg12_45_cif.got.tgz:88793.got - 2010.06.28 00:19:55.
