data_PCOD8116113
_publ_section_title
;
Structure prediction by ZEFSAII (Michael W. Deem and Ramdas Pophale) SiO2 
 PCOD8116113
Probable space group: C 2/M
;
_chemical_formula_sum "Si O2"
_cell_formula_units_Z 56
_cell_length_a 32.149991
_cell_length_b 9.631646
_cell_length_c 16.688753
_cell_angle_alpha 90.000000
_cell_angle_beta 36.596540
_cell_angle_gamma 90.000000
_cell_volume 3080.917223
_symmetry_space_group_name_H-M "C 2/M"
_symmetry_group_IT_number 12
_symmetry_cell_setting 'monoclinic'
loop_
_space_group_symop_operation_xyz
x,y,z
-x,y,-z
-x,-y,-z
x,-y,z
1/2+x,1/2+y,z
1/2-x,1/2+y,-z
1/2-x,1/2-y,-z
1/2+x,1/2-y,z
loop_
_atom_site_type_symbol
_atom_site_label
_atom_site_fract_x
_atom_site_fract_y
_atom_site_fract_z
Si Si1 0.669777 0.837445 0.433768
Si Si2 0.800359 0.656711 0.218907
Si Si3 0.081257 0.662636 0.237336
Si Si4 0.846436 0.339182 0.722943
Si Si5 0.718465 0.156671 0.939949
Si Si6 0.026206 0.665285 0.721756
Si Si7 0.043667 0.334581 0.007815
O O1 0.739342 0.753390 0.349539
O O2 0.641619 0.799959 0.387999
O O3 0.607539 0.790920 0.589586
O O4 0.687255 0.000000 0.413800
O O5 0.788994 0.500000 0.268844
O O6 0.798912 0.659696 0.126349
O O7 0.876350 0.715361 0.126892
O O8 0.078100 0.500000 0.226200
O O9 0.084857 0.693967 0.327990
O O10 0.014821 0.726656 0.293077
O O11 0.152125 0.719659 0.088196
O O12 0.826593 0.500000 0.761813
O O13 0.783361 0.254167 0.859423
O O14 0.736001 0.000000 0.940478
O O15 0.022453 0.500000 0.727517
O O16 0.991786 0.725435 0.856199
O O17 0.042596 0.500000 0.013716
O O18 0.000000 0.278024 0.000000
#
# Coordination Sequence:
#
# PCOD8116113 Si02
#       7
#     8   8   8   8   8   8   8
#     4   9  18  30  45  66  95 126 151 179 220 270
#     4   9  16  29  49  69  90 118 150 187 227 265
#     4   9  15  24  40  61  87 115 150 191 223 253
#     4   9  17  26  38  62  91 119 150 183 217 259
#     4   9  15  25  42  62  85 116 151 185 223 261
#     4   9  16  28  45  66  91 119 151 188 228 265
#     4   9  16  28  49  74  92 110 148 195 228 260
#
# _framework density 18.176404999999999
#
# number of rings (size 3 to 8) (size 9 to 14) (size 15 to 20)
#    0.000    3.000    1.429    0.429    0.000    0.571 
#    0.000    3.571    0.000    3.000    0.000    4.000 
#    0.000    0.000    0.000    0.000    0.000    0.000 
#
# Total GULP energy -346934.148485 kJ/mol
# GULP energy per Si atom -12390.505303 kJ/mol
# Density = 1.813503 g / cm^3
# Si number density = 18.176405 Si / 1000 Ang^3
#
#
#
# Elastic Constant Matrix: (Units=GPa)
#
#
# Indices 1 2 3 4 5 6 
#
# 1 106.9838 21.3880 59.7007 -0.0001 -23.1889 0.0000
# 2 21.3880 30.9172 30.9112 -0.0016 -9.7009 0.0006
# 3 59.7007 30.9112 111.9497 -0.0003 -23.3636 0.0002
# 4 -0.0001 -0.0016 -0.0003 18.1329 0.0001 -5.9244
# 5 -23.1889 -9.7009 -23.3636 0.0001 19.5336 0.0000
# 6 0.0000 0.0006 0.0002 -5.9244 0.0000 12.8608
#
#
#
# Elastic Compliance Matrix: (Units=1/GPa)
#
#
# Indices 1 2 3 4 5 6 
#
# 1 0.014926 -0.001740 -0.005280 0.000000 0.010540 0.000000
# 2 -0.001740 0.046368 -0.009995 0.000004 0.009007 0.000000
# 3 -0.005280 -0.009995 0.016210 -0.000001 0.008157 0.000000
# 4 0.000000 0.000004 -0.000001 0.064919 0.000001 0.029905
# 5 0.010540 0.009007 0.008157 0.000001 0.077936 0.000000
# 6 0.000000 0.000000 0.000000 0.029905 0.000000 0.091532
#
#
# Mechanical properties :
#
#
# Convention : Reuss Voigt Hill
#
# Bulk Modulus (GPa) = 23.00203 52.65005 37.82604
# Shear Modulus (GPa) = 13.87304 19.29550 16.58427
#
# Velocity S-wave (km/s) = 2.76569 3.26171 3.02388
# Velocity P-wave (km/s) = 4.78341 6.57374 5.74870
#
# Compressibility (1/GPa) = 0.04347443
#
# Stress axis : x y z
#
# Youngs Moduli (GPa) = 66.99809 21.56682 61.68880
#
# Poissons Ratio (x) = 0.03752 0.32569
# Poissons Ratio (y) = 0.11655 0.61660
# Poissons Ratio (z) = 0.35372 0.21557
#
# Static dielectric constant tensor:
#      x y z
#    x 3.500210 0.000000 -0.091250 
#    y 0.000000 2.976730 0.000000 
#    z -0.091250 0.000000 3.412290 
# 
# 
# High freq. dielectric constant tensor:
#      x y z
#    x 1.702240 0.000000 -0.006870 
#    y 0.000000 1.643240 0.000000 
#    z -0.006870 0.000000 1.700130 
# 
# From -- ./inp_files/245617.got.cif
#   From: 2010.06.25/outbox.cif.g09.slc.cpg/sg12_123_cif.got.tgz:245617.got - 2010.06.28 00:19:55.
