data_PCOD8116495
_publ_section_title
;
Structure prediction by ZEFSAII (Michael W. Deem and Ramdas Pophale) SiO2 
 PCOD8116495
Probable space group: C 2/M
;
_chemical_formula_sum "Si O2"
_cell_formula_units_Z 28
_cell_length_a 21.000000
_cell_length_b 18.000000
_cell_length_c 21.000000
_cell_angle_alpha 90.000000
_cell_angle_beta 160.000000
_cell_angle_gamma 90.000000
_cell_volume 2714.955898
_symmetry_space_group_name_H-M "C 2/M"
_symmetry_group_IT_number 12
_symmetry_cell_setting 'monoclinic'
loop_
_space_group_symop_operation_xyz
x,y,z
-x,y,-z
-x,-y,-z
x,-y,z
1/2+x,1/2+y,z
1/2-x,1/2+y,-z
1/2-x,1/2-y,-z
1/2+x,1/2-y,z
loop_
_atom_site_type_symbol
_atom_site_label
_atom_site_fract_x
_atom_site_fract_y
_atom_site_fract_z
Si Si1 0.957077 0.416036 0.033317
Si Si2 0.229240 0.839033 0.215901
Si Si3 0.259093 0.867686 0.494424
Si Si4 0.454753 0.747466 0.220771
Si Si5 0.858114 0.196848 0.265372
Si Si6 0.428306 0.086132 0.520063
Si Si7 0.332784 0.417331 0.456603
O O1 0.886608 0.500000 0.981442
O O2 0.806147 0.356195 0.913705
O O3 0.000000 0.405967 0.000000
O O4 0.136861 0.396405 0.242550
O O5 0.284328 0.752945 0.251464
O O6 0.351830 0.888756 0.280200
O O7 0.303381 0.861927 0.355712
O O8 0.000000 0.850108 0.000000
O O9 0.428979 0.821266 0.684474
O O10 0.341345 0.908914 0.509430
O O11 0.186791 0.918852 0.484572
O O12 0.077255 0.818831 0.304801
O O13 0.437659 0.743535 0.281057
O O14 0.250000 0.750000 0.000000
O O15 0.024986 0.141359 0.442090
O O16 0.414773 0.000000 0.486504
O O17 0.396220 0.500000 0.495441
#
# Coordination Sequence:
#
# PCOD8116495 Si02
#       7
#     8   8   8   8   8   8   8
#     4  10  22  39  58  88 127 168 214 260 307 368
#     4  11  25  42  63  92 128 169 218 267 319 377
#     4  10  21  40  64  96 128 164 211 258 319 384
#     4  10  21  37  61  93 130 162 205 261 317 377
#     4  11  22  39  61  93 123 165 211 261 311 376
#     4  11  25  45  68  95 129 166 215 270 321 386
#     4  10  22  41  66  94 130 169 207 257 318 379
#
# _framework density 10.313243
#
# number of rings (size 3 to 8) (size 9 to 14) (size 15 to 20)
#    0.000    1.571    1.429    3.000    2.000    6.286 
#    0.000    2.143    0.000    5.143    0.000    0.000 
#    0.000    0.000    0.000    0.000    0.000    0.000 
#
# Total GULP energy -346938.310414 kJ/mol
# GULP energy per Si atom -12390.653943 kJ/mol
# Density = 1.028977 g / cm^3
# Si number density = 10.313243 Si / 1000 Ang^3
#
#
#
# Elastic Constant Matrix: (Units=GPa)
#
#
# Indices 1 2 3 4 5 6 
#
# 1 98.8483 25.8108 32.3731 -0.1748 11.8014 -0.0938
# 2 25.8108 123.7992 58.2353 -0.4710 8.5667 -0.2444
# 3 32.3731 58.2353 136.2801 -0.5668 21.6910 -0.3241
# 4 -0.1748 -0.4710 -0.5668 113.6749 -0.2080 53.0661
# 5 11.8014 8.5667 21.6910 -0.2080 35.9443 -0.1155
# 6 -0.0938 -0.2444 -0.3241 53.0661 -0.1155 42.7174
#
#
#
# Elastic Compliance Matrix: (Units=1/GPa)
#
#
# Indices 1 2 3 4 5 6 
#
# 1 0.011323 -0.001388 -0.001723 0.000000 -0.002347 -0.000002
# 2 -0.001388 0.010281 -0.004144 0.000021 0.000506 0.000000
# 3 -0.001723 -0.004144 0.010256 0.000012 -0.004635 0.000022
# 4 0.000000 0.000021 0.000012 0.020941 0.000025 -0.026014
# 5 -0.002347 0.000506 -0.004635 0.000025 0.031268 0.000016
# 6 -0.000002 0.000000 0.000022 -0.026014 0.000016 0.055726
#
#
# Mechanical properties :
#
#
# Convention : Reuss Voigt Hill
#
# Bulk Modulus (GPa) = 57.63603 65.75178 61.69391
# Shear Modulus (GPa) = 31.23219 54.63454 42.93336
#
# Velocity S-wave (km/s) = 3.89547 5.15219 4.56726
# Velocity P-wave (km/s) = 6.94523 8.20609 7.60185
#
# Compressibility (1/GPa) = 0.01735026
#
# Stress axis : x y z
#
# Youngs Moduli (GPa) = 88.31205 97.26233 97.50347
#
# Poissons Ratio (x) = 0.13498 0.16802
# Poissons Ratio (y) = 0.12256 0.40409
# Poissons Ratio (z) = 0.15219 0.40309
#
# Static dielectric constant tensor:
#      x y z
#    x 4.085710 -0.000040 0.123110 
#    y -0.000040 3.897850 -0.000190 
#    z 0.123110 -0.000190 4.121710 
# 
# 
# High freq. dielectric constant tensor:
#      x y z
#    x 1.823130 -0.000010 0.022570 
#    y -0.000010 1.817790 -0.000020 
#    z 0.022570 -0.000020 1.814020 
# 
# From -- ./inp_files/322734.got.cif
#   From: 2010.06.25/outbox.ucp.g09.slc.cvg/sg12_162_cif.got.tgz:322734.got - 2010.06.28 13:50:54.
