data_PCOD8116622
_publ_section_title
;
Structure prediction by ZEFSAII (Michael W. Deem and Ramdas Pophale) SiO2 
 PCOD8116622
Probable space group: C 2/M
;
_chemical_formula_sum "Si O2"
_cell_formula_units_Z 20
_cell_length_a 12.000000
_cell_length_b 18.000000
_cell_length_c 18.000000
_cell_angle_alpha 90.000000
_cell_angle_beta 150.000000
_cell_angle_gamma 90.000000
_cell_volume 1944.000000
_symmetry_space_group_name_H-M "C 2/M"
_symmetry_group_IT_number 12
_symmetry_cell_setting 'monoclinic'
loop_
_space_group_symop_operation_xyz
x,y,z
-x,y,-z
-x,-y,-z
x,-y,z
1/2+x,1/2+y,z
1/2-x,1/2+y,-z
1/2-x,1/2-y,-z
1/2+x,1/2-y,z
loop_
_atom_site_type_symbol
_atom_site_label
_atom_site_fract_x
_atom_site_fract_y
_atom_site_fract_z
Si Si1 0.785737 0.670628 0.819701
Si Si2 0.159684 0.085597 0.415584
Si Si3 0.905584 0.331999 0.278965
Si Si4 0.586940 0.415904 0.206701
Si Si5 0.838531 0.331248 0.070502
O O1 0.601179 0.605859 0.720837
O O2 0.631421 0.743968 0.733630
O O3 0.906594 0.660469 0.810240
O O4 0.000000 0.670218 0.000000
O O5 0.340602 0.140591 0.558613
O O6 0.206671 0.091652 0.355104
O O7 0.195897 0.000000 0.463078
O O8 0.727482 0.370350 0.228854
O O9 0.841190 0.351728 0.158121
O O10 0.581018 0.500000 0.175654
O O11 0.333260 0.387230 0.068170
O O12 0.750000 0.250000 0.000000
#
# Coordination Sequence:
#
# PCOD8116622 Si02
#       5
#     8   8   8   8   8
#     4  12  23  43  72  96 132 179 230 275 330 401
#     4  11  26  46  68 100 140 181 222 270 338 405
#     4  12  24  42  68  99 140 172 223 284 335 395
#     4  11  23  42  70 100 136 181 224 272 334 403
#     4  12  23  42  67 102 134 175 227 280 332 397
#
# _framework density 10.288066000000001
#
# number of rings (size 3 to 8) (size 9 to 14) (size 15 to 20)
#    0.000    0.400    6.000    2.400    0.000    6.000 
#    3.600    1.000    0.000    0.000    0.000    0.000 
#    0.000    0.000    0.000    0.000    0.000    0.000 
#
# Total GULP energy -247929.822370 kJ/mol
# GULP energy per Si atom -12396.491119 kJ/mol
# Density = 1.026465 g / cm^3
# Si number density = 10.288066 Si / 1000 Ang^3
#
#
#
# Elastic Constant Matrix: (Units=GPa)
#
#
# Indices 1 2 3 4 5 6 
#
# 1 88.3398 13.2246 26.3813 0.0062 14.0494 0.0039
# 2 13.2246 84.0182 42.8136 0.0121 1.5223 0.0074
# 3 26.3813 42.8136 138.3648 0.0409 14.4736 0.0143
# 4 0.0062 0.0121 0.0409 41.6045 0.0057 6.7434
# 5 14.0494 1.5223 14.4736 0.0057 42.2874 -0.0005
# 6 0.0039 0.0074 0.0143 6.7434 -0.0005 26.9962
#
#
#
# Elastic Compliance Matrix: (Units=1/GPa)
#
#
# Indices 1 2 3 4 5 6 
#
# 1 0.012548 -0.001046 -0.001698 0.000001 -0.003550 -0.000001
# 2 -0.001046 0.014260 -0.004352 0.000000 0.001323 -0.000002
# 3 -0.001698 -0.004352 0.009150 -0.000007 -0.002411 -0.000002
# 4 0.000001 0.000000 -0.000007 0.025050 -0.000001 -0.006257
# 5 -0.003550 0.001323 -0.002411 -0.000001 0.025605 0.000002
# 6 -0.000001 -0.000002 -0.000002 -0.006257 0.000002 0.038605
#
#
# Mechanical properties :
#
#
# Convention : Reuss Voigt Hill
#
# Bulk Modulus (GPa) = 45.93838 52.84021 49.38929
# Shear Modulus (GPa) = 34.09161 37.39785 35.74473
#
# Velocity S-wave (km/s) = 4.07486 4.26788 4.17249
# Velocity P-wave (km/s) = 6.67187 7.07266 6.87519
#
# Compressibility (1/GPa) = 0.02176829
#
# Stress axis : x y z
#
# Youngs Moduli (GPa) = 79.69373 70.12509 109.29433
#
# Poissons Ratio (x) = 0.07333 0.18553
# Poissons Ratio (y) = 0.08334 0.47560
# Poissons Ratio (z) = 0.13528 0.30515
#
# Static dielectric constant tensor:
#      x y z
#    x 4.133270 -0.000020 0.231270 
#    y -0.000020 3.963470 -0.000060 
#    z 0.231270 -0.000060 4.125090 
# 
# 
# High freq. dielectric constant tensor:
#      x y z
#    x 1.820370 0.000000 0.012310 
#    y 0.000000 1.810090 0.000000 
#    z 0.012310 0.000000 1.822660 
# 
# From -- ./inp_files/158425.got.cif
#   From: 2010.06.25/outbox.ucp.g09.slc.cvg/sg12_80_cif.got.tgz:158425.got - 2010.06.28 13:50:54.
