data_PCOD8116591
_publ_section_title
;
Structure prediction by ZEFSAII (Michael W. Deem and Ramdas Pophale) SiO2 
 PCOD8116591
Probable space group: C 2/M
;
_chemical_formula_sum "Si O2"
_cell_formula_units_Z 32
_cell_length_a 30.000000
_cell_length_b 18.000000
_cell_length_c 12.000000
_cell_angle_alpha 90.000000
_cell_angle_beta 30.000000
_cell_angle_gamma 90.000000
_cell_volume 3240.000000
_symmetry_space_group_name_H-M "C 2/M"
_symmetry_group_IT_number 12
_symmetry_cell_setting 'monoclinic'
loop_
_space_group_symop_operation_xyz
x,y,z
-x,y,-z
-x,-y,-z
x,-y,z
1/2+x,1/2+y,z
1/2-x,1/2+y,-z
1/2-x,1/2-y,-z
1/2+x,1/2-y,z
loop_
_atom_site_type_symbol
_atom_site_label
_atom_site_fract_x
_atom_site_fract_y
_atom_site_fract_z
Si Si1 0.248122 0.911687 0.065386
Si Si2 0.099692 0.839996 0.241941
Si Si3 0.372938 0.695870 0.059058
Si Si4 0.771720 0.175563 0.660695
Si Si5 0.407085 0.184853 0.657643
Si Si6 0.728316 0.413433 0.561102
Si Si7 0.918721 0.582750 0.259551
Si Si8 0.440240 0.230655 0.340636
O O1 0.162985 0.895155 0.173244
O O2 0.240452 0.869222 0.198510
O O3 0.257568 0.000000 0.062952
O O4 0.334727 0.880651 0.811792
O O5 0.127073 0.752991 0.192037
O O6 0.000000 0.855373 0.500000
O O7 0.111246 0.854728 0.085227
O O8 0.302790 0.761789 0.192939
O O9 0.341078 0.638002 0.221695
O O10 0.464757 0.734795 0.898433
O O11 0.767664 0.113556 0.574390
O O12 0.866402 0.216551 0.446352
O O13 0.500000 0.150160 0.500000
O O14 0.424826 0.228031 0.504983
O O15 0.698515 0.500000 0.629974
O O16 0.826582 0.402731 0.396761
O O17 0.918683 0.500000 0.314399
O O18 0.931891 0.644881 0.323842
O O19 0.000000 0.589929 0.000000
#
# Coordination Sequence:
#
# PCOD8116591 Si02
#       8
#     8   8   8   8   8   8   8   8
#     4  12  25  39  65  99 132 172 210 261 332 391
#     4  11  21  43  67  94 127 169 218 267 314 375
#     4  12  23  41  71  97 125 173 226 265 320 388
#     4  12  23  42  64  96 130 171 220 267 319 392
#     4  11  21  42  64  94 129 165 211 262 323 382
#     4  11  26  45  63  94 137 172 213 274 333 378
#     4  10  23  42  64  95 132 169 215 274 333 384
#     4  12  23  38  70  97 124 170 222 268 317 390
#
# _framework density 9.8765429999999999
#
# number of rings (size 3 to 8) (size 9 to 14) (size 15 to 20)
#    0.000    0.625    6.250    2.625    1.750    1.500 
#    0.000    6.250    0.000    0.000    0.000    0.000 
#    0.000    0.000    0.000    0.000    0.000    0.000 
#
# Total GULP energy -396840.445674 kJ/mol
# GULP energy per Si atom -12401.263927 kJ/mol
# Density = 0.985406 g / cm^3
# Si number density = 9.876543 Si / 1000 Ang^3
#
#
#
# Elastic Constant Matrix: (Units=GPa)
#
#
# Indices 1 2 3 4 5 6 
#
# 1 74.5502 35.7704 40.8566 0.0000 -8.6226 0.0000
# 2 35.7704 129.1480 52.3145 0.0000 -11.5249 0.0000
# 3 40.8566 52.3145 115.4597 0.0000 -18.5294 0.0000
# 4 0.0000 0.0000 0.0000 32.7200 0.0000 -0.7071
# 5 -8.6226 -11.5249 -18.5294 0.0000 40.2932 0.0000
# 6 0.0000 0.0000 0.0000 -0.7071 0.0000 35.3498
#
#
#
# Elastic Compliance Matrix: (Units=1/GPa)
#
#
# Indices 1 2 3 4 5 6 
#
# 1 0.017482 -0.002840 -0.004782 0.000000 0.000730 0.000000
# 2 -0.002840 0.009969 -0.003403 0.000000 0.000679 0.000000
# 3 -0.004782 -0.003403 0.012497 0.000000 0.003750 0.000000
# 4 0.000000 0.000000 0.000000 0.030576 0.000000 0.000612
# 5 0.000730 0.000679 0.003750 0.000000 0.026893 0.000000
# 6 0.000000 0.000000 0.000000 0.000612 0.000000 0.028301
#
#
# Mechanical properties :
#
#
# Convention : Reuss Voigt Hill
#
# Bulk Modulus (GPa) = 55.87425 64.11566 59.99496
# Shear Modulus (GPa) = 32.52408 34.35370 33.43889
#
# Velocity S-wave (km/s) = 4.06215 4.17484 4.11888
# Velocity P-wave (km/s) = 7.09571 7.46780 7.28414
#
# Compressibility (1/GPa) = 0.01789733
#
# Stress axis : x y z
#
# Youngs Moduli (GPa) = 57.20306 100.31525 80.01894
#
# Poissons Ratio (x) = 0.28486 0.38268
# Poissons Ratio (y) = 0.16243 0.27230
# Poissons Ratio (z) = 0.27356 0.34137
#
# Static dielectric constant tensor:
#      x y z
#    x 3.796210 0.000000 -0.097620 
#    y 0.000000 3.744060 0.000000 
#    z -0.097620 0.000000 3.778550 
# 
# 
# High freq. dielectric constant tensor:
#      x y z
#    x 1.776930 0.000000 -0.003700 
#    y 0.000000 1.775350 0.000000 
#    z -0.003700 0.000000 1.788690 
# 
# From -- ./inp_files/190020.got.cif
#   From: 2010.06.25/outbox.ucp.g09.slc.cvg/sg12_96_cif.got.tgz:190020.got - 2010.06.28 13:50:54.
