data_PCOD8116590
_publ_section_title
;
Structure prediction by ZEFSAII (Michael W. Deem and Ramdas Pophale) SiO2 
 PCOD8116590
Probable space group: C 2/M
;
_chemical_formula_sum "Si O2"
_cell_formula_units_Z 28
_cell_length_a 18.000000
_cell_length_b 9.000000
_cell_length_c 27.000000
_cell_angle_alpha 90.000000
_cell_angle_beta 40.000000
_cell_angle_gamma 90.000000
_cell_volume 2811.553005
_symmetry_space_group_name_H-M "C 2/M"
_symmetry_group_IT_number 12
_symmetry_cell_setting 'monoclinic'
loop_
_space_group_symop_operation_xyz
x,y,z
-x,y,-z
-x,-y,-z
x,-y,z
1/2+x,1/2+y,z
1/2-x,1/2+y,-z
1/2-x,1/2-y,-z
1/2+x,1/2-y,z
loop_
_atom_site_type_symbol
_atom_site_label
_atom_site_fract_x
_atom_site_fract_y
_atom_site_fract_z
Si Si1 0.247402 0.828157 0.144374
Si Si2 0.533469 0.169177 0.577805
Si Si3 0.006918 0.174393 0.689713
Si Si4 0.279004 0.166004 0.670628
Si Si5 0.347545 0.174674 0.983916
Si Si6 0.249318 0.825069 0.411985
Si Si7 0.102174 0.175030 0.850278
O O1 0.331573 0.730328 0.135040
O O2 0.110456 0.782043 0.219398
O O3 0.258727 0.000000 0.154562
O O4 0.297469 0.801236 0.064343
O O5 0.487087 0.280218 0.643515
O O6 0.417516 0.160632 0.605217
O O7 0.648411 0.237340 0.493359
O O8 0.565714 0.000000 0.578678
O O9 0.121311 0.267797 0.644139
O O10 0.032369 0.000000 0.682994
O O11 0.263489 0.295972 0.639278
O O12 0.193530 0.209167 0.759474
O O13 0.241980 0.000000 0.671215
O O14 0.475832 0.245977 0.909693
O O15 0.357776 0.000000 0.966206
O O16 0.250000 0.250000 0.000000
O O17 0.238914 0.000000 0.429243
O O18 0.078041 0.000000 0.866847
#
# Coordination Sequence:
#
# PCOD8116590 Si02
#       7
#     8   8   8   8   8   8   8
#     4  10  23  43  67  93 127 167 210 258 312 372
#     4  11  22  42  66  91 124 166 212 262 316 376
#     4  11  23  41  65  92 125 167 212 263 316 373
#     4  10  23  42  64  91 126 166 209 259 316 375
#     4  11  25  44  66  98 133 169 208 257 314 372
#     4  12  26  40  60  92 128 167 212 264 317 374
#     4  11  23  42  68  97 128 166 211 258 311 375
#
# _framework density 9.9589090000000002
#
# number of rings (size 3 to 8) (size 9 to 14) (size 15 to 20)
#    0.000    1.143    1.429    4.286    2.000    7.429 
#    0.000    0.000    0.000    0.000    0.000    0.000 
#    0.000    0.000    0.000    0.000    0.000    0.000 
#
# Total GULP energy -346871.821211 kJ/mol
# GULP energy per Si atom -12388.279329 kJ/mol
# Density = 0.993624 g / cm^3
# Si number density = 9.958909 Si / 1000 Ang^3
#
#
#
# Elastic Constant Matrix: (Units=GPa)
#
#
# Indices 1 2 3 4 5 6 
#
# 1 84.4647 47.5646 47.8944 0.0000 -23.4800 -0.0003
# 2 47.5646 130.7085 56.7395 -0.0001 -13.9112 -0.0006
# 3 47.8944 56.7395 174.2422 0.0000 -32.9278 0.0000
# 4 0.0000 -0.0001 0.0000 43.6735 0.0000 -5.7704
# 5 -23.4800 -13.9112 -32.9278 0.0000 46.3700 0.0000
# 6 -0.0003 -0.0006 0.0000 -5.7704 0.0000 38.8275
#
#
#
# Elastic Compliance Matrix: (Units=1/GPa)
#
#
# Indices 1 2 3 4 5 6 
#
# 1 0.017352 -0.004776 -0.002107 0.000000 0.005857 0.000000
# 2 -0.004776 0.010245 -0.002194 0.000000 -0.000903 0.000000
# 3 -0.002107 -0.002194 0.007746 0.000000 0.003775 0.000000
# 4 0.000000 0.000000 0.000000 0.023356 0.000000 0.003471
# 5 0.005857 -0.000903 0.003775 0.000000 0.026942 0.000000
# 6 0.000000 0.000000 0.000000 0.003471 0.000000 0.026271
#
#
# Mechanical properties :
#
#
# Convention : Reuss Voigt Hill
#
# Bulk Modulus (GPa) = 58.17951 77.09028 67.63489
# Shear Modulus (GPa) = 36.81997 41.58866 39.20432
#
# Velocity S-wave (km/s) = 4.30419 4.57444 4.44137
# Velocity P-wave (km/s) = 7.34674 8.16632 7.76735
#
# Compressibility (1/GPa) = 0.01718818
#
# Stress axis : x y z
#
# Youngs Moduli (GPa) = 57.63007 97.60933 129.09398
#
# Poissons Ratio (x) = 0.46620 0.27206
# Poissons Ratio (y) = 0.27525 0.28322
# Poissons Ratio (z) = 0.12145 0.21414
#
# Static dielectric constant tensor:
#      x y z
#    x 3.801560 0.000000 -0.288320 
#    y 0.000000 4.085260 0.000000 
#    z -0.288320 0.000000 4.249590 
# 
# 
# High freq. dielectric constant tensor:
#      x y z
#    x 1.783630 0.000000 -0.022560 
#    y 0.000000 1.798840 0.000000 
#    z -0.022560 0.000000 1.823610 
# 
# From -- ./inp_files/275556.got.cif
#   From: 2010.06.25/outbox.ucp.g09.slc.cvg/sg12_138_cif.got.tgz:275556.got - 2010.06.28 13:50:54.
