data_PCOD8116353
_publ_section_title
;
Structure prediction by ZEFSAII (Michael W. Deem and Ramdas Pophale) SiO2 
 PCOD8116353
Probable space group: C 2/M
;
_chemical_formula_sum "Si O2"
_cell_formula_units_Z 28
_cell_length_a 18.000000
_cell_length_b 9.000000
_cell_length_c 27.000000
_cell_angle_alpha 90.000000
_cell_angle_beta 40.000000
_cell_angle_gamma 90.000000
_cell_volume 2811.553005
_symmetry_space_group_name_H-M "C 2/M"
_symmetry_group_IT_number 12
_symmetry_cell_setting 'monoclinic'
loop_
_space_group_symop_operation_xyz
x,y,z
-x,y,-z
-x,-y,-z
x,-y,z
1/2+x,1/2+y,z
1/2-x,1/2+y,-z
1/2-x,1/2-y,-z
1/2+x,1/2-y,z
loop_
_atom_site_type_symbol
_atom_site_label
_atom_site_fract_x
_atom_site_fract_y
_atom_site_fract_z
Si Si1 0.576075 0.334958 0.510279
Si Si2 0.713957 0.168387 0.066507
Si Si3 0.371137 0.325013 0.074894
Si Si4 0.685345 0.327761 0.221742
Si Si5 0.989124 0.672615 0.762630
Si Si6 0.382721 0.835224 0.653011
Si Si7 0.728407 0.666605 0.635037
O O1 0.500000 0.346714 0.500000
O O2 0.584743 0.500000 0.529808
O O3 0.514599 0.213634 0.576173
O O4 0.705817 0.273981 0.436749
O O5 0.796360 0.229158 0.066972
O O6 0.580702 0.191872 0.150065
O O7 0.744154 0.000000 0.041210
O O8 0.750000 0.250000 0.000000
O O9 0.362366 0.500000 0.090415
O O10 0.315790 0.232371 0.147722
O O11 0.500000 0.271750 0.000000
O O12 0.673747 0.500000 0.214547
O O13 0.589302 0.233757 0.241626
O O14 0.668072 0.296164 0.287983
O O15 0.016061 0.500000 0.738534
O O16 0.104250 0.765990 0.710038
O O17 0.305073 0.840517 0.644462
O O18 0.384483 0.000000 0.676604
O O19 0.713135 0.500000 0.621232
#
# Coordination Sequence:
#
# PCOD8116353 Si02
#       7
#     8   8   8   8   8   8   8
#     4   9  17  31  52  78 108 140 175 218 265 310
#     4   9  19  34  53  76 102 134 170 211 259 310
#     4   9  19  37  57  76 102 138 177 216 263 315
#     4  11  22  36  55  79 108 141 179 221 266 316
#     4  10  21  38  56  76 107 144 178 216 267 319
#     4  10  20  35  55  79 109 143 179 219 263 314
#     4  10  20  34  55  82 108 139 179 219 262 314
#
# _framework density 9.9589090000000002
#
# number of rings (size 3 to 8) (size 9 to 14) (size 15 to 20)
#    0.000    2.286    0.000    3.857    0.000    7.714 
#    0.000    5.000    0.000    0.000    0.000    0.000 
#    0.000    0.000    0.000    0.000    0.000    0.000 
#
# Total GULP energy -347006.821181 kJ/mol
# GULP energy per Si atom -12393.100756 kJ/mol
# Density = 0.993624 g / cm^3
# Si number density = 9.958909 Si / 1000 Ang^3
#
#
#
# Elastic Constant Matrix: (Units=GPa)
#
#
# Indices 1 2 3 4 5 6 
#
# 1 16.7985 25.9039 35.0059 0.0003 -16.7873 -0.0004
# 2 25.9039 102.8222 40.1238 0.0009 -12.1898 -0.0011
# 3 35.0059 40.1238 103.4551 0.0005 -21.3598 -0.0003
# 4 0.0003 0.0009 0.0005 699.1149 0.0002 -559.4860
# 5 -16.7873 -12.1898 -21.3598 0.0002 25.7511 -0.0001
# 6 -0.0004 -0.0011 -0.0003 -559.4860 -0.0001 498.3650
#
#
#
# Elastic Compliance Matrix: (Units=1/GPa)
#
#
# Indices 1 2 3 4 5 6 
#
# 1 -1.608869 0.196638 0.326758 -0.000002 -0.684710 -0.000003
# 2 0.196638 -0.012479 -0.043981 0.000000 0.085801 0.000000
# 3 0.326758 -0.043981 -0.053285 0.000000 0.147998 0.000000
# 4 -0.000002 0.000000 0.000000 0.014082 -0.000001 0.015809
# 5 -0.684710 0.085801 0.147998 -0.000001 -0.244157 -0.000001
# 6 -0.000003 0.000000 0.000000 0.015809 -0.000001 0.019755
#
#
# Mechanical properties :
#
#
# Convention : Reuss Voigt Hill
#
# Bulk Modulus (GPa) = -1.39703 47.23810 22.92053
# Shear Modulus (GPa) = -1.62212 252.78235 125.58011
#
# Velocity S-wave (km/s) = -0.90342 11.27777 7.94896
# Velocity P-wave (km/s) = 1.33834 13.90512 9.78675
#
# Compressibility (1/GPa) = -0.71580418
#
# Stress axis : x y z
#
# Youngs Moduli (GPa) = -0.62155 -80.13686 -18.76717
#
# Poissons Ratio (x) = 15.75791 6.13232
# Poissons Ratio (y) = 0.12222 -0.82541
# Poissons Ratio (z) = 0.20310 -3.52453
#
# Static dielectric constant tensor:
#      x y z
#    x 2.951980 0.000000 -0.285990 
#    y 0.000000 3.764710 0.000000 
#    z -0.285990 0.000000 3.710670 
# 
# 
# High freq. dielectric constant tensor:
#      x y z
#    x 1.736980 0.000000 -0.014150 
#    y 0.000000 1.784810 0.000000 
#    z -0.014150 0.000000 1.776920 
# 
# From -- ./inp_files/363008.got.cif
#   From: 2010.06.25/outbox.ucp.g09.slc.cvg/sg12_182_cif.got.tgz:363008.got - 2010.06.28 13:50:54.
