data_PCOD8116976
_publ_section_title
;
Structure prediction by ZEFSAII (Michael W. Deem and Ramdas Pophale) SiO2 
 PCOD8116976
Probable space group: P 2/C
;
_chemical_formula_sum "Si O2"
_cell_formula_units_Z 32
_cell_length_a 14.216995
_cell_length_b 14.806234
_cell_length_c 20.215716
_cell_angle_alpha 90.000000
_cell_angle_beta 21.362808
_cell_angle_gamma 90.000000
_cell_volume 1550.128640
_symmetry_space_group_name_H-M "P 2/C"
_symmetry_group_IT_number 13
_symmetry_cell_setting 'monoclinic'
loop_
_space_group_symop_operation_xyz
x,y,z
-x,y,1/2-z
-x,-y,-z
x,-y,1/2+z
loop_
_atom_site_type_symbol
_atom_site_label
_atom_site_fract_x
_atom_site_fract_y
_atom_site_fract_z
Si Si1 0.566507 0.091577 0.419926
Si Si2 0.632387 0.688018 0.765939
Si Si3 0.143516 0.742904 0.745797
Si Si4 0.926807 0.798540 0.227379
Si Si5 0.570941 0.120795 0.132244
Si Si6 0.298214 0.476015 0.438039
Si Si7 0.082898 0.351002 0.876428
Si Si8 0.323201 0.653605 0.493169
O O1 0.823431 0.146423 0.276238
O O2 0.355423 0.163029 0.580731
O O3 0.571269 0.072792 0.337235
O O4 0.500000 0.000000 0.500000
O O5 0.684304 0.703356 0.808462
O O6 0.506192 0.774551 0.814273
O O7 0.431322 0.607418 0.888362
O O8 0.908029 0.671473 0.553210
O O9 0.252716 0.686632 0.612322
O O10 0.834308 0.722370 0.952844
O O11 0.936286 0.725196 0.165359
O O12 0.000000 0.753946 0.250000
O O13 0.120559 0.881760 0.082146
O O14 0.500000 0.075193 0.250000
O O15 0.500000 0.511504 0.250000
O O16 0.225459 0.552962 0.538608
O O17 0.024994 0.444735 0.584124
O O18 0.370393 0.352554 0.717304
#
# Coordination Sequence:
#
# PCOD8116976 Si02
#       8
#     4   4   4   4   4   4   4   4
#     4  10  22  42  67  92 123 163 207 259 320 400
#     4  10  20  37  66  88 122 160 204 274 307 354
#     4  10  24  44  57  86 125 165 204 252 330 375
#     4  10  19  36  62  96 122 156 200 254 320 372
#     4  10  17  36  65  98 124 151 200 263 329 364
#     4  10  23  38  60  92 121 163 222 263 304 353
#     4  11  21  38  63  89 122 165 212 257 302 373
#     4  11  25  41  56  83 130 176 203 256 304 383
#
# _framework density 20.643446999999998
#
# number of rings (size 3 to 8) (size 9 to 14) (size 15 to 20)
#    0.000    1.750    3.750    0.375    3.500    1.500 
#   11.250    0.625    0.000    0.750    0.000    0.000 
#    0.000    0.000    0.000    0.000    0.000    0.000 
#
# Total GULP energy -396459.029126 kJ/mol
# GULP energy per Si atom -12389.344660 kJ/mol
# Density = 2.059646 g / cm^3
# Si number density = 20.643447 Si / 1000 Ang^3
#
#
#
# Elastic Constant Matrix: (Units=GPa)
#
#
# Indices 1 2 3 4 5 6 
#
# 1 110.2740 55.5689 34.1843 0.0000 5.3185 0.0000
# 2 55.5689 106.9178 25.8520 0.0000 0.5891 0.0000
# 3 34.1843 25.8520 84.4522 0.0000 -22.2238 0.0000
# 4 0.0000 0.0000 0.0000 11.7832 0.0000 6.8652
# 5 5.3185 0.5891 -22.2238 0.0000 42.5749 0.0000
# 6 0.0000 0.0000 0.0000 6.8652 0.0000 24.3853
#
#
#
# Elastic Compliance Matrix: (Units=1/GPa)
#
#
# Indices 1 2 3 4 5 6 
#
# 1 0.013779 -0.005966 -0.004848 0.000000 -0.004169 0.000000
# 2 -0.005966 0.012838 -0.001583 0.000000 -0.000259 0.000000
# 3 -0.004848 -0.001583 0.016755 0.000000 0.009373 0.000000
# 4 0.000000 0.000000 0.000000 0.101518 0.000000 -0.028580
# 5 -0.004169 -0.000259 0.009373 0.000000 0.028905 0.000000
# 6 0.000000 0.000000 0.000000 -0.028580 0.000000 0.049054
#
#
# Mechanical properties :
#
#
# Convention : Reuss Voigt Hill
#
# Bulk Modulus (GPa) = 53.83069 59.20605 56.51837
# Shear Modulus (GPa) = 19.69777 28.15127 23.92452
#
# Velocity S-wave (km/s) = 3.09235 3.69682 3.40801
# Velocity P-wave (km/s) = 6.23564 6.85307 6.55163
#
# Compressibility (1/GPa) = 0.01857676
#
# Stress axis : x y z
#
# Youngs Moduli (GPa) = 72.57572 77.89425 59.68474
#
# Poissons Ratio (x) = 0.46472 0.28937
# Poissons Ratio (y) = 0.43299 0.09448
# Poissons Ratio (z) = 0.35186 0.12331
#
# Static dielectric constant tensor:
#      x y z
#    x 3.879220 0.000000 -0.224760 
#    y 0.000000 3.552710 0.000000 
#    z -0.224760 0.000000 4.119290 
# 
# 
# High freq. dielectric constant tensor:
#      x y z
#    x 1.821370 0.000000 -0.004080 
#    y 0.000000 1.772280 0.000000 
#    z -0.004080 0.000000 1.810490 
# 
# From -- ./inp_files/80338.got.cif
#   From: 2010.06.25/outbox.cif.g09.slc.cpg/sg13_41_cif.got.tgz:80338.got - 2010.06.28 04:50:58.
