data_PCOD8116300
_publ_section_title
;
Structure prediction by ZEFSAII (Michael W. Deem and Ramdas Pophale) SiO2 
 PCOD8116300
Probable space group: C 2/M
;
_chemical_formula_sum "Si O2"
_cell_formula_units_Z 32
_cell_length_a 15.000000
_cell_length_b 24.000000
_cell_length_c 18.000000
_cell_angle_alpha 90.000000
_cell_angle_beta 30.000000
_cell_angle_gamma 90.000000
_cell_volume 3240.000000
_symmetry_space_group_name_H-M "C 2/M"
_symmetry_group_IT_number 12
_symmetry_cell_setting 'monoclinic'
loop_
_space_group_symop_operation_xyz
x,y,z
-x,y,-z
-x,-y,-z
x,-y,z
1/2+x,1/2+y,z
1/2-x,1/2+y,-z
1/2-x,1/2-y,-z
1/2+x,1/2-y,z
loop_
_atom_site_type_symbol
_atom_site_label
_atom_site_fract_x
_atom_site_fract_y
_atom_site_fract_z
Si Si1 0.886567 0.763311 0.246383
Si Si2 0.856591 0.119764 0.207784
Si Si3 0.509801 0.325218 0.295898
Si Si4 0.900868 0.564500 0.326239
Si Si5 0.368141 0.436733 0.346589
Si Si6 0.330390 0.748755 0.067317
Si Si7 0.671027 0.655348 0.423097
Si Si8 0.747030 0.125649 0.128030
O O1 0.803002 0.815651 0.261636
O O2 0.767104 0.708764 0.317599
O O3 0.908737 0.782365 0.314881
O O4 0.085982 0.748106 0.075210
O O5 0.793977 0.078064 0.318114
O O6 0.761901 0.100567 0.200470
O O7 0.070667 0.115435 0.047898
O O8 0.516294 0.389392 0.260643
O O9 0.709261 0.303278 0.169097
O O10 0.388790 0.322910 0.454642
O O11 0.919461 0.500000 0.286390
O O12 0.798493 0.567518 0.478064
O O13 0.796397 0.600622 0.339288
O O14 0.092869 0.593055 0.196472
O O15 0.448075 0.500000 0.291059
O O16 0.212366 0.692266 0.159090
O O17 0.500000 0.747030 0.000000
O O18 0.500000 0.636210 0.500000
#
# Coordination Sequence:
#
# PCOD8116300 Si02
#       8
#     8   8   8   8   8   8   8   8
#     4  10  19  36  54  85 116 149 181 221 281 339
#     4   9  19  35  56  86 117 150 178 219 279 336
#     4  10  21  35  56  82 109 150 189 230 280 329
#     4  10  23  41  58  78 107 149 193 238 278 323
#     4   9  20  39  56  76 109 148 194 231 275 325
#     4  11  19  34  56  83 119 150 181 222 278 341
#     4  11  23  38  56  83 112 143 189 237 283 331
#     4  10  19  36  57  84 119 147 182 220 276 340
#
# _framework density 9.8765429999999999
#
# number of rings (size 3 to 8) (size 9 to 14) (size 15 to 20)
#    0.000    2.000    2.500    2.250    0.000    5.750 
#    0.000    2.500    0.000    0.375    0.000    0.000 
#    0.000    0.000    0.000    0.000    0.000    0.000 
#
# Total GULP energy -396668.416390 kJ/mol
# GULP energy per Si atom -12395.888012 kJ/mol
# Density = 0.985406 g / cm^3
# Si number density = 9.876543 Si / 1000 Ang^3
#
#
#
# Elastic Constant Matrix: (Units=GPa)
#
#
# Indices 1 2 3 4 5 6 
#
# 1 85.0434 44.8161 26.9097 -0.0037 -18.5680 -0.0206
# 2 44.8161 157.6917 42.4327 -0.0091 -22.7928 0.2579
# 3 26.9097 42.4327 43.0011 0.1964 -9.8266 0.4874
# 4 -0.0037 -0.0091 0.1964 41.0959 0.0487 12.9442
# 5 -18.5680 -22.7928 -9.8266 0.0487 33.6128 0.1033
# 6 -0.0206 0.2579 0.4874 12.9442 0.1033 52.7348
#
#
#
# Elastic Compliance Matrix: (Units=1/GPa)
#
#
# Indices 1 2 3 4 5 6 
#
# 1 0.016198 -0.001919 -0.006961 0.000006 0.005611 0.000067
# 2 -0.001919 0.009289 -0.007253 0.000031 0.003118 0.000007
# 3 -0.006961 -0.007253 0.035116 -0.000086 0.001503 -0.000274
# 4 0.000006 0.000031 -0.000086 0.026372 -0.000019 -0.006473
# 5 0.005611 0.003118 0.001503 -0.000019 0.035404 -0.000092
# 6 0.000067 0.000007 -0.000274 -0.006473 -0.000092 0.020554
#
#
# Mechanical properties :
#
#
# Convention : Reuss Voigt Hill
#
# Bulk Modulus (GPa) = 35.29098 57.11705 46.20401
# Shear Modulus (GPa) = 27.07875 36.92721 32.00298
#
# Velocity S-wave (km/s) = 3.70653 4.32839 4.02948
# Velocity P-wave (km/s) = 6.01853 7.34563 6.71494
#
# Compressibility (1/GPa) = 0.02833585
#
# Stress axis : x y z
#
# Youngs Moduli (GPa) = 61.73620 107.64929 28.47734
#
# Poissons Ratio (x) = 0.20663 0.19823
# Poissons Ratio (y) = 0.11850 0.20655
# Poissons Ratio (z) = 0.42975 0.78079
#
# Static dielectric constant tensor:
#      x y z
#    x 3.564020 -0.000130 0.186900 
#    y -0.000130 3.785020 0.000390 
#    z 0.186900 0.000390 3.531790 
# 
# 
# High freq. dielectric constant tensor:
#      x y z
#    x 1.762970 -0.000020 0.012090 
#    y -0.000020 1.771560 0.000030 
#    z 0.012090 0.000030 1.759280 
# 
# From -- ./inp_files/272800.got.cif
#   From: 2010.06.25/outbox.ucp.g09.slc.cvg/sg12_137_cif.got.tgz:272800.got - 2010.06.28 13:50:54.
