data_PCOD8116739
_publ_section_title
;
Structure prediction by ZEFSAII (Michael W. Deem and Ramdas Pophale) SiO2 
 PCOD8116739
Probable space group: P 2/C
;
_chemical_formula_sum "Si O2"
_cell_formula_units_Z 28
_cell_length_a 13.672242
_cell_length_b 22.706787
_cell_length_c 5.182284
_cell_angle_alpha 90.000000
_cell_angle_beta 105.404522
_cell_angle_gamma 90.000000
_cell_volume 1551.055016
_symmetry_space_group_name_H-M "P 2/C"
_symmetry_group_IT_number 13
_symmetry_cell_setting 'monoclinic'
loop_
_space_group_symop_operation_xyz
x,y,z
-x,y,1/2-z
-x,-y,-z
x,-y,1/2+z
loop_
_atom_site_type_symbol
_atom_site_label
_atom_site_fract_x
_atom_site_fract_y
_atom_site_fract_z
Si Si1 0.065926 0.342519 0.050497
Si Si2 0.268741 0.870251 0.603984
Si Si3 0.387617 0.130434 0.688772
Si Si4 0.385973 0.270017 0.681050
Si Si5 0.880816 0.965679 0.149658
Si Si6 0.263187 0.269014 0.101060
Si Si7 0.886752 0.474409 0.396386
O O1 0.151398 0.295563 0.038932
O O2 0.115734 0.404931 0.157411
O O3 0.000000 0.320097 0.250000
O O4 0.000000 0.351446 0.750000
O O5 0.346391 0.889346 0.435669
O O6 0.163950 0.902699 0.464615
O O7 0.247824 0.800960 0.590014
O O8 0.315846 0.892488 0.907209
O O9 0.500000 0.103061 0.750000
O O10 0.393728 0.200275 0.675725
O O11 0.500000 0.296713 0.750000
O O12 0.326334 0.292491 0.388897
O O13 0.324263 0.290506 0.890910
O O14 0.000000 0.956582 0.250000
O O15 0.845189 0.987386 0.406725
O O16 0.829532 0.492825 0.619680
O O17 0.000000 0.500000 0.500000
#
# Coordination Sequence:
#
# PCOD8116739 Si02
#       7
#     4   4   4   4   4   4   4
#     4  12  21  32  48  71 111 145 163 205 244 293
#     4  10  19  34  53  73 103 128 158 210 252 299
#     4   9  17  30  53  78  98 129 162 191 247 314
#     4   9  17  33  52  71 100 133 170 215 247 293
#     4  10  21  37  56  74  90 125 177 217 240 277
#     4  10  21  32  48  80 105 132 169 198 260 320
#     4  10  16  30  48  67  89 137 178 205 228 275
#
# _framework density 18.052227999999999
#
# number of rings (size 3 to 8) (size 9 to 14) (size 15 to 20)
#    0.000    2.000    2.857    2.571    0.000    4.000 
#    0.000    2.143    0.000    8.571    0.000    0.000 
#    0.000   11.429    0.000    0.000    0.000    0.000 
#
# Total GULP energy -347090.540208 kJ/mol
# GULP energy per Si atom -12396.090722 kJ/mol
# Density = 1.801114 g / cm^3
# Si number density = 18.052228 Si / 1000 Ang^3
#
#
#
# Elastic Constant Matrix: (Units=GPa)
#
#
# Indices 1 2 3 4 5 6 
#
# 1 85.7579 37.2669 45.7894 0.0000 -10.7892 0.0000
# 2 37.2669 50.9478 26.2394 0.0000 2.6340 0.0000
# 3 45.7894 26.2394 133.0369 0.0000 -19.8226 0.0000
# 4 0.0000 0.0000 0.0000 15.3737 0.0000 -4.1060
# 5 -10.7892 2.6340 -19.8226 0.0000 30.7787 0.0000
# 6 0.0000 0.0000 0.0000 -4.1060 0.0000 4.7716
#
#
#
# Elastic Compliance Matrix: (Units=1/GPa)
#
#
# Indices 1 2 3 4 5 6 
#
# 1 0.019921 -0.013136 -0.003382 0.000000 0.005929 0.000000
# 2 -0.013136 0.031270 -0.003021 0.000000 -0.009226 0.000000
# 3 -0.003382 -0.003021 0.010109 0.000000 0.005583 0.000000
# 4 0.000000 0.000000 0.000000 0.084456 0.000000 0.072674
# 5 0.005929 -0.009226 0.005583 0.000000 0.038954 0.000000
# 6 0.000000 0.000000 0.000000 0.072674 0.000000 0.272109
#
#
# Mechanical properties :
#
#
# Convention : Reuss Voigt Hill
#
# Bulk Modulus (GPa) = 45.00349 54.25936 49.63142
# Shear Modulus (GPa) = 9.93436 20.88126 15.40781
#
# Velocity S-wave (km/s) = 2.34842 3.40474 2.92466
# Velocity P-wave (km/s) = 5.68658 6.75118 6.24162
#
# Compressibility (1/GPa) = 0.02222050
#
# Stress axis : x y z
#
# Youngs Moduli (GPa) = 50.19811 31.97995 98.92646
#
# Poissons Ratio (x) = 0.42010 0.33459
# Poissons Ratio (y) = 0.65942 0.29884
# Poissons Ratio (z) = 0.16978 0.09661
#
# Static dielectric constant tensor:
#      x y z
#    x 3.180500 0.000000 0.115950 
#    y 0.000000 3.032560 0.000000 
#    z 0.115950 0.000000 2.644580 
# 
# 
# High freq. dielectric constant tensor:
#      x y z
#    x 1.680550 0.000000 -0.017780 
#    y 0.000000 1.660850 0.000000 
#    z -0.017780 0.000000 1.725120 
# 
# From -- ./inp_files/4150.got.cif
#   From: 2010.06.25/outbox.cif.g09.slc.cpg/sg13_3_cif.got.tgz:4150.got - 2010.06.28 04:50:58.
