data_PCOD8116231
_publ_section_title
;
Structure prediction by ZEFSAII (Michael W. Deem and Ramdas Pophale) SiO2 
 PCOD8116231
Probable space group: C 2/M
;
_chemical_formula_sum "Si O2"
_cell_formula_units_Z 32
_cell_length_a 24.000000
_cell_length_b 9.000000
_cell_length_c 30.000000
_cell_angle_alpha 90.000000
_cell_angle_beta 30.000000
_cell_angle_gamma 90.000000
_cell_volume 3240.000000
_symmetry_space_group_name_H-M "C 2/M"
_symmetry_group_IT_number 12
_symmetry_cell_setting 'monoclinic'
loop_
_space_group_symop_operation_xyz
x,y,z
-x,y,-z
-x,-y,-z
x,-y,z
1/2+x,1/2+y,z
1/2-x,1/2+y,-z
1/2-x,1/2-y,-z
1/2+x,1/2-y,z
loop_
_atom_site_type_symbol
_atom_site_label
_atom_site_fract_x
_atom_site_fract_y
_atom_site_fract_z
Si Si1 0.949167 0.675406 0.707522
Si Si2 0.813625 0.333814 0.196004
Si Si3 0.508545 0.667887 0.409749
Si Si4 0.475316 0.667384 0.964741
Si Si5 0.664116 0.675712 0.592867
Si Si6 0.235387 0.166746 0.398697
Si Si7 0.150379 0.323678 0.371464
Si Si8 0.764895 0.333613 0.126288
O O1 0.974225 0.500000 0.694369
O O2 0.939191 0.723859 0.663186
O O3 0.836852 0.720310 0.810572
O O4 0.041293 0.779377 0.665090
O O5 0.812134 0.500000 0.217963
O O6 0.717332 0.228260 0.281378
O O7 0.799746 0.344672 0.153157
O O8 0.928555 0.252799 0.128562
O O9 0.561190 0.500000 0.370876
O O10 0.376932 0.655801 0.494340
O O11 0.530183 0.747525 0.443161
O O12 0.464605 0.500000 0.953675
O O13 0.364913 0.759907 0.029553
O O14 0.500000 0.663238 0.000000
O O15 0.681405 0.500000 0.579933
O O16 0.750000 0.750000 0.500000
O O17 0.677965 0.737898 0.633166
O O18 0.214686 0.254451 0.367986
O O19 0.280068 0.000000 0.358114
O O20 0.138676 0.500000 0.384459
O O21 0.738433 0.500000 0.126632
#
# Coordination Sequence:
#
# PCOD8116231 Si02
#       8
#     8   8   8   8   8   8   8   8
#     4  12  23  35  56  82 110 144 184 227 275 324
#     4  10  19  32  51  74 107 146 183 219 268 325
#     4  11  22  37  56  78 108 145 184 226 274 326
#     4   9  17  29  47  73 107 141 178 219 266 321
#     4  12  24  40  60  81 107 140 183 230 278 326
#     4  11  24  41  59  78 106 143 187 231 276 325
#     4  12  24  36  54  80 112 146 186 228 272 326
#     4  10  19  32  51  76 109 144 182 221 269 324
#
# _framework density 9.8765429999999999
#
# number of rings (size 3 to 8) (size 9 to 14) (size 15 to 20)
#    0.000    1.125    2.500    5.625    0.000    5.500 
#    0.000    0.000    0.000    0.000    0.000    0.875 
#    0.000    0.000    0.000    0.000    0.000    0.000 
#
# Total GULP energy -396671.488148 kJ/mol
# GULP energy per Si atom -12395.984005 kJ/mol
# Density = 0.985406 g / cm^3
# Si number density = 9.876543 Si / 1000 Ang^3
#
#
#
# Elastic Constant Matrix: (Units=GPa)
#
#
# Indices 1 2 3 4 5 6 
#
# 1 76.5891 30.5174 10.6932 0.0021 -5.6538 -0.0121
# 2 30.5174 171.2511 16.7987 -0.0022 -5.7100 -0.0055
# 3 10.6932 16.7987 25.4154 0.0012 -18.0672 -0.0027
# 4 0.0021 -0.0022 0.0012 31.0523 -0.0011 -3.5803
# 5 -5.6538 -5.7100 -18.0672 -0.0011 9.8998 0.0071
# 6 -0.0121 -0.0055 -0.0027 -3.5803 0.0071 31.3445
#
#
#
# Elastic Compliance Matrix: (Units=1/GPa)
#
#
# Indices 1 2 3 4 5 6 
#
# 1 0.014494 -0.002306 -0.001227 0.000000 0.004709 0.000004
# 2 -0.002306 0.006136 0.005064 0.000001 0.011464 -0.000002
# 3 -0.001227 0.005064 -0.128106 0.000002 -0.231575 0.000042
# 4 0.000000 0.000001 0.000002 0.032634 0.000004 0.003727
# 5 0.004709 0.011464 -0.231575 0.000004 -0.312314 0.000055
# 6 0.000004 -0.000002 0.000042 0.003727 0.000055 0.032329
#
#
# Mechanical properties :
#
#
# Convention : Reuss Voigt Hill
#
# Bulk Modulus (GPa) = -9.57735 43.25267 16.83766
# Shear Modulus (GPa) = -12.73255 28.80908 8.03826
#
# Velocity S-wave (km/s) = -2.54162 3.82312 2.01946
# Velocity P-wave (km/s) = 3.67045 6.43681 3.73901
#
# Compressibility (1/GPa) = -0.10441302
#
# Stress axis : x y z
#
# Youngs Moduli (GPa) = 68.99286 162.97938 -7.80605
#
# Poissons Ratio (x) = 0.37576 -0.00958
# Poissons Ratio (y) = 0.15907 0.03953
# Poissons Ratio (z) = 0.08464 -0.82527
#
# Static dielectric constant tensor:
#      x y z
#    x 3.345290 -0.000050 -0.311310 
#    y -0.000050 3.865920 0.000090 
#    z -0.311310 0.000090 3.946980 
# 
# 
# High freq. dielectric constant tensor:
#      x y z
#    x 1.727790 0.000000 -0.020630 
#    y 0.000000 1.793490 0.000000 
#    z -0.020630 0.000000 1.750640 
# 
# From -- ./inp_files/382354.got.cif
#   From: 2010.06.25/outbox.ucp.g09.slc.cvg/sg12_192_cif.got.tgz:382354.got - 2010.06.28 13:50:54.
