data_PCOD8116257
_publ_section_title
;
Structure prediction by ZEFSAII (Michael W. Deem and Ramdas Pophale) SiO2 
 PCOD8116257
Probable space group: C 2/M
;
_chemical_formula_sum "Si O2"
_cell_formula_units_Z 32
_cell_length_a 9.000000
_cell_length_b 18.000000
_cell_length_c 30.000000
_cell_angle_alpha 90.000000
_cell_angle_beta 40.000000
_cell_angle_gamma 90.000000
_cell_volume 3123.947783
_symmetry_space_group_name_H-M "C 2/M"
_symmetry_group_IT_number 12
_symmetry_cell_setting 'monoclinic'
loop_
_space_group_symop_operation_xyz
x,y,z
-x,y,-z
-x,-y,-z
x,-y,z
1/2+x,1/2+y,z
1/2-x,1/2+y,-z
1/2-x,1/2-y,-z
1/2+x,1/2-y,z
loop_
_atom_site_type_symbol
_atom_site_label
_atom_site_fract_x
_atom_site_fract_y
_atom_site_fract_z
Si Si1 0.526029 0.087898 0.368392
Si Si2 0.913790 0.664106 0.770823
Si Si3 0.453616 0.416921 0.870547
Si Si4 0.754266 0.227984 0.950298
Si Si5 0.958814 0.084781 0.765459
Si Si6 0.359722 0.207873 0.196502
Si Si7 0.681796 0.088624 0.493995
Si Si8 0.198799 0.087578 0.363329
O O1 0.783984 0.118678 0.301365
O O2 0.413634 0.121961 0.438338
O O3 0.349301 0.111605 0.371037
O O4 0.542908 0.000000 0.367392
O O5 0.724374 0.599055 0.817933
O O6 0.826942 0.725202 0.754752
O O7 0.953288 0.708589 0.807104
O O8 0.167730 0.628649 0.706593
O O9 0.400957 0.500000 0.899716
O O10 0.286516 0.360042 0.934086
O O11 0.400524 0.409764 0.830583
O O12 0.972964 0.273560 0.882428
O O13 0.500000 0.256721 0.000000
O O14 0.750000 0.250000 0.000000
O O15 0.771991 0.130323 0.780124
O O16 0.946078 0.000000 0.751172
O O17 0.500000 0.118068 0.500000
O O18 0.938979 0.119420 0.425820
O O19 0.692691 0.000000 0.492803
O O20 0.195325 0.000000 0.356387
#
# Coordination Sequence:
#
# PCOD8116257 Si02
#       8
#     8   8   8   8   8   8   8   8
#     4   9  17  31  53  82 116 153 192 241 296 349
#     4  11  22  37  59  85 117 158 200 247 300 347
#     4  10  20  38  62  91 122 151 194 247 293 345
#     4  11  22  40  63  86 118 158 198 232 285 356
#     4  10  20  36  61  91 120 150 193 253 306 346
#     4  11  24  40  59  87 117 154 198 245 291 359
#     4   9  18  30  48  81 122 156 195 244 293 351
#     4  10  19  33  56  85 115 154 202 245 296 351
#
# _framework density 10.243449
#
# number of rings (size 3 to 8) (size 9 to 14) (size 15 to 20)
#    0.000    1.875    1.250    4.500    1.750    2.750 
#    0.000    0.625    0.000    2.250    0.000    0.000 
#    0.000    0.000    0.000    0.000    0.000    0.000 
#
# Total GULP energy -396425.439698 kJ/mol
# GULP energy per Si atom -12388.294991 kJ/mol
# Density = 1.022013 g / cm^3
# Si number density = 10.243449 Si / 1000 Ang^3
#
#
#
# Elastic Constant Matrix: (Units=GPa)
#
#
# Indices 1 2 3 4 5 6 
#
# 1 74.8830 25.9635 12.1876 0.0030 -19.4472 -0.0014
# 2 25.9635 10.4194 9.0076 -0.0042 -15.1010 -0.0188
# 3 12.1876 9.0076 74.7602 -0.0092 -20.2716 -0.0253
# 4 0.0030 -0.0042 -0.0092 -0.6097 0.0118 -13.4983
# 5 -19.4472 -15.1010 -20.2716 0.0118 33.1715 0.0009
# 6 -0.0014 -0.0188 -0.0253 -13.4983 0.0009 20.4681
#
#
#
# Elastic Compliance Matrix: (Units=1/GPa)
#
#
# Indices 1 2 3 4 5 6 
#
# 1 -0.052256 0.252302 0.001147 -0.000343 0.084924 0.000000
# 2 0.252302 -0.935997 -0.004540 0.001330 -0.280964 0.000042
# 3 0.001147 -0.004540 0.016011 -0.000024 0.008390 -0.000001
# 4 -0.000343 0.001330 -0.000024 -0.105137 0.000429 -0.069335
# 5 0.084924 -0.280964 0.008390 0.000429 -0.042845 0.000043
# 6 0.000000 0.000042 -0.000001 -0.069335 0.000043 0.003132
#
#
# Mechanical properties :
#
#
# Convention : Reuss Voigt Hill
#
# Bulk Modulus (GPa) = -2.10782 28.26443 13.07831
# Shear Modulus (GPa) = -2.82000 18.13289 7.65645
#
# Velocity S-wave (km/s) = -1.17451 2.97829 1.93529
# Velocity P-wave (km/s) = 1.69422 5.06490 3.37512
#
# Compressibility (1/GPa) = -0.47442452
#
# Stress axis : x y z
#
# Youngs Moduli (GPa) = -19.13651 -1.06838 62.45627
#
# Poissons Ratio (x) = 0.26955 -0.07166
# Poissons Ratio (y) = 4.82818 0.28358
# Poissons Ratio (z) = 0.02196 -0.00485
#
# Static dielectric constant tensor:
#      x y z
#    x 3.648280 0.000020 -0.025400 
#    y 0.000020 3.409240 0.000000 
#    z -0.025400 0.000000 3.871530 
# 
# 
# High freq. dielectric constant tensor:
#      x y z
#    x 1.803690 0.000000 -0.017810 
#    y 0.000000 1.766280 0.000000 
#    z -0.017810 0.000000 1.792470 
# 
# From -- ./inp_files/372913.got.cif
#   From: 2010.06.25/outbox.ucp.g09.slc.cvg/sg12_187_cif.got.tgz:372913.got - 2010.06.28 13:50:54.
