data_PCOD8116743
_publ_section_title
;
Structure prediction by ZEFSAII (Michael W. Deem and Ramdas Pophale) SiO2 
 PCOD8116743
Probable space group: P 2/C
;
_chemical_formula_sum "Si O2"
_cell_formula_units_Z 18
_cell_length_a 22.090947
_cell_length_b 6.906361
_cell_length_c 5.306743
_cell_angle_alpha 90.000000
_cell_angle_beta 110.723230
_cell_angle_gamma 90.000000
_cell_volume 757.256303
_symmetry_space_group_name_H-M "P 2/C"
_symmetry_group_IT_number 13
_symmetry_cell_setting 'monoclinic'
loop_
_space_group_symop_operation_xyz
x,y,z
-x,y,1/2-z
-x,-y,-z
x,-y,1/2+z
loop_
_atom_site_type_symbol
_atom_site_label
_atom_site_fract_x
_atom_site_fract_y
_atom_site_fract_z
Si Si1 0.306736 0.286894 0.990560
Si Si2 0.638568 0.280786 0.928567
Si Si3 0.827085 0.876256 0.264618
Si Si4 0.500000 0.870513 0.250000
Si Si5 0.027451 0.782175 0.040476
O O1 0.339229 0.177009 0.799210
O O2 0.229070 0.284326 0.849288
O O3 0.328028 0.177816 0.280220
O O4 0.335040 0.501593 0.059189
O O5 0.561396 0.272265 0.841013
O O6 0.895333 0.769302 0.342277
O O7 0.820795 0.967905 0.532361
O O8 0.500000 0.000000 0.500000
O O9 0.000000 0.676079 0.250000
O O10 0.000000 0.676138 0.750000
O O11 0.000000 0.000000 0.000000
#
# Coordination Sequence:
#
# PCOD8116743 Si02
#       5
#     4   4   4   2   4
#     4  10  23  39  62  86 123 174 200 242 298 365
#     4  10  23  45  62  88 124 160 203 241 295 389
#     4  12  21  32  55  90 124 160 209 258 300 348
#     4  12  26  42  72 100 118 150 192 258 320 358
#     4  10  16  30  48  75 122 156 196 255 306 348
#
# _framework density 23.770025
#
# number of rings (size 3 to 8) (size 9 to 14) (size 15 to 20)
#    0.000    1.333    4.444    2.667    0.000    8.889 
#    0.000    0.000    0.000    0.000    0.000   18.667 
#    0.000    0.000    0.000    0.000    0.000    0.000 
#
# Total GULP energy -223071.850512 kJ/mol
# GULP energy per Si atom -12392.880584 kJ/mol
# Density = 2.371592 g / cm^3
# Si number density = 23.770025 Si / 1000 Ang^3
#
#
#
# Elastic Constant Matrix: (Units=GPa)
#
#
# Indices 1 2 3 4 5 6 
#
# 1 163.9010 14.5055 66.4624 0.0000 22.4336 0.0000
# 2 14.5055 55.1817 -2.5137 0.0000 17.3166 0.0000
# 3 66.4624 -2.5137 197.1431 0.0000 -23.0831 0.0000
# 4 0.0000 0.0000 0.0000 -6.0225 0.0000 14.3007
# 5 22.4336 17.3166 -23.0831 0.0000 83.5454 0.0000
# 6 0.0000 0.0000 0.0000 14.3007 0.0000 1.9023
#
#
#
# Elastic Compliance Matrix: (Units=1/GPa)
#
#
# Indices 1 2 3 4 5 6 
#
# 1 0.007774 -0.001355 -0.002945 0.000000 -0.002620 0.000000
# 2 -0.001355 0.019629 0.000283 0.000000 -0.003627 0.000000
# 3 -0.002945 0.000283 0.006360 0.000000 0.002490 0.000000
# 4 0.000000 0.000000 0.000000 -0.008808 0.000000 0.066217
# 5 -0.002620 -0.003627 0.002490 0.000000 0.014113 0.000000
# 6 0.000000 0.000000 0.000000 0.066217 0.000000 0.027886
#
#
# Mechanical properties :
#
#
# Convention : Reuss Voigt Hill
#
# Bulk Modulus (GPa) = 38.86804 63.68157 51.27480
# Shear Modulus (GPa) = 59.83309 38.40314 49.11811
#
# Velocity S-wave (km/s) = 5.02258 4.02383 4.55069
# Velocity P-wave (km/s) = 7.07264 6.95968 7.01639
#
# Compressibility (1/GPa) = 0.02572808
#
# Stress axis : x y z
#
# Youngs Moduli (GPa) = 128.63378 50.94459 157.22372
#
# Poissons Ratio (x) = 0.06905 0.46301
# Poissons Ratio (y) = 0.17436 -0.04444
# Poissons Ratio (z) = 0.37881 -0.01440
#
# Static dielectric constant tensor:
#      x y z
#    x 5.651290 0.000000 -2.217860 
#    y 0.000000 3.898320 0.000000 
#    z -2.217860 0.000000 8.467130 
# 
# 
# High freq. dielectric constant tensor:
#      x y z
#    x 1.959410 0.000000 -0.016900 
#    y 0.000000 1.900170 0.000000 
#    z -0.016900 0.000000 1.981850 
# 
# From -- ./inp_files/5822.got.cif
#   From: 2010.06.25/outbox.cif.g09.slc.cpg/sg13_3_cif.got.tgz:5822.got - 2010.06.28 04:50:58.
