data_PCOD8116030
_publ_section_title
;
Structure prediction by ZEFSAII (Michael W. Deem and Ramdas Pophale) SiO2 
 PCOD8116030
Probable space group: C 2/M
;
_chemical_formula_sum "Si O2"
_cell_formula_units_Z 64
_cell_length_a 22.218965
_cell_length_b 19.987225
_cell_length_c 19.989131
_cell_angle_alpha 90.000000
_cell_angle_beta 25.886911
_cell_angle_gamma 90.000000
_cell_volume 3875.701026
_symmetry_space_group_name_H-M "C 2/M"
_symmetry_group_IT_number 12
_symmetry_cell_setting 'monoclinic'
loop_
_space_group_symop_operation_xyz
x,y,z
-x,y,-z
-x,-y,-z
x,-y,z
1/2+x,1/2+y,z
1/2-x,1/2+y,-z
1/2-x,1/2-y,-z
1/2+x,1/2-y,z
loop_
_atom_site_type_symbol
_atom_site_label
_atom_site_fract_x
_atom_site_fract_y
_atom_site_fract_z
Si Si1 0.164064 0.320072 0.910224
Si Si2 0.664053 0.925700 0.656008
Si Si3 0.841849 0.421868 0.827900
Si Si4 0.835924 0.574300 0.984143
Si Si5 0.658116 0.669736 0.920008
Si Si6 0.164067 0.320072 0.761640
Si Si7 0.658113 0.921868 0.511629
Si Si8 0.341863 0.669735 0.236257
O O1 0.209037 0.245094 0.885275
O O2 0.219489 0.338036 0.780508
O O3 0.227240 0.372579 0.900175
O O4 0.999999 0.323693 0.073765
O O5 0.499989 0.926244 0.823713
O O6 0.727229 0.872580 0.645346
O O7 0.708995 0.905644 0.536097
O O8 0.719507 0.000000 0.618485
O O9 0.824448 0.500000 0.830185
O O10 0.790973 0.405645 0.954128
O O11 0.749975 0.381740 0.868293
O O12 0.999980 0.399948 0.660369
O O13 0.780469 0.500000 0.057533
O O14 0.675476 0.654582 0.824526
O O15 0.499987 0.660363 0.100074
O O16 0.209051 0.245094 0.696637
O O17 0.749982 0.881742 0.368273
O O18 0.675508 0.000000 0.479121
#
# Coordination Sequence:
#
# PCOD8116030 Si02
#       8
#     8   8   8   8   8   8   8   8
#     4   8  14  25  41  62  88 115 142 174 212 253
#     4   8  14  25  41  62  88 115 142 174 212 253
#     4   9  18  31  45  63  88 115 143 178 217 254
#     4   8  14  25  41  62  88 115 142 174 212 253
#     4   9  18  31  45  63  88 115 143 178 217 254
#     4   8  14  25  41  62  88 115 142 174 212 253
#     4   9  18  31  45  63  88 115 143 178 217 254
#     4   9  18  31  45  63  88 115 143 178 217 254
#
# _framework density 16.513141000000001
#
# number of rings (size 3 to 8) (size 9 to 14) (size 15 to 20)
#    0.000    3.500    0.000    3.000    0.000    3.000 
#    0.000    5.000    0.000    0.000    0.000    0.000 
#    0.000    0.000    0.000   11.000    0.000   11.000 
#
# Total GULP energy -396611.914908 kJ/mol
# GULP energy per Si atom -12394.122341 kJ/mol
# Density = 1.647556 g / cm^3
# Si number density = 16.513141 Si / 1000 Ang^3
#
#
#
# Elastic Constant Matrix: (Units=GPa)
#
#
# Indices 1 2 3 4 5 6 
#
# 1 89.6005 71.0864 39.0862 -0.0037 12.2909 0.0000
# 2 71.0864 102.4026 51.1491 -0.0027 16.4991 -0.0006
# 3 39.0862 51.1491 55.8335 0.0006 15.6547 -0.0049
# 4 -0.0037 -0.0027 0.0006 23.0414 -0.0001 9.2356
# 5 12.2909 16.4991 15.6547 -0.0001 15.0412 0.0026
# 6 0.0000 -0.0006 -0.0049 9.2356 0.0026 34.1912
#
#
#
# Elastic Compliance Matrix: (Units=1/GPa)
#
#
# Indices 1 2 3 4 5 6 
#
# 1 0.025107 -0.015950 -0.002990 0.000003 0.000092 -0.000001
# 2 -0.015950 0.028279 -0.013694 0.000002 -0.003734 -0.000002
# 3 -0.002990 -0.013694 0.039046 -0.000007 -0.023174 0.000009
# 4 0.000003 0.000002 -0.000007 0.048670 0.000005 -0.013146
# 5 0.000092 -0.003734 -0.023174 0.000005 0.094624 -0.000012
# 6 -0.000001 -0.000002 0.000009 -0.013146 -0.000012 0.032798
#
#
# Mechanical properties :
#
#
# Convention : Reuss Voigt Hill
#
# Bulk Modulus (GPa) = 36.81273 63.38668 50.09970
# Shear Modulus (GPa) = 14.58381 20.22243 17.40312
#
# Velocity S-wave (km/s) = 2.97503 3.50326 3.24990
# Velocity P-wave (km/s) = 5.84316 7.40491 6.66990
#
# Compressibility (1/GPa) = 0.02716452
#
# Stress axis : x y z
#
# Youngs Moduli (GPa) = 39.83014 35.36164 25.61096
#
# Poissons Ratio (x) = 0.56402 0.07657
# Poissons Ratio (y) = 0.63529 0.35071
# Poissons Ratio (z) = 0.11908 0.48423
#
# Static dielectric constant tensor:
#      x y z
#    x 3.119400 -0.000010 0.293520 
#    y -0.000010 3.284830 0.000010 
#    z 0.293520 0.000010 2.765040 
# 
# 
# High freq. dielectric constant tensor:
#      x y z
#    x 1.627150 0.000000 0.026750 
#    y 0.000000 1.642220 0.000000 
#    z 0.026750 0.000000 1.594860 
# 
# From -- ./inp_files/325834.got.cif
#   From: 2010.06.25/outbox.cif.g09.slc.cpg/sg12_163_cif.got.tgz:325834.got - 2010.06.28 00:19:55.
