data_PCOD8116552
_publ_section_title
;
Structure prediction by ZEFSAII (Michael W. Deem and Ramdas Pophale) SiO2 
 PCOD8116552
Probable space group: C 2/M
;
_chemical_formula_sum "Si O2"
_cell_formula_units_Z 28
_cell_length_a 21.000000
_cell_length_b 9.000000
_cell_length_c 15.000000
_cell_angle_alpha 90.000000
_cell_angle_beta 90.000000
_cell_angle_gamma 90.000000
_cell_volume 2835.000000
_symmetry_space_group_name_H-M "C 2/M"
_symmetry_group_IT_number 12
_symmetry_cell_setting 'monoclinic'
loop_
_space_group_symop_operation_xyz
x,y,z
-x,y,-z
-x,-y,-z
x,-y,z
1/2+x,1/2+y,z
1/2-x,1/2+y,-z
1/2-x,1/2-y,-z
1/2+x,1/2-y,z
loop_
_atom_site_type_symbol
_atom_site_label
_atom_site_fract_x
_atom_site_fract_y
_atom_site_fract_z
Si Si1 0.736599 0.833451 0.747038
Si Si2 0.806230 0.664519 0.452733
Si Si3 0.361593 0.831191 0.789357
Si Si4 0.053600 0.676622 0.564939
Si Si5 0.876147 0.822841 0.146285
Si Si6 0.817675 0.670830 0.990534
Si Si7 0.992727 0.676165 0.241213
O O1 0.706784 0.843553 0.650792
O O2 0.807560 0.764041 0.738776
O O3 0.687246 0.735872 0.803736
O O4 0.741740 0.000000 0.787912
O O5 0.807482 0.500000 0.494764
O O6 0.750000 0.750000 0.500000
O O7 0.876504 0.740135 0.462842
O O8 0.344808 0.821691 0.892159
O O9 0.433721 0.771416 0.772188
O O10 0.357583 0.000000 0.753645
O O11 0.057345 0.500000 0.558759
O O12 0.031912 0.725680 0.662349
O O13 0.000000 0.742710 0.500000
O O14 0.944428 0.760574 0.176249
O O15 0.876180 0.000000 0.151757
O O16 0.869379 0.763178 0.046261
O O17 0.811701 0.500000 0.022585
O O18 0.750000 0.750000 0.000000
O O19 0.987066 0.500000 0.224863
#
# Coordination Sequence:
#
# PCOD8116552 Si02
#       7
#     8   8   8   8   8   8   8
#     4  11  22  39  62  87 122 163 202 250 303 356
#     4  10  22  38  59  90 121 154 197 244 299 358
#     4  10  23  39  62  93 120 155 204 252 300 362
#     4   9  18  35  60  87 116 154 198 240 295 360
#     4  12  24  39  62  89 119 161 208 250 302 361
#     4  11  22  38  60  91 125 158 202 252 304 357
#     4  10  21  41  63  86 121 160 200 248 303 361
#
# _framework density 9.8765429999999999
#
# number of rings (size 3 to 8) (size 9 to 14) (size 15 to 20)
#    0.000    1.571    2.857    2.143    2.000    2.857 
#    0.000    2.857    0.000    0.857    0.000    0.000 
#    0.000    0.000    0.000    0.000    0.000    0.000 
#
# Total GULP energy -347081.994128 kJ/mol
# GULP energy per Si atom -12395.785505 kJ/mol
# Density = 0.985406 g / cm^3
# Si number density = 9.876543 Si / 1000 Ang^3
#
#
#
# Elastic Constant Matrix: (Units=GPa)
#
#
# Indices 1 2 3 4 5 6 
#
# 1 210.1335 53.3959 35.2571 0.0000 1.2748 0.0000
# 2 53.3959 97.9657 16.4520 0.0000 5.4813 0.0000
# 3 35.2571 16.4520 47.6703 0.0000 4.5104 0.0000
# 4 0.0000 0.0000 0.0000 21.2521 0.0000 0.3530
# 5 1.2748 5.4813 4.5104 0.0000 42.5738 0.0000
# 6 0.0000 0.0000 0.0000 0.3530 0.0000 39.8142
#
#
#
# Elastic Compliance Matrix: (Units=1/GPa)
#
#
# Indices 1 2 3 4 5 6 
#
# 1 0.006050 -0.002726 -0.003586 0.000000 0.000550 0.000000
# 2 -0.002726 0.012107 -0.002043 0.000000 -0.001261 0.000000
# 3 -0.003586 -0.002043 0.024545 0.000000 -0.002230 0.000000
# 4 0.000000 0.000000 0.000000 0.047061 0.000000 -0.000417
# 5 0.000550 -0.001261 -0.002230 0.000000 0.023871 0.000000
# 6 0.000000 0.000000 0.000000 -0.000417 0.000000 0.025120
#
#
# Mechanical properties :
#
#
# Convention : Reuss Voigt Hill
#
# Bulk Modulus (GPa) = 38.47179 62.88663 50.67921
# Shear Modulus (GPa) = 30.46397 37.43899 33.95148
#
# Velocity S-wave (km/s) = 3.93139 4.35828 4.15033
# Velocity P-wave (km/s) = 6.33454 7.56516 6.97704
#
# Compressibility (1/GPa) = 0.02599307
#
# Stress axis : x y z
#
# Youngs Moduli (GPa) = 165.29281 82.59620 40.74069
#
# Poissons Ratio (x) = 0.22516 0.14608
# Poissons Ratio (y) = 0.45060 0.08323
# Poissons Ratio (z) = 0.59269 0.16874
#
# Static dielectric constant tensor:
#      x y z
#    x 4.242060 0.000000 -0.008220 
#    y 0.000000 3.975410 0.000000 
#    z -0.008220 0.000000 3.829150 
# 
# 
# High freq. dielectric constant tensor:
#      x y z
#    x 1.798810 0.000000 0.002820 
#    y 0.000000 1.753500 0.000000 
#    z 0.002820 0.000000 1.767820 
# 
# From -- ./inp_files/230945.got.cif
#   From: 2010.06.25/outbox.ucp.g09.slc.cvg/sg12_116_cif.got.tgz:230945.got - 2010.06.28 13:50:54.
