data_PCOD8116706
_publ_section_title
;
Structure prediction by ZEFSAII (Michael W. Deem and Ramdas Pophale) SiO2 
 PCOD8116706
Probable space group: P 2/C
;
_chemical_formula_sum "Si O2"
_cell_formula_units_Z 24
_cell_length_a 10.005967
_cell_length_b 12.251119
_cell_length_c 9.676838
_cell_angle_alpha 90.000000
_cell_angle_beta 99.839820
_cell_angle_gamma 90.000000
_cell_volume 1168.778169
_symmetry_space_group_name_H-M "P 2/C"
_symmetry_group_IT_number 13
_symmetry_cell_setting 'monoclinic'
loop_
_space_group_symop_operation_xyz
x,y,z
-x,y,1/2-z
-x,-y,-z
x,-y,1/2+z
loop_
_atom_site_type_symbol
_atom_site_label
_atom_site_fract_x
_atom_site_fract_y
_atom_site_fract_z
Si Si1 0.500000 0.366168 0.250000
Si Si2 0.788739 0.629840 0.464088
Si Si3 0.731238 0.518140 0.195177
Si Si4 0.142275 0.874058 0.020817
Si Si5 0.000000 0.995297 0.250000
Si Si6 0.455028 0.081156 0.603794
Si Si7 0.481777 0.310480 0.950746
O O1 0.634381 0.438006 0.262470
O O2 0.512809 0.289186 0.384656
O O3 0.831350 0.574193 0.325458
O O4 0.820312 0.549494 0.598885
O O5 0.873044 0.742531 0.494840
O O6 0.625189 0.642426 0.423566
O O7 0.640216 0.608705 0.103139
O O8 0.298481 0.898503 0.059131
O O9 0.088921 0.927753 0.867899
O O10 0.078616 0.918218 0.153770
O O11 0.500000 0.020311 0.750000
O O12 0.543696 0.192654 0.619506
O O13 0.500000 0.000000 0.500000
#
# Coordination Sequence:
#
# PCOD8116706 Si02
#       7
#     2   4   4   4   2   4   4
#     4  10  16  26  46  74 108 166 202 214 266 356
#     4  10  19  31  54  83 120 146 203 240 296 352
#     4  11  16  31  49  82 123 163 187 231 286 383
#     4  10  22  42  66  92 111 162 211 269 305 360
#     4  10  22  46  72  82 110 156 236 270 298 350
#     4  11  23  37  57  92 135 157 187 249 324 390
#     4  10  18  29  49  75 121 167 193 226 278 370
#
# _framework density 20.534265000000001
#
# number of rings (size 3 to 8) (size 9 to 14) (size 15 to 20)
#    0.000    1.667    3.333    4.000    1.167    0.000 
#    3.000    3.333    0.000    3.000    0.000    0.000 
#    0.000    0.000    0.000    0.000    0.000    0.000 
#
# Total GULP energy -297364.494945 kJ/mol
# GULP energy per Si atom -12390.187289 kJ/mol
# Density = 2.048753 g / cm^3
# Si number density = 20.534265 Si / 1000 Ang^3
#
#
#
# Elastic Constant Matrix: (Units=GPa)
#
#
# Indices 1 2 3 4 5 6 
#
# 1 33.8734 45.1852 26.0669 0.0000 1.2475 0.0000
# 2 45.1852 133.2215 86.8129 0.0000 -7.5055 0.0000
# 3 26.0669 86.8129 180.7209 0.0000 -4.9247 0.0000
# 4 0.0000 0.0000 0.0000 41.2096 0.0000 -1.3604
# 5 1.2475 -7.5055 -4.9247 0.0000 21.5832 0.0000
# 6 0.0000 0.0000 0.0000 -1.3604 0.0000 28.1701
#
#
#
# Elastic Compliance Matrix: (Units=1/GPa)
#
#
# Indices 1 2 3 4 5 6 
#
# 1 0.056255 -0.020644 0.001528 0.000000 -0.010082 0.000000
# 2 -0.020644 0.018651 -0.005809 0.000000 0.006354 0.000000
# 3 0.001528 -0.005809 0.008096 0.000000 -0.000261 0.000000
# 4 0.000000 0.000000 0.000000 0.024305 0.000000 0.001174
# 5 -0.010082 0.006354 -0.000261 0.000000 0.049065 0.000000
# 6 0.000000 0.000000 0.000000 0.001174 0.000000 0.035555
#
#
# Mechanical properties :
#
#
# Convention : Reuss Voigt Hill
#
# Bulk Modulus (GPa) = 30.16314 73.77175 51.96744
# Shear Modulus (GPa) = 19.77627 30.84263 25.30945
#
# Velocity S-wave (km/s) = 3.10673 3.87978 3.51457
# Velocity P-wave (km/s) = 5.25263 7.48828 6.46779
#
# Compressibility (1/GPa) = 0.03315304
#
# Stress axis : x y z
#
# Youngs Moduli (GPa) = 17.77623 53.61551 123.51355
#
# Poissons Ratio (x) = 1.10682 -0.18870
# Poissons Ratio (y) = 0.36697 0.71746
# Poissons Ratio (z) = -0.02716 0.31144
#
# Static dielectric constant tensor:
#      x y z
#    x 3.217000 0.000000 -0.095640 
#    y 0.000000 4.051020 0.000000 
#    z -0.095640 0.000000 4.149100 
# 
# 
# High freq. dielectric constant tensor:
#      x y z
#    x 1.752320 0.000000 -0.004270 
#    y 0.000000 1.807460 0.000000 
#    z -0.004270 0.000000 1.835350 
# 
# From -- ./inp_files/15893.got.cif
#   From: 2010.06.25/outbox.cif.g09.slc.cpg/sg13_8_cif.got.tgz:15893.got - 2010.06.28 04:50:58.
