data_PCOD8116416
_publ_section_title
;
Structure prediction by ZEFSAII (Michael W. Deem and Ramdas Pophale) SiO2 
 PCOD8116416
Probable space group: C 2/M
;
_chemical_formula_sum "Si O2"
_cell_formula_units_Z 32
_cell_length_a 18.000000
_cell_length_b 9.000000
_cell_length_c 30.000000
_cell_angle_alpha 90.000000
_cell_angle_beta 40.000000
_cell_angle_gamma 90.000000
_cell_volume 3123.947783
_symmetry_space_group_name_H-M "C 2/M"
_symmetry_group_IT_number 12
_symmetry_cell_setting 'monoclinic'
loop_
_space_group_symop_operation_xyz
x,y,z
-x,y,-z
-x,-y,-z
x,-y,z
1/2+x,1/2+y,z
1/2-x,1/2+y,-z
1/2-x,1/2-y,-z
1/2+x,1/2-y,z
loop_
_atom_site_type_symbol
_atom_site_label
_atom_site_fract_x
_atom_site_fract_y
_atom_site_fract_z
Si Si1 0.336875 0.169539 0.351069
Si Si2 0.195773 0.173636 0.720746
Si Si3 0.991666 0.823958 0.870884
Si Si4 0.454935 0.667304 0.721055
Si Si5 0.332266 0.327962 0.496374
Si Si6 0.414944 0.323569 0.001113
Si Si7 0.917373 0.833115 0.639343
Si Si8 0.176931 0.825511 0.130030
O O1 0.364160 0.276147 0.297155
O O2 0.440468 0.217866 0.336084
O O3 0.214387 0.196537 0.431916
O O4 0.348855 0.000000 0.330536
O O5 0.322500 0.237544 0.658631
O O6 0.120246 0.230743 0.797644
O O7 0.202102 0.000000 0.719380
O O8 0.955602 0.754724 0.934920
O O9 0.906554 0.771508 0.871009
O O10 0.989106 0.000000 0.875438
O O11 0.500755 0.500000 0.709319
O O12 0.387573 0.671756 0.705401
O O13 0.372956 0.720042 0.798870
O O14 0.333371 0.500000 0.482588
O O15 0.250000 0.250000 0.500000
O O16 0.460548 0.262990 0.431723
O O17 0.413501 0.500000 0.999460
O O18 0.500000 0.264432 0.000000
O O19 0.290868 0.267056 0.070958
O O20 0.908481 0.000000 0.624883
O O21 0.202852 0.000000 0.115502
#
# Coordination Sequence:
#
# PCOD8116416 Si02
#       8
#     8   8   8   8   8   8   8   8
#     4  11  22  37  60  90 119 150 197 247 290 346
#     4  11  23  40  61  84 117 158 196 241 295 350
#     4   9  19  38  60  81 112 152 192 235 285 342
#     4  10  20  37  61  86 117 156 194 239 293 347
#     4  10  21  37  60  86 117 155 194 243 294 346
#     4  10  22  38  57  85 119 151 185 233 290 341
#     4  10  22  39  58  85 119 153 192 243 297 345
#     4  10  20  37  60  84 113 151 194 234 278 341
#
# _framework density 10.243449
#
# number of rings (size 3 to 8) (size 9 to 14) (size 15 to 20)
#    0.000    1.875    2.500    1.125    1.750    2.750 
#    0.000    3.750    0.000    0.000    0.000    0.000 
#    0.000    0.000    0.000    0.000    0.000    0.000 
#
# Total GULP energy -396648.835706 kJ/mol
# GULP energy per Si atom -12395.276116 kJ/mol
# Density = 1.022013 g / cm^3
# Si number density = 10.243449 Si / 1000 Ang^3
#
#
#
# Elastic Constant Matrix: (Units=GPa)
#
#
# Indices 1 2 3 4 5 6 
#
# 1 31.5949 15.7774 17.6834 0.0016 -9.2015 0.0077
# 2 15.7774 4.2938 25.3291 0.0044 -10.2256 0.0061
# 3 17.6834 25.3291 110.0267 0.0012 -7.8688 0.0013
# 4 0.0016 0.0044 0.0012 29.1160 0.0003 -6.5897
# 5 -9.2015 -10.2256 -7.8688 0.0003 27.4395 0.0032
# 6 0.0077 0.0061 0.0013 -6.5897 0.0032 20.3421
#
#
#
# Elastic Compliance Matrix: (Units=1/GPa)
#
#
# Indices 1 2 3 4 5 6 
#
# 1 0.021370 0.047242 -0.012801 -0.000015 0.021100 -0.000030
# 2 0.047242 -0.135290 0.021521 0.000025 -0.028404 0.000034
# 3 -0.012801 0.021521 0.006594 -0.000004 0.005618 -0.000004
# 4 -0.000015 0.000025 -0.000004 0.037063 0.000001 0.012006
# 5 0.021100 -0.028404 0.005618 0.000001 0.034546 -0.000005
# 6 -0.000030 0.000034 -0.000004 0.012006 -0.000005 0.053048
#
#
# Mechanical properties :
#
#
# Convention : Reuss Voigt Hill
#
# Bulk Modulus (GPa) = 217.55032 29.27724 123.41378
# Shear Modulus (GPa) = -53.72803 21.18789 -16.27007
#
# Velocity S-wave (km/s) = -5.12665 3.21941 -2.82116
# Velocity P-wave (km/s) = 8.44850 5.30483 7.05402
#
# Compressibility (1/GPa) = 0.00459664
#
# Stress axis : x y z
#
# Youngs Moduli (GPa) = 46.79545 -7.39153 151.66303
#
# Poissons Ratio (x) = 0.34919 1.94143
# Poissons Ratio (y) = -2.21070 -3.26392
# Poissons Ratio (z) = 0.59903 0.15907
#
# Static dielectric constant tensor:
#      x y z
#    x 3.854850 0.000060 0.634280 
#    y 0.000060 3.326660 0.000130 
#    z 0.634280 0.000130 5.062010 
# 
# 
# High freq. dielectric constant tensor:
#      x y z
#    x 1.785180 0.000000 0.008370 
#    y 0.000000 1.769610 0.000000 
#    z 0.008370 0.000000 1.814170 
# 
# From -- ./inp_files/378042.got.cif
#   From: 2010.06.25/outbox.ucp.g09.slc.cvg/sg12_190_cif.got.tgz:378042.got - 2010.06.28 13:50:54.
