data_PCOD8116031
_publ_section_title
;
Structure prediction by ZEFSAII (Michael W. Deem and Ramdas Pophale) SiO2 
 PCOD8116031
Probable space group: C 2/M
;
_chemical_formula_sum "Si O2"
_cell_formula_units_Z 48
_cell_length_a 23.355326
_cell_length_b 13.921543
_cell_length_c 9.519011
_cell_angle_alpha 90.000000
_cell_angle_beta 90.074502
_cell_angle_gamma 90.000000
_cell_volume 3095.029326
_symmetry_space_group_name_H-M "C 2/M"
_symmetry_group_IT_number 12
_symmetry_cell_setting 'monoclinic'
loop_
_space_group_symop_operation_xyz
x,y,z
-x,y,-z
-x,-y,-z
x,-y,z
1/2+x,1/2+y,z
1/2-x,1/2+y,-z
1/2-x,1/2-y,-z
1/2+x,1/2-y,z
loop_
_atom_site_type_symbol
_atom_site_label
_atom_site_fract_x
_atom_site_fract_y
_atom_site_fract_z
Si Si1 0.725725 0.605878 0.833851
Si Si2 0.226678 0.105882 0.166837
Si Si3 0.840220 0.710800 0.164868
Si Si4 0.933439 0.609715 0.660659
Si Si5 0.565661 0.109708 0.663220
Si Si6 0.839272 0.710790 0.832560
O O1 0.712746 0.500000 0.770764
O O2 0.676209 0.680484 0.788516
O O3 0.787963 0.641067 0.782280
O O4 0.727722 0.602542 0.000323
O O5 0.289206 0.141076 0.216637
O O6 0.177432 0.180494 0.213584
O O7 0.214066 0.000000 0.230290
O O8 0.898386 0.681899 0.241173
O O9 0.849642 0.703521 0.998582
O O10 0.920934 0.500000 0.705323
O O11 0.917414 0.624943 0.498398
O O12 0.896964 0.682034 0.754507
O O13 0.999485 0.634807 0.687296
O O14 0.577912 0.000000 0.708314
#
# Coordination Sequence:
#
# PCOD8116031 Si02
#       6
#     8   8   8   8   8   8
#     4   8  14  25  41  63  91 115 132 161 209 252
#     4   8  14  25  41  63  91 115 132 161 209 252
#     4   9  16  26  44  67  85 107 141 173 200 238
#     4   9  18  31  44  59  83 113 138 165 210 257
#     4   9  18  31  44  59  83 113 138 165 210 257
#     4   9  16  26  44  67  85 107 141 173 200 238
#
# _framework density 15.508737999999999
#
# number of rings (size 3 to 8) (size 9 to 14) (size 15 to 20)
#    0.000    3.333    0.000    4.000    0.000    2.667 
#    0.000    5.000    0.000    4.000    0.000    7.000 
#    0.000    0.000    0.000    0.000    0.000    0.000 
#
# Total GULP energy -297461.954019 kJ/mol
# GULP energy per Si atom -12394.248084 kJ/mol
# Density = 1.547344 g / cm^3
# Si number density = 15.508738 Si / 1000 Ang^3
#
#
#
# Elastic Constant Matrix: (Units=GPa)
#
#
# Indices 1 2 3 4 5 6 
#
# 1 89.2397 61.2715 40.5056 0.0000 -3.1145 0.0000
# 2 61.2715 136.6674 35.0918 0.0000 -2.4433 0.0000
# 3 40.5056 35.0918 38.8794 0.0000 -2.2885 0.0000
# 4 0.0000 0.0000 0.0000 17.2366 0.0000 -0.1313
# 5 -3.1145 -2.4433 -2.2885 0.0000 3.5285 0.0000
# 6 0.0000 0.0000 0.0000 -0.1313 0.0000 27.4196
#
#
#
# Elastic Compliance Matrix: (Units=1/GPa)
#
#
# Indices 1 2 3 4 5 6 
#
# 1 0.024330 -0.005710 -0.019923 0.000000 0.004600 0.000000
# 2 -0.005710 0.010868 -0.003862 0.000000 -0.000019 0.000000
# 3 -0.019923 -0.003862 0.050706 0.000000 0.012627 0.000000
# 4 0.000000 0.000000 0.000000 0.058018 0.000000 0.000278
# 5 0.004600 -0.000019 0.012627 0.000000 0.295641 0.000000
# 6 0.000000 0.000000 0.000000 0.000278 0.000000 0.036472
#
#
# Mechanical properties :
#
#
# Convention : Reuss Voigt Hill
#
# Bulk Modulus (GPa) = 37.15510 59.83604 48.49557
# Shear Modulus (GPa) = 9.19127 18.16480 13.67803
#
# Velocity S-wave (km/s) = 2.43708 3.42608 2.97300
# Velocity P-wave (km/s) = 5.65055 7.36998 6.56679
#
# Compressibility (1/GPa) = 0.02691421
#
# Stress axis : x y z
#
# Youngs Moduli (GPa) = 41.10228 92.01210 19.72168
#
# Poissons Ratio (x) = 0.52537 0.39291
# Poissons Ratio (y) = 0.23468 0.07616
# Poissons Ratio (z) = 0.81888 0.35534
#
# Static dielectric constant tensor:
#      x y z
#    x 2.794100 0.000000 0.000050 
#    y 0.000000 3.373460 0.000000 
#    z 0.000050 0.000000 2.600180 
# 
# 
# High freq. dielectric constant tensor:
#      x y z
#    x 1.583230 0.000000 -0.000020 
#    y 0.000000 1.594820 0.000000 
#    z -0.000020 0.000000 1.562710 
# 
# From -- ./inp_files/64422.got.cif
#   From: 2010.06.25/outbox.cif.g09.slc.cpg/sg12_33_cif.got.tgz:64422.got - 2010.06.28 00:19:55.
