data_PCOD8116701
_publ_section_title
;
Structure prediction by ZEFSAII (Michael W. Deem and Ramdas Pophale) SiO2 
 PCOD8116701
Probable space group: P 2/C
;
_chemical_formula_sum "Si O2"
_cell_formula_units_Z 32
_cell_length_a 14.175458
_cell_length_b 25.687051
_cell_length_c 5.203748
_cell_angle_alpha 90.000000
_cell_angle_beta 109.753666
_cell_angle_gamma 90.000000
_cell_volume 1783.316705
_symmetry_space_group_name_H-M "P 2/C"
_symmetry_group_IT_number 13
_symmetry_cell_setting 'monoclinic'
loop_
_space_group_symop_operation_xyz
x,y,z
-x,y,1/2-z
-x,-y,-z
x,-y,1/2+z
loop_
_atom_site_type_symbol
_atom_site_label
_atom_site_fract_x
_atom_site_fract_y
_atom_site_fract_z
Si Si1 0.193065 0.032143 0.987280
Si Si2 0.611006 0.092947 0.380974
Si Si3 0.890266 0.857091 0.054414
Si Si4 0.610846 0.839757 0.381500
Si Si5 0.889057 0.477434 0.421338
Si Si6 0.890945 0.644854 0.922577
Si Si7 0.115128 0.689591 0.080941
Si Si8 0.183869 0.803547 0.030360
O O1 0.310009 0.047508 0.101497
O O2 0.167881 0.990408 0.184004
O O3 0.122532 0.081238 0.982398
O O4 0.500000 0.068697 0.250000
O O5 0.624431 0.114976 0.681608
O O6 0.626061 0.137803 0.181225
O O7 0.816055 0.838306 0.211503
O O8 0.000000 0.841549 0.250000
O O9 0.871037 0.830750 0.760596
O O10 0.500000 0.814248 0.250000
O O11 0.697800 0.796275 0.425130
O O12 0.832202 0.505269 0.607984
O O13 0.897045 0.416260 0.471384
O O14 0.000000 0.500000 0.500000
O O15 0.832821 0.658171 0.605851
O O16 0.831805 0.671850 0.105029
O O17 0.999628 0.671917 0.999046
O O18 0.126879 0.750389 0.041104
#
# Coordination Sequence:
#
# PCOD8116701 Si02
#       8
#     4   4   4   4   4   4   4   4
#     4  12  24  40  61  78 106 131 162 204 258 312
#     4  10  20  37  59  85 108 128 155 200 259 310
#     4  12  27  41  58  80 102 134 177 216 241 302
#     4  10  19  36  61  82 106 131 161 207 252 310
#     4  10  16  25  42  60  86 134 182 215 245 294
#     4  10  19  31  41  68 104 130 177 216 260 291
#     4  10  20  29  46  66  97 133 161 214 257 291
#     4  12  22  39  59  79 105 133 178 208 265 309
#
# _framework density 17.944091
#
# number of rings (size 3 to 8) (size 9 to 14) (size 15 to 20)
#    0.000    1.250    2.500    6.375    5.250    1.000 
#    0.000    0.000    0.000    0.000    0.000    0.000 
#    0.000    0.000    0.000    0.000    0.000   46.250 
#
# Total GULP energy -396577.615956 kJ/mol
# GULP energy per Si atom -12393.050499 kJ/mol
# Density = 1.790325 g / cm^3
# Si number density = 17.944091 Si / 1000 Ang^3
#
#
#
# Elastic Constant Matrix: (Units=GPa)
#
#
# Indices 1 2 3 4 5 6 
#
# 1 54.3271 31.1627 23.3185 0.0000 -6.3651 0.0000
# 2 31.1627 106.1892 33.1395 0.0000 -9.8798 0.0000
# 3 23.3185 33.1395 121.7379 0.0000 -36.4235 0.0000
# 4 0.0000 0.0000 0.0000 28.7656 0.0000 -13.6530
# 5 -6.3651 -9.8798 -36.4235 0.0000 29.0247 0.0000
# 6 0.0000 0.0000 0.0000 -13.6530 0.0000 13.7277
#
#
#
# Elastic Compliance Matrix: (Units=1/GPa)
#
#
# Indices 1 2 3 4 5 6 
#
# 1 0.022987 -0.005870 -0.003034 0.000000 -0.000764 0.000000
# 2 -0.005870 0.011791 -0.002033 0.000000 0.000175 0.000000
# 3 -0.003034 -0.002033 0.014319 0.000000 0.016612 0.000000
# 4 0.000000 0.000000 0.000000 0.065847 0.000000 0.065488
# 5 -0.000764 0.000175 0.016612 0.000000 0.055192 0.000000
# 6 0.000000 0.000000 0.000000 0.065488 0.000000 0.137978
#
#
# Mechanical properties :
#
#
# Convention : Reuss Voigt Hill
#
# Bulk Modulus (GPa) = 36.73363 50.83284 43.78324
# Shear Modulus (GPa) = 14.74665 27.27917 21.01291
#
# Velocity S-wave (km/s) = 2.86983 3.90324 3.42573
# Velocity P-wave (km/s) = 5.61221 6.97880 6.33248
#
# Compressibility (1/GPa) = 0.02722301
#
# Stress axis : x y z
#
# Youngs Moduli (GPa) = 43.50323 84.81383 69.83690
#
# Poissons Ratio (x) = 0.49787 0.21186
# Poissons Ratio (y) = 0.25537 0.14197
# Poissons Ratio (z) = 0.13198 0.17241
#
# Static dielectric constant tensor:
#      x y z
#    x 5.402330 0.000000 -4.671460 
#    y 0.000000 3.124380 0.000000 
#    z -4.671460 0.000000 12.543870 
# 
# 
# High freq. dielectric constant tensor:
#      x y z
#    x 1.654200 0.000000 -0.036040 
#    y 0.000000 1.673240 0.000000 
#    z -0.036040 0.000000 1.725370 
# 
# From -- ./inp_files/5565.got.cif
#   From: 2010.06.25/outbox.cif.g09.slc.cpg/sg13_3_cif.got.tgz:5565.got - 2010.06.28 04:50:58.
