data_PCOD8116114
_publ_section_title
;
Structure prediction by ZEFSAII (Michael W. Deem and Ramdas Pophale) SiO2 
 PCOD8116114
Probable space group: C 2/M
;
_chemical_formula_sum "Si O2"
_cell_formula_units_Z 56
_cell_length_a 14.460125
_cell_length_b 8.908317
_cell_length_c 26.868225
_cell_angle_alpha 90.000000
_cell_angle_beta 124.601765
_cell_angle_gamma 90.000000
_cell_volume 2848.847800
_symmetry_space_group_name_H-M "C 2/M"
_symmetry_group_IT_number 12
_symmetry_cell_setting 'monoclinic'
loop_
_space_group_symop_operation_xyz
x,y,z
-x,y,-z
-x,-y,-z
x,-y,z
1/2+x,1/2+y,z
1/2-x,1/2+y,-z
1/2-x,1/2-y,-z
1/2+x,1/2-y,z
loop_
_atom_site_type_symbol
_atom_site_label
_atom_site_fract_x
_atom_site_fract_y
_atom_site_fract_z
Si Si1 0.748171 0.171548 0.303572
Si Si2 0.499852 0.822220 0.226631
Si Si3 0.571002 0.176819 0.454489
Si Si4 0.599174 0.323122 0.994433
Si Si5 0.145314 0.172738 0.565134
Si Si6 0.648887 0.177071 0.908490
Si Si7 0.959938 0.677318 0.323217
O O1 0.625247 0.221002 0.247445
O O2 0.750222 0.188295 0.364906
O O3 0.837604 0.275042 0.304140
O O4 0.774912 0.000000 0.297342
O O5 0.410893 0.759037 0.159418
O O6 0.478796 0.750142 0.274629
O O7 0.487890 0.000000 0.226986
O O8 0.453392 0.225348 0.442874
O O9 0.669375 0.264303 0.516048
O O10 0.559379 0.224851 0.392611
O O11 0.590709 0.000000 0.465638
O O12 0.588950 0.500000 0.984214
O O13 0.586630 0.248758 0.936708
O O14 0.500000 0.262915 0.000000
O O15 0.719953 0.277670 0.054483
O O16 0.107756 0.000000 0.549494
O O17 0.633848 0.000000 0.908488
O O18 0.959664 0.500000 0.319650
#
# Coordination Sequence:
#
# PCOD8116114 Si02
#       7
#     8   8   8   8   8   8   8
#     4   9  18  32  49  68  93 125 162 203 244 288
#     4   9  18  34  52  70  97 133 166 194 234 290
#     4   9  15  24  41  64  88 116 152 196 243 288
#     4   9  18  33  53  78 106 131 157 195 240 279
#     4   9  15  24  41  63  86 116 153 195 244 290
#     4   9  18  33  53  75 100 132 166 196 230 280
#     4   9  18  32  50  70  94 126 163 201 243 292
#
# _framework density 19.657070000000001
#
# number of rings (size 3 to 8) (size 9 to 14) (size 15 to 20)
#    0.000    3.000    0.000    1.714    0.000    2.571 
#    0.000    4.286    0.000    0.000    0.000    0.000 
#    0.000    0.000    0.000    0.000    0.000    0.000 
#
# Total GULP energy -346916.403929 kJ/mol
# GULP energy per Si atom -12389.871569 kJ/mol
# Density = 1.961233 g / cm^3
# Si number density = 19.657070 Si / 1000 Ang^3
#
#
#
# Elastic Constant Matrix: (Units=GPa)
#
#
# Indices 1 2 3 4 5 6 
#
# 1 65.6061 7.4366 36.2369 0.0000 -16.2096 0.0000
# 2 7.4366 15.7694 22.3215 0.0000 -4.6025 0.0000
# 3 36.2369 22.3215 138.4398 0.0000 -13.2722 0.0000
# 4 0.0000 0.0000 0.0000 5.3153 0.0000 -5.0203
# 5 -16.2096 -4.6025 -13.2722 0.0000 25.3810 0.0000
# 6 0.0000 0.0000 0.0000 -5.0203 0.0000 16.8705
#
#
#
# Elastic Compliance Matrix: (Units=1/GPa)
#
#
# Indices 1 2 3 4 5 6 
#
# 1 0.020249 -0.000498 -0.004199 0.000000 0.010646 0.000000
# 2 -0.000498 0.083913 -0.012603 0.000000 0.008308 0.000000
# 3 -0.004199 -0.012603 0.010400 0.000000 0.000471 0.000000
# 4 0.000000 0.000000 0.000000 0.261686 0.000000 0.077873
# 5 0.010646 0.008308 0.000471 0.000000 0.047951 0.000000
# 6 0.000000 0.000000 0.000000 0.077873 0.000000 0.082448
#
#
# Mechanical properties :
#
#
# Convention : Reuss Voigt Hill
#
# Bulk Modulus (GPa) = 12.50604 39.08947 25.79776
# Shear Modulus (GPa) = 8.80434 19.76804 14.28619
#
# Velocity S-wave (km/s) = 2.11865 3.17463 2.69879
# Velocity P-wave (km/s) = 3.51580 5.77638 4.78160
#
# Compressibility (1/GPa) = 0.07996137
#
# Stress axis : x y z
#
# Youngs Moduli (GPa) = 49.38615 11.91707 96.15623
#
# Poissons Ratio (x) = 0.00593 0.40378
# Poissons Ratio (y) = 0.02458 1.21186
# Poissons Ratio (z) = 0.20738 0.15019
#
# Static dielectric constant tensor:
#      x y z
#    x 3.405870 0.000000 -0.238540 
#    y 0.000000 3.306580 0.000000 
#    z -0.238540 0.000000 4.255450 
# 
# 
# High freq. dielectric constant tensor:
#      x y z
#    x 1.746600 0.000000 -0.006000 
#    y 0.000000 1.740500 0.000000 
#    z -0.006000 0.000000 1.778290 
# 
# From -- ./inp_files/375149.got.cif
#   From: 2010.06.25/outbox.cif.g09.slc.cpg/sg12_188_cif.got.tgz:375149.got - 2010.06.28 00:19:55.
