data_PCOD8116447
_publ_section_title
;
Structure prediction by ZEFSAII (Michael W. Deem and Ramdas Pophale) SiO2 
 PCOD8116447
Probable space group: C 2/M
;
_chemical_formula_sum "Si O2"
_cell_formula_units_Z 32
_cell_length_a 24.000000
_cell_length_b 9.000000
_cell_length_c 30.000000
_cell_angle_alpha 90.000000
_cell_angle_beta 150.000000
_cell_angle_gamma 90.000000
_cell_volume 3240.000000
_symmetry_space_group_name_H-M "C 2/M"
_symmetry_group_IT_number 12
_symmetry_cell_setting 'monoclinic'
loop_
_space_group_symop_operation_xyz
x,y,z
-x,y,-z
-x,-y,-z
x,-y,z
1/2+x,1/2+y,z
1/2-x,1/2+y,-z
1/2-x,1/2-y,-z
1/2+x,1/2-y,z
loop_
_atom_site_type_symbol
_atom_site_label
_atom_site_fract_x
_atom_site_fract_y
_atom_site_fract_z
Si Si1 0.407886 0.332857 0.502917
Si Si2 0.763560 0.827407 0.094330
Si Si3 0.148356 0.827222 0.190435
Si Si4 0.005042 0.676538 0.763614
Si Si5 0.369876 0.830326 0.908768
Si Si6 0.643407 0.333487 0.635969
Si Si7 0.548362 0.826431 0.895644
Si Si8 0.222041 0.820797 0.432746
O O1 0.392010 0.500000 0.511538
O O2 0.539123 0.284314 0.595865
O O3 0.385952 0.334994 0.435787
O O4 0.324353 0.222532 0.470901
O O5 0.877531 0.732763 0.175353
O O6 0.692108 0.792542 0.088618
O O7 0.797611 0.000000 0.114238
O O8 0.678263 0.781515 0.994972
O O9 0.181086 0.777607 0.163460
O O10 0.255098 0.780906 0.292844
O O11 0.034308 0.752623 0.127575
O O12 0.129002 0.000000 0.180619
O O13 0.993750 0.500000 0.747728
O O14 0.011536 0.716152 0.820342
O O15 0.897110 0.757646 0.667492
O O16 0.348649 0.000000 0.880233
O O17 0.500000 0.794820 0.000000
O O18 0.680287 0.500000 0.675980
O O19 0.535657 0.000000 0.896463
O O20 0.250000 0.750000 0.500000
O O21 0.214678 0.000000 0.430724
#
# Coordination Sequence:
#
# PCOD8116447 Si02
#       8
#     8   8   8   8   8   8   8   8
#     4   9  19  39  65  91 118 152 196 246 299 356
#     4  10  21  39  64  90 120 162 209 252 297 356
#     4  12  24  34  54  89 125 158 199 251 300 345
#     4  11  24  41  64  93 124 158 200 253 306 360
#     4  10  20  39  62  80 110 158 202 238 287 354
#     4   9  19  37  62  89 120 158 197 238 294 365
#     4  10  21  40  63  87 122 167 208 245 297 365
#     4  12  26  44  66  89 120 160 203 252 306 365
#
# _framework density 9.8765429999999999
#
# number of rings (size 3 to 8) (size 9 to 14) (size 15 to 20)
#    0.000    1.625    1.250    4.500    0.000    7.250 
#    0.000    2.500    0.000    0.000    0.000    0.000 
#    0.000    0.000    0.000    0.000    0.000    0.000 
#
# Total GULP energy -396638.261370 kJ/mol
# GULP energy per Si atom -12394.945668 kJ/mol
# Density = 0.985406 g / cm^3
# Si number density = 9.876543 Si / 1000 Ang^3
#
#
#
# Elastic Constant Matrix: (Units=GPa)
#
#
# Indices 1 2 3 4 5 6 
#
# 1 110.4557 49.3111 49.1941 0.0001 15.8979 0.0000
# 2 49.3111 102.3973 45.7401 0.0004 7.9535 -0.0007
# 3 49.1941 45.7401 107.8622 -0.0003 13.6104 -0.0001
# 4 0.0001 0.0004 -0.0003 32.8312 -0.0001 6.5451
# 5 15.8979 7.9535 13.6104 -0.0001 36.9182 0.0000
# 6 0.0000 -0.0007 -0.0001 6.5451 0.0000 26.0973
#
#
#
# Elastic Compliance Matrix: (Units=1/GPa)
#
#
# Indices 1 2 3 4 5 6 
#
# 1 0.013159 -0.004423 -0.003704 0.000000 -0.003349 0.000000
# 2 -0.004423 0.013554 -0.003778 0.000000 0.000377 0.000000
# 3 -0.003704 -0.003778 0.012857 0.000000 -0.002331 0.000000
# 4 0.000000 0.000000 0.000000 0.032062 0.000000 -0.008041
# 5 -0.003349 0.000377 -0.002331 0.000000 0.029307 0.000000
# 6 0.000000 0.000000 0.000000 -0.008041 0.000000 0.040335
#
#
# Mechanical properties :
#
#
# Convention : Reuss Voigt Hill
#
# Bulk Modulus (GPa) = 63.44873 67.68953 65.56913
# Shear Modulus (GPa) = 29.35370 30.93400 30.14385
#
# Velocity S-wave (km/s) = 3.85909 3.96161 3.91068
# Velocity P-wave (km/s) = 7.21439 7.43424 7.32514
#
# Compressibility (1/GPa) = 0.01576076
#
# Stress axis : x y z
#
# Youngs Moduli (GPa) = 75.99197 73.77864 77.78067
#
# Poissons Ratio (x) = 0.32629 0.28808
# Poissons Ratio (y) = 0.33608 0.29388
# Poissons Ratio (z) = 0.28146 0.27876
#
# Static dielectric constant tensor:
#      x y z
#    x 3.791960 0.000000 0.173660 
#    y 0.000000 3.641220 0.000000 
#    z 0.173660 0.000000 4.000420 
# 
# 
# High freq. dielectric constant tensor:
#      x y z
#    x 1.782060 0.000000 0.011720 
#    y 0.000000 1.765290 0.000000 
#    z 0.011720 0.000000 1.788520 
# 
# From -- ./inp_files/382538.got.cif
#   From: 2010.06.25/outbox.ucp.g09.slc.cvg/sg12_192_cif.got.tgz:382538.got - 2010.06.28 13:50:54.
