data_PCOD8116842
_publ_section_title
;
Structure prediction by ZEFSAII (Michael W. Deem and Ramdas Pophale) SiO2 
 PCOD8116842
Probable space group: P 2/C
;
_chemical_formula_sum "Si O2"
_cell_formula_units_Z 28
_cell_length_a 28.238900
_cell_length_b 10.837564
_cell_length_c 28.664918
_cell_angle_alpha 90.000000
_cell_angle_beta 169.686164
_cell_angle_gamma 90.000000
_cell_volume 1570.651175
_symmetry_space_group_name_H-M "P 2/C"
_symmetry_group_IT_number 13
_symmetry_cell_setting 'monoclinic'
loop_
_space_group_symop_operation_xyz
x,y,z
-x,y,1/2-z
-x,-y,-z
x,-y,1/2+z
loop_
_atom_site_type_symbol
_atom_site_label
_atom_site_fract_x
_atom_site_fract_y
_atom_site_fract_z
Si Si1 0.535683 0.485603 0.231967
Si Si2 0.492639 0.196293 0.192304
Si Si3 0.776317 0.553162 0.749250
Si Si4 0.085655 0.523896 0.221993
Si Si5 0.793400 0.916358 0.243001
Si Si6 0.765045 0.167405 0.263451
Si Si7 0.961815 0.188058 0.814991
O O1 0.500000 0.543291 0.250000
O O2 0.552723 0.340194 0.254990
O O3 0.806491 0.531306 0.469536
O O4 0.297181 0.519838 0.965869
O O5 0.500000 0.133537 0.250000
O O6 0.735875 0.143708 0.397803
O O7 0.204770 0.166846 0.893420
O O8 0.500000 0.500000 0.500000
O O9 0.767563 0.700663 0.741675
O O10 0.833547 0.523031 0.750861
O O11 0.000000 0.500000 0.000000
O O12 0.069971 0.670636 0.200493
O O13 0.010850 0.834564 0.480083
O O14 0.834121 0.903785 0.227908
O O15 0.822031 0.061321 0.280898
O O16 0.512900 0.858354 0.982364
#
# Coordination Sequence:
#
# PCOD8116842 Si02
#       7
#     4   4   4   4   4   4   4
#     4   9  17  30  46  67  96 127 162 205 249 294
#     4   9  17  27  42  67  97 123 151 195 248 294
#     4  12  23  35  52  76 109 141 167 206 255 304
#     4  10  19  29  46  72  98 128 163 200 250 305
#     4  10  20  35  54  73  96 132 172 208 241 287
#     4  10  21  36  52  73 101 131 169 208 245 288
#     4  10  17  28  46  68  94 124 160 196 240 292
#
# _framework density 17.827000999999999
#
# number of rings (size 3 to 8) (size 9 to 14) (size 15 to 20)
#    0.000    2.000    0.000    5.143    0.000    5.714 
#    0.000    0.000    0.000    0.000    0.000    6.000 
#    0.000    0.000    0.000    0.000    0.000    0.000 
#
# Total GULP energy -347095.788547 kJ/mol
# GULP energy per Si atom -12396.278162 kJ/mol
# Density = 1.778643 g / cm^3
# Si number density = 17.827001 Si / 1000 Ang^3
#
#
#
# Elastic Constant Matrix: (Units=GPa)
#
#
# Indices 1 2 3 4 5 6 
#
# 1 127.5912 35.6442 32.8322 0.0000 -0.6409 0.0000
# 2 35.6442 56.8051 25.9713 0.0000 -3.4078 0.0000
# 3 32.8322 25.9713 114.7097 0.0000 1.6057 0.0000
# 4 0.0000 0.0000 0.0000 14.9158 0.0000 1.7149
# 5 -0.6409 -3.4078 1.6057 0.0000 27.8659 0.0000
# 6 0.0000 0.0000 0.0000 1.7149 0.0000 17.1805
#
#
#
# Elastic Compliance Matrix: (Units=1/GPa)
#
#
# Indices 1 2 3 4 5 6 
#
# 1 0.009753 -0.005429 -0.001558 0.000000 -0.000350 0.000000
# 2 -0.005429 0.022858 -0.003662 0.000000 0.002881 0.000000
# 3 -0.001558 -0.003662 0.010007 0.000000 -0.001060 0.000000
# 4 0.000000 0.000000 0.000000 0.067821 0.000000 -0.006770
# 5 -0.000350 0.002881 -0.001060 0.000000 0.036292 0.000000
# 6 0.000000 0.000000 0.000000 -0.006770 0.000000 0.058881
#
#
# Mechanical properties :
#
#
# Convention : Reuss Voigt Hill
#
# Bulk Modulus (GPa) = 46.89986 54.22239 50.56112
# Shear Modulus (GPa) = 21.36609 25.63631 23.50120
#
# Velocity S-wave (km/s) = 3.46573 3.79629 3.63477
# Velocity P-wave (km/s) = 6.51003 7.04966 6.78521
#
# Compressibility (1/GPa) = 0.02132203
#
# Stress axis : x y z
#
# Youngs Moduli (GPa) = 102.53069 43.74927 99.92687
#
# Poissons Ratio (x) = 0.23751 0.15564
# Poissons Ratio (y) = 0.55662 0.36590
# Poissons Ratio (z) = 0.15969 0.16019
#
# Static dielectric constant tensor:
#      x y z
#    x 3.434800 0.000000 0.041970 
#    y 0.000000 2.930610 0.000000 
#    z 0.041970 0.000000 3.639070 
# 
# 
# High freq. dielectric constant tensor:
#      x y z
#    x 1.701010 0.000000 0.001950 
#    y 0.000000 1.635420 0.000000 
#    z 0.001950 0.000000 1.715760 
# 
# From -- ./inp_files/94122.got.cif
#   From: 2010.06.25/outbox.cif.g09.slc.cpg/sg13_48_cif.got.tgz:94122.got - 2010.06.28 04:50:58.
