data_PCOD8116449
_publ_section_title
;
Structure prediction by ZEFSAII (Michael W. Deem and Ramdas Pophale) SiO2 
 PCOD8116449
Probable space group: C 2/M
;
_chemical_formula_sum "Si O2"
_cell_formula_units_Z 32
_cell_length_a 18.000000
_cell_length_b 9.000000
_cell_length_c 30.000000
_cell_angle_alpha 90.000000
_cell_angle_beta 40.000000
_cell_angle_gamma 90.000000
_cell_volume 3123.947783
_symmetry_space_group_name_H-M "C 2/M"
_symmetry_group_IT_number 12
_symmetry_cell_setting 'monoclinic'
loop_
_space_group_symop_operation_xyz
x,y,z
-x,y,-z
-x,-y,-z
x,-y,z
1/2+x,1/2+y,z
1/2-x,1/2+y,-z
1/2-x,1/2-y,-z
1/2+x,1/2-y,z
loop_
_atom_site_type_symbol
_atom_site_label
_atom_site_fract_x
_atom_site_fract_y
_atom_site_fract_z
Si Si1 0.000107 0.170611 0.414832
Si Si2 0.458633 0.177721 0.180033
Si Si3 0.221092 0.326628 0.315664
Si Si4 0.161818 0.325376 0.921001
Si Si5 0.334868 0.826428 0.556064
Si Si6 0.571086 0.327099 0.211282
Si Si7 0.478029 0.679797 0.941791
Si Si8 0.096645 0.830212 0.634645
O O1 0.945722 0.242708 0.484449
O O2 0.914671 0.186008 0.412751
O O3 0.109020 0.258766 0.343659
O O4 0.032110 0.000000 0.410638
O O5 0.329757 0.235748 0.248045
O O6 0.533725 0.222782 0.187973
O O7 0.515641 0.257675 0.111163
O O8 0.457943 0.000000 0.173679
O O9 0.240706 0.500000 0.296477
O O10 0.186424 0.294900 0.382534
O O11 0.128506 0.500000 0.938414
O O12 0.292907 0.304841 0.845438
O O13 0.089304 0.239228 0.916985
O O14 0.135243 0.248013 0.981198
O O15 0.220114 0.755048 0.587032
O O16 0.355666 0.000000 0.536711
O O17 0.541884 0.500000 0.214011
O O18 0.506696 0.269181 0.285992
O O19 0.473562 0.500000 0.943707
O O20 0.108679 0.000000 0.644026
#
# Coordination Sequence:
#
# PCOD8116449 Si02
#       8
#     8   8   8   8   8   8   8   8
#     4  11  23  36  58  90 122 154 200 254 303 357
#     4  12  25  41  63  91 123 158 204 258 307 359
#     4  11  23  41  62  85 117 160 204 248 306 370
#     4  10  21  39  67  98 128 162 203 252 303 354
#     4  10  20  39  63  81 113 160 204 245 299 366
#     4  10  21  41  65  89 122 164 203 246 306 367
#     4  11  23  41  65  92 129 168 204 246 298 362
#     4   9  19  38  60  85 118 159 199 243 300 362
#
# _framework density 10.243449
#
# number of rings (size 3 to 8) (size 9 to 14) (size 15 to 20)
#    0.000    1.500    1.250    4.875    1.750    4.000 
#    0.000    1.875    0.000    0.000    0.000    0.000 
#    0.000    0.000    0.000    0.000    0.000    0.000 
#
# Total GULP energy -396622.421147 kJ/mol
# GULP energy per Si atom -12394.450661 kJ/mol
# Density = 1.022013 g / cm^3
# Si number density = 10.243449 Si / 1000 Ang^3
#
#
#
# Elastic Constant Matrix: (Units=GPa)
#
#
# Indices 1 2 3 4 5 6 
#
# 1 21.6842 8.1144 0.0130 -0.0002 5.1328 -0.0002
# 2 8.1144 123.8836 20.6240 0.0002 9.9581 0.0003
# 3 0.0130 20.6240 82.5442 -0.0003 10.8672 0.0000
# 4 -0.0002 0.0002 -0.0003 35.9177 0.0000 0.1869
# 5 5.1328 9.9581 10.8672 0.0000 39.4592 -0.0002
# 6 -0.0002 0.0003 0.0000 0.1869 -0.0002 29.4889
#
#
#
# Elastic Compliance Matrix: (Units=1/GPa)
#
#
# Indices 1 2 3 4 5 6 
#
# 1 0.048643 -0.002957 0.001521 0.000000 -0.006000 0.000000
# 2 -0.002957 0.008701 -0.002008 0.000000 -0.001258 0.000000
# 3 0.001521 -0.002008 0.013049 0.000000 -0.003285 0.000000
# 4 0.000000 0.000000 0.000000 0.027842 0.000000 -0.000177
# 5 -0.006000 -0.001258 -0.003285 0.000000 0.027345 0.000000
# 6 0.000000 0.000000 0.000000 -0.000177 0.000000 0.033912
#
#
# Mechanical properties :
#
#
# Convention : Reuss Voigt Hill
#
# Bulk Modulus (GPa) = 15.74687 31.73497 23.74092
# Shear Modulus (GPa) = 26.65983 34.26385 30.46184
#
# Velocity S-wave (km/s) = 3.61128 4.09403 3.86021
# Velocity P-wave (km/s) = 5.00914 6.15403 5.61086
#
# Compressibility (1/GPa) = 0.06350468
#
# Stress axis : x y z
#
# Youngs Moduli (GPa) = 20.55814 114.92672 76.63649
#
# Poissons Ratio (x) = 0.33984 -0.11657
# Poissons Ratio (y) = 0.06079 0.15388
# Poissons Ratio (z) = -0.03127 0.23076
#
# Static dielectric constant tensor:
#      x y z
#    x 3.664960 0.000000 -0.060400 
#    y 0.000000 3.827770 0.000000 
#    z -0.060400 0.000000 4.040660 
# 
# 
# High freq. dielectric constant tensor:
#      x y z
#    x 1.796480 0.000000 0.001370 
#    y 0.000000 1.801070 0.000000 
#    z 0.001370 0.000000 1.828510 
# 
# From -- ./inp_files/378052.got.cif
#   From: 2010.06.25/outbox.ucp.g09.slc.cvg/sg12_190_cif.got.tgz:378052.got - 2010.06.28 13:50:54.
