data_PCOD8116522
_publ_section_title
;
Structure prediction by ZEFSAII (Michael W. Deem and Ramdas Pophale) SiO2 
 PCOD8116522
Probable space group: C 2/M
;
_chemical_formula_sum "Si O2"
_cell_formula_units_Z 20
_cell_length_a 15.000000
_cell_length_b 15.000000
_cell_length_c 27.000000
_cell_angle_alpha 90.000000
_cell_angle_beta 160.000000
_cell_angle_gamma 90.000000
_cell_volume 2077.772371
_symmetry_space_group_name_H-M "C 2/M"
_symmetry_group_IT_number 12
_symmetry_cell_setting 'monoclinic'
loop_
_space_group_symop_operation_xyz
x,y,z
-x,y,-z
-x,-y,-z
x,-y,z
1/2+x,1/2+y,z
1/2-x,1/2+y,-z
1/2-x,1/2-y,-z
1/2+x,1/2-y,z
loop_
_atom_site_type_symbol
_atom_site_label
_atom_site_fract_x
_atom_site_fract_y
_atom_site_fract_z
Si Si1 0.905362 0.249945 0.661248
Si Si2 0.036046 0.891366 0.219410
Si Si3 0.856240 0.746882 0.323595
Si Si4 0.226245 0.601448 0.879114
Si Si5 0.068812 0.600419 0.904771
O O1 0.944652 0.159842 0.716566
O O2 0.604236 0.262036 0.488871
O O3 0.069826 0.254363 0.696006
O O4 0.992582 0.334828 0.739030
O O5 0.226708 0.844283 0.278105
O O6 0.096288 0.000000 0.256085
O O7 0.743674 0.878398 0.044757
O O8 0.662884 0.830468 0.225395
O O9 0.166879 0.500000 0.830589
O O10 0.252471 0.606152 0.952214
O O11 0.500000 0.635483 0.000000
O O12 0.952387 0.500000 0.848949
#
# Coordination Sequence:
#
# PCOD8116522 Si02
#       5
#     8   8   8   8   8
#     4  11  25  39  64  95 127 170 212 266 326 378
#     4  11  24  43  67  95 129 174 219 263 322 389
#     4  11  24  42  61  94 131 167 214 266 322 383
#     4  10  21  38  63  94 123 160 211 264 321 383
#     4  10  22  40  65  93 124 164 211 266 320 378
#
# _framework density 9.6256939999999993
#
# number of rings (size 3 to 8) (size 9 to 14) (size 15 to 20)
#    0.000    1.400    2.000    2.400    2.800    5.600 
#    0.000    8.000    0.000    0.000    0.000    0.000 
#    0.000    0.000    0.000    0.000    0.000    0.000 
#
# Total GULP energy -247790.722969 kJ/mol
# GULP energy per Si atom -12389.536148 kJ/mol
# Density = 0.960378 g / cm^3
# Si number density = 9.625694 Si / 1000 Ang^3
#
#
#
# Elastic Constant Matrix: (Units=GPa)
#
#
# Indices 1 2 3 4 5 6 
#
# 1 127.6666 49.4605 37.2904 -0.0008 -13.4353 0.0045
# 2 49.4605 161.1533 70.4368 0.0055 -4.4939 -0.0012
# 3 37.2904 70.4368 135.6336 0.0580 -15.3201 -0.0118
# 4 -0.0008 0.0055 0.0580 35.5522 -0.0055 -3.9841
# 5 -13.4353 -4.4939 -15.3201 -0.0055 39.1540 0.0009
# 6 0.0045 -0.0012 -0.0118 -3.9841 0.0009 38.3716
#
#
#
# Elastic Compliance Matrix: (Units=1/GPa)
#
#
# Indices 1 2 3 4 5 6 
#
# 1 0.009308 -0.002318 -0.001072 0.000003 0.002509 -0.000001
# 2 -0.002318 0.008625 -0.003997 0.000005 -0.001369 0.000000
# 3 -0.001072 -0.003997 0.010096 -0.000015 0.003124 0.000001
# 4 0.000003 0.000005 -0.000015 0.028459 -0.000001 0.002955
# 5 0.002509 -0.001369 0.003124 -0.000001 0.027466 0.000000
# 6 -0.000001 0.000000 0.000001 0.002955 0.000000 0.026368
#
#
# Mechanical properties :
#
#
# Convention : Reuss Voigt Hill
#
# Bulk Modulus (GPa) = 75.43859 82.09210 78.76535
# Shear Modulus (GPa) = 38.60577 40.43329 39.51953
#
# Velocity S-wave (km/s) = 4.48297 4.58785 4.53572
# Velocity P-wave (km/s) = 8.12817 8.41423 8.27244
#
# Compressibility (1/GPa) = 0.01325581
#
# Stress axis : x y z
#
# Youngs Moduli (GPa) = 107.43269 115.93556 99.05078
#
# Poissons Ratio (x) = 0.26879 0.10616
# Poissons Ratio (y) = 0.24907 0.39587
# Poissons Ratio (z) = 0.11515 0.46335
#
# Static dielectric constant tensor:
#      x y z
#    x 4.047860 0.000020 -0.184370 
#    y 0.000020 4.019080 -0.000090 
#    z -0.184370 -0.000090 3.692240 
# 
# 
# High freq. dielectric constant tensor:
#      x y z
#    x 1.779180 0.000000 -0.014500 
#    y 0.000000 1.777200 -0.000010 
#    z -0.014500 -0.000010 1.764540 
# 
# From -- ./inp_files/58939.got.cif
#   From: 2010.06.25/outbox.ucp.g09.slc.cvg/sg12_30_cif.got.tgz:58939.got - 2010.06.28 13:50:54.
