data_PCOD8116111
_publ_section_title
;
Structure prediction by ZEFSAII (Michael W. Deem and Ramdas Pophale) SiO2 
 PCOD8116111
Probable space group: C 2/M
;
_chemical_formula_sum "Si O2"
_cell_formula_units_Z 56
_cell_length_a 9.110962
_cell_length_b 19.416578
_cell_length_c 29.222017
_cell_angle_alpha 90.000000
_cell_angle_beta 38.767138
_cell_angle_gamma 90.000000
_cell_volume 3236.906549
_symmetry_space_group_name_H-M "C 2/M"
_symmetry_group_IT_number 12
_symmetry_cell_setting 'monoclinic'
loop_
_space_group_symop_operation_xyz
x,y,z
-x,y,-z
-x,-y,-z
x,-y,z
1/2+x,1/2+y,z
1/2-x,1/2+y,-z
1/2-x,1/2-y,-z
1/2+x,1/2-y,z
loop_
_atom_site_type_symbol
_atom_site_label
_atom_site_fract_x
_atom_site_fract_y
_atom_site_fract_z
Si Si1 0.150328 0.177922 0.771747
Si Si2 0.813553 0.078979 0.643580
Si Si3 0.508549 0.177792 0.228319
Si Si4 0.753354 0.323137 0.067168
Si Si5 0.089679 0.176576 0.932792
Si Si6 0.334506 0.081886 0.499922
Si Si7 0.967997 0.578984 0.643744
O O1 0.348485 0.193394 0.760686
O O2 0.239623 0.122691 0.713141
O O3 0.100189 0.250096 0.760052
O O4 0.921514 0.144315 0.852434
O O5 0.695227 0.122602 0.712967
O O6 0.673268 0.085949 0.630660
O O7 0.072265 0.109387 0.572048
O O8 0.821908 0.000000 0.658154
O O9 0.683300 0.144071 0.147658
O O10 0.824487 0.249772 0.069976
O O11 0.625551 0.315818 0.049694
O O12 0.000000 0.365203 0.000000
O O13 0.000000 0.134417 0.000000
O O14 0.500000 0.109994 0.500000
O O15 0.433428 0.109359 0.427720
O O16 0.328810 0.000000 0.499927
O O17 0.886608 0.500000 0.658415
#
# Coordination Sequence:
#
# PCOD8116111 Si02
#       7
#     8   8   8   8   8   8   8
#     4   9  18  30  45  67  92 117 146 182 222 261
#     4   9  17  31  50  68  87 115 150 183 216 259
#     4   9  18  30  45  67  92 117 146 182 222 261
#     4   9  15  24  39  60  85 112 144 179 214 253
#     4   9  15  24  39  60  85 112 144 179 214 253
#     4   9  17  29  46  69  92 113 143 183 222 259
#     4   9  17  31  50  68  87 115 150 183 216 259
#
# _framework density 17.300469
#
# number of rings (size 3 to 8) (size 9 to 14) (size 15 to 20)
#    0.000    3.000    0.000    2.143    0.000    4.000 
#    0.000    0.714    0.000    0.857    0.000    0.000 
#    0.000    0.000    0.000    0.000    0.000    7.714 
#
# Total GULP energy -346939.639662 kJ/mol
# GULP energy per Si atom -12390.701416 kJ/mol
# Density = 1.726109 g / cm^3
# Si number density = 17.300469 Si / 1000 Ang^3
#
#
#
# Elastic Constant Matrix: (Units=GPa)
#
#
# Indices 1 2 3 4 5 6 
#
# 1 75.8683 26.0076 68.6817 -0.0037 0.8075 0.0058
# 2 26.0076 46.2942 57.5590 -0.0349 0.5381 -0.0035
# 3 68.6817 57.5590 200.5997 -0.0004 1.6760 0.0010
# 4 -0.0037 -0.0349 -0.0004 17.7737 -0.0091 0.0348
# 5 0.8075 0.5381 1.6760 -0.0091 20.5443 -0.0009
# 6 0.0058 -0.0035 0.0010 0.0348 -0.0009 14.4284
#
#
#
# Elastic Compliance Matrix: (Units=1/GPa)
#
#
# Indices 1 2 3 4 5 6 
#
# 1 0.019601 -0.004147 -0.005519 -0.000004 -0.000212 -0.000008
# 2 -0.004147 0.034459 -0.008467 0.000067 -0.000049 0.000010
# 3 -0.005519 -0.008467 0.009307 -0.000018 -0.000321 0.000000
# 4 -0.000004 0.000067 -0.000018 0.056263 0.000025 -0.000136
# 5 -0.000212 -0.000049 -0.000321 0.000025 0.048711 0.000003
# 6 -0.000008 0.000010 0.000000 -0.000136 0.000003 0.069308
#
#
# Mechanical properties :
#
#
# Convention : Reuss Voigt Hill
#
# Bulk Modulus (GPa) = 36.90030 69.69543 53.29787
# Shear Modulus (GPa) = 17.67100 21.91688 19.79394
#
# Velocity S-wave (km/s) = 3.19943 3.56313 3.38616
# Velocity P-wave (km/s) = 5.91809 7.56971 6.79428
#
# Compressibility (1/GPa) = 0.02710005
#
# Stress axis : x y z
#
# Youngs Moduli (GPa) = 51.01755 29.02022 107.44555
#
# Poissons Ratio (x) = 0.12034 0.59304
# Poissons Ratio (y) = 0.21155 0.90977
# Poissons Ratio (z) = 0.28159 0.24572
#
# Static dielectric constant tensor:
#      x y z
#    x 3.286990 0.000010 0.014110 
#    y 0.000010 2.751550 0.000090 
#    z 0.014110 0.000090 4.303010 
# 
# 
# High freq. dielectric constant tensor:
#      x y z
#    x 1.672570 0.000000 0.000380 
#    y 0.000000 1.602780 0.000000 
#    z 0.000380 0.000000 1.696150 
# 
# From -- ./inp_files/301461.got.cif
#   From: 2010.06.25/outbox.cif.g09.slc.cpg/sg12_151_cif.got.tgz:301461.got - 2010.06.28 00:19:55.
