data_PCOD8116119
_publ_section_title
;
Structure prediction by ZEFSAII (Michael W. Deem and Ramdas Pophale) SiO2 
 PCOD8116119
Probable space group: C 2/M
;
_chemical_formula_sum "Si O2"
_cell_formula_units_Z 32
_cell_length_a 19.522216
_cell_length_b 12.197795
_cell_length_c 9.929026
_cell_angle_alpha 90.000000
_cell_angle_beta 119.787428
_cell_angle_gamma 90.000000
_cell_volume 2051.984187
_symmetry_space_group_name_H-M "C 2/M"
_symmetry_group_IT_number 12
_symmetry_cell_setting 'monoclinic'
loop_
_space_group_symop_operation_xyz
x,y,z
-x,y,-z
-x,-y,-z
x,-y,z
1/2+x,1/2+y,z
1/2-x,1/2+y,-z
1/2-x,1/2-y,-z
1/2+x,1/2-y,z
loop_
_atom_site_type_symbol
_atom_site_label
_atom_site_fract_x
_atom_site_fract_y
_atom_site_fract_z
Si Si1 0.537909 0.000000 0.829789
Si Si2 0.372520 0.000000 0.820876
Si Si3 0.832584 0.289271 0.637030
Si Si4 0.454694 0.375788 0.816982
Si Si5 0.515040 0.207539 0.360960
O O1 0.457939 0.000000 0.836621
O O2 0.541031 0.892948 0.738135
O O3 0.613259 0.000000 0.003886
O O4 0.323036 0.892517 0.728455
O O5 0.750000 0.250000 0.500000
O O6 0.871173 0.186752 0.755247
O O7 0.892118 0.322725 0.572589
O O8 0.439263 0.500000 0.756365
O O9 0.505751 0.314108 0.750896
O O10 0.500000 0.369284 0.000000
O O11 0.500000 0.237507 0.500000
#
# Coordination Sequence:
#
# PCOD8116119 Si02
#       5
#     4   4   8   8   8
#     4   9  15  28  50  72  92 116 161 195 227 283
#     4   9  16  28  50  70  92 124 157 191 233 274
#     4   9  19  29  48  73  94 121 156 196 233 275
#     4   9  18  31  49  69  93 128 165 190 222 280
#     4   9  18  29  48  75  94 120 154 198 237 272
#
# _framework density 15.594661
#
# number of rings (size 3 to 8) (size 9 to 14) (size 15 to 20)
#    1.500    1.500    0.000    1.875    1.750    0.500 
#    0.000    0.000    0.000    6.000    0.000    0.000 
#    0.000    0.000    0.000    0.000    0.000    0.000 
#
# Total GULP energy -198221.194170 kJ/mol
# GULP energy per Si atom -12388.824636 kJ/mol
# Density = 1.555917 g / cm^3
# Si number density = 15.594661 Si / 1000 Ang^3
#
#
#
# Elastic Constant Matrix: (Units=GPa)
#
#
# Indices 1 2 3 4 5 6 
#
# 1 36.0808 22.7077 37.0344 0.0000 3.1751 0.0000
# 2 22.7077 162.3927 71.3548 0.0000 4.1741 0.0000
# 3 37.0344 71.3548 110.8723 0.0000 2.2375 0.0000
# 4 0.0000 0.0000 0.0000 29.3048 0.0000 8.4035
# 5 3.1751 4.1741 2.2375 0.0000 30.6280 0.0000
# 6 0.0000 0.0000 0.0000 8.4035 0.0000 8.2944
#
#
#
# Elastic Compliance Matrix: (Units=1/GPa)
#
#
# Indices 1 2 3 4 5 6 
#
# 1 0.042550 0.000492 -0.014460 0.000000 -0.003422 0.000000
# 2 0.000492 0.008610 -0.005689 0.000000 -0.000809 0.000000
# 3 -0.014460 -0.005689 0.017491 0.000000 0.000997 0.000000
# 4 0.000000 0.000000 0.000000 0.048098 0.000000 -0.048731
# 5 -0.003422 -0.000809 0.000997 0.000000 0.033042 0.000000
# 6 0.000000 0.000000 0.000000 -0.048731 0.000000 0.169936
#
#
# Mechanical properties :
#
#
# Convention : Reuss Voigt Hill
#
# Bulk Modulus (GPa) = 34.08863 63.50439 48.79651
# Shear Modulus (GPa) = 13.55680 25.52868 19.54274
#
# Velocity S-wave (km/s) = 2.95163 4.05039 3.54385
# Velocity P-wave (km/s) = 5.78988 7.91736 6.93568
#
# Compressibility (1/GPa) = 0.02933529
#
# Stress axis : x y z
#
# Youngs Moduli (GPa) = 23.50202 116.14929 57.17333
#
# Poissons Ratio (x) = -0.05714 0.82674
# Poissons Ratio (y) = -0.01156 0.32526
# Poissons Ratio (z) = 0.33985 0.66077
#
# Static dielectric constant tensor:
#      x y z
#    x 3.619220 0.000000 0.634190 
#    y 0.000000 3.235710 0.000000 
#    z 0.634190 0.000000 3.198250 
# 
# 
# High freq. dielectric constant tensor:
#      x y z
#    x 1.537630 0.000000 0.002490 
#    y 0.000000 1.613790 0.000000 
#    z 0.002490 0.000000 1.598890 
# 
# From -- ./inp_files/82484.got.cif
#   From: 2010.06.25/outbox.cif.g09.slc.cpg/sg12_42_cif.got.tgz:82484.got - 2010.06.28 00:19:55.
