data_PCOD8116904
_publ_section_title
;
Structure prediction by ZEFSAII (Michael W. Deem and Ramdas Pophale) SiO2 
 PCOD8116904
Probable space group: P 2/C
;
_chemical_formula_sum "Si O2"
_cell_formula_units_Z 30
_cell_length_a 23.246763
_cell_length_b 8.913344
_cell_length_c 30.651560
_cell_angle_alpha 90.000000
_cell_angle_beta 164.365785
_cell_angle_gamma 90.000000
_cell_volume 1711.616058
_symmetry_space_group_name_H-M "P 2/C"
_symmetry_group_IT_number 13
_symmetry_cell_setting 'monoclinic'
loop_
_space_group_symop_operation_xyz
x,y,z
-x,y,1/2-z
-x,-y,-z
x,-y,1/2+z
loop_
_atom_site_type_symbol
_atom_site_label
_atom_site_fract_x
_atom_site_fract_y
_atom_site_fract_z
Si Si1 0.629433 0.439633 0.948089
Si Si2 0.235890 0.143612 0.601836
Si Si3 0.057741 0.823376 0.469001
Si Si4 0.723353 0.845758 0.466551
Si Si5 0.169159 0.634724 0.129757
Si Si6 0.510234 0.693047 0.707507
Si Si7 0.000000 0.647810 0.250000
Si Si8 0.096611 0.845569 0.396017
O O1 0.747826 0.288049 0.019270
O O2 0.412302 0.418158 0.817225
O O3 0.545864 0.520144 0.842804
O O4 0.794027 0.541483 0.094924
O O5 0.219449 0.207692 0.540631
O O6 0.479718 0.093257 0.789716
O O7 0.156605 0.273669 0.575549
O O8 0.081873 0.000237 0.495589
O O9 0.254199 0.736126 0.635586
O O10 0.033803 0.796640 0.399415
O O11 0.863990 0.747468 0.353449
O O12 0.896121 0.974723 0.605257
O O13 0.000000 0.500000 0.000000
O O14 0.500000 0.733336 0.750000
O O15 0.334360 0.795306 0.555758
O O16 0.946540 0.755962 0.252430
#
# Coordination Sequence:
#
# PCOD8116904 Si02
#       8
#     4   4   4   4   4   4   2   4
#     4  10  21  33  50  77 109 135 175 218 259 310
#     4   9  18  30  51  80 112 135 168 213 271 322
#     4  10  17  32  49  76 109 137 169 209 267 318
#     4   9  17  31  54  80 102 132 174 227 267 295
#     4  11  21  30  48  80 114 143 167 205 271 332
#     4   9  16  27  49  74 101 132 164 212 265 305
#     4  10  22  38  52  74 100 140 186 220 258 296
#     4   9  18  33  54  72  96 137 180 222 252 303
#
# _framework density 17.527294000000001
#
# number of rings (size 3 to 8) (size 9 to 14) (size 15 to 20)
#    0.000    2.400    2.667    0.400    3.733    1.600 
#    0.000    0.667    0.000    0.000    0.000    7.467 
#    0.000    0.000    0.000    0.000    0.000    0.000 
#
# Total GULP energy -371676.386538 kJ/mol
# GULP energy per Si atom -12389.212885 kJ/mol
# Density = 1.748740 g / cm^3
# Si number density = 17.527294 Si / 1000 Ang^3
#
#
#
# Elastic Constant Matrix: (Units=GPa)
#
#
# Indices 1 2 3 4 5 6 
#
# 1 94.4591 58.9396 42.1089 0.0000 2.2558 0.0000
# 2 58.9396 108.5648 47.4720 0.0000 -1.7451 0.0000
# 3 42.1089 47.4720 68.0298 0.0000 -3.8446 0.0000
# 4 0.0000 0.0000 0.0000 30.1613 0.0000 0.0962
# 5 2.2558 -1.7451 -3.8446 0.0000 21.7436 0.0000
# 6 0.0000 0.0000 0.0000 0.0962 0.0000 34.1848
#
#
#
# Elastic Compliance Matrix: (Units=1/GPa)
#
#
# Indices 1 2 3 4 5 6 
#
# 1 0.017867 -0.006956 -0.006406 0.000000 -0.003545 0.000000
# 2 -0.006956 0.015971 -0.006794 0.000000 0.000802 0.000000
# 3 -0.006406 -0.006794 0.023648 0.000000 0.004301 0.000000
# 4 0.000000 0.000000 0.000000 0.033155 0.000000 -0.000093
# 5 -0.003545 0.000802 0.004301 0.000000 0.047183 0.000000
# 6 0.000000 0.000000 0.000000 -0.000093 0.000000 0.029253
#
#
# Mechanical properties :
#
#
# Convention : Reuss Voigt Hill
#
# Bulk Modulus (GPa) = 58.22275 63.12165 60.67220
# Shear Modulus (GPa) = 23.46154 25.38680 24.42417
#
# Velocity S-wave (km/s) = 3.66262 3.80993 3.73700
# Velocity P-wave (km/s) = 7.15380 7.44618 7.30145
#
# Compressibility (1/GPa) = 0.01717542
#
# Stress axis : x y z
#
# Youngs Moduli (GPa) = 55.96854 62.61278 42.28622
#
# Poissons Ratio (x) = 0.43554 0.27087
# Poissons Ratio (y) = 0.38932 0.28729
# Poissons Ratio (z) = 0.35852 0.42539
#
# Static dielectric constant tensor:
#      x y z
#    x 3.203520 0.000000 0.062940 
#    y 0.000000 3.378620 0.000000 
#    z 0.062940 0.000000 3.165140 
# 
# 
# High freq. dielectric constant tensor:
#      x y z
#    x 1.664800 0.000000 0.003640 
#    y 0.000000 1.693000 0.000000 
#    z 0.003640 0.000000 1.640690 
# 
# From -- ./inp_files/93540.got.cif
#   From: 2010.06.25/outbox.cif.g09.slc.cpg/sg13_47_cif.got.tgz:93540.got - 2010.06.28 04:50:58.
