data_PCOD8116202
_publ_section_title
;
Structure prediction by ZEFSAII (Michael W. Deem and Ramdas Pophale) SiO2 
 PCOD8116202
Probable space group: C 2/M
;
_chemical_formula_sum "Si O2"
_cell_formula_units_Z 32
_cell_length_a 24.000000
_cell_length_b 9.000000
_cell_length_c 30.000000
_cell_angle_alpha 90.000000
_cell_angle_beta 30.000000
_cell_angle_gamma 90.000000
_cell_volume 3240.000000
_symmetry_space_group_name_H-M "C 2/M"
_symmetry_group_IT_number 12
_symmetry_cell_setting 'monoclinic'
loop_
_space_group_symop_operation_xyz
x,y,z
-x,y,-z
-x,-y,-z
x,-y,z
1/2+x,1/2+y,z
1/2-x,1/2+y,-z
1/2-x,1/2-y,-z
1/2+x,1/2-y,z
loop_
_atom_site_type_symbol
_atom_site_label
_atom_site_fract_x
_atom_site_fract_y
_atom_site_fract_z
Si Si1 0.297167 0.174243 0.099784
Si Si2 0.735430 0.328129 0.380061
Si Si3 0.467797 0.323698 0.225587
Si Si4 0.142107 0.826025 0.853632
Si Si5 0.458400 0.674815 0.729468
Si Si6 0.550371 0.675696 0.574021
Si Si7 0.435673 0.325563 0.934315
Si Si8 0.662857 0.671632 0.332245
O O1 0.366163 0.247134 0.092493
O O2 0.167788 0.213766 0.195704
O O3 0.319420 0.000000 0.084732
O O4 0.331382 0.238740 0.027697
O O5 0.769428 0.500000 0.361953
O O6 0.843960 0.229038 0.301584
O O7 0.665937 0.271767 0.471487
O O8 0.662587 0.306195 0.385751
O O9 0.467586 0.500000 0.226879
O O10 0.509358 0.256458 0.244387
O O11 0.544145 0.271100 0.130776
O O12 0.248225 0.775605 0.752632
O O13 0.038352 0.782073 0.894850
O O14 0.147391 0.000000 0.859377
O O15 0.475738 0.500000 0.721111
O O16 0.533360 0.739773 0.636341
O O17 0.548419 0.500000 0.578779
O O18 0.454316 0.725509 0.606430
O O19 0.411457 0.500000 0.952047
O O20 0.688140 0.500000 0.302272
#
# Coordination Sequence:
#
# PCOD8116202 Si02
#       8
#     8   8   8   8   8   8   8   8
#     4  11  22  37  59  86 109 139 184 231 272 321
#     4  10  20  33  56  86 113 142 183 231 274 319
#     4  10  21  39  58  76 108 152 188 222 272 329
#     4  11  21  35  56  82 113 148 178 215 275 336
#     4   9  19  36  58  80 106 145 189 227 271 325
#     4   9  17  33  56  83 113 144 180 226 278 325
#     4  10  22  38  55  79 112 148 180 218 276 336
#     4  10  18  32  56  83 111 145 183 224 272 325
#
# _framework density 9.8765429999999999
#
# number of rings (size 3 to 8) (size 9 to 14) (size 15 to 20)
#    0.000    2.000    2.500    1.500    0.000    5.500 
#    0.000    1.875    0.000    1.500    0.000    0.000 
#    0.000    0.000    0.000    0.000    0.000    0.000 
#
# Total GULP energy -396708.459798 kJ/mol
# GULP energy per Si atom -12397.139369 kJ/mol
# Density = 0.985406 g / cm^3
# Si number density = 9.876543 Si / 1000 Ang^3
#
#
#
# Elastic Constant Matrix: (Units=GPa)
#
#
# Indices 1 2 3 4 5 6 
#
# 1 114.2415 21.9881 28.5640 -0.0339 36.9993 0.0164
# 2 21.9881 21.9782 17.2421 -0.0220 6.3926 -0.0282
# 3 28.5640 17.2421 98.1581 0.0087 40.9622 -0.0365
# 4 -0.0339 -0.0220 0.0087 22.9017 -0.0053 5.9312
# 5 36.9993 6.3926 40.9622 -0.0053 37.4498 0.0035
# 6 0.0164 -0.0282 -0.0365 5.9312 0.0035 18.4032
#
#
#
# Elastic Compliance Matrix: (Units=1/GPa)
#
#
# Indices 1 2 3 4 5 6 
#
# 1 0.017247 -0.016373 0.006994 0.000009 -0.021895 -0.000025
# 2 -0.016373 0.068404 -0.016795 0.000035 0.022870 0.000071
# 3 0.006994 -0.016795 0.023530 -0.000029 -0.029780 0.000030
# 4 0.000009 0.000035 -0.000029 0.047642 0.000026 -0.015355
# 5 -0.021895 0.022870 -0.029780 0.000026 0.077003 -0.000027
# 6 -0.000025 0.000071 0.000030 -0.015355 -0.000027 0.059287
#
#
# Mechanical properties :
#
#
# Convention : Reuss Voigt Hill
#
# Bulk Modulus (GPa) = 17.59547 41.10736 29.35142
# Shear Modulus (GPa) = 13.72101 26.85650 20.28875
#
# Velocity S-wave (km/s) = 2.63843 3.69129 3.20835
# Velocity P-wave (km/s) = 4.26718 6.24686 5.34940
#
# Compressibility (1/GPa) = 0.05683280
#
# Stress axis : x y z
#
# Youngs Moduli (GPa) = 57.98093 14.61903 42.49926
#
# Poissons Ratio (x) = 0.23936 -0.29724
# Poissons Ratio (y) = 0.94934 0.71376
# Poissons Ratio (z) = -0.40552 0.24552
#
# Static dielectric constant tensor:
#      x y z
#    x 3.945670 -0.000130 0.385430 
#    y -0.000130 3.256250 -0.000010 
#    z 0.385430 -0.000010 3.803850 
# 
# 
# High freq. dielectric constant tensor:
#      x y z
#    x 1.780100 -0.000010 0.023150 
#    y -0.000010 1.735490 0.000000 
#    z 0.023150 0.000000 1.779360 
# 
# From -- ./inp_files/238635.got.cif
#   From: 2010.06.25/outbox.ucp.g09.slc.cvg/sg12_120_cif.got.tgz:238635.got - 2010.06.28 13:50:54.
