data_PCOD8116930
_publ_section_title
;
Structure prediction by ZEFSAII (Michael W. Deem and Ramdas Pophale) SiO2 
 PCOD8116930
Probable space group: P 2/C
;
_chemical_formula_sum "Si O2"
_cell_formula_units_Z 28
_cell_length_a 32.993842
_cell_length_b 8.946229
_cell_length_c 33.394797
_cell_angle_alpha 90.000000
_cell_angle_beta 171.112476
_cell_angle_gamma 90.000000
_cell_volume 1522.884128
_symmetry_space_group_name_H-M "P 2/C"
_symmetry_group_IT_number 13
_symmetry_cell_setting 'monoclinic'
loop_
_space_group_symop_operation_xyz
x,y,z
-x,y,1/2-z
-x,-y,-z
x,-y,1/2+z
loop_
_atom_site_type_symbol
_atom_site_label
_atom_site_fract_x
_atom_site_fract_y
_atom_site_fract_z
Si Si1 0.198347 0.240565 0.250011
Si Si2 0.087570 0.228147 0.749999
Si Si3 0.587287 0.435518 0.249998
Si Si4 0.171557 0.098808 0.750000
Si Si5 0.500000 0.431224 0.250000
Si Si6 0.669268 0.587658 0.250011
Si Si7 0.294154 0.261292 0.250000
Si Si8 0.000000 0.770314 0.250000
O O1 0.430761 0.318770 0.500258
O O2 0.246270 0.251805 0.250014
O O3 0.185442 0.069905 0.250004
O O4 0.930275 0.318778 0.999773
O O5 0.122542 0.103522 0.749993
O O6 0.842793 0.332022 0.500093
O O7 0.043365 0.141904 0.750002
O O8 0.342607 0.332021 0.999906
O O9 0.542961 0.520050 0.249992
O O10 0.620982 0.563428 0.250005
O O11 0.939758 0.181933 0.501181
O O12 0.437393 0.181940 0.998818
O O13 0.749533 0.329848 0.499532
O O14 0.693409 0.433337 0.250006
#
# Coordination Sequence:
#
# PCOD8116930 Si02
#       8
#     4   4   4   4   2   4   4   2
#     4  12  26  38  55  85 117 149 187 234 291 325
#     4  10  17  33  53  83 104 140 180 226 274 323
#     4  10  18  33  56  81 110 138 186 223 278 321
#     4  12  22  39  60  81 112 147 190 235 277 337
#     4   8  16  28  50  82 106 134 172 236 264 316
#     4  12  22  39  58  82 114 148 185 235 278 339
#     4  12  23  41  60  80 107 154 198 237 269 329
#     4   8  16  26  50  78 110 126 172 232 270 312
#
# _framework density 18.386167
#
# number of rings (size 3 to 8) (size 9 to 14) (size 15 to 20)
#    0.000    1.143    2.857    5.143    0.000    0.000 
#    0.000    0.000    0.000    1.714    0.000    0.000 
#    0.000    0.000    0.000    0.000    0.000    0.000 
#
# Total GULP energy -347031.930120 kJ/mol
# GULP energy per Si atom -12393.997504 kJ/mol
# Density = 1.834432 g / cm^3
# Si number density = 18.386167 Si / 1000 Ang^3
#
#
#
# Elastic Constant Matrix: (Units=GPa)
#
#
# Indices 1 2 3 4 5 6 
#
# 1 303.8736 140.8826 96.1230 0.0000 -6.7991 0.0000
# 2 140.8826 197.4126 107.2050 0.0000 -1.5553 0.0000
# 3 96.1230 107.2050 198.5362 0.0000 1.9385 0.0000
# 4 0.0000 0.0000 0.0000 27.0355 0.0000 0.7077
# 5 -6.7991 -1.5553 1.9385 0.0000 30.5924 0.0000
# 6 0.0000 0.0000 0.0000 0.7077 0.0000 11.6615
#
#
#
# Elastic Compliance Matrix: (Units=1/GPa)
#
#
# Indices 1 2 3 4 5 6 
#
# 1 0.005016 -0.003180 -0.000721 0.000000 0.000999 0.000000
# 2 -0.003180 0.009195 -0.003425 0.000000 -0.000022 0.000000
# 3 -0.000721 -0.003425 0.007243 0.000000 -0.000793 0.000000
# 4 0.000000 0.000000 0.000000 0.037047 0.000000 -0.002248
# 5 0.000999 -0.000022 -0.000793 0.000000 0.032959 0.000000
# 6 0.000000 0.000000 0.000000 -0.002248 0.000000 0.085889
#
#
# Mechanical properties :
#
#
# Convention : Reuss Voigt Hill
#
# Bulk Modulus (GPa) = 147.02950 154.24927 150.63939
# Shear Modulus (GPa) = 25.73767 37.56532 31.65149
#
# Velocity S-wave (km/s) = 3.74550 4.52500 4.15358
# Velocity P-wave (km/s) = 9.94214 10.55354 10.25240
#
# Compressibility (1/GPa) = 0.00680136
#
# Stress axis : x y z
#
# Youngs Moduli (GPa) = 199.38059 108.75823 138.06107
#
# Poissons Ratio (x) = 0.34584 0.09954
# Poissons Ratio (y) = 0.63401 0.47288
# Poissons Ratio (z) = 0.14375 0.37251
#
# Static dielectric constant tensor:
#      x y z
#    x 4.314500 0.000000 -0.028340 
#    y 0.000000 3.019980 0.000000 
#    z -0.028340 0.000000 3.700160 
# 
# 
# High freq. dielectric constant tensor:
#      x y z
#    x 1.747790 0.000000 0.000040 
#    y 0.000000 1.665260 0.000000 
#    z 0.000040 0.000000 1.748560 
# 
# From -- ./inp_files/97998.got.cif
#   From: 2010.06.25/outbox.cif.g09.slc.cpg/sg13_49_cif.got.tgz:97998.got - 2010.06.28 04:50:58.
