data_PCOD8116212
_publ_section_title
;
Structure prediction by ZEFSAII (Michael W. Deem and Ramdas Pophale) SiO2 
 PCOD8116212
Probable space group: C 2/M
;
_chemical_formula_sum "Si O2"
_cell_formula_units_Z 32
_cell_length_a 18.000000
_cell_length_b 9.000000
_cell_length_c 30.000000
_cell_angle_alpha 90.000000
_cell_angle_beta 40.000000
_cell_angle_gamma 90.000000
_cell_volume 3123.947783
_symmetry_space_group_name_H-M "C 2/M"
_symmetry_group_IT_number 12
_symmetry_cell_setting 'monoclinic'
loop_
_space_group_symop_operation_xyz
x,y,z
-x,y,-z
-x,-y,-z
x,-y,z
1/2+x,1/2+y,z
1/2-x,1/2+y,-z
1/2-x,1/2-y,-z
1/2+x,1/2-y,z
loop_
_atom_site_type_symbol
_atom_site_label
_atom_site_fract_x
_atom_site_fract_y
_atom_site_fract_z
Si Si1 0.527873 0.325096 0.796134
Si Si2 0.871905 0.822888 0.436210
Si Si3 0.470632 0.332800 0.299666
Si Si4 0.219732 0.835073 0.208054
Si Si5 0.042461 0.323446 0.933935
Si Si6 0.521844 0.171145 0.440499
Si Si7 0.870645 0.675259 0.935123
Si Si8 0.724834 0.833343 0.288998
O O1 0.496837 0.500000 0.807760
O O2 0.568346 0.261346 0.729130
O O3 0.420544 0.235457 0.865539
O O4 0.640602 0.293354 0.773257
O O5 0.750000 0.750000 0.500000
O O6 0.922199 0.754841 0.366441
O O7 0.953176 0.775190 0.438868
O O8 0.863457 0.000000 0.439463
O O9 0.423726 0.500000 0.324434
O O10 0.608911 0.330953 0.227682
O O11 0.330258 0.754874 0.134846
O O12 0.169743 0.767091 0.276424
O O13 0.260878 0.000000 0.200877
O O14 0.048027 0.500000 0.935985
O O15 0.955720 0.273854 0.935241
O O16 0.000000 0.253174 0.000000
O O17 0.500000 0.230601 0.500000
O O18 0.658236 0.189410 0.366494
O O19 0.480621 0.000000 0.454927
O O20 0.855257 0.500000 0.939434
O O21 0.750000 0.750000 0.000000
O O22 0.706686 0.000000 0.281167
#
# Coordination Sequence:
#
# PCOD8116212 Si02
#       8
#     8   8   8   8   8   8   8   8
#     4  10  21  38  60  85 114 151 193 233 284 347
#     4  11  23  40  61  86 119 156 198 248 299 355
#     4   9  20  36  60  86 111 150 195 237 282 342
#     4  10  18  35  60  83 109 143 189 237 278 331
#     4   9  19  34  57  84 108 141 187 230 271 325
#     4  10  22  39  61  87 118 158 200 243 294 354
#     4  11  23  39  59  84 116 151 188 236 288 342
#     4  10  20  35  58  85 115 148 186 237 292 341
#
# _framework density 10.243449
#
# number of rings (size 3 to 8) (size 9 to 14) (size 15 to 20)
#    0.000    2.000    2.500    0.750    3.500    0.250 
#    0.000    1.875    0.000    1.875    0.000    0.000 
#    0.000    0.000    0.000    0.000    0.000    0.000 
#
# Total GULP energy -396493.874715 kJ/mol
# GULP energy per Si atom -12390.433585 kJ/mol
# Density = 1.022013 g / cm^3
# Si number density = 10.243449 Si / 1000 Ang^3
#
#
#
# Elastic Constant Matrix: (Units=GPa)
#
#
# Indices 1 2 3 4 5 6 
#
# 1 50.5031 27.1817 44.1888 0.0004 15.8955 -0.0025
# 2 27.1817 43.5551 33.6576 -0.0011 -1.1864 -0.0044
# 3 44.1888 33.6576 145.3880 0.0006 7.0621 0.0003
# 4 0.0004 -0.0011 0.0006 26.2906 -0.0002 -0.2010
# 5 15.8955 -1.1864 7.0621 -0.0002 33.3662 -0.0003
# 6 -0.0025 -0.0044 0.0003 -0.2010 -0.0003 22.4020
#
#
#
# Elastic Compliance Matrix: (Units=1/GPa)
#
#
# Indices 1 2 3 4 5 6 
#
# 1 0.045252 -0.023092 -0.007397 -0.000002 -0.020813 0.000000
# 2 -0.023092 0.039935 -0.002859 0.000002 0.013026 0.000005
# 3 -0.007397 -0.002859 0.009722 0.000000 0.001365 -0.000002
# 4 -0.000002 0.000002 0.000000 0.038039 0.000001 0.000341
# 5 -0.020813 0.013026 0.001365 0.000001 0.040060 0.000001
# 6 0.000000 0.000005 -0.000002 0.000341 0.000001 0.044642
#
#
# Mechanical properties :
#
#
# Convention : Reuss Voigt Hill
#
# Bulk Modulus (GPa) = 35.44468 49.94473 42.69471
# Shear Modulus (GPa) = 17.02122 25.37295 21.19709
#
# Velocity S-wave (km/s) = 2.88555 3.52305 3.22011
# Velocity P-wave (km/s) = 5.33297 6.40163 5.89158
#
# Compressibility (1/GPa) = 0.02821298
#
# Stress axis : x y z
#
# Youngs Moduli (GPa) = 22.09833 25.04083 102.85911
#
# Poissons Ratio (x) = 0.57824 0.76086
# Poissons Ratio (y) = 0.51029 0.29410
# Poissons Ratio (z) = 0.16346 0.07160
#
# Static dielectric constant tensor:
#      x y z
#    x 3.216580 0.000030 0.582690 
#    y 0.000030 3.312280 -0.000070 
#    z 0.582690 -0.000070 3.376940 
# 
# 
# High freq. dielectric constant tensor:
#      x y z
#    x 1.786600 0.000000 0.000720 
#    y 0.000000 1.757160 0.000000 
#    z 0.000720 0.000000 1.818260 
# 
# From -- ./inp_files/346056.got.cif
#   From: 2010.06.25/outbox.ucp.g09.slc.cvg/sg12_174_cif.got.tgz:346056.got - 2010.06.28 13:50:54.
