data_PCOD8116861
_publ_section_title
;
Structure prediction by ZEFSAII (Michael W. Deem and Ramdas Pophale) SiO2 
 PCOD8116861
Probable space group: P 2/C
;
_chemical_formula_sum "Si O2"
_cell_formula_units_Z 32
_cell_length_a 12.428398
_cell_length_b 8.749217
_cell_length_c 29.148471
_cell_angle_alpha 90.000000
_cell_angle_beta 148.513314
_cell_angle_gamma 90.000000
_cell_volume 1655.466871
_symmetry_space_group_name_H-M "P 2/C"
_symmetry_group_IT_number 13
_symmetry_cell_setting 'monoclinic'
loop_
_space_group_symop_operation_xyz
x,y,z
-x,y,1/2-z
-x,-y,-z
x,-y,1/2+z
loop_
_atom_site_type_symbol
_atom_site_label
_atom_site_fract_x
_atom_site_fract_y
_atom_site_fract_z
Si Si1 0.459823 0.067164 0.595649
Si Si2 0.378135 0.568714 0.250012
Si Si3 0.309393 0.066964 0.904635
Si Si4 0.915243 0.430987 0.593058
Si Si5 0.543205 0.431342 0.907023
Si Si6 0.380291 0.932960 0.250170
Si Si7 0.206161 0.597464 0.353072
Si Si8 0.923465 0.066793 0.596123
O O1 0.659096 0.014663 0.636876
O O2 0.444473 0.249222 0.588815
O O3 0.503645 0.005292 0.662411
O O4 0.244744 0.000242 0.499732
O O5 0.500000 0.504321 0.250000
O O6 0.487510 0.508259 0.336009
O O7 0.379260 0.751095 0.250040
O O8 0.143458 0.508375 0.163981
O O9 0.319926 0.249255 0.909939
O O10 0.111528 0.014453 0.862884
O O11 0.500000 0.000000 0.000000
O O12 0.762782 0.499523 0.499971
O O13 0.851118 0.491962 0.620812
O O14 0.911500 0.248841 0.589251
O O15 0.367825 0.492045 0.879163
O O16 0.500000 0.999835 0.250000
O O17 0.146826 0.995105 0.163062
O O18 0.000000 0.637503 0.250000
#
# Coordination Sequence:
#
# PCOD8116861 Si02
#       8
#     4   4   4   4   4   4   4   4
#     4   9  18  32  50  73  99 126 159 199 244 289
#     4   9  18  33  50  72  99 129 170 208 238 291
#     4   8  16  27  46  75  98 119 155 198 237 281
#     4  10  19  32  52  76  99 129 164 206 247 291
#     4  10  19  32  52  76  99 129 164 206 247 291
#     4   9  18  31  50  72  95 127 168 202 234 283
#     4  10  17  29  52  76  98 132 169 200 242 300
#     4   9  18  32  50  73  99 126 159 199 244 289
#
# _framework density 19.329895
#
# number of rings (size 3 to 8) (size 9 to 14) (size 15 to 20)
#    0.000    2.750    1.250    0.375    5.250    1.000 
#    0.000    1.250    0.000    1.500    0.000    0.000 
#    0.000    0.000    0.000    0.000    0.000    0.000 
#
# Total GULP energy -396430.938418 kJ/mol
# GULP energy per Si atom -12388.466826 kJ/mol
# Density = 1.928590 g / cm^3
# Si number density = 19.329895 Si / 1000 Ang^3
#
#
#
# Elastic Constant Matrix: (Units=GPa)
#
#
# Indices 1 2 3 4 5 6 
#
# 1 211.2539 14.4217 99.5789 0.0000 3.8687 0.0000
# 2 14.4217 13.3126 23.0344 0.0000 -0.4823 0.0000
# 3 99.5789 23.0344 158.8950 0.0000 0.6402 0.0000
# 4 0.0000 0.0000 0.0000 25.8396 0.0000 -1.1592
# 5 3.8687 -0.4823 0.6402 0.0000 30.8006 0.0000
# 6 0.0000 0.0000 0.0000 -1.1592 0.0000 8.8081
#
#
#
# Elastic Compliance Matrix: (Units=1/GPa)
#
#
# Indices 1 2 3 4 5 6 
#
# 1 0.006736 -0.000034 -0.004213 0.000000 -0.000759 0.000000
# 2 -0.000034 0.100375 -0.014537 0.000000 0.001878 0.000000
# 3 -0.004213 -0.014537 0.011041 0.000000 0.000072 0.000000
# 4 0.000000 0.000000 0.000000 0.038930 0.000000 0.005123
# 5 -0.000759 0.001878 0.000072 0.000000 0.032590 0.000000
# 6 0.000000 0.000000 0.000000 0.005123 0.000000 0.114206
#
#
# Mechanical properties :
#
#
# Convention : Reuss Voigt Hill
#
# Bulk Modulus (GPa) = 12.40963 73.05907 42.73435
# Shear Modulus (GPa) = 13.57557 29.51808 21.54682
#
# Velocity S-wave (km/s) = 2.65299 3.91201 3.34232
# Velocity P-wave (km/s) = 3.97722 7.63433 6.08693
#
# Compressibility (1/GPa) = 0.08058260
#
# Stress axis : x y z
#
# Youngs Moduli (GPa) = 148.45749 9.96263 90.57128
#
# Poissons Ratio (x) = 0.00034 0.38161
# Poissons Ratio (y) = 0.00511 1.31663
# Poissons Ratio (z) = 0.62550 0.14483
#
# Static dielectric constant tensor:
#      x y z
#    x 4.225370 0.000000 0.045870 
#    y 0.000000 2.944970 0.000000 
#    z 0.045870 0.000000 3.551630 
# 
# 
# High freq. dielectric constant tensor:
#      x y z
#    x 1.770700 0.000000 0.001130 
#    y 0.000000 1.690710 0.000000 
#    z 0.001130 0.000000 1.754060 
# 
# From -- ./inp_files/96704.got.cif
#   From: 2010.06.25/outbox.cif.g09.slc.cpg/sg13_49_cif.got.tgz:96704.got - 2010.06.28 04:50:58.
