data_PCOD8116503
_publ_section_title
;
Structure prediction by ZEFSAII (Michael W. Deem and Ramdas Pophale) SiO2 
 PCOD8116503
Probable space group: C 2/M
;
_chemical_formula_sum "Si O2"
_cell_formula_units_Z 32
_cell_length_a 18.000000
_cell_length_b 9.000000
_cell_length_c 30.000000
_cell_angle_alpha 90.000000
_cell_angle_beta 40.000000
_cell_angle_gamma 90.000000
_cell_volume 3123.947783
_symmetry_space_group_name_H-M "C 2/M"
_symmetry_group_IT_number 12
_symmetry_cell_setting 'monoclinic'
loop_
_space_group_symop_operation_xyz
x,y,z
-x,y,-z
-x,-y,-z
x,-y,z
1/2+x,1/2+y,z
1/2-x,1/2+y,-z
1/2-x,1/2-y,-z
1/2+x,1/2-y,z
loop_
_atom_site_type_symbol
_atom_site_label
_atom_site_fract_x
_atom_site_fract_y
_atom_site_fract_z
Si Si1 0.329697 0.167888 0.055905
Si Si2 0.081298 0.176001 0.681259
Si Si3 0.960432 0.167764 0.589323
Si Si4 0.098607 0.324058 0.296748
Si Si5 0.937076 0.166808 0.924781
Si Si6 0.180956 0.831965 0.435708
Si Si7 0.566823 0.330644 0.169788
Si Si8 0.675433 0.334893 0.857365
O O1 0.194828 0.181231 0.130591
O O2 0.383342 0.244873 0.074730
O O3 0.373082 0.000000 0.032922
O O4 0.362169 0.244149 0.994840
O O5 0.214325 0.217111 0.614602
O O6 0.014908 0.250307 0.671148
O O7 0.025181 0.239819 0.753244
O O8 0.065407 0.000000 0.686287
O O9 0.901238 0.277693 0.651727
O O10 0.884368 0.177580 0.580545
O O11 0.092601 0.213460 0.516069
O O12 0.959986 0.000000 0.608514
O O13 0.092969 0.500000 0.296000
O O14 0.212956 0.264034 0.218480
O O15 0.927888 0.248321 0.880985
O O16 0.073382 0.160737 0.869081
O O17 0.884416 0.000000 0.948128
O O18 0.226505 0.000000 0.422565
O O19 0.529248 0.500000 0.178628
O O20 0.706698 0.500000 0.860346
#
# Coordination Sequence:
#
# PCOD8116503 Si02
#       8
#     8   8   8   8   8   8   8   8
#     4  11  21  37  58  82 113 146 186 235 285 340
#     4  11  22  38  61  86 117 158 196 238 293 343
#     4   9  20  40  64  88 121 157 188 230 291 344
#     4  11  23  38  59  87 118 153 199 245 285 341
#     4  10  21  38  58  80 109 147 190 233 286 344
#     4   9  20  40  63  90 121 154 190 234 284 343
#     4   9  20  37  57  81 112 148 186 234 286 338
#     4  10  22  38  57  81 112 150 188 233 287 340
#
# _framework density 10.243449
#
# number of rings (size 3 to 8) (size 9 to 14) (size 15 to 20)
#    0.000    2.000    1.250    2.625    1.750    4.000 
#    0.000    3.125    0.000    0.000    0.000    0.000 
#    0.000    0.000    0.000    0.000    0.000    0.000 
#
# Total GULP energy -396671.258987 kJ/mol
# GULP energy per Si atom -12395.976843 kJ/mol
# Density = 1.022013 g / cm^3
# Si number density = 10.243449 Si / 1000 Ang^3
#
#
#
# Elastic Constant Matrix: (Units=GPa)
#
#
# Indices 1 2 3 4 5 6 
#
# 1 35.1211 14.8110 10.6045 0.0016 9.3579 0.0083
# 2 14.8110 70.9186 33.7229 0.0024 8.4239 0.0062
# 3 10.6045 33.7229 96.5971 0.0004 9.7261 0.0029
# 4 0.0016 0.0024 0.0004 31.5431 -0.0002 2.3282
# 5 9.3579 8.4239 9.7261 -0.0002 35.5929 0.0012
# 6 0.0083 0.0062 0.0029 2.3282 0.0012 21.4926
#
#
#
# Elastic Compliance Matrix: (Units=1/GPa)
#
#
# Indices 1 2 3 4 5 6 
#
# 1 0.033012 -0.005597 -0.000956 -0.000001 -0.007093 -0.000011
# 2 -0.005597 0.018068 -0.005564 -0.000001 -0.001284 -0.000002
# 3 -0.000956 -0.005564 0.012588 0.000000 -0.001872 0.000000
# 4 -0.000001 -0.000001 0.000000 0.031958 0.000001 -0.003462
# 5 -0.007093 -0.001284 -0.001872 0.000001 0.030776 0.000002
# 6 -0.000011 -0.000002 0.000000 -0.003462 0.000002 0.046903
#
#
# Mechanical properties :
#
#
# Convention : Reuss Voigt Hill
#
# Bulk Modulus (GPa) = 25.35882 35.65707 30.50795
# Shear Modulus (GPa) = 23.73230 27.29228 25.51229
#
# Velocity S-wave (km/s) = 3.40724 3.65387 3.53271
# Velocity P-wave (km/s) = 5.28053 5.93663 5.61817
#
# Compressibility (1/GPa) = 0.03943401
#
# Stress axis : x y z
#
# Youngs Moduli (GPa) = 30.29200 55.34679 79.44036
#
# Poissons Ratio (x) = 0.30979 0.07593
# Poissons Ratio (y) = 0.16955 0.44200
# Poissons Ratio (z) = 0.02895 0.30794
#
# Static dielectric constant tensor:
#      x y z
#    x 3.515500 0.000000 0.057220 
#    y 0.000000 3.604650 0.000000 
#    z 0.057220 0.000000 3.879270 
# 
# 
# High freq. dielectric constant tensor:
#      x y z
#    x 1.789990 0.000000 0.003200 
#    y 0.000000 1.777480 0.000000 
#    z 0.003200 0.000000 1.819010 
# 
# From -- ./inp_files/346116.got.cif
#   From: 2010.06.25/outbox.ucp.g09.slc.cvg/sg12_174_cif.got.tgz:346116.got - 2010.06.28 13:50:54.
