data_PCOD8116566
_publ_section_title
;
Structure prediction by ZEFSAII (Michael W. Deem and Ramdas Pophale) SiO2 
 PCOD8116566
Probable space group: C 2/M
;
_chemical_formula_sum "Si O2"
_cell_formula_units_Z 32
_cell_length_a 30.000000
_cell_length_b 9.000000
_cell_length_c 24.000000
_cell_angle_alpha 90.000000
_cell_angle_beta 30.000000
_cell_angle_gamma 90.000000
_cell_volume 3240.000000
_symmetry_space_group_name_H-M "C 2/M"
_symmetry_group_IT_number 12
_symmetry_cell_setting 'monoclinic'
loop_
_space_group_symop_operation_xyz
x,y,z
-x,y,-z
-x,-y,-z
x,-y,z
1/2+x,1/2+y,z
1/2-x,1/2+y,-z
1/2-x,1/2-y,-z
1/2+x,1/2-y,z
loop_
_atom_site_type_symbol
_atom_site_label
_atom_site_fract_x
_atom_site_fract_y
_atom_site_fract_z
Si Si1 0.429734 0.321969 0.196555
Si Si2 0.889011 0.669035 0.986715
Si Si3 0.738769 0.323316 0.953520
Si Si4 0.099401 0.826340 0.281887
Si Si5 0.279268 0.337413 0.750919
Si Si6 0.420674 0.173081 0.432277
Si Si7 0.257276 0.673641 0.317808
Si Si8 0.652937 0.174844 0.608118
O O1 0.438228 0.500000 0.187898
O O2 0.525622 0.250194 0.077387
O O3 0.352920 0.265725 0.236425
O O4 0.403600 0.260156 0.284771
O O5 0.915276 0.500000 0.941440
O O6 0.853969 0.760857 0.971367
O O7 0.806112 0.667303 0.117499
O O8 0.731979 0.500000 0.964049
O O9 0.827981 0.277109 0.825385
O O10 0.750000 0.250000 0.000000
O O11 0.126965 0.811919 0.317567
O O12 0.001060 0.766825 0.373075
O O13 0.107049 0.000000 0.255472
O O14 0.283892 0.500000 0.717015
O O15 0.261063 0.210220 0.726202
O O16 0.327173 0.236950 0.557031
O O17 0.409712 0.195588 0.378196
O O18 0.435808 0.000000 0.431085
O O19 0.259976 0.500000 0.324020
O O20 0.750000 0.250000 0.500000
O O21 0.666114 0.000000 0.606779
#
# Coordination Sequence:
#
# PCOD8116566 Si02
#       8
#     8   8   8   8   8   8   8   8
#     4  11  23  40  60  89 123 158 203 247 296 358
#     4  10  22  41  61  87 121 156 197 246 298 354
#     4  11  22  38  60  86 117 156 198 243 295 354
#     4  10  22  40  60  87 120 155 197 246 297 354
#     4   9  21  41  62  85 118 154 196 249 301 354
#     4  10  22  40  59  86 121 158 199 245 295 355
#     4  10  22  40  61  86 119 156 201 250 297 352
#     4  11  22  39  61  85 121 160 199 247 300 353
#
# _framework density 9.8765429999999999
#
# number of rings (size 3 to 8) (size 9 to 14) (size 15 to 20)
#    0.000    1.750    1.250    3.375    1.750    6.500 
#    0.000    5.000    0.000    0.000    0.000    0.000 
#    0.000    0.000    0.000    0.000    0.000    0.000 
#
# Total GULP energy -396600.402050 kJ/mol
# GULP energy per Si atom -12393.762564 kJ/mol
# Density = 0.985406 g / cm^3
# Si number density = 9.876543 Si / 1000 Ang^3
#
#
#
# Elastic Constant Matrix: (Units=GPa)
#
#
# Indices 1 2 3 4 5 6 
#
# 1 143.1421 50.2653 43.3348 0.0034 -31.9938 -0.0022
# 2 50.2653 121.3508 30.5310 -0.0174 -16.6324 0.0040
# 3 43.3348 30.5310 55.7769 -0.0106 -31.4054 0.0004
# 4 0.0034 -0.0174 -0.0106 36.3486 0.0020 -5.2174
# 5 -31.9938 -16.6324 -31.4054 0.0020 43.5523 -0.0011
# 6 -0.0022 0.0040 0.0004 -5.2174 -0.0011 39.3601
#
#
#
# Elastic Compliance Matrix: (Units=1/GPa)
#
#
# Indices 1 2 3 4 5 6 
#
# 1 0.009958 -0.002542 -0.004668 -0.000004 0.002978 0.000000
# 2 -0.002542 0.010207 -0.004156 0.000004 -0.000966 -0.000001
# 3 -0.004668 -0.004156 0.035364 0.000008 0.020485 0.000001
# 4 -0.000004 0.000004 0.000008 0.028045 0.000003 0.003717
# 5 0.002978 -0.000966 0.020485 0.000003 0.039551 0.000002
# 6 0.000000 -0.000001 0.000001 0.003717 0.000002 0.025899
#
#
# Mechanical properties :
#
#
# Convention : Reuss Voigt Hill
#
# Bulk Modulus (GPa) = 30.49155 63.17021 46.83088
# Shear Modulus (GPa) = 27.36909 36.92813 32.14861
#
# Velocity S-wave (km/s) = 3.72635 4.32845 4.03863
# Velocity P-wave (km/s) = 5.82959 7.55182 6.74589
#
# Compressibility (1/GPa) = 0.03279597
#
# Stress axis : x y z
#
# Youngs Moduli (GPa) = 100.42668 97.97520 28.27714
#
# Poissons Ratio (x) = 0.24904 0.13200
# Poissons Ratio (y) = 0.25528 0.11752
# Poissons Ratio (z) = 0.46881 0.40720
#
# Static dielectric constant tensor:
#      x y z
#    x 3.898740 -0.000020 -0.364320 
#    y -0.000020 3.824930 0.000030 
#    z -0.364320 0.000030 3.775080 
# 
# 
# High freq. dielectric constant tensor:
#      x y z
#    x 1.785950 0.000000 -0.024660 
#    y 0.000000 1.783520 0.000000 
#    z -0.024660 0.000000 1.767190 
# 
# From -- ./inp_files/353350.got.cif
#   From: 2010.06.25/outbox.ucp.g09.slc.cvg/sg12_177_cif.got.tgz:353350.got - 2010.06.28 13:50:54.
