data_PCOD8116023
_publ_section_title
;
Structure prediction by ZEFSAII (Michael W. Deem and Ramdas Pophale) SiO2 
 PCOD8116023
Probable space group: C 2/M
;
_chemical_formula_sum "Si O2"
_cell_formula_units_Z 40
_cell_length_a 19.979493
_cell_length_b 7.751786
_cell_length_c 29.036442
_cell_angle_alpha 90.000000
_cell_angle_beta 30.592888
_cell_angle_gamma 90.000000
_cell_volume 2288.714329
_symmetry_space_group_name_H-M "C 2/M"
_symmetry_group_IT_number 12
_symmetry_cell_setting 'monoclinic'
loop_
_space_group_symop_operation_xyz
x,y,z
-x,y,-z
-x,-y,-z
x,-y,z
1/2+x,1/2+y,z
1/2-x,1/2+y,-z
1/2-x,1/2-y,-z
1/2+x,1/2-y,z
loop_
_atom_site_type_symbol
_atom_site_label
_atom_site_fract_x
_atom_site_fract_y
_atom_site_fract_z
Si Si1 0.797288 0.691225 0.224982
Si Si2 0.638806 0.692598 0.224379
Si Si3 0.792781 0.000000 0.101360
Si Si4 0.397955 0.702021 0.422799
Si Si5 0.959946 0.204075 0.572826
Si Si6 0.049254 0.000000 0.897104
O O1 0.855108 0.500000 0.201468
O O2 0.722951 0.684952 0.220773
O O3 0.692390 0.748242 0.326129
O O4 0.915275 0.829483 0.153440
O O5 0.635358 0.500000 0.204054
O O6 0.492826 0.761396 0.324607
O O7 0.702859 0.828283 0.150882
O O8 0.869769 0.000000 0.103719
O O9 0.893795 0.000000 0.999001
O O10 0.416059 0.500000 0.416436
O O11 0.250000 0.750000 0.500000
O O12 0.445810 0.784094 0.443055
O O13 0.000000 0.286937 0.500000
O O14 0.979330 0.000000 0.559791
#
# Coordination Sequence:
#
# PCOD8116023 Si02
#       6
#     8   8   4   8   8   4
#     4   8  14  25  39  54  79 111 138 171 212 253
#     4   8  15  26  37  54  79 109 142 168 210 258
#     4   9  16  24  38  54  78 112 137 176 213 250
#     4   9  17  27  42  63  86 117 146 177 215 257
#     4   8  14  27  45  62  84 119 152 176 210 258
#     4   9  16  24  35  58  80 104 145 172 209 264
#
# _framework density 17.477062
#
# number of rings (size 3 to 8) (size 9 to 14) (size 15 to 20)
#    0.000    3.600    0.000    2.400    1.400    0.800 
#    1.800    4.500    0.000    0.000    0.000    0.000 
#    0.000    1.600    0.800    0.000    0.000    0.000 
#
# Total GULP energy -247800.455556 kJ/mol
# GULP energy per Si atom -12390.022778 kJ/mol
# Density = 1.743728 g / cm^3
# Si number density = 17.477062 Si / 1000 Ang^3
#
#
#
# Elastic Constant Matrix: (Units=GPa)
#
#
# Indices 1 2 3 4 5 6 
#
# 1 31.5699 17.1096 39.1038 -0.0479 1.3430 0.0308
# 2 17.1096 91.6790 75.7880 -0.0278 2.6514 -0.0192
# 3 39.1038 75.7880 174.3453 -0.0044 3.0640 -0.0058
# 4 -0.0479 -0.0278 -0.0044 31.8363 0.0111 -2.8480
# 5 1.3430 2.6514 3.0640 0.0111 18.0540 -0.0307
# 6 0.0308 -0.0192 -0.0058 -2.8480 -0.0307 6.0357
#
#
#
# Elastic Compliance Matrix: (Units=1/GPa)
#
#
# Indices 1 2 3 4 5 6 
#
# 1 0.043907 -0.000047 -0.009799 0.000045 -0.001597 -0.000221
# 2 -0.000047 0.017054 -0.007381 0.000019 -0.001248 0.000050
# 3 -0.009799 -0.007381 0.011143 -0.000017 -0.000078 0.000029
# 4 0.000045 0.000019 -0.000017 0.032795 0.000003 0.015474
# 5 -0.001597 -0.001248 -0.000078 0.000003 0.055705 0.000288
# 6 -0.000221 0.000050 0.000029 0.015474 0.000288 0.172984
#
#
# Mechanical properties :
#
#
# Convention : Reuss Voigt Hill
#
# Bulk Modulus (GPa) = 26.56044 62.39967 44.48005
# Shear Modulus (GPa) = 13.13734 22.22473 17.68104
#
# Velocity S-wave (km/s) = 2.74467 3.56989 3.18413
# Velocity P-wave (km/s) = 5.02739 7.26453 6.24692
#
# Compressibility (1/GPa) = 0.03764998
#
# Stress axis : x y z
#
# Youngs Moduli (GPa) = 22.77520 58.63691 89.73845
#
# Poissons Ratio (x) = 0.00277 0.87938
# Poissons Ratio (y) = 0.00108 0.66235
# Poissons Ratio (z) = 0.22318 0.43279
#
# Static dielectric constant tensor:
#      x y z
#    x 2.549450 -0.000030 0.259090 
#    y -0.000030 3.431150 0.000100 
#    z 0.259090 0.000100 3.430940 
# 
# 
# High freq. dielectric constant tensor:
#      x y z
#    x 1.593290 0.000000 0.004860 
#    y 0.000000 1.675490 0.000000 
#    z 0.004860 0.000000 1.679960 
# 
# From -- ./inp_files/172601.got.cif
#   From: 2010.06.25/outbox.cif.g09.slc.cpg/sg12_87_cif.got.tgz:172601.got - 2010.06.28 00:19:55.
