data_PCOD8116406
_publ_section_title
;
Structure prediction by ZEFSAII (Michael W. Deem and Ramdas Pophale) SiO2 
 PCOD8116406
Probable space group: C 2/M
;
_chemical_formula_sum "Si O2"
_cell_formula_units_Z 32
_cell_length_a 24.000000
_cell_length_b 9.000000
_cell_length_c 30.000000
_cell_angle_alpha 90.000000
_cell_angle_beta 30.000000
_cell_angle_gamma 90.000000
_cell_volume 3240.000000
_symmetry_space_group_name_H-M "C 2/M"
_symmetry_group_IT_number 12
_symmetry_cell_setting 'monoclinic'
loop_
_space_group_symop_operation_xyz
x,y,z
-x,y,-z
-x,-y,-z
x,-y,z
1/2+x,1/2+y,z
1/2-x,1/2+y,-z
1/2-x,1/2-y,-z
1/2+x,1/2-y,z
loop_
_atom_site_type_symbol
_atom_site_label
_atom_site_fract_x
_atom_site_fract_y
_atom_site_fract_z
Si Si1 0.207957 0.676267 0.483314
Si Si2 0.158540 0.176527 0.698018
Si Si3 0.586937 0.675488 0.006172
Si Si4 0.474828 0.173235 0.774747
Si Si5 0.242419 0.176311 0.052709
Si Si6 0.979421 0.671026 0.673624
Si Si7 0.238793 0.824430 0.816399
Si Si8 0.638089 0.178110 0.807179
O O1 0.226075 0.500000 0.475811
O O2 0.250000 0.750000 0.500000
O O3 0.262232 0.729385 0.398427
O O4 0.075923 0.720096 0.571931
O O5 0.179773 0.261572 0.729915
O O6 0.034630 0.226244 0.770303
O O7 0.165793 0.000000 0.700647
O O8 0.598704 0.500000 0.009806
O O9 0.644393 0.785880 0.001049
O O10 0.638096 0.704772 0.921485
O O11 0.460777 0.727417 0.100670
O O12 0.351464 0.236391 0.854996
O O13 0.529998 0.198871 0.688146
O O14 0.474943 0.000000 0.789052
O O15 0.221981 0.000000 0.064131
O O16 0.250000 0.250000 0.000000
O O17 0.955069 0.500000 0.684122
O O18 0.856894 0.740517 0.752942
O O19 0.233037 0.720749 0.776558
O O20 0.240201 0.000000 0.803405
O O21 0.616344 0.000000 0.819719
#
# Coordination Sequence:
#
# PCOD8116406 Si02
#       8
#     8   8   8   8   8   8   8   8
#     4  10  20  36  62  94 124 156 196 244 299 362
#     4  11  23  39  60  90 124 161 203 249 301 362
#     4  11  22  40  64  90 118 156 203 249 301 361
#     4  11  20  36  60  86 120 159 196 242 299 358
#     4  12  24  37  54  82 122 161 201 246 297 358
#     4   9  18  36  62  91 120 152 192 237 296 359
#     4  10  21  41  66  89 117 158 202 248 299 360
#     4  12  26  42  60  86 120 162 205 254 305 352
#
# _framework density 9.8765429999999999
#
# number of rings (size 3 to 8) (size 9 to 14) (size 15 to 20)
#    0.000    1.250    2.500    4.500    0.000    3.000 
#    0.000    1.250    0.000    3.750    0.000    0.000 
#    0.000    0.000    0.000    0.000    0.000    0.000 
#
# Total GULP energy -396420.827046 kJ/mol
# GULP energy per Si atom -12388.150845 kJ/mol
# Density = 0.985406 g / cm^3
# Si number density = 9.876543 Si / 1000 Ang^3
#
#
#
# Elastic Constant Matrix: (Units=GPa)
#
#
# Indices 1 2 3 4 5 6 
#
# 1 90.7024 41.0287 56.2128 -0.0611 17.6477 0.1023
# 2 41.0287 103.2807 27.0075 -0.0443 21.8931 0.0456
# 3 56.2128 27.0075 101.2395 0.0103 28.2231 -0.0320
# 4 -0.0611 -0.0443 0.0103 26.8743 0.0204 4.0455
# 5 17.6477 21.8931 28.2231 0.0204 23.3751 -0.0416
# 6 0.1023 0.0456 -0.0320 4.0455 -0.0416 35.1857
#
#
#
# Elastic Compliance Matrix: (Units=1/GPa)
#
#
# Indices 1 2 3 4 5 6 
#
# 1 0.019171 -0.005605 -0.009915 0.000045 0.002748 -0.000059
# 2 -0.005605 0.013721 0.002796 0.000020 -0.011995 -0.000015
# 3 -0.009915 0.002796 0.020018 -0.000014 -0.019303 0.000022
# 4 0.000045 0.000020 -0.000014 0.037866 -0.000076 -0.004354
# 5 0.002748 -0.011995 -0.019303 -0.000076 0.075247 0.000088
# 6 -0.000059 -0.000015 0.000022 -0.004354 0.000088 0.028922
#
#
# Mechanical properties :
#
#
# Convention : Reuss Voigt Hill
#
# Bulk Modulus (GPa) = 36.41612 60.41339 48.41476
# Shear Modulus (GPa) = 21.78197 28.48526 25.13361
#
# Velocity S-wave (km/s) = 3.32431 3.80157 3.57093
# Velocity P-wave (km/s) = 5.76285 7.06541 6.44711
#
# Compressibility (1/GPa) = 0.02746036
#
# Stress axis : x y z
#
# Youngs Moduli (GPa) = 52.16158 72.88310 49.95404
#
# Poissons Ratio (x) = 0.40854 0.49532
# Poissons Ratio (y) = 0.29239 -0.13967
# Poissons Ratio (z) = 0.51721 -0.20378
#
# Static dielectric constant tensor:
#      x y z
#    x 3.464920 -0.000030 0.176580 
#    y -0.000030 3.613890 0.000050 
#    z 0.176580 0.000050 3.804720 
# 
# 
# High freq. dielectric constant tensor:
#      x y z
#    x 1.767690 0.000000 0.010800 
#    y 0.000000 1.769520 0.000000 
#    z 0.010800 0.000000 1.783660 
# 
# From -- ./inp_files/238681.got.cif
#   From: 2010.06.25/outbox.ucp.g09.slc.cvg/sg12_120_cif.got.tgz:238681.got - 2010.06.28 13:50:54.
