data_PCOD8116362
_publ_section_title
;
Structure prediction by ZEFSAII (Michael W. Deem and Ramdas Pophale) SiO2 
 PCOD8116362
Probable space group: C 2/M
;
_chemical_formula_sum "Si O2"
_cell_formula_units_Z 32
_cell_length_a 18.000000
_cell_length_b 9.000000
_cell_length_c 30.000000
_cell_angle_alpha 90.000000
_cell_angle_beta 40.000000
_cell_angle_gamma 90.000000
_cell_volume 3123.947783
_symmetry_space_group_name_H-M "C 2/M"
_symmetry_group_IT_number 12
_symmetry_cell_setting 'monoclinic'
loop_
_space_group_symop_operation_xyz
x,y,z
-x,y,-z
-x,-y,-z
x,-y,z
1/2+x,1/2+y,z
1/2-x,1/2+y,-z
1/2-x,1/2-y,-z
1/2+x,1/2-y,z
loop_
_atom_site_type_symbol
_atom_site_label
_atom_site_fract_x
_atom_site_fract_y
_atom_site_fract_z
Si Si1 0.105791 0.324637 0.289312
Si Si2 0.720934 0.169279 0.844111
Si Si3 0.684752 0.824470 0.425968
Si Si4 0.010382 0.666417 0.168342
Si Si5 0.577986 0.176654 0.699069
Si Si6 0.027675 0.328703 0.065241
Si Si7 0.235398 0.834336 0.923903
Si Si8 0.023572 0.324037 0.420951
O O1 0.120761 0.500000 0.285777
O O2 0.230705 0.252754 0.221938
O O3 0.054006 0.257657 0.358773
O O4 0.022041 0.273495 0.288324
O O5 0.583298 0.184941 0.915388
O O6 0.774207 0.241773 0.863293
O O7 0.759428 0.000000 0.822680
O O8 0.804601 0.740313 0.374476
O O9 0.620527 0.769327 0.410879
O O10 0.604797 0.774993 0.504580
O O11 0.706727 0.000000 0.415420
O O12 0.961687 0.500000 0.193114
O O13 0.978325 0.735879 0.135201
O O14 0.149045 0.665230 0.100653
O O15 0.953898 0.746592 0.237471
O O16 0.584984 0.000000 0.697413
O O17 0.068153 0.500000 0.051169
O O18 0.132506 0.233589 0.999465
O O19 0.199079 0.000000 0.925969
O O20 0.025635 0.500000 0.419293
#
# Coordination Sequence:
#
# PCOD8116362 Si02
#       8
#     8   8   8   8   8   8   8   8
#     4  10  20  37  58  78 106 147 187 222 266 320
#     4  11  23  37  55  81 111 143 178 223 277 323
#     4   9  18  35  57  83 112 144 181 221 267 319
#     4   9  19  37  56  77 109 146 179 218 273 325
#     4  10  20  35  55  79 110 146 181 222 272 319
#     4  10  22  38  56  79 109 143 179 224 277 324
#     4  11  21  38  61  81 106 143 183 223 268 324
#     4   8  17  35  58  81 111 147 180 220 269 317
#
# _framework density 10.243449
#
# number of rings (size 3 to 8) (size 9 to 14) (size 15 to 20)
#    0.000    2.250    1.250    2.250    1.750    3.500 
#    0.000    3.125    0.000    0.000    0.000    0.000 
#    0.000    0.000    0.000    0.000    0.000    0.000 
#
# Total GULP energy -396552.031589 kJ/mol
# GULP energy per Si atom -12392.250987 kJ/mol
# Density = 1.022013 g / cm^3
# Si number density = 10.243449 Si / 1000 Ang^3
#
#
#
# Elastic Constant Matrix: (Units=GPa)
#
#
# Indices 1 2 3 4 5 6 
#
# 1 23.2271 16.7330 13.1696 0.0003 4.1059 0.0024
# 2 16.7330 13.0243 18.8771 0.0010 -1.2874 0.0021
# 3 13.1696 18.8771 110.6513 -0.0003 2.7715 -0.0007
# 4 0.0003 0.0010 -0.0003 36.0111 -0.0001 -5.7307
# 5 4.1059 -1.2874 2.7715 -0.0001 30.5916 0.0009
# 6 0.0024 0.0021 -0.0007 -5.7307 0.0009 11.3744
#
#
#
# Elastic Compliance Matrix: (Units=1/GPa)
#
#
# Indices 1 2 3 4 5 6 
#
# 1 -0.916235 1.388555 -0.132683 -0.000051 0.193429 -0.000112
# 2 1.388555 -2.001290 0.183350 0.000071 -0.287198 0.000145
# 3 -0.132683 0.183350 -0.007106 -0.000006 0.026168 -0.000011
# 4 -0.000051 0.000071 -0.000006 0.030190 0.000010 0.015210
# 5 0.193429 -0.287198 0.026168 0.000010 -0.007729 0.000019
# 6 -0.000112 0.000145 -0.000011 0.015210 0.000019 0.095580
#
#
# Mechanical properties :
#
#
# Convention : Reuss Voigt Hill
#
# Bulk Modulus (GPa) = -21.65088 27.16244 2.75578
# Shear Modulus (GPa) = -0.87713 22.13696 10.62992
#
# Velocity S-wave (km/s) = -0.65503 3.29073 2.28033
# Velocity P-wave (km/s) = 3.34114 5.26552 2.87772
#
# Compressibility (1/GPa) = -0.04618749
#
# Stress axis : x y z
#
# Youngs Moduli (GPa) = -1.09142 -0.49968 -140.73271
#
# Poissons Ratio (x) = 0.69383 -18.67288
# Poissons Ratio (y) = 1.51550 25.80327
# Poissons Ratio (z) = -0.14481 0.09162
#
# Static dielectric constant tensor:
#      x y z
#    x 3.656790 0.000000 0.264460 
#    y 0.000000 3.299140 0.000000 
#    z 0.264460 0.000000 4.037260 
# 
# 
# High freq. dielectric constant tensor:
#      x y z
#    x 1.787270 0.000000 0.005300 
#    y 0.000000 1.758990 0.000000 
#    z 0.005300 0.000000 1.815230 
# 
# From -- ./inp_files/346077.got.cif
#   From: 2010.06.25/outbox.ucp.g09.slc.cvg/sg12_174_cif.got.tgz:346077.got - 2010.06.28 13:50:54.
