data_PCOD8116651
_publ_section_title
;
Structure prediction by ZEFSAII (Michael W. Deem and Ramdas Pophale) SiO2 
 PCOD8116651
Probable space group: P 2/C
;
_chemical_formula_sum "Si O2"
_cell_formula_units_Z 24
_cell_length_a 16.088957
_cell_length_b 8.034348
_cell_length_c 16.986330
_cell_angle_alpha 90.000000
_cell_angle_beta 33.931471
_cell_angle_gamma 90.000000
_cell_volume 1225.656128
_symmetry_space_group_name_H-M "P 2/C"
_symmetry_group_IT_number 13
_symmetry_cell_setting 'monoclinic'
loop_
_space_group_symop_operation_xyz
x,y,z
-x,y,1/2-z
-x,-y,-z
x,-y,1/2+z
loop_
_atom_site_type_symbol
_atom_site_label
_atom_site_fract_x
_atom_site_fract_y
_atom_site_fract_z
Si Si1 0.261718 0.610546 0.009209
Si Si2 0.162033 0.287246 0.753448
Si Si3 0.251336 0.210026 0.846814
Si Si4 0.000000 0.130761 0.250000
Si Si5 0.983198 0.403187 0.375829
Si Si6 0.142375 0.091286 0.523488
Si Si7 0.500000 0.617612 0.250000
O O1 0.255700 0.699650 0.099062
O O2 0.116147 0.495449 0.113269
O O3 0.255439 0.756205 0.948153
O O4 0.408235 0.500596 0.881445
O O5 0.272565 0.227999 0.736104
O O6 0.102558 0.472726 0.819440
O O7 0.025618 0.156721 0.858167
O O8 0.400590 0.261437 0.774807
O O9 0.119993 0.336713 0.972991
O O10 0.205609 0.019441 0.902352
O O11 0.935901 0.246224 0.229594
O O12 0.135231 0.021420 0.108541
#
# Coordination Sequence:
#
# PCOD8116651 Si02
#       7
#     4   4   4   2   4   4   2
#     4  10  19  36  59  76 114 150 198 221 276 351
#     4  11  18  34  57  92 113 141 185 252 292 325
#     4  10  22  34  57  82 121 148 191 235 277 344
#     4  10  14  28  52  86 110 138 176 218 290 344
#     4   9  17  31  54  85 111 147 178 234 294 341
#     4  10  19  33  58  87 114 145 177 241 303 337
#     4  10  24  42  54  78 108 178 196 212 276 340
#
# _framework density 19.581348999999999
#
# number of rings (size 3 to 8) (size 9 to 14) (size 15 to 20)
#    0.000    2.000    3.333    2.000    0.000    1.333 
#    0.000    0.000    0.000    2.000    0.000    0.000 
#    0.000    0.000    0.000    0.000    0.000    0.000 
#
# Total GULP energy -297470.487806 kJ/mol
# GULP energy per Si atom -12394.603659 kJ/mol
# Density = 1.953678 g / cm^3
# Si number density = 19.581349 Si / 1000 Ang^3
#
#
#
# Elastic Constant Matrix: (Units=GPa)
#
#
# Indices 1 2 3 4 5 6 
#
# 1 91.8817 25.7717 29.6434 0.0000 10.3785 0.0000
# 2 25.7717 95.0991 22.4026 0.0000 -4.9597 0.0000
# 3 29.6434 22.4026 55.4345 0.0000 -0.3205 0.0000
# 4 0.0000 0.0000 0.0000 34.3531 0.0000 2.7769
# 5 10.3785 -4.9597 -0.3205 0.0000 24.0505 0.0000
# 6 0.0000 0.0000 0.0000 2.7769 0.0000 15.4887
#
#
#
# Elastic Compliance Matrix: (Units=1/GPa)
#
#
# Indices 1 2 3 4 5 6 
#
# 1 0.014614 -0.002733 -0.006751 0.000000 -0.006960 0.000000
# 2 -0.002733 0.012265 -0.003474 0.000000 0.003663 0.000000
# 3 -0.006751 -0.003474 0.023068 0.000000 0.002504 0.000000
# 4 0.000000 0.000000 0.000000 0.029538 0.000000 -0.005296
# 5 -0.006960 0.003663 0.002504 0.000000 0.045371 0.000000
# 6 0.000000 0.000000 0.000000 -0.005296 0.000000 0.065513
#
#
# Mechanical properties :
#
#
# Convention : Reuss Voigt Hill
#
# Bulk Modulus (GPa) = 41.61190 44.22787 42.91989
# Shear Modulus (GPa) = 22.29205 25.75163 24.02184
#
# Velocity S-wave (km/s) = 3.37773 3.63038 3.50633
# Velocity P-wave (km/s) = 6.04227 6.34103 6.19345
#
# Compressibility (1/GPa) = 0.02403159
#
# Stress axis : x y z
#
# Youngs Moduli (GPa) = 68.42612 81.52988 43.35079
#
# Poissons Ratio (x) = 0.22284 0.29265
# Poissons Ratio (y) = 0.18702 0.15060
# Poissons Ratio (z) = 0.46192 0.28324
#
# Static dielectric constant tensor:
#      x y z
#    x 3.219720 0.000000 0.194260 
#    y 0.000000 3.906010 0.000000 
#    z 0.194260 0.000000 3.319130 
# 
# 
# High freq. dielectric constant tensor:
#      x y z
#    x 1.727570 0.000000 0.028010 
#    y 0.000000 1.784580 0.000000 
#    z 0.028010 0.000000 1.735430 
# 
# From -- ./inp_files/65749.got.cif
#   From: 2010.06.25/outbox.cif.g09.slc.cpg/sg13_33_cif.got.tgz:65749.got - 2010.06.28 04:50:58.
