data_PCOD8116518
_publ_section_title
;
Structure prediction by ZEFSAII (Michael W. Deem and Ramdas Pophale) SiO2 
 PCOD8116518
Probable space group: C 2/M
;
_chemical_formula_sum "Si O2"
_cell_formula_units_Z 32
_cell_length_a 30.000000
_cell_length_b 9.000000
_cell_length_c 24.000000
_cell_angle_alpha 90.000000
_cell_angle_beta 30.000000
_cell_angle_gamma 90.000000
_cell_volume 3240.000000
_symmetry_space_group_name_H-M "C 2/M"
_symmetry_group_IT_number 12
_symmetry_cell_setting 'monoclinic'
loop_
_space_group_symop_operation_xyz
x,y,z
-x,y,-z
-x,-y,-z
x,-y,z
1/2+x,1/2+y,z
1/2-x,1/2+y,-z
1/2-x,1/2-y,-z
1/2+x,1/2-y,z
loop_
_atom_site_type_symbol
_atom_site_label
_atom_site_fract_x
_atom_site_fract_y
_atom_site_fract_z
Si Si1 0.425108 0.163029 0.037371
Si Si2 0.720987 0.172792 0.153617
Si Si3 0.781222 0.325207 0.408674
Si Si4 0.963845 0.170026 0.175806
Si Si5 0.138625 0.173823 0.467106
Si Si6 0.753035 0.827031 0.249321
Si Si7 0.613838 0.668261 0.099713
Si Si8 0.057447 0.823094 0.280200
O O1 0.347312 0.245558 0.156810
O O2 0.392731 0.000000 0.049647
O O3 0.500000 0.129802 0.000000
O O4 0.467895 0.262508 0.942781
O O5 0.739291 0.196669 0.198633
O O6 0.631125 0.266052 0.243148
O O7 0.704810 0.000000 0.157779
O O8 0.803630 0.237650 0.026050
O O9 0.794681 0.500000 0.404714
O O10 0.750000 0.250000 0.500000
O O11 0.872530 0.259118 0.284572
O O12 0.704872 0.294011 0.446283
O O13 0.018674 0.176032 0.173199
O O14 0.940938 0.000000 0.183905
O O15 0.174305 0.257541 0.372876
O O16 0.040469 0.232389 0.592937
O O17 0.134706 0.000000 0.456669
O O18 0.760779 0.000000 0.256600
O O19 0.643295 0.500000 0.078029
O O20 0.591824 0.744222 0.183314
O O21 0.054625 0.000000 0.280128
#
# Coordination Sequence:
#
# PCOD8116518 Si02
#       8
#     8   8   8   8   8   8   8   8
#     4  11  23  38  57  85 120 155 194 244 297 350
#     4  10  21  39  60  87 121 153 193 250 307 353
#     4  11  23  40  61  88 122 162 205 250 302 356
#     4  11  21  37  61  88 120 158 197 243 297 357
#     4  10  23  42  60  84 122 161 201 250 303 357
#     4  11  23  40  62  87 118 159 202 245 299 361
#     4   9  18  37  61  86 121 156 191 241 303 361
#     4  10  21  38  62  87 112 155 204 244 299 363
#
# _framework density 9.8765429999999999
#
# number of rings (size 3 to 8) (size 9 to 14) (size 15 to 20)
#    0.000    1.625    1.250    3.375    0.000    9.000 
#    0.000    5.000    0.000    0.000    0.000    0.000 
#    0.000    0.000    0.000    0.000    0.000    0.000 
#
# Total GULP energy -396607.245676 kJ/mol
# GULP energy per Si atom -12393.976427 kJ/mol
# Density = 0.985406 g / cm^3
# Si number density = 9.876543 Si / 1000 Ang^3
#
#
#
# Elastic Constant Matrix: (Units=GPa)
#
#
# Indices 1 2 3 4 5 6 
#
# 1 59.3942 27.3779 48.0754 0.0118 0.1365 -0.0058
# 2 27.3779 96.2596 57.2861 -0.0100 2.8268 -0.0020
# 3 48.0754 57.2861 210.3998 -0.0007 3.1335 -0.0028
# 4 0.0118 -0.0100 -0.0007 54.4459 -0.0036 -2.6892
# 5 0.1365 2.8268 3.1335 -0.0036 43.8521 0.0030
# 6 -0.0058 -0.0020 -0.0028 -2.6892 0.0030 30.4976
#
#
#
# Elastic Compliance Matrix: (Units=1/GPa)
#
#
# Indices 1 2 3 4 5 6 
#
# 1 0.021806 -0.003874 -0.003935 -0.000005 0.000463 0.000003
# 2 -0.003874 0.013099 -0.002672 0.000003 -0.000641 0.000000
# 3 -0.003935 -0.002672 0.006383 0.000000 -0.000272 0.000000
# 4 -0.000005 0.000003 0.000000 0.018447 0.000001 0.001627
# 5 0.000463 -0.000641 -0.000272 0.000001 0.022863 -0.000002
# 6 0.000003 0.000000 0.000000 0.001627 -0.000002 0.032933
#
#
# Mechanical properties :
#
#
# Convention : Reuss Voigt Hill
#
# Bulk Modulus (GPa) = 49.19368 70.17024 59.68196
# Shear Modulus (GPa) = 34.89927 41.31341 38.10634
#
# Velocity S-wave (km/s) = 4.20786 4.57824 4.39696
# Velocity P-wave (km/s) = 6.96897 7.97169 7.48714
#
# Compressibility (1/GPa) = 0.02032782
#
# Stress axis : x y z
#
# Youngs Moduli (GPa) = 45.85843 76.33988 156.65535
#
# Poissons Ratio (x) = 0.29574 0.61640
# Poissons Ratio (y) = 0.17766 0.41856
# Poissons Ratio (z) = 0.18044 0.20397
#
# Static dielectric constant tensor:
#      x y z
#    x 3.663850 0.000010 0.128030 
#    y 0.000010 3.674670 0.000080 
#    z 0.128030 0.000080 4.099320 
# 
# 
# High freq. dielectric constant tensor:
#      x y z
#    x 1.770870 0.000000 0.006740 
#    y 0.000000 1.766940 0.000010 
#    z 0.006740 0.000010 1.807430 
# 
# From -- ./inp_files/353315.got.cif
#   From: 2010.06.25/outbox.ucp.g09.slc.cvg/sg12_177_cif.got.tgz:353315.got - 2010.06.28 13:50:54.
