data_PCOD8116328
_publ_section_title
;
Structure prediction by ZEFSAII (Michael W. Deem and Ramdas Pophale) SiO2 
 PCOD8116328
Probable space group: C 2/M
;
_chemical_formula_sum "Si O2"
_cell_formula_units_Z 32
_cell_length_a 30.000000
_cell_length_b 9.000000
_cell_length_c 30.000000
_cell_angle_alpha 90.000000
_cell_angle_beta 30.000000
_cell_angle_gamma 90.000000
_cell_volume 4050.000000
_symmetry_space_group_name_H-M "C 2/M"
_symmetry_group_IT_number 12
_symmetry_cell_setting 'monoclinic'
loop_
_space_group_symop_operation_xyz
x,y,z
-x,y,-z
-x,-y,-z
x,-y,z
1/2+x,1/2+y,z
1/2-x,1/2+y,-z
1/2-x,1/2-y,-z
1/2+x,1/2-y,z
loop_
_atom_site_type_symbol
_atom_site_label
_atom_site_fract_x
_atom_site_fract_y
_atom_site_fract_z
Si Si1 0.666307 0.176142 0.890555
Si Si2 0.474433 0.176581 0.590777
Si Si3 0.837109 0.824933 0.201720
Si Si4 0.182935 0.326694 0.115046
Si Si5 0.973063 0.824387 0.921638
Si Si6 0.868495 0.326571 0.938493
Si Si7 0.360204 0.675027 0.761056
Si Si8 0.140956 0.325205 0.393267
O O1 0.651878 0.237303 0.853655
O O2 0.765187 0.219399 0.821638
O O3 0.652227 0.000000 0.903001
O O4 0.591614 0.249779 0.986272
O O5 0.443787 0.268434 0.660041
O O6 0.405577 0.227354 0.611957
O O7 0.576320 0.226641 0.490002
O O8 0.468787 0.000000 0.604283
O O9 0.744496 0.770357 0.306114
O O10 0.922885 0.788443 0.158216
O O11 0.832272 0.000000 0.195218
O O12 0.204339 0.500000 0.103181
O O13 0.125626 0.300743 0.119703
O O14 0.125474 0.260642 0.204902
O O15 0.275035 0.237322 0.036177
O O16 0.949499 0.757650 0.893255
O O17 0.956222 0.000000 0.936428
O O18 0.871927 0.500000 0.948139
O O19 0.367558 0.500000 0.762144
O O20 0.140319 0.500000 0.394654
#
# Coordination Sequence:
#
# PCOD8116328 Si02
#       8
#     8   8   8   8   8   8   8   8
#     4  11  22  33  45  66  98 134 168 200 236 277
#     4   9  16  29  51  71  91 124 161 196 239 286
#     4  10  20  34  50  69  95 128 169 206 236 279
#     4  10  20  33  52  72  93 124 160 196 239 289
#     4  11  22  33  49  70  94 131 169 200 237 281
#     4  10  20  34  50  71  96 123 157 200 243 283
#     4  11  21  31  46  72 102 130 157 193 241 286
#     4   8  15  29  49  71  92 120 160 203 239 277
#
# _framework density 7.9012349999999998
#
# number of rings (size 3 to 8) (size 9 to 14) (size 15 to 20)
#    0.000    2.000    2.500    3.000    0.000    5.000 
#    0.000    1.875    0.000    0.000    0.000    0.875 
#    0.000    0.000    0.000    0.000    0.000    0.000 
#
# Total GULP energy -396698.018178 kJ/mol
# GULP energy per Si atom -12396.813068 kJ/mol
# Density = 0.788325 g / cm^3
# Si number density = 7.901235 Si / 1000 Ang^3
#
#
#
# Elastic Constant Matrix: (Units=GPa)
#
#
# Indices 1 2 3 4 5 6 
#
# 1 107.0717 45.3913 58.4055 0.0049 -0.9227 -0.0001
# 2 45.3913 76.6818 37.5238 0.0395 -0.2664 -0.0357
# 3 58.4055 37.5238 122.9268 0.0234 -3.4588 -0.0315
# 4 0.0049 0.0395 0.0234 21.1468 -0.0032 2.4027
# 5 -0.9227 -0.2664 -3.4588 -0.0032 25.3766 0.0065
# 6 -0.0001 -0.0357 -0.0315 2.4027 0.0065 27.1887
#
#
#
# Elastic Compliance Matrix: (Units=1/GPa)
#
#
# Indices 1 2 3 4 5 6 
#
# 1 0.014778 -0.006242 -0.005122 0.000016 -0.000226 -0.000015
# 2 -0.006242 0.017973 -0.002531 -0.000032 -0.000383 0.000024
# 3 -0.005122 -0.002531 0.011379 -0.000008 0.001338 0.000010
# 4 0.000016 -0.000032 -0.000008 0.047768 0.000006 -0.004221
# 5 -0.000226 -0.000383 0.001338 0.000006 0.039577 -0.000009
# 6 -0.000015 0.000024 0.000010 -0.004221 -0.000009 0.037153
#
#
# Mechanical properties :
#
#
# Convention : Reuss Voigt Hill
#
# Bulk Modulus (GPa) = 61.20428 65.48017 63.34222
# Shear Modulus (GPa) = 24.76896 25.76639 25.26768
#
# Velocity S-wave (km/s) = 3.96335 4.04236 4.00305
# Velocity P-wave (km/s) = 7.73040 7.95702 7.84453
#
# Compressibility (1/GPa) = 0.01633873
#
# Stress axis : x y z
#
# Youngs Moduli (GPa) = 67.66882 55.63840 87.88062
#
# Poissons Ratio (x) = 0.34729 0.45015
# Poissons Ratio (y) = 0.42238 0.22247
# Poissons Ratio (z) = 0.34662 0.14085
#
# Static dielectric constant tensor:
#      x y z
#    x 3.107400 -0.000070 -0.101950 
#    y -0.000070 3.037140 0.000070 
#    z -0.101950 0.000070 3.322840 
# 
# 
# High freq. dielectric constant tensor:
#      x y z
#    x 1.594530 0.000000 0.002430 
#    y 0.000000 1.613880 0.000000 
#    z 0.002430 0.000000 1.603170 
# 
# From -- ./inp_files/384534.got.cif
#   From: 2010.06.25/outbox.ucp.g09.slc.cvg/sg12_193_cif.got.tgz:384534.got - 2010.06.28 13:50:54.
