data_PCOD8116917
_publ_section_title
;
Structure prediction by ZEFSAII (Michael W. Deem and Ramdas Pophale) SiO2 
 PCOD8116917
Probable space group: P 2/C
;
_chemical_formula_sum "Si O2"
_cell_formula_units_Z 28
_cell_length_a 27.052243
_cell_length_b 8.931179
_cell_length_c 20.902434
_cell_angle_alpha 90.000000
_cell_angle_beta 17.269391
_cell_angle_gamma 90.000000
_cell_volume 1499.227703
_symmetry_space_group_name_H-M "P 2/C"
_symmetry_group_IT_number 13
_symmetry_cell_setting 'monoclinic'
loop_
_space_group_symop_operation_xyz
x,y,z
-x,y,1/2-z
-x,-y,-z
x,-y,1/2+z
loop_
_atom_site_type_symbol
_atom_site_label
_atom_site_fract_x
_atom_site_fract_y
_atom_site_fract_z
Si Si1 0.636623 0.437175 0.916288
Si Si2 0.051906 0.507076 0.797645
Si Si3 0.146570 0.696244 0.797336
Si Si4 0.695585 0.573543 0.200093
Si Si5 0.161830 0.241349 0.738804
Si Si6 0.690619 0.064803 0.494223
Si Si7 0.825311 0.241218 0.438637
O O1 0.740438 0.590889 0.797406
O O2 0.651881 0.375951 0.825550
O O3 0.693664 0.312290 0.895810
O O4 0.439689 0.467954 0.167301
O O5 0.036652 0.595085 0.884510
O O6 0.129632 0.345125 0.716414
O O7 0.173785 0.601995 0.601815
O O8 0.874662 0.490269 0.981123
O O9 0.271020 0.808521 0.606484
O O10 0.011205 0.782288 0.008452
O O11 0.703928 0.727247 0.148532
O O12 0.231286 0.086307 0.628239
O O13 0.774838 0.103806 0.457233
O O14 0.500000 0.050165 0.750000
O O15 0.000000 0.191119 0.250000
#
# Coordination Sequence:
#
# PCOD8116917 Si02
#       7
#     4   4   4   4   4   4   4
#     4  10  19  31  61  87 108 135 178 239 273 312
#     4   9  17  34  60  83 106 139 182 228 270 319
#     4  10  18  37  59  81 107 144 189 220 268 324
#     4  10  17  32  56  88 111 133 178 225 279 322
#     4  11  20  36  56  83 111 141 185 228 266 319
#     4  11  24  38  55  78 112 152 184 222 267 326
#     4   9  20  37  58  76 106 149 182 218 273 338
#
# _framework density 18.676283000000002
#
# number of rings (size 3 to 8) (size 9 to 14) (size 15 to 20)
#    0.000    2.000    2.857    2.143    0.000    1.143 
#    0.000    5.000    0.000    4.286    0.000    0.000 
#    0.000    0.000    0.000    0.000    0.000    0.000 
#
# Total GULP energy -347049.435693 kJ/mol
# GULP energy per Si atom -12394.622703 kJ/mol
# Density = 1.863377 g / cm^3
# Si number density = 18.676283 Si / 1000 Ang^3
#
#
#
# Elastic Constant Matrix: (Units=GPa)
#
#
# Indices 1 2 3 4 5 6 
#
# 1 112.9803 56.3003 51.9510 0.0000 -6.7004 0.0000
# 2 56.3003 104.9923 55.3445 0.0000 6.3789 0.0000
# 3 51.9510 55.3445 112.6239 0.0000 -0.4895 0.0000
# 4 0.0000 0.0000 0.0000 11.8780 0.0000 1.4431
# 5 -6.7004 6.3789 -0.4895 0.0000 20.9696 0.0000
# 6 0.0000 0.0000 0.0000 1.4431 0.0000 24.3522
#
#
#
# Elastic Compliance Matrix: (Units=1/GPa)
#
#
# Indices 1 2 3 4 5 6 
#
# 1 0.013738 -0.005955 -0.003384 0.000000 0.006122 0.000000
# 2 -0.005955 0.015790 -0.005042 0.000000 -0.006824 0.000000
# 3 -0.003384 -0.005042 0.012921 0.000000 0.000754 0.000000
# 4 0.000000 0.000000 0.000000 0.084800 0.000000 -0.005025
# 5 0.006122 -0.006824 0.000754 0.000000 0.051738 0.000000
# 6 0.000000 0.000000 0.000000 -0.005025 0.000000 0.041362
#
#
# Mechanical properties :
#
#
# Convention : Reuss Voigt Hill
#
# Bulk Modulus (GPa) = 73.06284 73.08755 73.07520
# Shear Modulus (GPa) = 19.71044 22.57335 21.14190
#
# Velocity S-wave (km/s) = 3.25217 3.48036 3.36820
# Velocity P-wave (km/s) = 7.30122 7.44106 7.37147
#
# Compressibility (1/GPa) = 0.01368685
#
# Stress axis : x y z
#
# Youngs Moduli (GPa) = 72.79319 63.33080 77.39192
#
# Poissons Ratio (x) = 0.37711 0.26190
# Poissons Ratio (y) = 0.43346 0.39024
# Poissons Ratio (z) = 0.24634 0.31934
#
# Static dielectric constant tensor:
#      x y z
#    x 1.245280 0.000000 -0.581400 
#    y 0.000000 3.115050 0.000000 
#    z -0.581400 0.000000 3.362630 
# 
# 
# High freq. dielectric constant tensor:
#      x y z
#    x 1.741130 0.000000 -0.000950 
#    y 0.000000 1.686980 0.000000 
#    z -0.000950 0.000000 1.730450 
# 
# From -- ./inp_files/80815.got.cif
#   From: 2010.06.25/outbox.cif.g09.slc.cpg/sg13_41_cif.got.tgz:80815.got - 2010.06.28 04:50:58.
