data_PCOD8116627
_publ_section_title
;
Structure prediction by ZEFSAII (Michael W. Deem and Ramdas Pophale) SiO2 
 PCOD8116627
Probable space group: C 2/M
;
_chemical_formula_sum "Si O2"
_cell_formula_units_Z 28
_cell_length_a 18.000000
_cell_length_b 9.000000
_cell_length_c 27.000000
_cell_angle_alpha 90.000000
_cell_angle_beta 140.000000
_cell_angle_gamma 90.000000
_cell_volume 2811.553005
_symmetry_space_group_name_H-M "C 2/M"
_symmetry_group_IT_number 12
_symmetry_cell_setting 'monoclinic'
loop_
_space_group_symop_operation_xyz
x,y,z
-x,y,-z
-x,-y,-z
x,-y,z
1/2+x,1/2+y,z
1/2-x,1/2+y,-z
1/2-x,1/2-y,-z
1/2+x,1/2-y,z
loop_
_atom_site_type_symbol
_atom_site_label
_atom_site_fract_x
_atom_site_fract_y
_atom_site_fract_z
Si Si1 0.088262 0.826343 0.999534
Si Si2 0.197267 0.819133 0.424374
Si Si3 0.636110 0.324192 0.571956
Si Si4 0.732811 0.825861 0.716383
Si Si5 0.660577 0.320554 0.863783
Si Si6 0.445303 0.174895 0.284102
Si Si7 0.514883 0.820985 0.146548
O O1 0.034503 0.717583 0.931893
O O2 0.099348 0.000000 0.988677
O O3 0.215406 0.760726 0.074078
O O4 0.000000 0.815683 0.000000
O O5 0.250000 0.750000 0.500000
O O6 0.283404 0.768764 0.424532
O O7 0.070804 0.745019 0.358116
O O8 0.189458 0.000000 0.421680
O O9 0.500000 0.285435 0.500000
O O10 0.657521 0.500000 0.574997
O O11 0.672447 0.272169 0.644277
O O12 0.647503 0.809961 0.719380
O O13 0.859386 0.755206 0.787724
O O14 0.746786 0.000000 0.709262
O O15 0.672426 0.500000 0.876225
O O16 0.603180 0.279699 0.783057
O O17 0.575338 0.252434 0.861420
O O18 0.458520 0.000000 0.276177
O O19 0.523216 0.000000 0.158670
#
# Coordination Sequence:
#
# PCOD8116627 Si02
#       7
#     8   8   8   8   8   8   8
#     4  11  24  43  66  93 127 164 205 255 311 370
#     4  12  25  42  65  93 127 165 208 257 310 369
#     4  11  24  42  65  93 126 164 208 257 309 368
#     4  11  24  42  65  93 126 164 206 255 311 369
#     4  12  25  42  65  93 127 165 209 257 308 368
#     4  11  24  43  66  93 127 165 207 256 311 369
#     4  12  25  42  65  92 126 165 208 257 309 368
#
# _framework density 9.9589090000000002
#
# number of rings (size 3 to 8) (size 9 to 14) (size 15 to 20)
#    0.000    0.571    0.000    8.571    0.000   10.286 
#    0.000    0.000    0.000    0.000    0.000    0.000 
#    0.000    0.000    0.000    0.000    0.000    0.000 
#
# Total GULP energy -347012.337807 kJ/mol
# GULP energy per Si atom -12393.297779 kJ/mol
# Density = 0.993624 g / cm^3
# Si number density = 9.958909 Si / 1000 Ang^3
#
#
#
# Elastic Constant Matrix: (Units=GPa)
#
#
# Indices 1 2 3 4 5 6 
#
# 1 153.6747 53.0443 46.0782 0.0000 29.0895 0.0000
# 2 53.0443 167.0332 32.0638 0.0000 19.1173 0.0000
# 3 46.0782 32.0638 133.8030 0.0000 27.2198 0.0000
# 4 0.0000 0.0000 0.0000 7.0156 0.0000 -13.4276
# 5 29.0895 19.1173 27.2198 0.0000 50.3259 0.0000
# 6 0.0000 0.0000 0.0000 -13.4276 0.0000 41.0766
#
#
#
# Elastic Compliance Matrix: (Units=1/GPa)
#
#
# Indices 1 2 3 4 5 6 
#
# 1 0.008292 -0.001940 -0.001759 0.000000 -0.003105 0.000000
# 2 -0.001940 0.006872 -0.000759 0.000000 -0.001078 0.000000
# 3 -0.001759 -0.000759 0.008984 0.000000 -0.003554 0.000000
# 4 0.000000 0.000000 0.000000 0.380780 0.000000 0.124474
# 5 -0.003105 -0.001078 -0.003554 0.000000 0.023997 0.000000
# 6 0.000000 0.000000 0.000000 0.124474 0.000000 0.065035
#
#
# Mechanical properties :
#
#
# Convention : Reuss Voigt Hill
#
# Bulk Modulus (GPa) = 65.65353 79.65373 72.65363
# Shear Modulus (GPa) = 9.84341 41.23859 25.54100
#
# Velocity S-wave (km/s) = 2.22548 4.55514 3.58483
# Velocity P-wave (km/s) = 6.29583 8.23066 7.32739
#
# Compressibility (1/GPa) = 0.01523147
#
# Stress axis : x y z
#
# Youngs Moduli (GPa) = 120.59677 145.51433 111.30368
#
# Poissons Ratio (x) = 0.28234 0.19579
# Poissons Ratio (y) = 0.23400 0.08451
# Poissons Ratio (z) = 0.21214 0.11048
#
# Static dielectric constant tensor:
#      x y z
#    x 3.966760 0.000000 0.074820 
#    y 0.000000 4.306560 0.000000 
#    z 0.074820 0.000000 4.039640 
# 
# 
# High freq. dielectric constant tensor:
#      x y z
#    x 1.819600 0.000000 0.018380 
#    y 0.000000 1.822180 0.000000 
#    z 0.018380 0.000000 1.802010 
# 
# From -- ./inp_files/363212.got.cif
#   From: 2010.06.25/outbox.ucp.g09.slc.cvg/sg12_182_cif.got.tgz:363212.got - 2010.06.28 13:50:54.
