data_PCOD8116637
_publ_section_title
;
Structure prediction by ZEFSAII (Michael W. Deem and Ramdas Pophale) SiO2 
 PCOD8116637
Probable space group: P 2/C
;
_chemical_formula_sum "Si O2"
_cell_formula_units_Z 24
_cell_length_a 29.434970
_cell_length_b 8.492716
_cell_length_c 5.178828
_cell_angle_alpha 90.000000
_cell_angle_beta 95.164183
_cell_angle_gamma 90.000000
_cell_volume 1289.363099
_symmetry_space_group_name_H-M "P 2/C"
_symmetry_group_IT_number 13
_symmetry_cell_setting 'monoclinic'
loop_
_space_group_symop_operation_xyz
x,y,z
-x,y,1/2-z
-x,-y,-z
x,-y,1/2+z
loop_
_atom_site_type_symbol
_atom_site_label
_atom_site_fract_x
_atom_site_fract_y
_atom_site_fract_z
Si Si1 0.118945 0.596246 0.616906
Si Si2 0.980188 0.679193 0.989884
Si Si3 0.552401 0.401094 0.260654
Si Si4 0.781574 0.395617 0.409478
Si Si5 0.281540 0.098787 0.130093
Si Si6 0.612468 0.097496 0.293427
O O1 0.116648 0.449504 0.417092
O O2 0.074490 0.699311 0.533327
O O3 0.167485 0.680960 0.587516
O O4 0.000000 0.767471 0.250000
O O5 0.000000 0.767468 0.750000
O O6 0.000000 0.500000 0.000000
O O7 0.500000 0.346569 0.250000
O O8 0.563536 0.529293 0.485495
O O9 0.583731 0.252490 0.328285
O O10 0.774574 0.472341 0.686592
O O11 0.745189 0.260067 0.349606
O O12 0.334599 0.143242 0.165579
O O13 0.268178 0.981130 0.353473
O O14 0.599740 0.972966 0.508953
#
# Coordination Sequence:
#
# PCOD8116637 Si02
#       6
#     4   4   4   4   4   4
#     4  10  16  25  37  60  92 123 149 194 241 298
#     4  10  14  20  34  53  82 124 148 175 236 302
#     4  10  21  36  54  80 113 145 174 212 262 316
#     4  10  21  33  51  76 104 132 164 215 262 302
#     4  10  21  38  56  75 104 138 177 215 258 314
#     4  10  21  36  56  80 103 136 180 224 258 299
#
# _framework density 18.61384
#
# number of rings (size 3 to 8) (size 9 to 14) (size 15 to 20)
#    0.000    2.000    3.333    2.000    0.000    2.000 
#    0.000    0.000    0.000    0.000    0.000    0.000 
#    0.000    4.000    0.000    0.000    0.000    0.000 
#
# Total GULP energy -297498.391620 kJ/mol
# GULP energy per Si atom -12395.766317 kJ/mol
# Density = 1.857147 g / cm^3
# Si number density = 18.613840 Si / 1000 Ang^3
#
#
#
# Elastic Constant Matrix: (Units=GPa)
#
#
# Indices 1 2 3 4 5 6 
#
# 1 97.2955 55.6509 31.5640 0.0000 0.4981 0.0000
# 2 55.6509 52.2399 9.0126 0.0000 -0.0754 0.0000
# 3 31.5640 9.0126 114.6676 0.0000 -5.1761 0.0000
# 4 0.0000 0.0000 0.0000 14.0183 0.0000 0.1345
# 5 0.4981 -0.0754 -5.1761 0.0000 23.9380 0.0000
# 6 0.0000 0.0000 0.0000 0.1345 0.0000 -18.2950
#
#
#
# Elastic Compliance Matrix: (Units=1/GPa)
#
#
# Indices 1 2 3 4 5 6 
#
# 1 0.029726 -0.030658 -0.005862 0.000000 -0.001983 0.000000
# 2 -0.030658 0.051027 0.004509 0.000000 0.001773 0.000000
# 3 -0.005862 0.004509 0.010085 0.000000 0.002317 0.000000
# 4 0.000000 0.000000 0.000000 0.071330 0.000000 0.000524
# 5 -0.001983 0.001773 0.002317 0.000000 0.042322 0.000000
# 6 0.000000 0.000000 0.000000 0.000524 0.000000 -0.054656
#
#
# Mechanical properties :
#
#
# Convention : Reuss Voigt Hill
#
# Bulk Modulus (GPa) = 37.29415 50.73978 44.01696
# Shear Modulus (GPa) = 22.44208 15.13064 18.78636
#
# Velocity S-wave (km/s) = 3.47604 2.85418 3.18035
# Velocity P-wave (km/s) = 6.01578 6.17901 6.09794
#
# Compressibility (1/GPa) = 0.02681386
#
# Stress axis : x y z
#
# Youngs Moduli (GPa) = 33.64092 19.59743 99.15952
#
# Poissons Ratio (x) = 0.60082 0.58130
# Poissons Ratio (y) = 1.03137 -0.44706
# Poissons Ratio (z) = 0.19721 -0.08836
#
# Static dielectric constant tensor:
#      x y z
#    x 3.645110 0.000000 -0.059910 
#    y 0.000000 2.774880 0.000000 
#    z -0.059910 0.000000 4.758140 
# 
# 
# High freq. dielectric constant tensor:
#      x y z
#    x 1.735420 0.000000 -0.001140 
#    y 0.000000 1.659410 0.000000 
#    z -0.001140 0.000000 1.756340 
# 
# From -- ./inp_files/7346.got.cif
#   From: 2010.06.25/outbox.cif.g09.slc.cpg/sg13_4_cif.got.tgz:7346.got - 2010.06.28 04:50:58.
