data_PCOD8116170
_publ_section_title
;
Structure prediction by ZEFSAII (Michael W. Deem and Ramdas Pophale) SiO2 
 PCOD8116170
Probable space group: C 2/M
;
_chemical_formula_sum "Si O2"
_cell_formula_units_Z 48
_cell_length_a 13.991464
_cell_length_b 9.619354
_cell_length_c 21.958275
_cell_angle_alpha 90.000000
_cell_angle_beta 72.388380
_cell_angle_gamma 90.000000
_cell_volume 2816.820148
_symmetry_space_group_name_H-M "C 2/M"
_symmetry_group_IT_number 12
_symmetry_cell_setting 'monoclinic'
loop_
_space_group_symop_operation_xyz
x,y,z
-x,y,-z
-x,-y,-z
x,-y,z
1/2+x,1/2+y,z
1/2-x,1/2+y,-z
1/2-x,1/2-y,-z
1/2+x,1/2-y,z
loop_
_atom_site_type_symbol
_atom_site_label
_atom_site_fract_x
_atom_site_fract_y
_atom_site_fract_z
Si Si1 0.305960 0.160062 0.406137
Si Si2 0.943200 0.839307 0.071498
Si Si3 0.124339 0.660027 0.739811
Si Si4 0.045965 0.160686 0.177891
Si Si5 0.772407 0.338435 0.155179
Si Si6 0.602671 0.338556 0.510830
O O1 0.317848 0.198102 0.333134
O O2 0.382407 0.252695 0.430275
O O3 0.191634 0.193363 0.446195
O O4 0.332387 0.000000 0.413992
O O5 0.842930 0.748787 0.096615
O O6 0.017360 0.811379 0.113477
O O7 0.911144 0.000000 0.073855
O O8 0.000000 0.790883 0.000000
O O9 0.090653 0.500000 0.747614
O O10 0.200204 0.693695 0.780121
O O11 0.024453 0.751724 0.763700
O O12 0.159248 0.210989 0.165969
O O13 0.033211 0.000000 0.198174
O O14 0.786247 0.500000 0.136389
O O15 0.500000 0.288362 0.500000
O O16 0.597936 0.500000 0.529608
#
# Coordination Sequence:
#
# PCOD8116170 Si02
#       6
#     8   8   8   8   8   8
#     4   9  18  32  48  68  95 123 152 189 232 276
#     4   9  18  32  48  68  96 126 155 191 234 277
#     4   9  18  32  48  67  93 123 153 189 233 276
#     4   9  18  32  49  69  93 122 157 194 231 275
#     4   9  18  32  49  69  93 121 155 194 232 273
#     4   9  18  32  50  71  94 122 156 191 228 272
#
# _framework density 17.040492
#
# number of rings (size 3 to 8) (size 9 to 14) (size 15 to 20)
#    0.000    3.000    0.000    0.000    0.000    4.000 
#    0.000    3.333    0.000    0.000    0.000    0.000 
#    0.000    0.000    0.000    0.000    0.000    0.000 
#
# Total GULP energy -297662.171691 kJ/mol
# GULP energy per Si atom -12402.590487 kJ/mol
# Density = 1.700171 g / cm^3
# Si number density = 17.040492 Si / 1000 Ang^3
#
#
#
# Elastic Constant Matrix: (Units=GPa)
#
#
# Indices 1 2 3 4 5 6 
#
# 1 130.9842 48.7984 44.5835 0.0000 -8.3893 0.0000
# 2 48.7984 52.7837 44.5213 0.0000 -5.7882 0.0000
# 3 44.5835 44.5213 114.2287 0.0000 -8.3447 0.0000
# 4 0.0000 0.0000 0.0000 29.4888 0.0000 -3.1737
# 5 -8.3893 -5.7882 -8.3447 0.0000 15.5387 0.0000
# 6 0.0000 0.0000 0.0000 -3.1737 0.0000 28.9410
#
#
#
# Elastic Compliance Matrix: (Units=1/GPa)
#
#
# Indices 1 2 3 4 5 6 
#
# 1 0.011744 -0.010250 -0.000421 0.000000 0.002296 0.000000
# 2 -0.010250 0.037518 -0.010414 0.000000 0.002849 0.000000
# 3 -0.000421 -0.010414 0.013195 0.000000 0.002980 0.000000
# 4 0.000000 0.000000 0.000000 0.034316 0.000000 0.003763
# 5 0.002296 0.002849 0.002980 0.000000 0.068257 0.000000
# 6 0.000000 0.000000 0.000000 0.003763 0.000000 0.034966
#
#
# Mechanical properties :
#
#
# Convention : Reuss Voigt Hill
#
# Bulk Modulus (GPa) = 49.29344 63.75588 56.52466
# Shear Modulus (GPa) = 20.08619 25.46658 22.77638
#
# Velocity S-wave (km/s) = 3.43699 3.87004 3.65993
# Velocity P-wave (km/s) = 6.68884 7.58058 7.14863
#
# Compressibility (1/GPa) = 0.02028668
#
# Stress axis : x y z
#
# Youngs Moduli (GPa) = 85.15345 26.65400 75.78546
#
# Poissons Ratio (x) = 0.27321 0.03188
# Poissons Ratio (y) = 0.87284 0.78923
# Poissons Ratio (z) = 0.03582 0.27757
#
# Static dielectric constant tensor:
#      x y z
#    x 3.190660 0.000000 -0.005920 
#    y 0.000000 3.185870 0.000000 
#    z -0.005920 0.000000 3.199360 
# 
# 
# High freq. dielectric constant tensor:
#      x y z
#    x 1.655310 0.000000 -0.000530 
#    y 0.000000 1.655600 0.000000 
#    z -0.000530 0.000000 1.656530 
# 
# From -- ./inp_files/261616.got.cif
#   From: 2010.06.25/outbox.cif.g09.slc.cpg/sg12_131_cif.got.tgz:261616.got - 2010.06.28 00:19:55.
