data_PCOD8116995
_publ_section_title
;
Structure prediction by ZEFSAII (Michael W. Deem and Ramdas Pophale) SiO2 
 PCOD8116995
Probable space group: P 2/C
;
_chemical_formula_sum "Si O2"
_cell_formula_units_Z 24
_cell_length_a 21.633215
_cell_length_b 12.839376
_cell_length_c 5.364119
_cell_angle_alpha 90.000000
_cell_angle_beta 117.035294
_cell_angle_gamma 90.000000
_cell_volume 1327.112860
_symmetry_space_group_name_H-M "P 2/C"
_symmetry_group_IT_number 13
_symmetry_cell_setting 'monoclinic'
loop_
_space_group_symop_operation_xyz
x,y,z
-x,y,1/2-z
-x,-y,-z
x,-y,1/2+z
loop_
_atom_site_type_symbol
_atom_site_label
_atom_site_fract_x
_atom_site_fract_y
_atom_site_fract_z
Si Si1 0.341977 0.272983 0.856427
Si Si2 0.294405 0.632394 0.777652
Si Si3 0.080712 0.622211 0.900838
Si Si4 0.862645 0.392303 0.495432
Si Si5 0.420201 0.937035 0.597148
Si Si6 0.579069 0.470169 0.516170
O O1 0.299042 0.286218 0.519484
O O2 0.407909 0.348116 0.936568
O O3 0.300560 0.306175 0.028450
O O4 0.368912 0.157387 0.947046
O O5 0.218784 0.580769 0.649444
O O6 0.349859 0.538068 0.901995
O O7 0.116392 0.671007 0.717288
O O8 0.000000 0.648191 0.750000
O O9 0.093974 0.498745 0.928528
O O10 0.114955 0.671542 0.214659
O O11 0.500000 0.899372 0.750000
O O12 0.404987 0.017426 0.344297
O O13 0.537756 0.485857 0.180768
#
# Coordination Sequence:
#
# PCOD8116995 Si02
#       6
#     4   4   4   4   4   4
#     4  10  19  31  48  71  99 117 154 204 244 277
#     4  10  19  28  45  71  98 130 161 199 232 280
#     4  10  19  27  37  55  86 129 182 216 229 252
#     4  10  18  25  41  55  85 124 173 210 223 274
#     4  10  21  38  59  77  93 121 161 198 240 300
#     4   8  16  25  41  61  96 119 151 181 228 263
#
# _framework density 18.084368999999999
#
# number of rings (size 3 to 8) (size 9 to 14) (size 15 to 20)
#    0.000    2.333    0.000    4.500   14.000    0.000 
#    0.000    0.000    0.000    9.000    0.000    0.000 
#    0.000    0.000    0.000    0.000    0.000  343.333 
#
# Total GULP energy -297353.011153 kJ/mol
# GULP energy per Si atom -12389.708798 kJ/mol
# Density = 1.804321 g / cm^3
# Si number density = 18.084369 Si / 1000 Ang^3
#
#
#
# Elastic Constant Matrix: (Units=GPa)
#
#
# Indices 1 2 3 4 5 6 
#
# 1 88.3430 12.8092 47.5184 0.0000 -8.4456 0.0000
# 2 12.8092 46.8386 12.7120 0.0000 -0.3480 0.0000
# 3 47.5184 12.7120 139.4963 0.0000 -28.9904 0.0000
# 4 0.0000 0.0000 0.0000 16.2853 0.0000 -4.0951
# 5 -8.4456 -0.3480 -28.9904 0.0000 47.6666 0.0000
# 6 0.0000 0.0000 0.0000 -4.0951 0.0000 8.7281
#
#
#
# Elastic Compliance Matrix: (Units=1/GPa)
#
#
# Indices 1 2 3 4 5 6 
#
# 1 0.014173 -0.002613 -0.004661 0.000000 -0.000343 0.000000
# 2 -0.002613 0.022434 -0.001392 0.000000 -0.001146 0.000000
# 3 -0.004661 -0.001392 0.009970 0.000000 0.005227 0.000000
# 4 0.000000 0.000000 0.000000 0.069619 0.000000 0.032664
# 5 -0.000343 -0.001146 0.005227 0.000000 0.024089 0.000000
# 6 0.000000 0.000000 0.000000 0.032664 0.000000 0.129898
#
#
# Mechanical properties :
#
#
# Convention : Reuss Voigt Hill
#
# Bulk Modulus (GPa) = 34.19615 46.75079 40.47347
# Shear Modulus (GPa) = 16.82010 27.97857 22.39933
#
# Velocity S-wave (km/s) = 3.05305 3.93760 3.52320
# Velocity P-wave (km/s) = 5.60164 6.82500 6.24336
#
# Compressibility (1/GPa) = 0.02924306
#
# Stress axis : x y z
#
# Youngs Moduli (GPa) = 70.55813 44.57523 100.30496
#
# Poissons Ratio (x) = 0.11650 0.46751
# Poissons Ratio (y) = 0.18440 0.13965
# Poissons Ratio (z) = 0.32886 0.06206
#
# Static dielectric constant tensor:
#      x y z
#    x 3.659480 0.000000 -0.830330 
#    y 0.000000 2.704050 0.000000 
#    z -0.830330 0.000000 4.734580 
# 
# 
# High freq. dielectric constant tensor:
#      x y z
#    x 1.712670 0.000000 -0.023590 
#    y 0.000000 1.613740 0.000000 
#    z -0.023590 0.000000 1.748180 
# 
# From -- ./inp_files/6021.got.cif
#   From: 2010.06.25/outbox.cif.g09.slc.cpg/sg13_4_cif.got.tgz:6021.got - 2010.06.28 04:50:58.
