data_PCOD8116830
_publ_section_title
;
Structure prediction by ZEFSAII (Michael W. Deem and Ramdas Pophale) SiO2 
 PCOD8116830
Probable space group: P 2/C
;
_chemical_formula_sum "Si O2"
_cell_formula_units_Z 28
_cell_length_a 10.562689
_cell_length_b 16.075276
_cell_length_c 8.745864
_cell_angle_alpha 90.000000
_cell_angle_beta 113.948793
_cell_angle_gamma 90.000000
_cell_volume 1357.183021
_symmetry_space_group_name_H-M "P 2/C"
_symmetry_group_IT_number 13
_symmetry_cell_setting 'monoclinic'
loop_
_space_group_symop_operation_xyz
x,y,z
-x,y,1/2-z
-x,-y,-z
x,-y,1/2+z
loop_
_atom_site_type_symbol
_atom_site_label
_atom_site_fract_x
_atom_site_fract_y
_atom_site_fract_z
Si Si1 0.787046 0.481493 0.134806
Si Si2 0.179045 0.794942 0.169991
Si Si3 0.356919 0.070026 0.599410
Si Si4 0.860464 0.219592 0.503891
Si Si5 0.920741 0.602201 0.976241
Si Si6 0.354681 0.103921 0.241435
Si Si7 0.752905 0.615942 0.347214
O O1 0.868071 0.418081 0.281811
O O2 0.703259 0.553797 0.185581
O O3 0.896965 0.524258 0.075234
O O4 0.691321 0.423105 0.975938
O O5 0.238952 0.869877 0.102693
O O6 0.177065 0.816541 0.348472
O O7 0.279576 0.713510 0.192314
O O8 0.020872 0.789155 0.034910
O O9 0.500000 0.094731 0.750000
O O10 0.371637 0.077638 0.425097
O O11 0.313856 0.976242 0.620555
O O12 0.832000 0.318649 0.491385
O O13 0.764780 0.173192 0.333148
O O14 0.081564 0.619325 0.063728
O O15 0.500000 0.140709 0.250000
#
# Coordination Sequence:
#
# PCOD8116830 Si02
#       7
#     4   4   4   4   4   4   4
#     4  10  17  26  44  70 107 154 197 234 279 330
#     4  10  21  36  55  86 126 158 189 236 291 340
#     4  11  23  42  67  89 112 146 191 236 282 345
#     4  10  21  36  55  86 126 158 189 236 291 340
#     4  10  17  27  44  72 111 153 193 234 279 331
#     4  11  23  42  67  89 112 146 191 236 282 345
#     4  10  17  27  44  72 111 153 193 234 279 331
#
# _framework density 20.630970000000001
#
# number of rings (size 3 to 8) (size 9 to 14) (size 15 to 20)
#    0.000    1.714    1.429    6.857    2.000    1.143 
#    0.000    0.000    0.000    0.000    0.000    6.000 
#    0.000    0.000    0.000    0.000    0.000    0.000 
#
# Total GULP energy -347014.375237 kJ/mol
# GULP energy per Si atom -12393.370544 kJ/mol
# Density = 2.058401 g / cm^3
# Si number density = 20.630970 Si / 1000 Ang^3
#
#
#
# Elastic Constant Matrix: (Units=GPa)
#
#
# Indices 1 2 3 4 5 6 
#
# 1 53.8464 36.0877 27.4846 0.0000 -9.1657 0.0000
# 2 36.0877 87.1810 23.9529 0.0000 7.0230 0.0000
# 3 27.4846 23.9529 99.4712 0.0000 -18.3542 0.0000
# 4 0.0000 0.0000 0.0000 32.2261 0.0000 -13.1405
# 5 -9.1657 7.0230 -18.3542 0.0000 25.4835 0.0000
# 6 0.0000 0.0000 0.0000 -13.1405 0.0000 1.1693
#
#
#
# Elastic Compliance Matrix: (Units=1/GPa)
#
#
# Indices 1 2 3 4 5 6 
#
# 1 0.030985 -0.012966 -0.003141 0.000000 0.012456 0.000000
# 2 -0.012966 0.018673 -0.003141 0.000000 -0.012072 0.000000
# 3 -0.003141 -0.003141 0.013411 0.000000 0.009395 0.000000
# 4 0.000000 0.000000 0.000000 -0.008662 0.000000 -0.097342
# 5 0.012456 -0.012072 0.009395 0.000000 0.053815 0.000000
# 6 0.000000 0.000000 0.000000 -0.097342 0.000000 -0.238723
#
#
# Mechanical properties :
#
#
# Convention : Reuss Voigt Hill
#
# Bulk Modulus (GPa) = 40.69661 46.17213 43.43437
# Shear Modulus (GPa) = -59.65623 21.97400 -18.84112
#
# Velocity S-wave (km/s) = -5.38318 3.26712 -3.02527
# Velocity P-wave (km/s) = 4.34389 6.05481 2.98256
#
# Compressibility (1/GPa) = 0.02457207
#
# Stress axis : x y z
#
# Youngs Moduli (GPa) = 32.27414 53.55252 74.56560
#
# Poissons Ratio (x) = 0.69437 0.23419
# Poissons Ratio (y) = 0.41847 0.23425
# Poissons Ratio (z) = 0.10136 0.16823
#
# Static dielectric constant tensor:
#      x y z
#    x 3.326570 0.000000 -0.343220 
#    y 0.000000 3.906410 0.000000 
#    z -0.343220 0.000000 3.947760 
# 
# 
# High freq. dielectric constant tensor:
#      x y z
#    x 1.763610 0.000000 -0.030050 
#    y 0.000000 1.819220 0.000000 
#    z -0.030050 0.000000 1.808670 
# 
# From -- ./inp_files/16871.got.cif
#   From: 2010.06.25/outbox.cif.g09.slc.cpg/sg13_9_cif.got.tgz:16871.got - 2010.06.28 04:50:58.
