data_PCOD8116433
_publ_section_title
;
Structure prediction by ZEFSAII (Michael W. Deem and Ramdas Pophale) SiO2 
 PCOD8116433
Probable space group: C 2/M
;
_chemical_formula_sum "Si O2"
_cell_formula_units_Z 32
_cell_length_a 18.000000
_cell_length_b 9.000000
_cell_length_c 30.000000
_cell_angle_alpha 90.000000
_cell_angle_beta 40.000000
_cell_angle_gamma 90.000000
_cell_volume 3123.947783
_symmetry_space_group_name_H-M "C 2/M"
_symmetry_group_IT_number 12
_symmetry_cell_setting 'monoclinic'
loop_
_space_group_symop_operation_xyz
x,y,z
-x,y,-z
-x,-y,-z
x,-y,z
1/2+x,1/2+y,z
1/2-x,1/2+y,-z
1/2-x,1/2-y,-z
1/2+x,1/2-y,z
loop_
_atom_site_type_symbol
_atom_site_label
_atom_site_fract_x
_atom_site_fract_y
_atom_site_fract_z
Si Si1 0.742040 0.174079 0.935136
Si Si2 0.928890 0.166532 0.344669
Si Si3 0.923325 0.827261 0.927557
Si Si4 0.432139 0.825886 0.429112
Si Si5 0.341732 0.170297 0.197756
Si Si6 0.684293 0.832988 0.426530
Si Si7 0.152940 0.170861 0.353077
Si Si8 0.832086 0.825294 0.800535
O O1 0.842456 0.214935 0.923428
O O2 0.780895 0.242858 0.869787
O O3 0.718469 0.000000 0.942530
O O4 0.622430 0.247997 0.006505
O O5 0.876500 0.255907 0.410630
O O6 0.822763 0.164145 0.359334
O O7 0.040631 0.240805 0.269490
O O8 0.961308 0.000000 0.345614
O O9 0.049952 0.776379 0.855914
O O10 0.924760 0.000000 0.936825
O O11 0.364716 0.772596 0.504121
O O12 0.563562 0.769378 0.366559
O O13 0.426429 0.000000 0.427391
O O14 0.279942 0.196800 0.273817
O O15 0.252946 0.215631 0.200104
O O16 0.381683 0.000000 0.174130
O O17 0.641519 0.719503 0.409265
O O18 0.636399 0.000000 0.439225
O O19 0.117041 0.000000 0.365232
O O20 0.845911 0.000000 0.801396
#
# Coordination Sequence:
#
# PCOD8116433 Si02
#       8
#     8   8   8   8   8   8   8   8
#     4   9  19  37  61  85 111 149 189 225 271 330
#     4  10  20  38  61  84 114 152 195 239 285 345
#     4  10  21  36  58  88 118 147 182 226 279 333
#     4  11  22  38  58  84 118 152 191 240 295 347
#     4  10  21  38  58  81 112 147 189 235 279 333
#     4  10  23  38  58  86 116 152 192 241 294 346
#     4  11  23  39  59  84 114 153 197 242 290 343
#     4   9  18  36  60  82 107 146 195 233 270 331
#
# _framework density 10.243449
#
# number of rings (size 3 to 8) (size 9 to 14) (size 15 to 20)
#    0.000    2.000    1.250    1.875    1.750    5.000 
#    0.000    3.750    0.000    0.000    0.000    0.000 
#    0.000    0.000    0.000    0.000    0.000    0.000 
#
# Total GULP energy -396760.349551 kJ/mol
# GULP energy per Si atom -12398.760923 kJ/mol
# Density = 1.022013 g / cm^3
# Si number density = 10.243449 Si / 1000 Ang^3
#
#
#
# Elastic Constant Matrix: (Units=GPa)
#
#
# Indices 1 2 3 4 5 6 
#
# 1 34.9703 24.7043 17.9149 0.0012 3.6167 0.0045
# 2 24.7043 25.9539 32.8481 0.0018 8.3845 0.0054
# 3 17.9149 32.8481 103.4019 -0.0004 7.6991 -0.0006
# 4 0.0012 0.0018 -0.0004 29.2257 0.0000 -4.7674
# 5 3.6167 8.3845 7.6991 0.0000 37.5105 0.0007
# 6 0.0045 0.0054 -0.0006 -4.7674 0.0007 15.0270
#
#
#
# Elastic Compliance Matrix: (Units=1/GPa)
#
#
# Indices 1 2 3 4 5 6 
#
# 1 0.127343 -0.163035 0.028363 0.000009 0.018343 0.000024
# 2 -0.163035 0.277394 -0.057303 -0.000021 -0.034523 -0.000058
# 3 0.028363 -0.057303 0.022555 0.000005 0.005444 0.000014
# 4 0.000009 -0.000021 0.000005 0.036084 0.000003 0.011448
# 5 0.018343 -0.034523 0.005444 0.000003 0.031490 0.000007
# 6 0.000024 -0.000058 0.000014 0.011448 0.000007 0.070179
#
#
# Mechanical properties :
#
#
# Convention : Reuss Voigt Hill
#
# Bulk Modulus (GPa) = 23.07265 35.02898 29.05081
# Shear Modulus (GPa) = 5.18973 22.27655 13.73314
#
# Velocity S-wave (km/s) = 1.59333 3.30109 2.59190
# Velocity P-wave (km/s) = 3.83034 5.62716 4.81334
#
# Compressibility (1/GPa) = 0.04334137
#
# Stress axis : x y z
#
# Youngs Moduli (GPa) = 7.85283 3.60498 44.33546
#
# Poissons Ratio (x) = 0.58774 -1.25751
# Poissons Ratio (y) = 1.28029 2.54058
# Poissons Ratio (z) = -0.22273 0.20658
#
# Static dielectric constant tensor:
#      x y z
#    x 3.584860 0.000000 0.078520 
#    y 0.000000 3.451840 0.000000 
#    z 0.078520 0.000000 3.968570 
# 
# 
# High freq. dielectric constant tensor:
#      x y z
#    x 1.784460 0.000000 0.000710 
#    y 0.000000 1.773390 0.000000 
#    z 0.000710 0.000000 1.817030 
# 
# From -- ./inp_files/378205.got.cif
#   From: 2010.06.25/outbox.ucp.g09.slc.cvg/sg12_190_cif.got.tgz:378205.got - 2010.06.28 13:50:54.
