data_PCOD8116472
_publ_section_title
;
Structure prediction by ZEFSAII (Michael W. Deem and Ramdas Pophale) SiO2 
 PCOD8116472
Probable space group: C 2/M
;
_chemical_formula_sum "Si O2"
_cell_formula_units_Z 28
_cell_length_a 18.000000
_cell_length_b 9.000000
_cell_length_c 27.000000
_cell_angle_alpha 90.000000
_cell_angle_beta 40.000000
_cell_angle_gamma 90.000000
_cell_volume 2811.553005
_symmetry_space_group_name_H-M "C 2/M"
_symmetry_group_IT_number 12
_symmetry_cell_setting 'monoclinic'
loop_
_space_group_symop_operation_xyz
x,y,z
-x,y,-z
-x,-y,-z
x,-y,z
1/2+x,1/2+y,z
1/2-x,1/2+y,-z
1/2-x,1/2-y,-z
1/2+x,1/2-y,z
loop_
_atom_site_type_symbol
_atom_site_label
_atom_site_fract_x
_atom_site_fract_y
_atom_site_fract_z
Si Si1 0.210731 0.825617 0.199890
Si Si2 0.870398 0.170087 0.931016
Si Si3 0.907389 0.674521 0.509727
Si Si4 0.441507 0.825528 0.800841
Si Si5 0.053556 0.169244 0.922546
Si Si6 0.492663 0.663013 0.375169
Si Si7 0.649335 0.333219 0.648590
O O1 0.165884 0.747946 0.172996
O O2 0.335885 0.764253 0.151593
O O3 0.117571 0.789643 0.290116
O O4 0.217826 0.000000 0.186115
O O5 0.942474 0.262630 0.854990
O O6 0.947506 0.178838 0.939904
O O7 0.849690 0.000000 0.925106
O O8 0.750000 0.250000 0.000000
O O9 0.901659 0.500000 0.518565
O O10 0.952871 0.711124 0.432506
O O11 0.778349 0.735294 0.585520
O O12 0.000000 0.745951 0.500000
O O13 0.567471 0.783963 0.716917
O O14 0.423458 0.000000 0.808778
O O15 0.096054 0.000000 0.908060
O O16 0.000000 0.235955 0.000000
O O17 0.502827 0.500000 0.395162
O O18 0.391998 0.654822 0.386366
O O19 0.642169 0.500000 0.676010
#
# Coordination Sequence:
#
# PCOD8116472 Si02
#       7
#     8   8   8   8   8   8   8
#     4  10  21  38  60  86 115 146 184 232 285 337
#     4  11  23  39  60  86 118 152 187 232 282 331
#     4  10  21  35  53  79 110 144 182 227 279 333
#     4  11  22  37  59  85 113 148 192 234 278 336
#     4  10  22  39  59  85 115 147 186 231 277 331
#     4   9  19  35  55  79 107 141 181 226 274 329
#     4   9  19  37  57  79 109 143 184 231 279 332
#
# _framework density 9.9589090000000002
#
# number of rings (size 3 to 8) (size 9 to 14) (size 15 to 20)
#    0.000    2.000    0.000    4.286    0.000    7.429 
#    0.000    4.286    0.000    0.000    0.000    0.000 
#    0.000    0.000    0.000    0.000    0.000    0.000 
#
# Total GULP energy -347141.488091 kJ/mol
# GULP energy per Si atom -12397.910289 kJ/mol
# Density = 0.993624 g / cm^3
# Si number density = 9.958909 Si / 1000 Ang^3
#
#
#
# Elastic Constant Matrix: (Units=GPa)
#
#
# Indices 1 2 3 4 5 6 
#
# 1 73.5357 38.9221 61.2713 0.0000 -25.3824 -0.0003
# 2 38.9221 95.0831 49.0252 0.0000 -8.9504 -0.0007
# 3 61.2713 49.0252 87.4926 0.0000 -20.6274 -0.0001
# 4 0.0000 0.0000 0.0000 27.5273 0.0000 1.7176
# 5 -25.3824 -8.9504 -20.6274 0.0000 36.8909 -0.0001
# 6 -0.0003 -0.0007 -0.0001 1.7176 -0.0001 23.9957
#
#
#
# Elastic Compliance Matrix: (Units=1/GPa)
#
#
# Indices 1 2 3 4 5 6 
#
# 1 0.037812 -0.003074 -0.021654 0.000000 0.013162 0.000000
# 2 -0.003074 0.015087 -0.006838 0.000000 -0.002278 0.000000
# 3 -0.021654 -0.006838 0.030549 0.000000 0.000524 0.000000
# 4 0.000000 0.000000 0.000000 0.036491 0.000000 -0.002612
# 5 0.013162 -0.002278 0.000524 0.000000 0.035903 0.000000
# 6 0.000000 0.000000 0.000000 -0.002612 0.000000 0.041861
#
#
# Mechanical properties :
#
#
# Convention : Reuss Voigt Hill
#
# Bulk Modulus (GPa) = 49.22413 61.61648 55.42031
# Shear Modulus (GPa) = 18.68423 24.80896 21.74659
#
# Velocity S-wave (km/s) = 3.06611 3.53309 3.30785
# Velocity P-wave (km/s) = 6.10753 6.90262 6.51721
#
# Compressibility (1/GPa) = 0.02031524
#
# Stress axis : x y z
#
# Youngs Moduli (GPa) = 26.44684 66.28344 32.73476
#
# Poissons Ratio (x) = 0.20378 0.70883
# Poissons Ratio (y) = 0.08131 0.22383
# Poissons Ratio (z) = 0.57267 0.45323
#
# Static dielectric constant tensor:
#      x y z
#    x 3.664550 0.000000 -0.231600 
#    y 0.000000 3.599670 0.000000 
#    z -0.231600 0.000000 3.532990 
# 
# 
# High freq. dielectric constant tensor:
#      x y z
#    x 1.768550 0.000000 -0.017970 
#    y 0.000000 1.772310 0.000000 
#    z -0.017970 0.000000 1.776670 
# 
# From -- ./inp_files/362908.got.cif
#   From: 2010.06.25/outbox.ucp.g09.slc.cvg/sg12_182_cif.got.tgz:362908.got - 2010.06.28 13:50:54.
