data_PCOD8116557
_publ_section_title
;
Structure prediction by ZEFSAII (Michael W. Deem and Ramdas Pophale) SiO2 
 PCOD8116557
Probable space group: C 2/M
;
_chemical_formula_sum "Si O2"
_cell_formula_units_Z 18
_cell_length_a 15.000000
_cell_length_b 15.000000
_cell_length_c 24.000000
_cell_angle_alpha 90.000000
_cell_angle_beta 20.000000
_cell_angle_gamma 90.000000
_cell_volume 1846.908774
_symmetry_space_group_name_H-M "C 2/M"
_symmetry_group_IT_number 12
_symmetry_cell_setting 'monoclinic'
loop_
_space_group_symop_operation_xyz
x,y,z
-x,y,-z
-x,-y,-z
x,-y,z
1/2+x,1/2+y,z
1/2-x,1/2+y,-z
1/2-x,1/2-y,-z
1/2+x,1/2-y,z
loop_
_atom_site_type_symbol
_atom_site_label
_atom_site_fract_x
_atom_site_fract_y
_atom_site_fract_z
Si Si1 0.105457 0.828244 0.331822
Si Si2 0.788935 0.000000 0.171282
Si Si3 0.508205 0.824767 0.688946
Si Si4 0.448060 0.809924 0.848504
Si Si5 0.769162 0.000000 0.004597
Si Si6 0.927059 0.500000 0.106091
O O1 0.079752 0.750975 0.301680
O O2 0.264795 0.795857 0.293165
O O3 0.809667 0.851600 0.520459
O O4 0.256947 0.913082 0.218829
O O5 0.620643 0.912469 0.260822
O O6 0.000000 0.000000 0.000000
O O7 0.929004 0.000000 0.150881
O O8 0.424745 0.783183 0.797509
O O9 0.374290 0.913456 0.887975
O O10 0.250000 0.750000 0.000000
O O11 0.707914 0.000000 0.974002
O O12 0.000000 0.500000 0.000000
#
# Coordination Sequence:
#
# PCOD8116557 Si02
#       6
#     8   4   8   8   4   4
#     4  10  24  40  60  89 122 164 200 244 311 366
#     4  12  21  37  64  89 118 153 206 254 295 350
#     4  11  23  40  61  88 126 159 198 252 307 363
#     4  11  22  37  63  89 121 156 204 252 297 360
#     4  10  22  37  55  95 110 153 199 245 299 344
#     4  10  23  40  64  87 122 160 203 250 297 366
#
# _framework density 9.7460149999999999
#
# number of rings (size 3 to 8) (size 9 to 14) (size 15 to 20)
#    0.000    1.333    2.222    2.667    6.222    0.000 
#    0.000    4.444    0.000    1.333    0.000    0.000 
#    0.000    0.000    0.000    0.000    0.000    0.000 
#
# Total GULP energy -222990.054655 kJ/mol
# GULP energy per Si atom -12388.336370 kJ/mol
# Density = 0.972383 g / cm^3
# Si number density = 9.746015 Si / 1000 Ang^3
#
#
#
# Elastic Constant Matrix: (Units=GPa)
#
#
# Indices 1 2 3 4 5 6 
#
# 1 170.4954 34.8455 59.7067 0.0280 -31.1916 0.0502
# 2 34.8455 93.8003 44.2129 -0.2258 -15.7880 0.1068
# 3 59.7067 44.2129 97.3114 -0.6072 -25.9027 0.3840
# 4 0.0280 -0.2258 -0.6072 32.6476 -0.0172 -7.0349
# 5 -31.1916 -15.7880 -25.9027 -0.0172 46.7666 0.0201
# 6 0.0502 0.1068 0.3840 -7.0349 0.0201 21.1736
#
#
#
# Elastic Compliance Matrix: (Units=1/GPa)
#
#
# Indices 1 2 3 4 5 6 
#
# 1 0.007845 -0.000661 -0.003730 -0.000074 0.002943 0.000025
# 2 -0.000661 0.013697 -0.005518 0.000000 0.001127 0.000032
# 3 -0.003730 -0.005518 0.016323 0.000231 0.004690 -0.000187
# 4 -0.000074 0.000000 0.000231 0.032996 0.000086 0.010959
# 5 0.002943 0.001127 0.004690 0.000086 0.026324 -0.000094
# 6 0.000025 0.000032 -0.000187 0.010959 -0.000094 0.050873
#
#
# Mechanical properties :
#
#
# Convention : Reuss Voigt Hill
#
# Bulk Modulus (GPa) = 55.41173 71.01523 63.21348
# Shear Modulus (GPa) = 28.75362 34.97368 31.86365
#
# Velocity S-wave (km/s) = 3.84493 4.24046 4.04753
# Velocity P-wave (km/s) = 6.94269 7.77736 7.37185
#
# Compressibility (1/GPa) = 0.01804672
#
# Stress axis : x y z
#
# Youngs Moduli (GPa) = 127.46773 73.00915 61.26453
#
# Poissons Ratio (x) = 0.04825 0.22854
# Poissons Ratio (y) = 0.08424 0.33804
# Poissons Ratio (z) = 0.47550 0.40285
#
# Static dielectric constant tensor:
#      x y z
#    x 4.550900 -0.001830 -0.609070 
#    y -0.001830 3.599720 0.001680 
#    z -0.609070 0.001680 3.693770 
# 
# 
# High freq. dielectric constant tensor:
#      x y z
#    x 1.794720 0.000000 -0.027480 
#    y 0.000000 1.774690 0.000060 
#    z -0.027480 0.000060 1.743470 
# 
# From -- ./inp_files/340044.got.cif
#   From: 2010.06.25/outbox.ucp.g09.slc.cvg/sg12_171_cif.got.tgz:340044.got - 2010.06.28 13:50:54.
