data_PCOD8116252
_publ_section_title
;
Structure prediction by ZEFSAII (Michael W. Deem and Ramdas Pophale) SiO2 
 PCOD8116252
Probable space group: C 2/M
;
_chemical_formula_sum "Si O2"
_cell_formula_units_Z 32
_cell_length_a 24.000000
_cell_length_b 9.000000
_cell_length_c 30.000000
_cell_angle_alpha 90.000000
_cell_angle_beta 30.000000
_cell_angle_gamma 90.000000
_cell_volume 3240.000000
_symmetry_space_group_name_H-M "C 2/M"
_symmetry_group_IT_number 12
_symmetry_cell_setting 'monoclinic'
loop_
_space_group_symop_operation_xyz
x,y,z
-x,y,-z
-x,-y,-z
x,-y,z
1/2+x,1/2+y,z
1/2-x,1/2+y,-z
1/2-x,1/2-y,-z
1/2+x,1/2-y,z
loop_
_atom_site_type_symbol
_atom_site_label
_atom_site_fract_x
_atom_site_fract_y
_atom_site_fract_z
Si Si1 0.046307 0.830566 0.893891
Si Si2 0.881257 0.330744 0.844187
Si Si3 0.733144 0.328316 0.223488
Si Si4 0.419367 0.165998 0.360791
Si Si5 0.480282 0.325499 0.405311
Si Si6 0.444668 0.668366 0.217012
Si Si7 0.685775 0.172215 0.931516
Si Si8 0.253410 0.825396 0.398391
O O1 0.165524 0.760251 0.824254
O O2 0.038203 0.825526 0.846965
O O3 0.042930 0.000000 0.914013
O O4 0.937459 0.745103 0.988600
O O5 0.853665 0.500000 0.877169
O O6 0.763274 0.250572 0.915208
O O7 0.963485 0.326883 0.745557
O O8 0.947354 0.251962 0.838465
O O9 0.743245 0.500000 0.231138
O O10 0.608055 0.264637 0.324643
O O11 0.746559 0.311426 0.161295
O O12 0.429182 0.280962 0.393658
O O13 0.314587 0.213546 0.402742
O O14 0.400542 0.000000 0.392607
O O15 0.492274 0.500000 0.397188
O O16 0.379433 0.278578 0.509682
O O17 0.443641 0.500000 0.235930
O O18 0.323911 0.740955 0.311643
O O19 0.669089 0.000000 0.955943
O O20 0.264821 0.000000 0.380820
#
# Coordination Sequence:
#
# PCOD8116252 Si02
#       8
#     8   8   8   8   8   8   8   8
#     4  11  25  42  60  82 109 150 197 241 289 338
#     4  10  20  35  58  88 120 152 186 230 283 339
#     4  10  22  39  59  86 117 149 188 233 283 339
#     4   9  17  29  48  80 117 149 183 222 273 333
#     4  10  19  33  54  82 116 149 185 229 279 338
#     4  10  22  40  59  81 113 151 195 240 283 334
#     4  11  22  38  62  90 118 148 185 232 287 343
#     4   9  19  34  54  82 114 150 189 229 278 338
#
# _framework density 9.8765429999999999
#
# number of rings (size 3 to 8) (size 9 to 14) (size 15 to 20)
#    0.000    2.000    1.250    3.000    0.000    8.000 
#    0.000    0.625    0.000    3.750    0.000    0.000 
#    0.000    0.000    0.000    0.000    0.000    0.000 
#
# Total GULP energy -396566.985247 kJ/mol
# GULP energy per Si atom -12392.718289 kJ/mol
# Density = 0.985406 g / cm^3
# Si number density = 9.876543 Si / 1000 Ang^3
#
#
#
# Elastic Constant Matrix: (Units=GPa)
#
#
# Indices 1 2 3 4 5 6 
#
# 1 58.2519 35.8492 26.6174 -0.0297 -25.6791 0.1304
# 2 35.8492 98.8838 41.5524 -0.0206 -20.1865 0.0699
# 3 26.6174 41.5524 114.9061 0.0004 -44.5820 -0.0743
# 4 -0.0297 -0.0206 0.0004 33.4260 0.0033 -6.7692
# 5 -25.6791 -20.1865 -44.5820 0.0033 43.1621 -0.0563
# 6 0.1304 0.0699 -0.0743 -6.7692 -0.0563 31.8401
#
#
#
# Elastic Compliance Matrix: (Units=1/GPa)
#
#
# Indices 1 2 3 4 5 6 
#
# 1 0.027654 -0.007913 0.002341 0.000006 0.015170 -0.000062
# 2 -0.007913 0.014281 -0.004283 -0.000001 -0.002452 -0.000013
# 3 0.002341 -0.004283 0.015807 0.000011 0.015717 0.000067
# 4 0.000006 -0.000001 0.000011 0.031263 0.000021 0.006646
# 5 0.015170 -0.002452 0.015717 0.000021 0.047281 0.000068
# 6 -0.000062 -0.000013 0.000067 0.006646 0.000068 0.032821
#
#
# Mechanical properties :
#
#
# Convention : Reuss Voigt Hill
#
# Bulk Modulus (GPa) = 26.29236 53.34220 39.81728
# Shear Modulus (GPa) = 24.81477 32.88716 28.85096
#
# Velocity S-wave (km/s) = 3.54820 4.08476 3.82590
# Velocity P-wave (km/s) = 5.48869 7.02212 6.30222
#
# Compressibility (1/GPa) = 0.03803386
#
# Stress axis : x y z
#
# Youngs Moduli (GPa) = 36.16089 70.02536 63.26205
#
# Poissons Ratio (x) = 0.55408 -0.14811
# Poissons Ratio (y) = 0.28613 0.27093
# Poissons Ratio (z) = -0.08466 0.29990
#
# Static dielectric constant tensor:
#      x y z
#    x 3.435260 -0.000040 -0.348110 
#    y -0.000040 3.779190 -0.000010 
#    z -0.348110 -0.000010 4.036480 
# 
# 
# High freq. dielectric constant tensor:
#      x y z
#    x 1.754700 -0.000010 -0.026720 
#    y -0.000010 1.774610 0.000000 
#    z -0.026720 0.000000 1.795040 
# 
# From -- ./inp_files/382224.got.cif
#   From: 2010.06.25/outbox.ucp.g09.slc.cvg/sg12_192_cif.got.tgz:382224.got - 2010.06.28 13:50:54.
