data_PCOD8116829
_publ_section_title
;
Structure prediction by ZEFSAII (Michael W. Deem and Ramdas Pophale) SiO2 
 PCOD8116829
Probable space group: P 2/C
;
_chemical_formula_sum "Si O2"
_cell_formula_units_Z 26
_cell_length_a 13.000324
_cell_length_b 10.203766
_cell_length_c 17.737040
_cell_angle_alpha 90.000000
_cell_angle_beta 46.985098
_cell_angle_gamma 90.000000
_cell_volume 1720.354374
_symmetry_space_group_name_H-M "P 2/C"
_symmetry_group_IT_number 13
_symmetry_cell_setting 'monoclinic'
loop_
_space_group_symop_operation_xyz
x,y,z
-x,y,1/2-z
-x,-y,-z
x,-y,1/2+z
loop_
_atom_site_type_symbol
_atom_site_label
_atom_site_fract_x
_atom_site_fract_y
_atom_site_fract_z
Si Si1 0.157876 0.114951 0.481616
Si Si2 0.658085 0.950899 0.835649
Si Si3 0.363184 0.749203 0.356798
Si Si4 0.658092 0.049097 0.506259
Si Si5 0.500000 0.500000 0.750000
Si Si6 0.363181 0.250798 0.280024
Si Si7 0.842117 0.885048 0.139492
O O1 0.235670 0.238390 0.403899
O O2 0.999995 0.156610 0.583265
O O3 0.239673 0.065401 0.514723
O O4 0.158156 0.000002 0.420922
O O5 0.760306 0.065409 0.754401
O O6 0.702496 0.918346 0.898750
O O7 0.675176 0.816919 0.779680
O O8 0.499993 0.999988 0.910076
O O9 0.500000 0.819806 0.250000
O O10 0.324831 0.816920 0.454858
O O11 0.400341 0.594733 0.351097
O O12 0.235669 0.761610 0.360440
O O13 0.599663 0.594732 0.751432
O O14 0.500000 0.180195 0.250000
#
# Coordination Sequence:
#
# PCOD8116829 Si02
#       7
#     4   4   4   4   2   4   4
#     4   9  17  28  45  68  90 116 147 186 235 281
#     4  10  17  26  44  69  91 116 147 184 236 285
#     4   9  16  29  47  62  89 124 155 192 223 263
#     4  10  17  26  44  69  91 116 147 184 236 285
#     4   8  16  28  50  64  84 128 168 194 224 244
#     4   9  16  29  47  62  89 124 155 192 223 263
#     4   9  17  28  45  68  90 116 147 186 235 281
#
# _framework density 15.113165
#
# number of rings (size 3 to 8) (size 9 to 14) (size 15 to 20)
#    0.923    1.846    3.077    0.000    0.000    0.615 
#    0.000    1.538    0.000    0.000    0.000    0.000 
#    0.000    4.923    0.000    0.000    0.000    0.000 
#
# Total GULP energy -322124.850947 kJ/mol
# GULP energy per Si atom -12389.417344 kJ/mol
# Density = 1.507877 g / cm^3
# Si number density = 15.113165 Si / 1000 Ang^3
#
#
#
# Elastic Constant Matrix: (Units=GPa)
#
#
# Indices 1 2 3 4 5 6 
#
# 1 83.3683 34.1509 71.0043 0.0000 -5.9596 0.0000
# 2 34.1509 88.2377 36.6849 0.0000 6.3026 0.0000
# 3 71.0043 36.6849 83.2455 0.0000 5.7689 0.0000
# 4 0.0000 0.0000 0.0000 13.0298 0.0000 -1.1737
# 5 -5.9596 6.3026 5.7689 0.0000 33.9847 0.0000
# 6 0.0000 0.0000 0.0000 -1.1737 0.0000 13.5039
#
#
#
# Elastic Compliance Matrix: (Units=1/GPa)
#
#
# Indices 1 2 3 4 5 6 
#
# 1 0.052498 -0.002988 -0.044663 0.000000 0.017342 0.000000
# 2 -0.002988 0.014127 -0.003500 0.000000 -0.002550 0.000000
# 3 -0.044663 -0.003500 0.052769 0.000000 -0.016141 0.000000
# 4 0.000000 0.000000 0.000000 0.077353 0.000000 0.006723
# 5 0.017342 -0.002550 -0.016141 0.000000 0.035679 0.000000
# 6 0.000000 0.000000 0.000000 0.006723 0.000000 0.074637
#
#
# Mechanical properties :
#
#
# Convention : Reuss Voigt Hill
#
# Bulk Modulus (GPa) = 58.50963 59.83686 59.17324
# Shear Modulus (GPa) = 12.04636 19.63777 15.84207
#
# Velocity S-wave (km/s) = 2.82632 3.60860 3.24115
# Velocity P-wave (km/s) = 7.03201 7.55256 7.29693
#
# Compressibility (1/GPa) = 0.01709120
#
# Stress axis : x y z
#
# Youngs Moduli (GPa) = 19.04821 70.78738 18.95047
#
# Poissons Ratio (x) = 0.21154 0.84639
# Poissons Ratio (y) = 0.05692 0.06632
# Poissons Ratio (z) = 0.85076 0.24774
#
# Static dielectric constant tensor:
#      x y z
#    x 2.995800 0.000000 -0.129910 
#    y 0.000000 2.583410 0.000000 
#    z -0.129910 0.000000 2.943280 
# 
# 
# High freq. dielectric constant tensor:
#      x y z
#    x 1.573940 0.000000 -0.009750 
#    y 0.000000 1.543450 0.000000 
#    z -0.009750 0.000000 1.569990 
# 
# From -- ./inp_files/50827.got.cif
#   From: 2010.06.25/outbox.cif.g09.slc.cpg/sg13_26_cif.got.tgz:50827.got - 2010.06.28 04:50:58.
