data_PCOD8116494
_publ_section_title
;
Structure prediction by ZEFSAII (Michael W. Deem and Ramdas Pophale) SiO2 
 PCOD8116494
Probable space group: C 2/M
;
_chemical_formula_sum "Si O2"
_cell_formula_units_Z 28
_cell_length_a 9.000000
_cell_length_b 30.000000
_cell_length_c 21.000000
_cell_angle_alpha 90.000000
_cell_angle_beta 150.000000
_cell_angle_gamma 90.000000
_cell_volume 2835.000000
_symmetry_space_group_name_H-M "C 2/M"
_symmetry_group_IT_number 12
_symmetry_cell_setting 'monoclinic'
loop_
_space_group_symop_operation_xyz
x,y,z
-x,y,-z
-x,-y,-z
x,-y,z
1/2+x,1/2+y,z
1/2-x,1/2+y,-z
1/2-x,1/2-y,-z
1/2+x,1/2-y,z
loop_
_atom_site_type_symbol
_atom_site_label
_atom_site_fract_x
_atom_site_fract_y
_atom_site_fract_z
Si Si1 0.791417 0.949793 0.149423
Si Si2 0.793212 0.866549 0.239821
Si Si3 0.214012 0.387819 0.357036
Si Si4 0.876980 0.140716 0.022154
Si Si5 0.657453 0.551443 0.165605
Si Si6 0.139341 0.696338 0.731480
Si Si7 0.304418 0.716829 0.650363
O O1 0.857278 0.913230 0.227802
O O2 0.082247 0.949730 0.212523
O O3 0.748758 0.000000 0.162615
O O4 0.500000 0.936937 0.000000
O O5 0.798058 0.876265 0.316244
O O6 0.033455 0.828588 0.312329
O O7 0.469811 0.848595 0.099408
O O8 0.500000 0.405539 0.500000
O O9 0.983450 0.428819 0.273987
O O10 0.099820 0.343257 0.349907
O O11 0.927182 0.087131 0.049243
O O12 0.045993 0.174572 0.131570
O O13 0.000000 0.154853 0.000000
O O14 0.629689 0.500000 0.128172
O O15 0.190239 0.711853 0.679172
O O16 0.024475 0.740249 0.726934
O O17 0.000000 0.725763 0.500000
#
# Coordination Sequence:
#
# PCOD8116494 Si02
#       7
#     8   8   8   8   8   8   8
#     4  10  21  37  61  92 127 162 202 251 311 377
#     4  12  23  39  66  96 125 163 207 258 314 370
#     4  11  23  42  64  88 126 168 210 259 305 367
#     4  11  22  41  61  96 132 158 203 259 319 373
#     4  10  21  38  62  91 127 167 206 256 311 368
#     4  11  24  43  66  91 125 164 205 258 310 368
#     4  12  26  44  67  93 124 168 213 251 301 372
#
# _framework density 9.8765429999999999
#
# number of rings (size 3 to 8) (size 9 to 14) (size 15 to 20)
#    0.000    1.000    4.286    4.286    0.000    1.714 
#    0.000    0.000    0.000    2.143    0.000    0.000 
#    0.000    0.000    0.000    0.000    0.000    0.000 
#
# Total GULP energy -347061.757530 kJ/mol
# GULP energy per Si atom -12395.062769 kJ/mol
# Density = 0.985406 g / cm^3
# Si number density = 9.876543 Si / 1000 Ang^3
#
#
#
# Elastic Constant Matrix: (Units=GPa)
#
#
# Indices 1 2 3 4 5 6 
#
# 1 104.2418 33.6826 6.4250 -0.0009 -9.2857 -0.0007
# 2 33.6826 143.7569 22.7744 -0.0004 -3.4558 -0.0001
# 3 6.4250 22.7744 76.8145 -0.0080 -3.1219 -0.0043
# 4 -0.0009 -0.0004 -0.0080 25.4999 -0.0008 5.1252
# 5 -9.2857 -3.4558 -3.1219 -0.0008 29.1134 -0.0002
# 6 -0.0007 -0.0001 -0.0043 5.1252 -0.0002 43.7784
#
#
#
# Elastic Compliance Matrix: (Units=1/GPa)
#
#
# Indices 1 2 3 4 5 6 
#
# 1 0.010653 -0.002413 -0.000049 0.000000 0.003106 0.000000
# 2 -0.002413 0.007858 -0.002130 -0.000001 -0.000066 0.000000
# 3 -0.000049 -0.002130 0.013703 0.000004 0.001201 0.000001
# 4 0.000000 -0.000001 0.000004 0.040161 0.000002 -0.004702
# 5 0.003106 -0.000066 0.001201 0.000002 0.035460 0.000000
# 6 0.000000 0.000000 0.000001 -0.004702 0.000000 0.023393
#
#
# Mechanical properties :
#
#
# Convention : Reuss Voigt Hill
#
# Bulk Modulus (GPa) = 43.42756 50.06413 46.74585
# Shear Modulus (GPa) = 33.76351 37.14041 35.45196
#
# Velocity S-wave (km/s) = 4.13883 4.34087 4.24105
# Velocity P-wave (km/s) = 6.69871 7.10804 6.90641
#
# Compressibility (1/GPa) = 0.02302685
#
# Stress axis : x y z
#
# Youngs Moduli (GPa) = 93.87356 127.26515 72.97697
#
# Poissons Ratio (x) = 0.30715 0.00359
# Poissons Ratio (y) = 0.22656 0.15547
# Poissons Ratio (z) = 0.00462 0.27113
#
# Static dielectric constant tensor:
#      x y z
#    x 3.801080 0.000000 0.217620 
#    y 0.000000 3.991210 0.000000 
#    z 0.217620 0.000000 3.373700 
# 
# 
# High freq. dielectric constant tensor:
#      x y z
#    x 1.791870 0.000000 0.013220 
#    y 0.000000 1.796520 0.000000 
#    z 0.013220 0.000000 1.759180 
# 
# From -- ./inp_files/303072.got.cif
#   From: 2010.06.25/outbox.ucp.g09.slc.cvg/sg12_152_cif.got.tgz:303072.got - 2010.06.28 13:50:54.
