data_PCOD8116906
_publ_section_title
;
Structure prediction by ZEFSAII (Michael W. Deem and Ramdas Pophale) SiO2 
 PCOD8116906
Probable space group: P 2/C
;
_chemical_formula_sum "Si O2"
_cell_formula_units_Z 30
_cell_length_a 12.156667
_cell_length_b 13.810705
_cell_length_c 11.870304
_cell_angle_alpha 90.000000
_cell_angle_beta 52.061475
_cell_angle_gamma 90.000000
_cell_volume 1571.766434
_symmetry_space_group_name_H-M "P 2/C"
_symmetry_group_IT_number 13
_symmetry_cell_setting 'monoclinic'
loop_
_space_group_symop_operation_xyz
x,y,z
-x,y,1/2-z
-x,-y,-z
x,-y,1/2+z
loop_
_atom_site_type_symbol
_atom_site_label
_atom_site_fract_x
_atom_site_fract_y
_atom_site_fract_z
Si Si1 0.344346 0.520099 0.446940
Si Si2 0.500000 0.194319 0.250000
Si Si3 0.317585 0.149076 0.972152
Si Si4 0.643857 0.810319 0.298010
Si Si5 0.418273 0.388987 0.580444
Si Si6 0.836630 0.323938 0.338939
Si Si7 0.660944 0.361371 0.245902
Si Si8 0.620706 0.051027 0.991240
O O1 0.312629 0.463215 0.585661
O O2 0.503068 0.563803 0.360215
O O3 0.234269 0.608532 0.519301
O O4 0.328551 0.452042 0.347297
O O5 0.633665 0.261722 0.195517
O O6 0.548702 0.124349 0.121341
O O7 0.279556 0.171238 0.867075
O O8 0.477236 0.176178 0.895909
O O9 0.287597 0.034324 0.010075
O O10 0.217468 0.213861 0.112442
O O11 0.671749 0.701391 0.321663
O O12 0.710393 0.885108 0.346396
O O13 0.529356 0.366628 0.412324
O O14 0.799959 0.355783 0.233915
O O15 0.000000 0.329289 0.250000
O O16 0.500000 0.000000 0.000000
#
# Coordination Sequence:
#
# PCOD8116906 Si02
#       8
#     4   2   4   4   4   4   4   4
#     4  10  20  32  54  81 109 151 193 236 288 343
#     4  12  18  32  60  90 126 146 176 242 312 362
#     4  10  20  33  53  81 108 150 191 233 295 343
#     4  10  17  32  53  84 117 141 176 234 308 357
#     4  10  18  33  52  85 120 144 176 236 299 358
#     4  11  25  42  55  75 117 164 205 242 276 341
#     4  11  19  35  58  86 114 149 193 231 299 354
#     4  10  18  30  50  84 120 147 175 230 297 364
#
# _framework density 19.086805999999999
#
# number of rings (size 3 to 8) (size 9 to 14) (size 15 to 20)
#    0.000    1.600    5.333    2.400    0.000    4.800 
#    0.000    0.000    0.000    3.200    0.000    0.933 
#    0.000    0.000    0.000    0.000    0.000    0.000 
#
# Total GULP energy -371718.389865 kJ/mol
# GULP energy per Si atom -12390.612996 kJ/mol
# Density = 1.904336 g / cm^3
# Si number density = 19.086806 Si / 1000 Ang^3
#
#
#
# Elastic Constant Matrix: (Units=GPa)
#
#
# Indices 1 2 3 4 5 6 
#
# 1 76.8125 32.7916 32.9606 0.0000 7.5330 0.0000
# 2 32.7916 154.9029 40.3796 0.0000 13.5738 0.0000
# 3 32.9606 40.3796 58.4576 0.0000 20.0863 0.0000
# 4 0.0000 0.0000 0.0000 32.2183 0.0000 18.9010
# 5 7.5330 13.5738 20.0863 0.0000 26.5018 0.0000
# 6 0.0000 0.0000 0.0000 18.9010 0.0000 20.0685
#
#
#
# Elastic Compliance Matrix: (Units=1/GPa)
#
#
# Indices 1 2 3 4 5 6 
#
# 1 0.017633 -0.001384 -0.010151 0.000000 0.003391 0.000000
# 2 -0.001384 0.007982 -0.004684 0.000000 -0.000145 0.000000
# 3 -0.010151 -0.004684 0.032789 0.000000 -0.019567 0.000000
# 4 0.000000 0.000000 0.000000 0.069363 0.000000 -0.065327
# 5 0.003391 -0.000145 -0.019567 0.000000 0.051674 0.000000
# 6 0.000000 0.000000 0.000000 -0.065327 0.000000 0.111356
#
#
# Mechanical properties :
#
#
# Convention : Reuss Voigt Hill
#
# Bulk Modulus (GPa) = 38.51123 55.82630 47.16876
# Shear Modulus (GPa) = 15.06526 28.02713 21.54619
#
# Velocity S-wave (km/s) = 2.81250 3.83613 3.36349
# Velocity P-wave (km/s) = 5.54685 6.99524 6.31272
#
# Compressibility (1/GPa) = 0.02596645
#
# Stress axis : x y z
#
# Youngs Moduli (GPa) = 56.71232 125.27855 30.49834
#
# Poissons Ratio (x) = 0.17334 0.30960
# Poissons Ratio (y) = 0.07847 0.14284
# Poissons Ratio (z) = 0.57571 0.58677
#
# Static dielectric constant tensor:
#      x y z
#    x 3.339000 0.000000 0.667490 
#    y 0.000000 4.333710 0.000000 
#    z 0.667490 0.000000 3.439700 
# 
# 
# High freq. dielectric constant tensor:
#      x y z
#    x 1.685860 0.000000 0.061020 
#    y 0.000000 1.774130 0.000000 
#    z 0.061020 0.000000 1.719920 
# 
# From -- ./inp_files/34383.got.cif
#   From: 2010.06.25/outbox.cif.g09.slc.cpg/sg13_18_cif.got.tgz:34383.got - 2010.06.28 04:50:58.
