data_PCOD8116716
_publ_section_title
;
Structure prediction by ZEFSAII (Michael W. Deem and Ramdas Pophale) SiO2 
 PCOD8116716
Probable space group: P 2/C
;
_chemical_formula_sum "Si O2"
_cell_formula_units_Z 30
_cell_length_a 18.041216
_cell_length_b 8.585087
_cell_length_c 19.987062
_cell_angle_alpha 90.000000
_cell_angle_beta 36.865390
_cell_angle_gamma 90.000000
_cell_volume 1857.227718
_symmetry_space_group_name_H-M "P 2/C"
_symmetry_group_IT_number 13
_symmetry_cell_setting 'monoclinic'
loop_
_space_group_symop_operation_xyz
x,y,z
-x,y,1/2-z
-x,-y,-z
x,-y,1/2+z
loop_
_atom_site_type_symbol
_atom_site_label
_atom_site_fract_x
_atom_site_fract_y
_atom_site_fract_z
Si Si1 0.383454 0.604416 0.506545
Si Si2 0.174101 0.194779 0.713921
Si Si3 0.000000 0.328557 0.250000
Si Si4 0.809805 0.831440 0.803898
Si Si5 0.805189 0.583478 0.426141
Si Si6 0.346251 0.591021 0.165361
Si Si7 0.862017 0.382743 0.150040
Si Si8 0.042221 0.359306 0.562859
O O1 0.303205 0.762892 0.569583
O O2 0.332530 0.485735 0.486022
O O3 0.527749 0.637098 0.386660
O O4 0.372018 0.527076 0.586951
O O5 0.167125 0.280455 0.647204
O O6 0.286782 0.253625 0.678177
O O7 0.045200 0.223093 0.845413
O O8 0.201928 0.015087 0.684243
O O9 0.056353 0.215706 0.265073
O O10 0.106902 0.437312 0.146206
O O11 0.809012 0.764799 0.728845
O O12 0.833407 0.639430 0.481256
O O13 0.249636 0.504650 0.284766
O O14 0.965944 0.476922 0.118319
O O15 0.917557 0.317879 0.041211
#
# Coordination Sequence:
#
# PCOD8116716 Si02
#       8
#     4   4   2   4   4   4   4   4
#     4   8  16  29  50  65  91 114 159 196 236 263
#     4  10  19  27  47  69 100 122 154 190 254 281
#     4  10  16  28  46  62  96 116 152 200 228 278
#     4  10  19  28  43  75  94 125 149 195 246 291
#     4  10  16  30  47  69  89 121 155 202 232 277
#     4   8  15  32  47  67  85 122 155 200 224 282
#     4   9  18  31  48  65  91 123 164 189 234 277
#     4  10  17  30  47  66  91 128 155 196 229 288
#
# _framework density 16.153109000000001
#
# number of rings (size 3 to 8) (size 9 to 14) (size 15 to 20)
#    0.000    2.667    2.667    1.600    1.867    1.067 
#    0.000    0.667    0.000    0.000    0.000    0.000 
#    0.000    0.000    0.000    0.000    0.000    0.000 
#
# Total GULP energy -371731.126315 kJ/mol
# GULP energy per Si atom -12391.037544 kJ/mol
# Density = 1.611634 g / cm^3
# Si number density = 16.153109 Si / 1000 Ang^3
#
#
#
# Elastic Constant Matrix: (Units=GPa)
#
#
# Indices 1 2 3 4 5 6 
#
# 1 100.1508 38.8092 39.5578 0.0000 -16.6878 0.0000
# 2 38.8092 105.8021 29.8163 0.0000 -5.7471 0.0000
# 3 39.5578 29.8163 47.1543 0.0000 -4.5830 0.0000
# 4 0.0000 0.0000 0.0000 11.9239 0.0000 -1.0274
# 5 -16.6878 -5.7471 -4.5830 0.0000 20.9844 0.0000
# 6 0.0000 0.0000 0.0000 -1.0274 0.0000 13.1639
#
#
#
# Elastic Compliance Matrix: (Units=1/GPa)
#
#
# Indices 1 2 3 4 5 6 
#
# 1 0.017462 -0.002424 -0.012088 0.000000 0.010583 0.000000
# 2 -0.002424 0.011890 -0.005472 0.000000 0.000134 0.000000
# 3 -0.012088 -0.005472 0.034459 0.000000 -0.003585 0.000000
# 4 0.000000 0.000000 0.000000 0.084433 0.000000 0.006590
# 5 0.010583 0.000134 -0.003585 0.000000 0.055324 0.000000
# 6 0.000000 0.000000 0.000000 0.006590 0.000000 0.076480
#
#
# Mechanical properties :
#
#
# Convention : Reuss Voigt Hill
#
# Bulk Modulus (GPa) = 41.93928 52.16375 47.05151
# Shear Modulus (GPa) = 15.24568 18.87604 17.06086
#
# Velocity S-wave (km/s) = 3.07550 3.42214 3.25344
# Velocity P-wave (km/s) = 6.21543 6.92663 6.58064
#
# Compressibility (1/GPa) = 0.02384400
#
# Stress axis : x y z
#
# Youngs Moduli (GPa) = 57.26708 84.10426 29.02022
#
# Poissons Ratio (x) = 0.20386 0.35079
# Poissons Ratio (y) = 0.13881 0.15879
# Poissons Ratio (z) = 0.69223 0.46020
#
# Static dielectric constant tensor:
#      x y z
#    x 3.633990 0.000000 -0.319160 
#    y 0.000000 2.820120 0.000000 
#    z -0.319160 0.000000 2.950310 
# 
# 
# High freq. dielectric constant tensor:
#      x y z
#    x 1.623840 0.000000 -0.012840 
#    y 0.000000 1.600680 0.000000 
#    z -0.012840 0.000000 1.590760 
# 
# From -- ./inp_files/66090.got.cif
#   From: 2010.06.25/outbox.cif.g09.slc.cpg/sg13_34_cif.got.tgz:66090.got - 2010.06.28 04:50:58.
