data_PCOD8116812
_publ_section_title
;
Structure prediction by ZEFSAII (Michael W. Deem and Ramdas Pophale) SiO2 
 PCOD8116812
Probable space group: P 2/C
;
_chemical_formula_sum "Si O2"
_cell_formula_units_Z 22
_cell_length_a 8.946452
_cell_length_b 9.026889
_cell_length_c 16.678842
_cell_angle_alpha 90.000000
_cell_angle_beta 129.886534
_cell_angle_gamma 90.000000
_cell_volume 1033.544127
_symmetry_space_group_name_H-M "P 2/C"
_symmetry_group_IT_number 13
_symmetry_cell_setting 'monoclinic'
loop_
_space_group_symop_operation_xyz
x,y,z
-x,y,1/2-z
-x,-y,-z
x,-y,1/2+z
loop_
_atom_site_type_symbol
_atom_site_label
_atom_site_fract_x
_atom_site_fract_y
_atom_site_fract_z
Si Si1 0.500000 0.543370 0.250000
Si Si2 0.000000 0.191836 0.250000
Si Si3 0.719056 0.053414 0.583160
Si Si4 0.989416 0.848233 0.042823
Si Si5 0.182831 0.701227 0.653618
Si Si6 0.345785 0.801730 0.284867
Si Si7 0.500000 0.946314 0.750000
O O1 0.693006 0.444826 0.321265
O O2 0.469967 0.650580 0.316929
O O3 0.095734 0.297065 0.214142
O O4 0.155636 0.089702 0.348660
O O5 0.796653 0.135931 0.531220
O O6 0.739741 0.184696 0.656070
O O7 0.500000 0.000000 0.500000
O O8 0.176656 0.811945 0.160394
O O9 0.974534 0.714188 0.972408
O O10 0.000000 0.000000 0.000000
O O11 0.308172 0.848753 0.683051
O O12 0.489988 0.943745 0.323541
#
# Coordination Sequence:
#
# PCOD8116812 Si02
#       7
#     2   2   4   4   4   4   2
#     4  10  28  44  68  90 144 194 224 266 352 434
#     4  12  22  42  66 104 136 164 234 294 338 400
#     4  12  23  38  69 109 132 169 225 300 346 388
#     4  12  21  38  71 102 133 168 231 293 342 395
#     4  11  23  42  65 100 131 180 227 278 345 406
#     4  11  22  42  66  99 137 176 230 280 340 401
#     4  10  16  34  68  86 126 160 228 280 314 400
#
# _framework density 21.285979000000001
#
# number of rings (size 3 to 8) (size 9 to 14) (size 15 to 20)
#    0.000    0.727    7.273    1.091    5.091    0.727 
#    3.273    0.909    0.000    0.000    0.000    0.000 
#    0.000    0.000    0.000    0.000    0.000    0.000 
#
# Total GULP energy -272643.795132 kJ/mol
# GULP energy per Si atom -12392.899779 kJ/mol
# Density = 2.123753 g / cm^3
# Si number density = 21.285979 Si / 1000 Ang^3
#
#
#
# Elastic Constant Matrix: (Units=GPa)
#
#
# Indices 1 2 3 4 5 6 
#
# 1 152.1516 49.8688 47.9560 0.0000 -20.7702 0.0000
# 2 49.8688 119.6081 27.4510 0.0000 -5.6890 0.0000
# 3 47.9560 27.4510 91.0977 0.0000 -8.4680 0.0000
# 4 0.0000 0.0000 0.0000 16.9037 0.0000 7.4868
# 5 -20.7702 -5.6890 -8.4680 0.0000 42.2892 0.0000
# 6 0.0000 0.0000 0.0000 7.4868 0.0000 41.9555
#
#
#
# Elastic Compliance Matrix: (Units=1/GPa)
#
#
# Indices 1 2 3 4 5 6 
#
# 1 0.009093 -0.002798 -0.003631 0.000000 0.003362 0.000000
# 2 -0.002798 0.009862 -0.001532 0.000000 -0.000354 0.000000
# 3 -0.003631 -0.001532 0.013415 0.000000 0.000697 0.000000
# 4 0.000000 0.000000 0.000000 0.064235 0.000000 -0.011463
# 5 0.003362 -0.000354 0.000697 0.000000 0.025390 0.000000
# 6 0.000000 0.000000 0.000000 -0.011463 0.000000 0.025880
#
#
# Mechanical properties :
#
#
# Convention : Reuss Voigt Hill
#
# Bulk Modulus (GPa) = 60.79623 68.15655 64.47639
# Shear Modulus (GPa) = 29.53692 36.06846 32.80269
#
# Velocity S-wave (km/s) = 3.72912 4.12086 3.92988
# Velocity P-wave (km/s) = 6.86771 7.39804 7.13780
#
# Compressibility (1/GPa) = 0.01644839
#
# Stress axis : x y z
#
# Youngs Moduli (GPa) = 109.97624 101.40062 74.54303
#
# Poissons Ratio (x) = 0.28370 0.27067
# Poissons Ratio (y) = 0.30770 0.11419
# Poissons Ratio (z) = 0.39933 0.15533
#
# Static dielectric constant tensor:
#      x y z
#    x 6.147460 0.000000 -3.536910 
#    y 0.000000 3.742980 0.000000 
#    z -3.536910 0.000000 10.925100 
# 
# 
# High freq. dielectric constant tensor:
#      x y z
#    x 1.858840 0.000000 0.001420 
#    y 0.000000 1.807550 0.000000 
#    z 0.001420 0.000000 1.830510 
# 
# From -- ./inp_files/63976.got.cif
#   From: 2010.06.25/outbox.cif.g09.slc.cpg/sg13_32_cif.got.tgz:63976.got - 2010.06.28 04:50:58.
