data_PCOD8116826
_publ_section_title
;
Structure prediction by ZEFSAII (Michael W. Deem and Ramdas Pophale) SiO2 
 PCOD8116826
Probable space group: P 2/C
;
_chemical_formula_sum "Si O2"
_cell_formula_units_Z 26
_cell_length_a 21.650953
_cell_length_b 13.783148
_cell_length_c 8.961015
_cell_angle_alpha 90.000000
_cell_angle_beta 27.884374
_cell_angle_gamma 90.000000
_cell_volume 1250.660935
_symmetry_space_group_name_H-M "P 2/C"
_symmetry_group_IT_number 13
_symmetry_cell_setting 'monoclinic'
loop_
_space_group_symop_operation_xyz
x,y,z
-x,y,1/2-z
-x,-y,-z
x,-y,1/2+z
loop_
_atom_site_type_symbol
_atom_site_label
_atom_site_fract_x
_atom_site_fract_y
_atom_site_fract_z
Si Si1 0.500000 0.500764 0.750000
Si Si2 0.108925 0.327723 0.708598
Si Si3 0.188203 0.656356 0.703977
Si Si4 0.796347 0.979858 0.166264
Si Si5 0.760635 0.867596 0.976041
Si Si6 0.319039 0.544910 0.887155
Si Si7 0.928637 0.116682 0.653766
O O1 0.397215 0.565987 0.873955
O O2 0.582276 0.432115 0.461237
O O3 0.156211 0.360454 0.445456
O O4 0.190765 0.387139 0.657631
O O5 0.145590 0.214928 0.642435
O O6 0.954212 0.345574 0.073963
O O7 0.272773 0.755157 0.488458
O O8 0.278092 0.567928 0.458228
O O9 0.880433 0.909721 0.091961
O O10 0.716081 0.060440 0.435040
O O11 0.703212 0.911740 0.256372
O O12 0.896508 0.033168 0.840252
O O13 0.917304 0.867626 0.661530
#
# Coordination Sequence:
#
# PCOD8116826 Si02
#       7
#     2   4   4   4   4   4   4
#     4  10  24  38  62  78 100 136 190 234 276 312
#     4  10  20  34  54  82 115 149 178 215 272 333
#     4  10  20  34  54  82 115 149 178 215 272 333
#     4  10  17  26  42  66 106 151 182 213 246 300
#     4  10  17  27  44  70 105 147 184 209 251 314
#     4  11  21  42  58  80 107 141 180 232 272 325
#     4  10  17  27  44  70 105 147 184 209 251 314
#
# _framework density 20.789007999999999
#
# number of rings (size 3 to 8) (size 9 to 14) (size 15 to 20)
#    0.000    1.846    3.077    4.154    0.000    1.231 
#    0.000    1.538    0.000    0.000    0.000    0.000 
#    0.000   86.154    0.000    0.000    0.000    0.000 
#
# Total GULP energy -322167.332577 kJ/mol
# GULP energy per Si atom -12391.051253 kJ/mol
# Density = 2.074169 g / cm^3
# Si number density = 20.789008 Si / 1000 Ang^3
#
#
#
# Elastic Constant Matrix: (Units=GPa)
#
#
# Indices 1 2 3 4 5 6 
#
# 1 111.9121 22.7095 27.7004 0.0000 1.9458 0.0000
# 2 22.7095 102.5376 18.9937 0.0000 -11.6003 0.0000
# 3 27.7004 18.9937 35.8778 0.0000 2.3663 0.0000
# 4 0.0000 0.0000 0.0000 7.5993 0.0000 7.5802
# 5 1.9458 -11.6003 2.3663 0.0000 27.4415 0.0000
# 6 0.0000 0.0000 0.0000 7.5802 0.0000 21.1228
#
#
#
# Elastic Compliance Matrix: (Units=1/GPa)
#
#
# Indices 1 2 3 4 5 6 
#
# 1 0.011140 -0.001044 -0.008013 0.000000 -0.000540 0.000000
# 2 -0.001044 0.011668 -0.005734 0.000000 0.005501 0.000000
# 3 -0.008013 -0.005734 0.037429 0.000000 -0.005083 0.000000
# 4 0.000000 0.000000 0.000000 0.204956 0.000000 -0.073551
# 5 -0.000540 0.005501 -0.005083 0.000000 0.039243 0.000000
# 6 0.000000 0.000000 0.000000 -0.073551 0.000000 0.073737
#
#
# Mechanical properties :
#
#
# Convention : Reuss Voigt Hill
#
# Bulk Modulus (GPa) = 32.61931 43.23717 37.92824
# Shear Modulus (GPa) = 11.96247 23.29431 17.62839
#
# Velocity S-wave (km/s) = 2.40140 3.35103 2.91515
# Velocity P-wave (km/s) = 4.83877 5.98463 5.44194
#
# Compressibility (1/GPa) = 0.03065668
#
# Stress axis : x y z
#
# Youngs Moduli (GPa) = 89.76552 85.70289 26.71697
#
# Poissons Ratio (x) = 0.08949 0.21407
# Poissons Ratio (y) = 0.09373 0.15319
# Poissons Ratio (z) = 0.71926 0.49140
#
# Static dielectric constant tensor:
#      x y z
#    x 4.155970 0.000000 0.283010 
#    y 0.000000 4.172580 0.000000 
#    z 0.283010 0.000000 3.320980 
# 
# 
# High freq. dielectric constant tensor:
#      x y z
#    x 1.818200 0.000000 0.026000 
#    y 0.000000 1.813640 0.000000 
#    z 0.026000 0.000000 1.760240 
# 
# From -- ./inp_files/23518.got.cif
#   From: 2010.06.25/outbox.cif.g09.slc.cpg/sg13_12_cif.got.tgz:23518.got - 2010.06.28 04:50:58.
