data_PCOD8116103
_publ_section_title
;
Structure prediction by ZEFSAII (Michael W. Deem and Ramdas Pophale) SiO2 
 PCOD8116103
Probable space group: C 2/M
;
_chemical_formula_sum "Si O2"
_cell_formula_units_Z 64
_cell_length_a 24.509566
_cell_length_b 9.254043
_cell_length_c 27.662920
_cell_angle_alpha 90.000000
_cell_angle_beta 138.589127
_cell_angle_gamma 90.000000
_cell_volume 4150.160901
_symmetry_space_group_name_H-M "C 2/M"
_symmetry_group_IT_number 12
_symmetry_cell_setting 'monoclinic'
loop_
_space_group_symop_operation_xyz
x,y,z
-x,y,-z
-x,-y,-z
x,-y,z
1/2+x,1/2+y,z
1/2-x,1/2+y,-z
1/2-x,1/2-y,-z
1/2+x,1/2-y,z
loop_
_atom_site_type_symbol
_atom_site_label
_atom_site_fract_x
_atom_site_fract_y
_atom_site_fract_z
Si Si1 0.169730 0.163615 0.157772
Si Si2 0.493641 0.336796 0.886821
Si Si3 0.154383 0.332128 0.391514
Si Si4 0.903426 0.666068 0.750527
Si Si5 0.081742 0.663790 0.022214
Si Si6 0.411760 0.672046 0.458197
Si Si7 0.242221 0.167672 0.705354
Si Si8 0.655586 0.330447 0.485679
O O1 0.087125 0.164851 0.134078
O O2 0.154626 0.251989 0.098407
O O3 0.242489 0.240284 0.236076
O O4 0.195818 0.000000 0.162382
O O5 0.524920 0.500000 0.899310
O O6 0.472934 0.264916 0.821497
O O7 0.565100 0.245408 0.960644
O O8 0.147701 0.500000 0.399187
O O9 0.100989 0.292285 0.308825
O O10 0.248872 0.288627 0.444223
O O11 0.118491 0.245131 0.413323
O O12 0.929382 0.500000 0.775106
O O13 0.813994 0.692960 0.714151
O O14 0.110239 0.500000 0.030491
O O15 0.000000 0.663286 0.000000
O O16 0.500000 0.733534 0.500000
O O17 0.410571 0.500000 0.458256
O O18 0.342308 0.725234 0.374478
O O19 0.392651 0.729047 0.499438
O O20 0.236907 0.000000 0.716630
O O21 0.643177 0.500000 0.471244
#
# Coordination Sequence:
#
# PCOD8116103 Si02
#       8
#     8   8   8   8   8   8   8   8
#     4   9  16  24  34  49  70  96 126 162 198 229
#     4   9  16  23  32  49  73  98 126 159 194 230
#     4   9  16  26  40  57  78 103 130 165 204 241
#     4   9  15  24  37  52  73 101 131 162 195 233
#     4   9  15  23  34  48  67  96 131 160 189 227
#     4   9  16  27  44  62  79 102 134 172 209 244
#     4   9  15  25  39  54  72  96 130 166 198 237
#     4   9  16  27  41  59  78  99 130 167 205 244
#
# _framework density 15.421087999999999
#
# number of rings (size 3 to 8) (size 9 to 14) (size 15 to 20)
#    0.000    3.000    1.250    1.125    0.000    5.000 
#    0.000    0.625    0.000    1.500    0.000    0.000 
#    0.000    0.000    0.000    1.125    0.000   13.125 
#
# Total GULP energy -396716.490928 kJ/mol
# GULP energy per Si atom -12397.390341 kJ/mol
# Density = 1.538599 g / cm^3
# Si number density = 15.421088 Si / 1000 Ang^3
#
#
#
# Elastic Constant Matrix: (Units=GPa)
#
#
# Indices 1 2 3 4 5 6 
#
# 1 50.1612 25.4960 43.0934 0.0000 -10.0466 0.0000
# 2 25.4960 90.6535 68.4248 -0.0001 -14.3188 0.0001
# 3 43.0934 68.4248 141.1143 0.0000 -25.2794 0.0000
# 4 0.0000 -0.0001 0.0000 27.4601 0.0000 -8.2309
# 5 -10.0466 -14.3188 -25.2794 0.0000 14.9270 0.0000
# 6 0.0000 0.0001 0.0000 -8.2309 0.0000 10.3660
#
#
#
# Elastic Compliance Matrix: (Units=1/GPa)
#
#
# Indices 1 2 3 4 5 6 
#
# 1 0.027639 -0.002005 -0.006432 0.000000 0.005787 0.000000
# 2 -0.002005 0.017669 -0.007408 0.000000 0.003054 0.000000
# 3 -0.006432 -0.007408 0.015208 0.000000 0.014320 0.000000
# 4 0.000000 0.000000 0.000000 0.047791 0.000000 0.037947
# 5 0.005787 0.003054 0.014320 0.000000 0.098069 0.000000
# 6 0.000000 0.000000 0.000000 0.037947 0.000000 0.126601
#
#
# Mechanical properties :
#
#
# Convention : Reuss Voigt Hill
#
# Bulk Modulus (GPa) = 34.68977 61.77306 48.23141
# Shear Modulus (GPa) = 13.35916 20.21159 16.78537
#
# Velocity S-wave (km/s) = 2.94648 3.62421 3.30277
# Velocity P-wave (km/s) = 5.84119 7.59327 6.77411
#
# Compressibility (1/GPa) = 0.02882695
#
# Stress axis : x y z
#
# Youngs Moduli (GPa) = 36.18043 56.59683 65.75482
#
# Poissons Ratio (x) = 0.11346 0.42291
# Poissons Ratio (y) = 0.07253 0.48712
# Poissons Ratio (z) = 0.23270 0.41928
#
# Static dielectric constant tensor:
#      x y z
#    x 2.496340 0.000000 -0.199990 
#    y 0.000000 2.951200 0.000000 
#    z -0.199990 0.000000 3.115030 
# 
# 
# High freq. dielectric constant tensor:
#      x y z
#    x 1.517780 0.000000 -0.025750 
#    y 0.000000 1.587540 0.000000 
#    z -0.025750 0.000000 1.600040 
# 
# From -- ./inp_files/291589.got.cif
#   From: 2010.06.25/outbox.cif.g09.slc.cpg/sg12_146_cif.got.tgz:291589.got - 2010.06.28 00:19:55.
