data_PCOD8116873
_publ_section_title
;
Structure prediction by ZEFSAII (Michael W. Deem and Ramdas Pophale) SiO2 
 PCOD8116873
Probable space group: P 2/C
;
_chemical_formula_sum "Si O2"
_cell_formula_units_Z 32
_cell_length_a 20.481509
_cell_length_b 12.670082
_cell_length_c 21.317507
_cell_angle_alpha 90.000000
_cell_angle_beta 160.635027
_cell_angle_gamma 90.000000
_cell_volume 1834.306638
_symmetry_space_group_name_H-M "P 2/C"
_symmetry_group_IT_number 13
_symmetry_cell_setting 'monoclinic'
loop_
_space_group_symop_operation_xyz
x,y,z
-x,y,1/2-z
-x,-y,-z
x,-y,1/2+z
loop_
_atom_site_type_symbol
_atom_site_label
_atom_site_fract_x
_atom_site_fract_y
_atom_site_fract_z
Si Si1 0.529418 0.966996 0.930967
Si Si2 0.330824 0.543967 0.415783
Si Si3 0.223578 0.127091 0.954439
Si Si4 0.253303 0.824432 0.620858
Si Si5 0.574923 0.335370 0.385175
Si Si6 0.697517 0.646972 0.686237
Si Si7 0.065481 0.706523 0.102597
Si Si8 0.428746 0.162586 0.911686
O O1 0.658674 0.950976 0.985207
O O2 0.628960 0.911143 0.081365
O O3 0.316054 0.912639 0.728094
O O4 0.495597 0.090881 0.913449
O O5 0.334768 0.567028 0.494018
O O6 0.550924 0.574610 0.593886
O O7 0.277171 0.421259 0.355145
O O8 0.164820 0.612287 0.230639
O O9 0.000000 0.091547 0.750000
O O10 0.293263 0.121200 0.089799
O O11 0.250637 0.249232 0.960124
O O12 0.393845 0.721776 0.757063
O O13 0.032985 0.786034 0.435610
O O14 0.500000 0.377144 0.250000
O O15 0.610673 0.761356 0.592646
O O16 0.907318 0.661246 0.910259
O O17 0.234531 0.770204 0.218145
#
# Coordination Sequence:
#
# PCOD8116873 Si02
#       8
#     4   4   4   4   4   4   4   4
#     4  10  19  35  48  73 107 136 171 212 262 310
#     4  10  19  31  52  76 103 137 169 214 267 309
#     4  10  18  30  50  77 101 132 168 215 265 315
#     4  10  17  30  52  74 107 129 167 217 260 313
#     4   9  17  30  48  72 107 133 161 212 268 313
#     4  10  19  34  50  73 107 135 175 218 253 313
#     4  11  18  32  52  80 105 140 173 208 268 323
#     4  10  21  34  51  71 107 142 171 214 254 307
#
# _framework density 17.445281999999999
#
# number of rings (size 3 to 8) (size 9 to 14) (size 15 to 20)
#    0.000    2.000    2.500    5.250    0.000    0.500 
#    2.250    0.000    0.000    1.500    0.000    4.375 
#    0.000    0.000    0.000    0.000    0.000    0.000 
#
# Total GULP energy -396594.344144 kJ/mol
# GULP energy per Si atom -12393.573254 kJ/mol
# Density = 1.740558 g / cm^3
# Si number density = 17.445282 Si / 1000 Ang^3
#
#
#
# Elastic Constant Matrix: (Units=GPa)
#
#
# Indices 1 2 3 4 5 6 
#
# 1 73.4936 41.6305 30.9221 0.0000 -10.5657 0.0000
# 2 41.6305 80.7923 37.2807 0.0000 -10.2145 0.0000
# 3 30.9221 37.2807 105.5149 0.0000 -2.4805 0.0000
# 4 0.0000 0.0000 0.0000 12.3926 0.0000 -6.5277
# 5 -10.5657 -10.2145 -2.4805 0.0000 25.6033 0.0000
# 6 0.0000 0.0000 0.0000 -6.5277 0.0000 25.4375
#
#
#
# Elastic Compliance Matrix: (Units=1/GPa)
#
#
# Indices 1 2 3 4 5 6 
#
# 1 0.020327 -0.008582 -0.002814 0.000000 0.004692 0.000000
# 2 -0.008582 0.019198 -0.004181 0.000000 0.003713 0.000000
# 3 -0.002814 -0.004181 0.011739 0.000000 -0.001692 0.000000
# 4 0.000000 0.000000 0.000000 0.093306 0.000000 0.023944
# 5 0.004692 0.003713 -0.001692 0.000000 0.042311 0.000000
# 6 0.000000 0.000000 0.000000 0.023944 0.000000 0.045456
#
#
# Mechanical properties :
#
#
# Convention : Reuss Voigt Hill
#
# Bulk Modulus (GPa) = 49.72701 53.27415 51.50058
# Shear Modulus (GPa) = 18.50517 22.68453 20.59485
#
# Velocity S-wave (km/s) = 3.26046 3.60991 3.43963
# Velocity P-wave (km/s) = 6.53762 6.92672 6.73498
#
# Compressibility (1/GPa) = 0.02010980
#
# Stress axis : x y z
#
# Youngs Moduli (GPa) = 49.19682 52.08853 85.18252
#
# Poissons Ratio (x) = 0.44702 0.23974
# Poissons Ratio (y) = 0.42221 0.35613
# Poissons Ratio (z) = 0.13846 0.21777
#
# Static dielectric constant tensor:
#      x y z
#    x 3.223330 0.000000 -0.028280 
#    y 0.000000 3.124790 0.000000 
#    z -0.028280 0.000000 3.436540 
# 
# 
# High freq. dielectric constant tensor:
#      x y z
#    x 1.653620 0.000000 -0.005220 
#    y 0.000000 1.642570 0.000000 
#    z -0.005220 0.000000 1.685970 
# 
# From -- ./inp_files/81816.got.cif
#   From: 2010.06.25/outbox.cif.g09.slc.cpg/sg13_41_cif.got.tgz:81816.got - 2010.06.28 04:50:58.
