data_PCOD8116149
_publ_section_title
;
Structure prediction by ZEFSAII (Michael W. Deem and Ramdas Pophale) SiO2 
 PCOD8116149
Probable space group: C 2/M
;
_chemical_formula_sum "Si O2"
_cell_formula_units_Z 56
_cell_length_a 33.452531
_cell_length_b 13.879304
_cell_length_c 7.717413
_cell_angle_alpha 90.000000
_cell_angle_beta 76.661904
_cell_angle_gamma 90.000000
_cell_volume 3486.524509
_symmetry_space_group_name_H-M "C 2/M"
_symmetry_group_IT_number 12
_symmetry_cell_setting 'monoclinic'
loop_
_space_group_symop_operation_xyz
x,y,z
-x,y,-z
-x,-y,-z
x,-y,z
1/2+x,1/2+y,z
1/2-x,1/2+y,-z
1/2-x,1/2-y,-z
1/2+x,1/2-y,z
loop_
_atom_site_type_symbol
_atom_site_label
_atom_site_fract_x
_atom_site_fract_y
_atom_site_fract_z
Si Si1 0.191085 0.202197 0.604094
Si Si2 0.954343 0.114025 0.545657
Si Si3 0.228421 0.604371 0.572320
Si Si4 0.105279 0.112891 0.696047
Si Si5 0.228421 0.395629 0.970838
Si Si6 0.308914 0.297803 0.986265
Si Si7 0.394721 0.387109 0.906606
O O1 0.200877 0.309408 0.518086
O O2 0.223280 0.127177 0.492777
O O3 0.145492 0.171191 0.596584
O O4 0.196944 0.200383 0.803055
O O5 0.931087 0.147725 0.394284
O O6 0.931087 0.147726 0.743541
O O7 0.000000 0.159889 0.500000
O O8 0.957669 0.000000 0.542334
O O9 0.219336 0.500000 0.492269
O O10 0.216753 0.595803 0.783247
O O11 0.114578 0.000000 0.664344
O O12 0.092874 0.136321 0.907126
O O13 0.219336 0.500000 0.069058
O O14 0.200877 0.309408 0.080160
O O15 0.276719 0.372824 0.939339
O O16 0.354508 0.328810 0.887569
O O17 0.385423 0.500000 0.893497
#
# Coordination Sequence:
#
# PCOD8116149 Si02
#       7
#     8   8   8   8   8   8   8
#     4   9  17  28  40  57  82 111 143 176 210 249
#     4   9  18  30  44  64  87 111 139 173 216 262
#     4   9  17  27  40  58  81 111 144 178 211 244
#     4   9  17  28  43  62  84 112 143 174 208 253
#     4   9  17  27  40  58  81 111 144 178 211 244
#     4   9  17  28  40  57  82 111 143 176 210 249
#     4   9  17  28  43  62  84 112 143 174 208 253
#
# _framework density 16.06184
#
# number of rings (size 3 to 8) (size 9 to 14) (size 15 to 20)
#    0.000    3.000    0.000    0.857    2.000    2.286 
#    0.000    2.857    0.000    0.000    0.000    0.000 
#    0.000    2.286    0.000   11.143    0.000    0.286 
#
# Total GULP energy -346991.501262 kJ/mol
# GULP energy per Si atom -12392.553617 kJ/mol
# Density = 1.602528 g / cm^3
# Si number density = 16.061840 Si / 1000 Ang^3
#
#
#
# Elastic Constant Matrix: (Units=GPa)
#
#
# Indices 1 2 3 4 5 6 
#
# 1 120.3935 42.0084 45.6402 0.0000 -10.7535 0.0000
# 2 42.0084 91.2755 21.2005 0.0000 -8.5994 0.0000
# 3 45.6402 21.2005 65.3210 0.0000 -12.0071 0.0000
# 4 0.0000 0.0000 0.0000 11.3102 0.0000 -2.0911
# 5 -10.7535 -8.5994 -12.0071 0.0000 23.8487 0.0000
# 6 0.0000 0.0000 0.0000 -2.0911 0.0000 16.3699
#
#
#
# Elastic Compliance Matrix: (Units=1/GPa)
#
#
# Indices 1 2 3 4 5 6 
#
# 1 0.012546 -0.004015 -0.007371 0.000000 0.000498 0.000000
# 2 -0.004015 0.013279 -0.001055 0.000000 0.002447 0.000000
# 3 -0.007371 -0.001055 0.022173 0.000000 0.007459 0.000000
# 4 0.000000 0.000000 0.000000 0.090554 0.000000 0.011567
# 5 0.000498 0.002447 0.007459 0.000000 0.046793 0.000000
# 6 0.000000 0.000000 0.000000 0.011567 0.000000 0.062565
#
#
# Mechanical properties :
#
#
# Convention : Reuss Voigt Hill
#
# Bulk Modulus (GPa) = 43.26043 54.96535 49.11289
# Shear Modulus (GPa) = 17.82544 21.51516 19.67030
#
# Velocity S-wave (km/s) = 3.33498 3.66392 3.50331
# Velocity P-wave (km/s) = 6.46696 7.22457 6.85624
#
# Compressibility (1/GPa) = 0.02311581
#
# Stress axis : x y z
#
# Youngs Moduli (GPa) = 79.70713 75.30554 45.10027
#
# Poissons Ratio (x) = 0.30236 0.33245
# Poissons Ratio (y) = 0.32003 0.04757
# Poissons Ratio (z) = 0.58754 0.07943
#
# Static dielectric constant tensor:
#      x y z
#    x 3.018190 0.000000 0.016350 
#    y 0.000000 3.327310 0.000000 
#    z 0.016350 0.000000 3.057760 
# 
# 
# High freq. dielectric constant tensor:
#      x y z
#    x 1.593900 0.000000 0.009620 
#    y 0.000000 1.593560 0.000000 
#    z 0.009620 0.000000 1.617170 
# 
# From -- ./inp_files/104002.got.cif
#   From: 2010.06.25/outbox.cif.g09.slc.cpg/sg12_53_cif.got.tgz:104002.got - 2010.06.28 00:19:55.
