data_PCOD8116069
_publ_section_title
;
Structure prediction by ZEFSAII (Michael W. Deem and Ramdas Pophale) SiO2 
 PCOD8116069
Probable space group: C 2/M
;
_chemical_formula_sum "Si O2"
_cell_formula_units_Z 48
_cell_length_a 14.146081
_cell_length_b 9.357918
_cell_length_c 22.415050
_cell_angle_alpha 90.000000
_cell_angle_beta 72.553523
_cell_angle_gamma 90.000000
_cell_volume 2830.755090
_symmetry_space_group_name_H-M "C 2/M"
_symmetry_group_IT_number 12
_symmetry_cell_setting 'monoclinic'
loop_
_space_group_symop_operation_xyz
x,y,z
-x,y,-z
-x,-y,-z
x,-y,z
1/2+x,1/2+y,z
1/2-x,1/2+y,-z
1/2-x,1/2-y,-z
1/2+x,1/2-y,z
loop_
_atom_site_type_symbol
_atom_site_label
_atom_site_fract_x
_atom_site_fract_y
_atom_site_fract_z
Si Si1 0.888448 0.333717 0.009146
Si Si2 0.466664 0.830821 0.569421
Si Si3 0.126677 0.331096 0.234122
Si Si4 0.428594 0.169358 0.331635
Si Si5 0.212861 0.332726 0.094572
Si Si6 0.267133 0.831344 0.667500
O O1 0.875661 0.500000 0.026671
O O2 0.816928 0.246653 0.066383
O O3 0.861641 0.300540 0.945655
O O4 0.000000 0.281986 0.000000
O O5 0.500000 0.761911 0.500000
O O6 0.542661 0.783026 0.606699
O O7 0.355180 0.782620 0.606419
O O8 0.468349 0.000000 0.565131
O O9 0.122676 0.500000 0.232293
O O10 0.161818 0.269692 0.163830
O O11 0.203684 0.284853 0.270903
O O12 0.016006 0.277770 0.270709
O O13 0.329766 0.247916 0.332277
O O14 0.412921 0.000000 0.330394
O O15 0.235864 0.500000 0.095947
O O16 0.247942 0.000000 0.666942
#
# Coordination Sequence:
#
# PCOD8116069 Si02
#       6
#     8   8   8   8   8   8
#     4   9  18  31  46  67  93 116 141 180 227 265
#     4   8  15  29  47  65  89 123 154 177 213 269
#     4   8  16  31  47  63  87 121 152 176 214 269
#     4   9  17  30  48  68  90 117 150 184 219 263
#     4   9  17  31  49  65  86 118 152 181 212 261
#     4   9  17  30  47  66  89 116 149 187 221 257
#
# _framework density 16.956607000000002
#
# number of rings (size 3 to 8) (size 9 to 14) (size 15 to 20)
#    0.000    3.333    0.000    2.000    0.000    2.333 
#    0.000    6.667    0.000    1.000    0.000    0.000 
#    0.000    0.000    0.000    0.000    0.000    0.000 
#
# Total GULP energy -297500.716692 kJ/mol
# GULP energy per Si atom -12395.863196 kJ/mol
# Density = 1.691801 g / cm^3
# Si number density = 16.956607 Si / 1000 Ang^3
#
#
#
# Elastic Constant Matrix: (Units=GPa)
#
#
# Indices 1 2 3 4 5 6 
#
# 1 162.8775 43.8803 84.1267 0.0000 -15.5592 0.0000
# 2 43.8803 31.9529 34.5124 0.0000 -4.9305 0.0000
# 3 84.1267 34.5124 172.4721 0.0000 -2.5860 0.0000
# 4 0.0000 0.0000 0.0000 17.7259 0.0000 -4.5310
# 5 -15.5592 -4.9305 -2.5860 0.0000 16.5639 0.0000
# 6 0.0000 0.0000 0.0000 -4.5310 0.0000 33.2237
#
#
#
# Elastic Compliance Matrix: (Units=1/GPa)
#
#
# Indices 1 2 3 4 5 6 
#
# 1 0.011512 -0.011203 -0.003269 0.000000 0.006968 0.000000
# 2 -0.011203 0.052799 -0.005035 0.000000 0.004407 0.000000
# 3 -0.003269 -0.005035 0.008351 0.000000 -0.003265 0.000000
# 4 0.000000 0.000000 0.000000 0.058452 0.000000 0.007972
# 5 0.006968 0.004407 -0.003265 0.000000 0.067720 0.000000
# 6 0.000000 0.000000 0.000000 0.007972 0.000000 0.031186
#
#
# Mechanical properties :
#
#
# Convention : Reuss Voigt Hill
#
# Bulk Modulus (GPa) = 29.71886 76.92682 53.32284
# Shear Modulus (GPa) = 17.84124 27.15491 22.49807
#
# Velocity S-wave (km/s) = 3.24724 4.00614 3.64648
# Velocity P-wave (km/s) = 5.62351 8.17705 7.01741
#
# Compressibility (1/GPa) = 0.03364867
#
# Stress axis : x y z
#
# Youngs Moduli (GPa) = 86.86755 18.93973 119.74599
#
# Poissons Ratio (x) = 0.21218 0.39143
# Poissons Ratio (y) = 0.97317 0.60290
# Poissons Ratio (z) = 0.28396 0.09536
#
# Static dielectric constant tensor:
#      x y z
#    x 3.141550 0.000000 0.045860 
#    y 0.000000 2.794970 0.000000 
#    z 0.045860 0.000000 3.833420 
# 
# 
# High freq. dielectric constant tensor:
#      x y z
#    x 1.656770 0.000000 -0.000450 
#    y 0.000000 1.616470 0.000000 
#    z -0.000450 0.000000 1.663020 
# 
# From -- ./inp_files/303833.got.cif
#   From: 2010.06.25/outbox.cif.g09.slc.cpg/sg12_152_cif.got.tgz:303833.got - 2010.06.28 00:19:55.
