data_PCOD8116843
_publ_section_title
;
Structure prediction by ZEFSAII (Michael W. Deem and Ramdas Pophale) SiO2 
 PCOD8116843
Probable space group: P 2/C
;
_chemical_formula_sum "Si O2"
_cell_formula_units_Z 28
_cell_length_a 28.305708
_cell_length_b 9.596128
_cell_length_c 8.584793
_cell_angle_alpha 90.000000
_cell_angle_beta 139.307433
_cell_angle_gamma 90.000000
_cell_volume 1520.363757
_symmetry_space_group_name_H-M "P 2/C"
_symmetry_group_IT_number 13
_symmetry_cell_setting 'monoclinic'
loop_
_space_group_symop_operation_xyz
x,y,z
-x,y,1/2-z
-x,-y,-z
x,-y,1/2+z
loop_
_atom_site_type_symbol
_atom_site_label
_atom_site_fract_x
_atom_site_fract_y
_atom_site_fract_z
Si Si1 0.343013 0.655730 0.172956
Si Si2 0.072530 0.844383 0.865697
Si Si3 0.927473 0.844708 0.002922
Si Si4 0.499998 0.649800 0.930134
Si Si5 0.343012 0.655583 0.542041
Si Si6 0.219695 0.153420 0.865863
Si Si7 0.780304 0.846806 0.767453
O O1 0.423206 0.722152 0.333109
O O2 0.327673 0.656109 0.319150
O O3 0.336299 0.500110 0.090610
O O4 0.286826 0.751371 0.943402
O O5 0.070412 0.843924 0.676098
O O6 0.000000 0.767560 0.750000
O O7 0.073248 0.999758 0.933438
O O8 0.146924 0.774695 0.112503
O O9 0.000000 0.767987 0.250000
O O10 0.853095 0.775057 0.877944
O O11 0.500000 0.622854 0.750000
O O12 0.423182 0.722068 0.782857
O O13 0.500000 0.500000 0.000000
O O14 0.286823 0.751082 0.490837
O O15 0.233401 0.000167 0.833309
O O16 0.210452 0.142228 0.026089
#
# Coordination Sequence:
#
# PCOD8116843 Si02
#       7
#     4   4   4   4   4   4   4
#     4  10  19  34  54  78 103 133 169 209 252 301
#     4  10  17  28  46  70  98 130 166 207 248 295
#     4  10  17  28  46  70  98 130 166 207 248 295
#     4   8  16  30  51  74  99 128 166 208 248 294
#     4  10  19  34  54  78 103 133 169 209 252 301
#     4  11  21  34  51  75 104 136 170 211 256 302
#     4  11  21  34  51  75 104 136 170 211 256 302
#
# _framework density 18.416646
#
# number of rings (size 3 to 8) (size 9 to 14) (size 15 to 20)
#    0.000    2.000    0.000    8.571    0.000    1.143 
#    0.000    0.714    0.000    0.857    0.000    6.000 
#    0.000    0.000    0.000    0.000    0.000    0.000 
#
# Total GULP energy -346880.601677 kJ/mol
# GULP energy per Si atom -12388.592917 kJ/mol
# Density = 1.837473 g / cm^3
# Si number density = 18.416646 Si / 1000 Ang^3
#
#
#
# Elastic Constant Matrix: (Units=GPa)
#
#
# Indices 1 2 3 4 5 6 
#
# 1 148.7482 34.4409 90.5867 0.0000 7.2171 0.0000
# 2 34.4409 42.5775 37.6695 0.0000 10.3315 0.0000
# 3 90.5867 37.6695 155.3466 0.0000 13.4345 0.0000
# 4 0.0000 0.0000 0.0000 1.6840 0.0000 -18.5694
# 5 7.2171 10.3315 13.4345 0.0000 51.0653 0.0000
# 6 0.0000 0.0000 0.0000 -18.5694 0.0000 7.3957
#
#
#
# Elastic Compliance Matrix: (Units=1/GPa)
#
#
# Indices 1 2 3 4 5 6 
#
# 1 0.010983 -0.004253 -0.005437 0.000000 0.000739 0.000000
# 2 -0.004253 0.032473 -0.004992 0.000000 -0.004656 0.000000
# 3 -0.005437 -0.004992 0.010912 0.000000 -0.001093 0.000000
# 4 0.000000 0.000000 0.000000 -0.022252 0.000000 -0.055870
# 5 0.000739 -0.004656 -0.001093 0.000000 0.020708 0.000000
# 6 0.000000 0.000000 0.000000 -0.055870 0.000000 -0.005067
#
#
# Mechanical properties :
#
#
# Convention : Reuss Voigt Hill
#
# Bulk Modulus (GPa) = 39.99200 74.67407 57.33304
# Shear Modulus (GPa) = 58.51033 24.29402 41.40217
#
# Velocity S-wave (km/s) = 5.64263 3.63593 4.74654
# Velocity P-wave (km/s) = 8.01341 7.63294 7.82548
#
# Compressibility (1/GPa) = 0.02500500
#
# Stress axis : x y z
#
# Youngs Moduli (GPa) = 91.05238 30.79519 91.63810
#
# Poissons Ratio (x) = 0.13097 0.49823
# Poissons Ratio (y) = 0.38724 0.45742
# Poissons Ratio (z) = 0.49504 0.15372
#
# Static dielectric constant tensor:
#      x y z
#    x 4.081310 0.000000 0.659050 
#    y 0.000000 2.840920 0.000000 
#    z 0.659050 0.000000 4.277600 
# 
# 
# High freq. dielectric constant tensor:
#      x y z
#    x 1.743280 0.000000 0.007820 
#    y 0.000000 1.644070 0.000000 
#    z 0.007820 0.000000 1.745650 
# 
# From -- ./inp_files/24893.got.cif
#   From: 2010.06.25/outbox.cif.g09.slc.cpg/sg13_13_cif.got.tgz:24893.got - 2010.06.28 04:50:58.
