data_PCOD8116097
_publ_section_title
;
Structure prediction by ZEFSAII (Michael W. Deem and Ramdas Pophale) SiO2 
 PCOD8116097
Probable space group: C 2/M
;
_chemical_formula_sum "Si O2"
_cell_formula_units_Z 48
_cell_length_a 19.267782
_cell_length_b 9.599523
_cell_length_c 16.549373
_cell_angle_alpha 90.000000
_cell_angle_beta 111.968053
_cell_angle_gamma 90.000000
_cell_volume 2838.746034
_symmetry_space_group_name_H-M "C 2/M"
_symmetry_group_IT_number 12
_symmetry_cell_setting 'monoclinic'
loop_
_space_group_symop_operation_xyz
x,y,z
-x,y,-z
-x,-y,-z
x,-y,z
1/2+x,1/2+y,z
1/2-x,1/2+y,-z
1/2-x,1/2-y,-z
1/2+x,1/2-y,z
loop_
_atom_site_type_symbol
_atom_site_label
_atom_site_fract_x
_atom_site_fract_y
_atom_site_fract_z
Si Si1 0.168158 0.835635 0.717874
Si Si2 0.167702 0.661788 0.246041
Si Si3 0.949743 0.160268 0.206596
Si Si4 0.513863 0.837809 0.097313
Si Si5 0.416796 0.334186 0.474370
Si Si6 0.107281 0.159617 0.357635
O O1 0.255219 0.794099 0.764496
O O2 0.122006 0.780788 0.775364
O O3 0.135519 0.773731 0.619773
O O4 0.156612 0.000000 0.710194
O O5 0.169068 0.500000 0.270405
O O6 0.160562 0.746449 0.325786
O O7 0.099986 0.696707 0.155993
O O8 0.957927 0.251750 0.129693
O O9 0.020835 0.177712 0.295636
O O10 0.939201 0.000000 0.175606
O O11 0.495739 0.000000 0.101547
O O12 0.500000 0.789758 0.000000
O O13 0.500000 0.272286 0.500000
O O14 0.420742 0.500000 0.473507
O O15 0.383368 0.287886 0.546312
O O16 0.132486 0.000000 0.358042
#
# Coordination Sequence:
#
# PCOD8116097 Si02
#       6
#     8   8   8   8   8   8
#     4   9  16  27  44  67  92 118 147 181 219 256
#     4   9  18  31  46  64  90 119 146 180 223 265
#     4   9  16  28  48  70  89 111 145 186 221 253
#     4   9  18  33  50  65  85 117 150 176 214 274
#     4   9  14  23  42  67  91 116 150 183 211 251
#     4   9  16  27  45  67  89 117 152 184 212 251
#
# _framework density 16.908874000000001
#
# number of rings (size 3 to 8) (size 9 to 14) (size 15 to 20)
#    0.000    3.000    1.667    0.000    0.000    1.000 
#    0.000    1.667    0.000    1.500    0.000    0.000 
#    0.000    0.000    0.000    0.000    0.000    0.000 
#
# Total GULP energy -297541.635776 kJ/mol
# GULP energy per Si atom -12397.568157 kJ/mol
# Density = 1.687039 g / cm^3
# Si number density = 16.908874 Si / 1000 Ang^3
#
#
#
# Elastic Constant Matrix: (Units=GPa)
#
#
# Indices 1 2 3 4 5 6 
#
# 1 139.2785 41.2869 67.2355 0.0000 -20.8584 0.0000
# 2 41.2869 38.2970 38.4492 0.0000 -12.4622 0.0000
# 3 67.2355 38.4492 126.6040 0.0000 -24.4640 0.0000
# 4 0.0000 0.0000 0.0000 18.8871 0.0000 -7.0232
# 5 -20.8584 -12.4622 -24.4640 0.0000 24.1021 0.0000
# 6 0.0000 0.0000 0.0000 -7.0232 0.0000 20.2894
#
#
#
# Elastic Compliance Matrix: (Units=1/GPa)
#
#
# Indices 1 2 3 4 5 6 
#
# 1 0.011577 -0.008609 -0.003057 0.000000 0.002464 0.000000
# 2 -0.008609 0.045908 -0.007741 0.000000 0.008429 0.000000
# 3 -0.003057 -0.007741 0.013172 0.000000 0.006721 0.000000
# 4 0.000000 0.000000 0.000000 0.060768 0.000000 0.021035
# 5 0.002464 0.008429 0.006721 0.000000 0.054803 0.000000
# 6 0.000000 0.000000 0.000000 0.021035 0.000000 0.056568
#
#
# Mechanical properties :
#
#
# Convention : Reuss Voigt Hill
#
# Bulk Modulus (GPa) = 31.40588 66.45806 48.93197
# Shear Modulus (GPa) = 17.11005 23.13624 20.12315
#
# Velocity S-wave (km/s) = 3.18448 3.70305 3.45352
# Velocity P-wave (km/s) = 5.66879 7.59424 6.70103
#
# Compressibility (1/GPa) = 0.03184117
#
# Stress axis : x y z
#
# Youngs Moduli (GPa) = 86.37875 21.78265 75.91833
#
# Poissons Ratio (x) = 0.18754 0.23211
# Poissons Ratio (y) = 0.74367 0.58770
# Poissons Ratio (z) = 0.26409 0.16862
#
# Static dielectric constant tensor:
#      x y z
#    x 3.257410 0.000000 -0.079890 
#    y 0.000000 2.860410 0.000000 
#    z -0.079890 0.000000 3.154040 
# 
# 
# High freq. dielectric constant tensor:
#      x y z
#    x 1.652770 0.000000 -0.008710 
#    y 0.000000 1.612880 0.000000 
#    z -0.008710 0.000000 1.644040 
# 
# From -- ./inp_files/212765.got.cif
#   From: 2010.06.25/outbox.cif.g09.slc.cpg/sg12_107_cif.got.tgz:212765.got - 2010.06.28 00:19:55.
