data_PCOD8116321
_publ_section_title
;
Structure prediction by ZEFSAII (Michael W. Deem and Ramdas Pophale) SiO2 
 PCOD8116321
Probable space group: C 2/M
;
_chemical_formula_sum "Si O2"
_cell_formula_units_Z 32
_cell_length_a 30.000000
_cell_length_b 9.000000
_cell_length_c 18.000000
_cell_angle_alpha 90.000000
_cell_angle_beta 40.000000
_cell_angle_gamma 90.000000
_cell_volume 3123.947783
_symmetry_space_group_name_H-M "C 2/M"
_symmetry_group_IT_number 12
_symmetry_cell_setting 'monoclinic'
loop_
_space_group_symop_operation_xyz
x,y,z
-x,y,-z
-x,-y,-z
x,-y,z
1/2+x,1/2+y,z
1/2-x,1/2+y,-z
1/2-x,1/2-y,-z
1/2+x,1/2-y,z
loop_
_atom_site_type_symbol
_atom_site_label
_atom_site_fract_x
_atom_site_fract_y
_atom_site_fract_z
Si Si1 0.190601 0.674401 0.791663
Si Si2 0.320227 0.677692 0.882487
Si Si3 0.948249 0.833512 0.006184
Si Si4 0.187931 0.324039 0.623668
Si Si5 0.534415 0.337979 0.532476
Si Si6 0.050046 0.168182 0.743152
Si Si7 0.177460 0.823833 0.290073
Si Si8 0.042586 0.674120 0.254401
O O1 0.186459 0.500000 0.807881
O O2 0.120647 0.739283 0.914924
O O3 0.199810 0.717163 0.694206
O O4 0.254214 0.742683 0.757561
O O5 0.318746 0.500000 0.893331
O O6 0.328926 0.731040 0.786391
O O7 0.383439 0.744187 0.850903
O O8 0.250000 0.750000 0.000000
O O9 0.928835 0.000000 0.057996
O O10 0.000000 0.758813 0.000000
O O11 0.985889 0.835265 0.880314
O O12 0.187105 0.500000 0.611024
O O13 0.250000 0.250000 0.500000
O O14 0.115224 0.255719 0.692000
O O15 0.500000 0.378672 0.500000
O O16 0.535719 0.500000 0.574085
O O17 0.611778 0.272568 0.422767
O O18 0.485567 0.210017 0.628072
O O19 0.020650 0.256816 0.711271
O O20 0.073050 0.000000 0.693483
O O21 0.180895 0.000000 0.285511
O O22 0.051781 0.500000 0.227107
#
# Coordination Sequence:
#
# PCOD8116321 Si02
#       8
#     8   8   8   8   8   8   8   8
#     4  10  22  39  62  92 124 162 203 249 307 371
#     4  11  23  43  65  91 127 169 211 256 311 372
#     4  10  21  40  64  90 119 156 205 260 312 363
#     4  11  24  41  62  92 129 168 209 255 309 373
#     4  10  19  39  68  91 119 165 211 256 309 371
#     4  11  24  43  66  90 123 167 211 260 316 375
#     4   9  20  39  63  91 122 161 207 249 301 369
#     4  12  26  42  62  94 129 164 210 264 316 376
#
# _framework density 10.243449
#
# number of rings (size 3 to 8) (size 9 to 14) (size 15 to 20)
#    0.000    1.500    2.500    2.250    3.500    2.000 
#    0.000    1.250    0.000    0.000    0.000    0.000 
#    0.000    0.000    0.000    0.000    0.000    0.000 
#
# Total GULP energy -396709.316474 kJ/mol
# GULP energy per Si atom -12397.166140 kJ/mol
# Density = 1.022013 g / cm^3
# Si number density = 10.243449 Si / 1000 Ang^3
#
#
#
# Elastic Constant Matrix: (Units=GPa)
#
#
# Indices 1 2 3 4 5 6 
#
# 1 100.6110 39.5507 18.6902 -0.0082 -24.2128 0.0002
# 2 39.5507 96.7964 34.4355 0.0112 -4.5184 -0.0098
# 3 18.6902 34.4355 88.0723 0.0032 -23.7468 -0.0040
# 4 -0.0082 0.0112 0.0032 39.8388 -0.0061 -5.2212
# 5 -24.2128 -4.5184 -23.7468 -0.0061 36.2795 0.0008
# 6 0.0002 -0.0098 -0.0040 -5.2212 0.0008 27.2746
#
#
#
# Elastic Compliance Matrix: (Units=1/GPa)
#
#
# Indices 1 2 3 4 5 6 
#
# 1 0.014441 -0.006174 0.002114 0.000006 0.010252 -0.000001
# 2 -0.006174 0.014750 -0.006160 -0.000005 -0.006315 0.000004
# 3 0.002114 -0.006160 0.016378 0.000003 0.011364 0.000000
# 4 0.000006 -0.000005 0.000003 0.025747 0.000009 0.004929
# 5 0.010252 -0.006315 0.011364 0.000009 0.041058 0.000000
# 6 -0.000001 0.000004 0.000000 0.004929 0.000000 0.037608
#
#
# Mechanical properties :
#
#
# Convention : Reuss Voigt Hill
#
# Bulk Modulus (GPa) = 39.79406 52.31472 46.05439
# Shear Modulus (GPa) = 27.96447 33.53214 30.74830
#
# Velocity S-wave (km/s) = 3.69859 4.05008 3.87832
# Velocity P-wave (km/s) = 6.14050 6.88927 6.52563
#
# Compressibility (1/GPa) = 0.02512938
#
# Stress axis : x y z
#
# Youngs Moduli (GPa) = 69.24763 67.79594 61.05682
#
# Poissons Ratio (x) = 0.41857 -0.12906
# Poissons Ratio (y) = 0.42753 0.37610
# Poissons Ratio (z) = -0.14637 0.41761
#
# Static dielectric constant tensor:
#      x y z
#    x 4.089000 -0.000010 -0.109020 
#    y -0.000010 3.590130 0.000030 
#    z -0.109020 0.000030 4.016090 
# 
# 
# High freq. dielectric constant tensor:
#      x y z
#    x 1.811690 0.000000 -0.012120 
#    y 0.000000 1.786670 0.000000 
#    z -0.012120 0.000000 1.803880 
# 
# From -- ./inp_files/295457.got.cif
#   From: 2010.06.25/outbox.ucp.g09.slc.cvg/sg12_148_cif.got.tgz:295457.got - 2010.06.28 13:50:54.
