data_PCOD8116440
_publ_section_title
;
Structure prediction by ZEFSAII (Michael W. Deem and Ramdas Pophale) SiO2 
 PCOD8116440
Probable space group: C 2/M
;
_chemical_formula_sum "Si O2"
_cell_formula_units_Z 32
_cell_length_a 18.000000
_cell_length_b 9.000000
_cell_length_c 30.000000
_cell_angle_alpha 90.000000
_cell_angle_beta 40.000000
_cell_angle_gamma 90.000000
_cell_volume 3123.947783
_symmetry_space_group_name_H-M "C 2/M"
_symmetry_group_IT_number 12
_symmetry_cell_setting 'monoclinic'
loop_
_space_group_symop_operation_xyz
x,y,z
-x,y,-z
-x,-y,-z
x,-y,z
1/2+x,1/2+y,z
1/2-x,1/2+y,-z
1/2-x,1/2-y,-z
1/2+x,1/2-y,z
loop_
_atom_site_type_symbol
_atom_site_label
_atom_site_fract_x
_atom_site_fract_y
_atom_site_fract_z
Si Si1 0.002530 0.168427 0.274795
Si Si2 0.274580 0.175875 0.364060
Si Si3 0.034021 0.830069 0.361334
Si Si4 0.750503 0.174796 0.284378
Si Si5 0.829686 0.320745 0.501044
Si Si6 0.416578 0.325393 0.131513
Si Si7 0.672274 0.674987 0.998971
Si Si8 0.262656 0.824418 0.859266
O O1 0.975708 0.166116 0.339737
O O2 0.124005 0.230666 0.203081
O O3 0.907615 0.277400 0.298068
O O4 0.988974 0.000000 0.262394
O O5 0.224313 0.226033 0.339848
O O6 0.209134 0.266145 0.432607
O O7 0.261232 0.000000 0.378094
O O8 0.147312 0.730245 0.300169
O O9 0.957037 0.743415 0.433152
O O10 0.058065 0.000000 0.366294
O O11 0.868579 0.212867 0.203258
O O12 0.742696 0.000000 0.298808
O O13 0.827388 0.500000 0.499678
O O14 0.750000 0.250000 0.500000
O O15 0.422376 0.500000 0.122349
O O16 0.332599 0.264410 0.131645
O O17 0.543633 0.258178 0.065563
O O18 0.673331 0.500000 0.006383
O O19 0.717765 0.715029 0.929097
O O20 0.750000 0.750000 0.000000
O O21 0.287467 0.000000 0.842358
#
# Coordination Sequence:
#
# PCOD8116440 Si02
#       8
#     8   8   8   8   8   8   8   8
#     4  11  23  39  63  93 127 164 210 262 313 373
#     4  12  26  43  64  92 129 167 210 262 317 377
#     4  11  23  41  65  94 128 166 209 261 316 375
#     4  11  23  41  65  94 128 166 210 262 319 379
#     4  12  24  41  66  95 126 165 212 261 316 377
#     4   9  19  38  64  89 120 162 208 254 306 368
#     4  10  22  39  60  91 126 164 206 256 311 372
#     4  10  20  38  64  91 120 163 215 258 306 371
#
# _framework density 10.243449
#
# number of rings (size 3 to 8) (size 9 to 14) (size 15 to 20)
#    0.000    1.250    2.500    3.750    1.750    3.500 
#    0.000    3.750    0.000    1.500    0.000    0.000 
#    0.000    0.000    0.000    0.000    0.000    0.000 
#
# Total GULP energy -396759.307396 kJ/mol
# GULP energy per Si atom -12398.728356 kJ/mol
# Density = 1.022013 g / cm^3
# Si number density = 10.243449 Si / 1000 Ang^3
#
#
#
# Elastic Constant Matrix: (Units=GPa)
#
#
# Indices 1 2 3 4 5 6 
#
# 1 56.5495 25.8199 28.5082 0.0012 5.8161 0.0055
# 2 25.8199 125.4382 54.2636 0.0024 2.9489 0.0027
# 3 28.5082 54.2636 137.4307 0.0001 1.3132 -0.0004
# 4 0.0012 0.0024 0.0001 33.9004 0.0001 -0.0608
# 5 5.8161 2.9489 1.3132 0.0001 38.6516 0.0008
# 6 0.0055 0.0027 -0.0004 -0.0608 0.0008 33.8997
#
#
#
# Elastic Compliance Matrix: (Units=1/GPa)
#
#
# Indices 1 2 3 4 5 6 
#
# 1 0.020879 -0.002858 -0.003176 -0.000001 -0.002816 -0.000003
# 2 -0.002858 0.010019 -0.003361 -0.000001 -0.000220 0.000000
# 3 -0.003176 -0.003361 0.009258 0.000000 0.000420 0.000001
# 4 -0.000001 -0.000001 0.000000 0.029498 0.000000 0.000053
# 5 -0.002816 -0.000220 0.000420 0.000000 0.026298 0.000000
# 6 -0.000003 0.000000 0.000001 0.000053 0.000000 0.029499
#
#
# Mechanical properties :
#
#
# Convention : Reuss Voigt Hill
#
# Bulk Modulus (GPa) = 46.80032 59.62243 53.21137
# Shear Modulus (GPa) = 33.03288 35.34546 34.18917
#
# Velocity S-wave (km/s) = 4.01981 4.15814 4.08956
# Velocity P-wave (km/s) = 6.66625 7.22630 6.95192
#
# Compressibility (1/GPa) = 0.02136738
#
# Stress axis : x y z
#
# Youngs Moduli (GPa) = 47.89493 99.80549 108.01071
#
# Poissons Ratio (x) = 0.28521 0.34303
# Poissons Ratio (y) = 0.13687 0.36305
# Poissons Ratio (z) = 0.15211 0.33547
#
# Static dielectric constant tensor:
#      x y z
#    x 3.717570 -0.000010 -0.024120 
#    y -0.000010 3.718330 0.000000 
#    z -0.024120 0.000000 3.978120 
# 
# 
# High freq. dielectric constant tensor:
#      x y z
#    x 1.798020 0.000000 0.003280 
#    y 0.000000 1.799500 0.000000 
#    z 0.003280 0.000000 1.823360 
# 
# From -- ./inp_files/378048.got.cif
#   From: 2010.06.25/outbox.ucp.g09.slc.cvg/sg12_190_cif.got.tgz:378048.got - 2010.06.28 13:50:54.
