data_PCOD8116215
_publ_section_title
;
Structure prediction by ZEFSAII (Michael W. Deem and Ramdas Pophale) SiO2 
 PCOD8116215
Probable space group: C 2/M
;
_chemical_formula_sum "Si O2"
_cell_formula_units_Z 28
_cell_length_a 18.000000
_cell_length_b 18.000000
_cell_length_c 27.000000
_cell_angle_alpha 90.000000
_cell_angle_beta 20.000000
_cell_angle_gamma 90.000000
_cell_volume 2991.992214
_symmetry_space_group_name_H-M "C 2/M"
_symmetry_group_IT_number 12
_symmetry_cell_setting 'monoclinic'
loop_
_space_group_symop_operation_xyz
x,y,z
-x,y,-z
-x,-y,-z
x,-y,z
1/2+x,1/2+y,z
1/2-x,1/2+y,-z
1/2-x,1/2-y,-z
1/2+x,1/2-y,z
loop_
_atom_site_type_symbol
_atom_site_label
_atom_site_fract_x
_atom_site_fract_y
_atom_site_fract_z
Si Si1 0.208203 0.157872 0.333470
Si Si2 0.020641 0.830558 0.343233
Si Si3 0.555016 0.084679 0.176612
Si Si4 0.751256 0.300478 0.644945
Si Si5 0.085904 0.292887 0.659211
Si Si6 0.293912 0.086589 0.101466
Si Si7 0.888343 0.085919 0.885372
O O1 0.158620 0.154111 0.306543
O O2 0.362201 0.091824 0.256563
O O3 0.328847 0.236305 0.267090
O O4 0.000000 0.157588 0.500000
O O5 0.080689 0.895802 0.267524
O O6 0.064579 0.751498 0.286546
O O7 0.767595 0.837672 0.514722
O O8 0.544708 0.145336 0.227247
O O9 0.546717 0.000000 0.202701
O O10 0.778022 0.099149 0.007557
O O11 0.709928 0.268552 0.615374
O O12 0.617797 0.373790 0.740223
O O13 0.000000 0.321217 0.500000
O O14 0.263443 0.117300 0.064513
O O15 0.333746 0.000000 0.073907
O O16 0.500000 0.125182 0.000000
O O17 0.936980 0.000000 0.845204
#
# Coordination Sequence:
#
# PCOD8116215 Si02
#       7
#     8   8   8   8   8   8   8
#     4  10  19  34  54  86 112 146 185 225 281 336
#     4  11  19  36  55  81 118 147 185 229 277 335
#     4  10  21  38  57  82 117 150 188 233 282 342
#     4  10  18  37  56  80 109 141 187 242 275 328
#     4  10  21  35  57  82 112 151 187 233 283 334
#     4  10  21  36  54  83 119 150 179 222 282 344
#     4  10  21  37  57  80 109 150 191 230 278 332
#
# _framework density 9.3583130000000008
#
# number of rings (size 3 to 8) (size 9 to 14) (size 15 to 20)
#    0.000    1.857    5.714    0.857    0.000    5.143 
#    2.571    0.000    0.000    0.857    0.000    2.000 
#    0.000    0.000    0.000    0.000    0.000    0.000 
#
# Total GULP energy -346935.244706 kJ/mol
# GULP energy per Si atom -12390.544454 kJ/mol
# Density = 0.933701 g / cm^3
# Si number density = 9.358313 Si / 1000 Ang^3
#
#
#
# Elastic Constant Matrix: (Units=GPa)
#
#
# Indices 1 2 3 4 5 6 
#
# 1 71.4753 24.3802 19.8884 0.0199 17.5628 0.0169
# 2 24.3802 53.9471 38.3606 0.1225 4.4733 -0.1192
# 3 19.8884 38.3606 74.0131 0.2429 8.1156 -0.1821
# 4 0.0199 0.1225 0.2429 32.9745 0.0220 4.6341
# 5 17.5628 4.4733 8.1156 0.0220 29.2018 0.0112
# 6 0.0169 -0.1192 -0.1821 4.6341 0.0112 25.6906
#
#
#
# Elastic Compliance Matrix: (Units=1/GPa)
#
#
# Indices 1 2 3 4 5 6 
#
# 1 0.019201 -0.007851 0.000045 0.000031 -0.010358 -0.000050
# 2 -0.007851 0.032568 -0.015204 -0.000014 0.003958 0.000049
# 3 0.000045 -0.015204 0.021791 -0.000117 -0.003754 0.000107
# 4 0.000031 -0.000014 -0.000117 0.031116 -0.000006 -0.005614
# 5 -0.010358 0.003958 -0.003754 -0.000006 0.040911 -0.000018
# 6 -0.000050 0.000049 0.000107 -0.005614 -0.000018 0.039938
#
#
# Mechanical properties :
#
#
# Convention : Reuss Voigt Hill
#
# Bulk Modulus (GPa) = 36.30962 40.52156 38.41559
# Shear Modulus (GPa) = 20.77043 25.36046 23.06544
#
# Velocity S-wave (km/s) = 3.33488 3.68498 3.51429
# Velocity P-wave (km/s) = 5.85409 6.30892 6.08576
#
# Compressibility (1/GPa) = 0.02754091
#
# Stress axis : x y z
#
# Youngs Moduli (GPa) = 52.07936 30.70509 45.88953
#
# Poissons Ratio (x) = 0.24106 -0.00206
# Poissons Ratio (y) = 0.40887 0.69770
# Poissons Ratio (z) = -0.00234 0.46684
#
# Static dielectric constant tensor:
#      x y z
#    x 3.686730 -0.000100 0.065820 
#    y -0.000100 3.373720 0.000250 
#    z 0.065820 0.000250 3.285010 
# 
# 
# High freq. dielectric constant tensor:
#      x y z
#    x 1.730130 0.000000 0.017090 
#    y 0.000000 1.712400 0.000040 
#    z 0.017090 0.000040 1.713150 
# 
# From -- ./inp_files/156503.got.cif
#   From: 2010.06.25/outbox.ucp.g09.slc.cvg/sg12_79_cif.got.tgz:156503.got - 2010.06.28 13:50:54.
