data_PCOD8116682
_publ_section_title
;
Structure prediction by ZEFSAII (Michael W. Deem and Ramdas Pophale) SiO2 
 PCOD8116682
Probable space group: P 2/C
;
_chemical_formula_sum "Si O2"
_cell_formula_units_Z 26
_cell_length_a 13.134909
_cell_length_b 24.218919
_cell_length_c 5.234210
_cell_angle_alpha 90.000000
_cell_angle_beta 110.249438
_cell_angle_gamma 90.000000
_cell_volume 1562.161590
_symmetry_space_group_name_H-M "P 2/C"
_symmetry_group_IT_number 13
_symmetry_cell_setting 'monoclinic'
loop_
_space_group_symop_operation_xyz
x,y,z
-x,y,1/2-z
-x,-y,-z
x,-y,1/2+z
loop_
_atom_site_type_symbol
_atom_site_label
_atom_site_fract_x
_atom_site_fract_y
_atom_site_fract_z
Si Si1 0.879187 0.697779 0.444063
Si Si2 0.879294 0.348215 0.439113
Si Si3 0.876929 0.823286 0.621562
Si Si4 0.195058 0.120293 0.941340
Si Si5 0.626599 0.965600 0.858338
Si Si6 0.879257 0.523247 0.931808
Si Si7 0.000000 0.963235 0.250000
O O1 0.818671 0.663271 0.617091
O O2 0.879123 0.760300 0.535490
O O3 0.000563 0.675780 0.501341
O O4 0.820535 0.685195 0.121308
O O5 0.881317 0.412585 0.501834
O O6 0.809100 0.853805 0.343817
O O7 0.000000 0.845925 0.750000
O O8 0.822356 0.833646 0.851221
O O9 0.105829 0.073260 0.875108
O O10 0.312183 0.092828 0.083341
O O11 0.500000 0.951397 0.750000
O O12 0.660324 0.998462 0.633215
O O13 0.819101 0.508917 0.612640
O O14 0.000000 0.500000 0.000000
O O15 0.000000 0.000000 0.500000
#
# Coordination Sequence:
#
# PCOD8116682 Si02
#       7
#     4   4   4   4   4   4   2
#     4  10  18  27  40  53  74 108 149 179 217 273
#     4  10  17  25  38  51  71 107 150 190 230 273
#     4  12  21  34  46  67  95 126 151 184 226 278
#     4  12  23  35  51  72  98 121 150 183 229 271
#     4  10  21  40  62  78  94 119 152 188 225 272
#     4  10  16  23  32  48  69  93 133 194 255 271
#     4  12  22  32  46  66  96 122 140 166 208 270
#
# _framework density 16.643605000000001
#
# number of rings (size 3 to 8) (size 9 to 14) (size 15 to 20)
#    0.000    1.231    3.077    8.308    2.154    0.000 
#    0.000    0.000    0.000    0.000    0.000    0.000 
#    0.000    0.000    0.000    0.000    0.000    0.000 
#
# Total GULP energy -322151.503387 kJ/mol
# GULP energy per Si atom -12390.442438 kJ/mol
# Density = 1.660572 g / cm^3
# Si number density = 16.643605 Si / 1000 Ang^3
#
#
#
# Elastic Constant Matrix: (Units=GPa)
#
#
# Indices 1 2 3 4 5 6 
#
# 1 30.3654 22.6850 30.5936 0.0000 -4.7780 0.0000
# 2 22.6850 100.5180 42.5045 0.0000 -6.2899 0.0000
# 3 30.5936 42.5045 140.3734 0.0000 -40.4262 0.0000
# 4 0.0000 0.0000 0.0000 31.8691 0.0000 -13.1757
# 5 -4.7780 -6.2899 -40.4262 0.0000 26.2988 0.0000
# 6 0.0000 0.0000 0.0000 -13.1757 0.0000 15.4071
#
#
#
# Elastic Compliance Matrix: (Units=1/GPa)
#
#
# Indices 1 2 3 4 5 6 
#
# 1 0.047712 -0.006597 -0.011410 0.000000 -0.010449 0.000000
# 2 -0.006597 0.012645 -0.003347 0.000000 -0.003319 0.000000
# 3 -0.011410 -0.003347 0.017579 0.000000 0.024148 0.000000
# 4 0.000000 0.000000 0.000000 0.048540 0.000000 0.041510
# 5 -0.010449 -0.003319 0.024148 0.000000 0.072452 0.000000
# 6 0.000000 0.000000 0.000000 0.041510 0.000000 0.100403
#
#
# Mechanical properties :
#
#
# Convention : Reuss Voigt Hill
#
# Bulk Modulus (GPa) = 28.38694 51.42477 39.90585
# Shear Modulus (GPa) = 14.13301 26.41325 20.27313
#
# Velocity S-wave (km/s) = 2.91719 3.98803 3.49388
# Velocity P-wave (km/s) = 5.33286 7.22291 6.34862
#
# Compressibility (1/GPa) = 0.03522747
#
# Stress axis : x y z
#
# Youngs Moduli (GPa) = 20.95888 79.08389 56.88762
#
# Poissons Ratio (x) = 0.52169 0.64912
# Poissons Ratio (y) = 0.13826 0.19040
# Poissons Ratio (z) = 0.23915 0.26469
#
# Static dielectric constant tensor:
#      x y z
#    x 2.760180 0.000000 -0.926360 
#    y 0.000000 3.141820 0.000000 
#    z -0.926360 0.000000 5.673000 
# 
# 
# High freq. dielectric constant tensor:
#      x y z
#    x 1.563430 0.000000 -0.049450 
#    y 0.000000 1.649880 0.000000 
#    z -0.049450 0.000000 1.669790 
# 
# From -- ./inp_files/3894.got.cif
#   From: 2010.06.25/outbox.cif.g09.slc.cpg/sg13_2_cif.got.tgz:3894.got - 2010.06.28 04:50:58.
