data_PCOD8116942
_publ_section_title
;
Structure prediction by ZEFSAII (Michael W. Deem and Ramdas Pophale) SiO2 
 PCOD8116942
Probable space group: P 2/C
;
_chemical_formula_sum "Si O2"
_cell_formula_units_Z 24
_cell_length_a 15.466627
_cell_length_b 9.306585
_cell_length_c 17.760844
_cell_angle_alpha 90.000000
_cell_angle_beta 150.233392
_cell_angle_gamma 90.000000
_cell_volume 1269.231804
_symmetry_space_group_name_H-M "P 2/C"
_symmetry_group_IT_number 13
_symmetry_cell_setting 'monoclinic'
loop_
_space_group_symop_operation_xyz
x,y,z
-x,y,1/2-z
-x,-y,-z
x,-y,1/2+z
loop_
_atom_site_type_symbol
_atom_site_label
_atom_site_fract_x
_atom_site_fract_y
_atom_site_fract_z
Si Si1 0.679331 0.167970 0.850639
Si Si2 0.321555 0.481987 0.592725
Si Si3 0.016174 0.415488 0.589683
Si Si4 0.832719 0.408979 0.172351
Si Si5 0.133603 0.097619 0.645998
Si Si6 0.955680 0.903167 0.797478
O O1 0.500000 0.103176 0.750000
O O2 0.680524 0.339106 0.857822
O O3 0.691340 0.120404 0.771577
O O4 0.854774 0.115028 0.022761
O O5 0.500000 0.564459 0.750000
O O6 0.324635 0.440742 0.505240
O O7 0.161625 0.580372 0.496743
O O8 0.170652 0.488243 0.756736
O O9 0.050718 0.250966 0.599975
O O10 0.000000 0.500000 0.500000
O O11 0.844322 0.243644 0.207617
O O12 0.000000 0.446193 0.250000
O O13 0.167238 0.014895 0.750061
O O14 0.000000 0.000000 0.500000
O O15 0.000000 0.969237 0.750000
#
# Coordination Sequence:
#
# PCOD8116942 Si02
#       6
#     4   4   4   4   4   4
#     4  10  18  34  57  78 108 147 192 228 280 338
#     4  10  19  34  60  83 108 145 197 238 291 327
#     4  11  18  34  56  80 110 140 186 237 279 332
#     4   9  17  33  57  82 107 147 193 226 278 343
#     4  10  21  34  56  86 110 151 194 225 283 351
#     4  10  17  34  54  83 113 150 189 229 280 344
#
# _framework density 18.909075000000001
#
# number of rings (size 3 to 8) (size 9 to 14) (size 15 to 20)
#    0.000    2.000    6.667    1.000    0.000    2.000 
#    0.000    5.000    0.000    0.000    0.000    0.000 
#    0.000    0.000    0.000    0.000    0.000    0.000 
#
# Total GULP energy -297320.851947 kJ/mol
# GULP energy per Si atom -12388.368831 kJ/mol
# Density = 1.886604 g / cm^3
# Si number density = 18.909075 Si / 1000 Ang^3
#
#
#
# Elastic Constant Matrix: (Units=GPa)
#
#
# Indices 1 2 3 4 5 6 
#
# 1 132.3917 70.5487 38.9777 0.0000 -8.9943 0.0000
# 2 70.5487 109.9093 31.2380 0.0000 -12.4968 0.0000
# 3 38.9777 31.2380 84.5209 0.0000 -6.7282 0.0000
# 4 0.0000 0.0000 0.0000 15.2282 0.0000 -9.6946
# 5 -8.9943 -12.4968 -6.7282 0.0000 33.1662 0.0000
# 6 0.0000 0.0000 0.0000 -9.6946 0.0000 37.8364
#
#
#
# Elastic Compliance Matrix: (Units=1/GPa)
#
#
# Indices 1 2 3 4 5 6 
#
# 1 0.012140 -0.006922 -0.003035 0.000000 0.000068 0.000000
# 2 -0.006922 0.014441 -0.001892 0.000000 0.003180 0.000000
# 3 -0.003035 -0.001892 0.014034 0.000000 0.001311 0.000000
# 4 0.000000 0.000000 0.000000 0.078467 0.000000 0.020105
# 5 0.000068 0.003180 0.001311 0.000000 0.031634 0.000000
# 6 0.000000 0.000000 0.000000 0.020105 0.000000 0.031581
#
#
# Mechanical properties :
#
#
# Convention : Reuss Voigt Hill
#
# Bulk Modulus (GPa) = 59.10853 67.59451 63.35152
# Shear Modulus (GPa) = 23.62562 29.65000 26.63781
#
# Velocity S-wave (km/s) = 3.53857 3.96413 3.75738
# Velocity P-wave (km/s) = 6.92983 7.53506 7.23877
#
# Compressibility (1/GPa) = 0.01691803
#
# Stress axis : x y z
#
# Youngs Moduli (GPa) = 82.37122 69.24751 71.25319
#
# Poissons Ratio (x) = 0.47935 0.21623
# Poissons Ratio (y) = 0.57019 0.13480
# Poissons Ratio (z) = 0.24997 0.13100
#
# Static dielectric constant tensor:
#      x y z
#    x 4.301400 0.000000 -0.291260 
#    y 0.000000 3.416180 0.000000 
#    z -0.291260 0.000000 3.880570 
# 
# 
# High freq. dielectric constant tensor:
#      x y z
#    x 1.742670 0.000000 -0.022100 
#    y 0.000000 1.713710 0.000000 
#    z -0.022100 0.000000 1.711930 
# 
# From -- ./inp_files/63292.got.cif
#   From: 2010.06.25/outbox.cif.g09.slc.cpg/sg13_32_cif.got.tgz:63292.got - 2010.06.28 04:50:58.
