data_PCOD8116011
_publ_section_title
;
Structure prediction by ZEFSAII (Michael W. Deem and Ramdas Pophale) SiO2 
 PCOD8116011
Probable space group: C 2/M
;
_chemical_formula_sum "Si O2"
_cell_formula_units_Z 56
_cell_length_a 19.998202
_cell_length_b 9.304260
_cell_length_c 17.961897
_cell_angle_alpha 90.000000
_cell_angle_beta 89.157801
_cell_angle_gamma 90.000000
_cell_volume 3341.781657
_symmetry_space_group_name_H-M "C 2/M"
_symmetry_group_IT_number 12
_symmetry_cell_setting 'monoclinic'
loop_
_space_group_symop_operation_xyz
x,y,z
-x,y,-z
-x,-y,-z
x,-y,z
1/2+x,1/2+y,z
1/2-x,1/2+y,-z
1/2-x,1/2-y,-z
1/2+x,1/2-y,z
loop_
_atom_site_type_symbol
_atom_site_label
_atom_site_fract_x
_atom_site_fract_y
_atom_site_fract_z
Si Si1 0.818395 0.334121 0.919257
Si Si2 0.567886 0.834418 0.637786
Si Si3 0.422217 0.835102 0.198840
Si Si4 0.420040 0.660071 0.496159
Si Si5 0.930473 0.169177 0.657315
Si Si6 0.572668 0.831189 0.202275
Si Si7 0.313114 0.831159 0.089209
O O1 0.798467 0.500000 0.911419
O O2 0.884320 0.296762 0.871309
O O3 0.756892 0.242266 0.889205
O O4 0.834378 0.295005 0.004446
O O5 0.606574 0.819369 0.716103
O O6 0.608557 0.769600 0.566260
O O7 0.501948 0.742125 0.648367
O O8 0.550494 0.000000 0.621449
O O9 0.497324 0.771230 0.189525
O O10 0.370009 0.763249 0.142287
O O11 0.428112 0.000000 0.175380
O O12 0.500000 0.671899 0.500000
O O13 0.398734 0.500000 0.472321
O O14 0.390961 0.694868 0.579530
O O15 0.894411 0.246184 0.727947
O O16 0.938880 0.000000 0.672299
O O17 0.571655 0.000000 0.222014
O O18 0.303965 0.000000 0.102698
#
# Coordination Sequence:
#
# PCOD8116011 Si02
#       7
#     8   8   8   8   8   8   8
#     4   9  18  31  47  67  88 112 144 181 217 254
#     4   9  15  23  37  58  84 112 144 179 213 251
#     4   8  15  27  43  65  89 114 145 178 213 254
#     4   8  14  23  34  52  81 114 144 173 208 254
#     4   9  16  25  37  56  84 115 145 175 211 257
#     4   9  17  29  44  64  90 114 142 182 220 255
#     4   9  17  31  49  65  86 116 146 176 212 258
#
# _framework density 16.757529000000002
#
# number of rings (size 3 to 8) (size 9 to 14) (size 15 to 20)
#    0.000    3.286    0.000    2.571    0.000    4.286 
#    0.000    6.429    0.000    0.000    0.000    9.000 
#    0.000    0.000    0.000    0.000    0.000    0.000 
#
# Total GULP energy -346885.169175 kJ/mol
# GULP energy per Si atom -12388.756042 kJ/mol
# Density = 1.671939 g / cm^3
# Si number density = 16.757529 Si / 1000 Ang^3
#
#
#
# Elastic Constant Matrix: (Units=GPa)
#
#
# Indices 1 2 3 4 5 6 
#
# 1 56.7330 27.9561 56.2618 0.0000 6.3875 0.0000
# 2 27.9561 63.7315 52.9128 0.0000 0.4490 0.0000
# 3 56.2618 52.9128 130.4886 0.0000 4.5299 0.0000
# 4 0.0000 0.0000 0.0000 26.1243 0.0000 -3.6245
# 5 6.3875 0.4490 4.5299 0.0000 6.2707 0.0000
# 6 0.0000 0.0000 0.0000 -3.6245 0.0000 16.0712
#
#
#
# Elastic Compliance Matrix: (Units=1/GPa)
#
#
# Indices 1 2 3 4 5 6 
#
# 1 0.035264 -0.005167 -0.012180 0.000000 -0.026752 0.000000
# 2 -0.005167 0.024589 -0.008067 0.000000 0.009330 0.000000
# 3 -0.012180 -0.008067 0.016140 0.000000 0.001325 0.000000
# 4 0.000000 0.000000 0.000000 0.039515 0.000000 0.008912
# 5 -0.026752 0.009330 0.001325 0.000000 0.185096 0.000000
# 6 0.000000 0.000000 0.000000 0.008912 0.000000 0.064233
#
#
# Mechanical properties :
#
#
# Convention : Reuss Voigt Hill
#
# Bulk Modulus (GPa) = 39.73899 58.35717 49.04808
# Shear Modulus (GPa) = 11.79093 17.28141 14.53617
#
# Velocity S-wave (km/s) = 2.65546 3.21481 2.94843
# Velocity P-wave (km/s) = 5.75913 6.97711 6.39717
#
# Compressibility (1/GPa) = 0.02516420
#
# Stress axis : x y z
#
# Youngs Moduli (GPa) = 28.35753 40.66827 61.95668
#
# Poissons Ratio (x) = 0.21015 0.75466
# Poissons Ratio (y) = 0.14654 0.49979
# Poissons Ratio (z) = 0.34541 0.32806
#
# Static dielectric constant tensor:
#      x y z
#    x 2.749750 0.000000 -0.076210 
#    y 0.000000 3.170230 0.000000 
#    z -0.076210 0.000000 3.965580 
# 
# 
# High freq. dielectric constant tensor:
#      x y z
#    x 1.582770 0.000000 -0.007550 
#    y 0.000000 1.637210 0.000000 
#    z -0.007550 0.000000 1.665740 
# 
# From -- ./inp_files/280376.got.cif
#   From: 2010.06.25/outbox.cif.g09.slc.cpg/sg12_141_cif.got.tgz:280376.got - 2010.06.28 00:19:55.
