data_PCOD8116838
_publ_section_title
;
Structure prediction by ZEFSAII (Michael W. Deem and Ramdas Pophale) SiO2 
 PCOD8116838
Probable space group: P 2/C
;
_chemical_formula_sum "Si O2"
_cell_formula_units_Z 30
_cell_length_a 11.364956
_cell_length_b 17.462454
_cell_length_c 8.722040
_cell_angle_alpha 90.000000
_cell_angle_beta 103.774556
_cell_angle_gamma 90.000000
_cell_volume 1681.193563
_symmetry_space_group_name_H-M "P 2/C"
_symmetry_group_IT_number 13
_symmetry_cell_setting 'monoclinic'
loop_
_space_group_symop_operation_xyz
x,y,z
-x,y,1/2-z
-x,-y,-z
x,-y,1/2+z
loop_
_atom_site_type_symbol
_atom_site_label
_atom_site_fract_x
_atom_site_fract_y
_atom_site_fract_z
Si Si1 0.123725 0.966423 0.974154
Si Si2 0.359524 0.399824 0.724232
Si Si3 0.974742 0.718724 0.989123
Si Si4 0.913272 0.558891 0.887877
Si Si5 0.754722 0.505971 0.571250
Si Si6 0.000000 0.843296 0.750000
Si Si7 0.852464 0.897799 0.214198
Si Si8 0.810515 0.268487 0.720036
O O1 0.105485 0.899364 0.842900
O O2 0.192301 0.039230 0.922336
O O3 0.193853 0.929895 0.137437
O O4 0.000000 0.000000 0.000000
O O5 0.500000 0.383745 0.750000
O O6 0.340398 0.468230 0.840819
O O7 0.303736 0.422814 0.540816
O O8 0.302659 0.321368 0.772316
O O9 0.975516 0.641403 0.890632
O O10 0.945053 0.790975 0.869976
O O11 0.876529 0.700855 0.089583
O O12 0.104427 0.733203 0.104351
O O13 0.874558 0.533787 0.703693
O O14 0.793701 0.558312 0.959289
O O15 0.000000 0.500000 0.000000
O O16 0.777920 0.819488 0.168113
O O17 0.000000 0.882776 0.250000
#
# Coordination Sequence:
#
# PCOD8116838 Si02
#       8
#     4   4   4   4   4   2   4   4
#     4  10  17  28  44  70 106 147 176 206 254 326
#     4  11  23  41  60  78 104 142 196 243 275 314
#     4  11  22  32  49  78 118 144 172 222 271 341
#     4  11  22  33  52  79 114 149 180 216 272 341
#     4  10  22  38  56  78 103 143 191 229 275 325
#     4  12  20  28  48  76 116 150 176 212 262 328
#     4  10  17  29  47  70 108 142 175 207 263 335
#     4  11  21  35  51  77 108 147 175 222 280 322
#
# _framework density 17.844466000000001
#
# number of rings (size 3 to 8) (size 9 to 14) (size 15 to 20)
#    0.000    1.333    6.000    3.200    5.600    0.000 
#    0.000    0.000    0.000    0.000    0.000    0.933 
#    0.000    0.000    0.000    0.000    0.000    0.000 
#
# Total GULP energy -371725.002530 kJ/mol
# GULP energy per Si atom -12390.833418 kJ/mol
# Density = 1.780385 g / cm^3
# Si number density = 17.844466 Si / 1000 Ang^3
#
#
#
# Elastic Constant Matrix: (Units=GPa)
#
#
# Indices 1 2 3 4 5 6 
#
# 1 54.4782 34.4216 30.2273 0.0000 -3.8938 0.0000
# 2 34.4216 142.2099 39.4081 0.0000 -5.6171 0.0000
# 3 30.2273 39.4081 95.0654 0.0000 -11.8760 0.0000
# 4 0.0000 0.0000 0.0000 31.6762 0.0000 -10.7906
# 5 -3.8938 -5.6171 -11.8760 0.0000 18.7414 0.0000
# 6 0.0000 0.0000 0.0000 -10.7906 0.0000 18.7642
#
#
#
# Elastic Compliance Matrix: (Units=1/GPa)
#
#
# Indices 1 2 3 4 5 6 
#
# 1 0.024355 -0.004236 -0.005989 0.000000 -0.000004 0.000000
# 2 -0.004236 0.008683 -0.002213 0.000000 0.000320 0.000000
# 3 -0.005989 -0.002213 0.014228 0.000000 0.007109 0.000000
# 4 0.000000 0.000000 0.000000 0.039260 0.000000 0.022577
# 5 -0.000004 0.000320 0.007109 0.000000 0.057958 0.000000
# 6 0.000000 0.000000 0.000000 0.022577 0.000000 0.066276
#
#
# Mechanical properties :
#
#
# Convention : Reuss Voigt Hill
#
# Bulk Modulus (GPa) = 44.65796 55.54084 50.09940
# Shear Modulus (GPa) = 20.56781 26.34945 23.45863
#
# Velocity S-wave (km/s) = 3.39870 3.84685 3.62970
# Velocity P-wave (km/s) = 6.36256 7.13607 6.76039
#
# Compressibility (1/GPa) = 0.02239243
#
# Stress axis : x y z
#
# Youngs Moduli (GPa) = 41.05984 115.16925 70.28152
#
# Poissons Ratio (x) = 0.48782 0.42089
# Poissons Ratio (y) = 0.17392 0.15550
# Poissons Ratio (z) = 0.24589 0.25482
#
# Static dielectric constant tensor:
#      x y z
#    x 2.933790 0.000000 -0.317230 
#    y 0.000000 3.629230 0.000000 
#    z -0.317230 0.000000 3.869790 
# 
# 
# High freq. dielectric constant tensor:
#      x y z
#    x 1.619780 0.000000 -0.041280 
#    y 0.000000 1.705990 0.000000 
#    z -0.041280 0.000000 1.705510 
# 
# From -- ./inp_files/17091.got.cif
#   From: 2010.06.25/outbox.cif.g09.slc.cpg/sg13_9_cif.got.tgz:17091.got - 2010.06.28 04:50:58.
