data_PCOD8116500
_publ_section_title
;
Structure prediction by ZEFSAII (Michael W. Deem and Ramdas Pophale) SiO2 
 PCOD8116500
Probable space group: C 2/M
;
_chemical_formula_sum "Si O2"
_cell_formula_units_Z 24
_cell_length_a 9.000000
_cell_length_b 18.000000
_cell_length_c 30.000000
_cell_angle_alpha 90.000000
_cell_angle_beta 30.000000
_cell_angle_gamma 90.000000
_cell_volume 2430.000000
_symmetry_space_group_name_H-M "C 2/M"
_symmetry_group_IT_number 12
_symmetry_cell_setting 'monoclinic'
loop_
_space_group_symop_operation_xyz
x,y,z
-x,y,-z
-x,-y,-z
x,-y,z
1/2+x,1/2+y,z
1/2-x,1/2+y,-z
1/2-x,1/2-y,-z
1/2+x,1/2-y,z
loop_
_atom_site_type_symbol
_atom_site_label
_atom_site_fract_x
_atom_site_fract_y
_atom_site_fract_z
Si Si1 0.194227 0.912289 0.408776
Si Si2 0.299833 0.665521 0.246794
Si Si3 0.740458 0.913293 0.706179
Si Si4 0.551885 0.413830 0.873374
Si Si5 0.316083 0.319173 0.769774
Si Si6 0.260442 0.325278 0.024518
O O1 0.530467 0.888501 0.327948
O O2 0.102112 0.888511 0.381746
O O3 0.000000 0.877052 0.500000
O O4 0.178639 0.000000 0.416319
O O5 0.530357 0.624929 0.152720
O O6 0.418258 0.684811 0.264536
O O7 0.208495 0.739563 0.245542
O O8 0.392109 0.891470 0.795834
O O9 0.888900 0.875383 0.710554
O O10 0.780859 0.000000 0.702708
O O11 0.507537 0.500000 0.878013
O O12 0.340027 0.389783 0.968843
O O13 0.038388 0.345109 0.871738
O O14 0.500000 0.315909 0.000000
O O15 0.250000 0.250000 0.000000
#
# Coordination Sequence:
#
# PCOD8116500 Si02
#       6
#     8   8   8   8   8   8
#     4   9  19  40  68  91 116 152 189 234 296 362
#     4  11  22  38  59  85 119 154 195 241 296 354
#     4   9  19  37  59  86 117 151 194 242 296 352
#     4  10  21  38  57  81 115 155 199 246 293 344
#     4  12  23  37  59  86 119 159 199 244 295 345
#     4  12  23  37  58  82 113 158 209 247 286 340
#
# _framework density 9.8765429999999999
#
# number of rings (size 3 to 8) (size 9 to 14) (size 15 to 20)
#    0.000    1.500    3.333    4.500    0.000    2.333 
#    0.000    5.000    0.000    3.000    0.000    0.000 
#    0.000    0.000    0.000    0.000    0.000    0.000 
#
# Total GULP energy -297420.867442 kJ/mol
# GULP energy per Si atom -12392.536143 kJ/mol
# Density = 0.985406 g / cm^3
# Si number density = 9.876543 Si / 1000 Ang^3
#
#
#
# Elastic Constant Matrix: (Units=GPa)
#
#
# Indices 1 2 3 4 5 6 
#
# 1 147.2669 33.1461 28.0085 -2.4878 40.6982 1.0452
# 2 33.1461 22.8988 -18.3360 -3.1393 24.0042 1.8479
# 3 28.0085 -18.3360 68.2229 -1.2096 45.5836 1.8863
# 4 -2.4878 -3.1393 -1.2096 47.8374 0.4900 3.1741
# 5 40.6982 24.0042 45.5836 0.4900 37.1764 -0.4009
# 6 1.0452 1.8479 1.8863 3.1741 -0.4009 32.5064
#
#
#
# Elastic Compliance Matrix: (Units=1/GPa)
#
#
# Indices 1 2 3 4 5 6 
#
# 1 0.010208 -0.004517 0.000730 0.000364 -0.009161 -0.000262
# 2 -0.004517 -0.003420 -0.021908 -0.001507 0.034059 0.002178
# 3 0.000730 -0.021908 -0.003082 -0.001772 0.017168 0.001786
# 4 0.000364 -0.001507 -0.001772 0.020876 0.002452 -0.001831
# 5 -0.009161 0.034059 0.017168 0.002452 -0.006178 -0.002953
# 6 -0.000262 0.002178 0.001786 -0.001831 -0.002953 0.030687
#
#
# Mechanical properties :
#
#
# Convention : Reuss Voigt Hill
#
# Bulk Modulus (GPa) = -20.97139 36.00286 7.51574
# Shear Modulus (GPa) = 59.11094 36.54202 47.82648
#
# Velocity S-wave (km/s) = 5.47630 4.30576 4.92592
# Velocity P-wave (km/s) = 5.41726 6.55633 6.01382
#
# Compressibility (1/GPa) = -0.04768402
#
# Stress axis : x y z
#
# Youngs Moduli (GPa) = 97.96240 -292.42915 -324.48009
#
# Poissons Ratio (x) = -1.32089 0.23688
# Poissons Ratio (y) = 0.44249 -7.10882
# Poissons Ratio (z) = -0.07152 -6.40664
#
# Static dielectric constant tensor:
#      x y z
#    x 5.509110 -0.007120 3.654880 
#    y -0.007120 3.514550 -0.013720 
#    z 3.654880 -0.013720 9.849000 
# 
# 
# High freq. dielectric constant tensor:
#      x y z
#    x 1.776820 -0.000010 0.039870 
#    y -0.000010 1.765790 -0.000030 
#    z 0.039870 -0.000030 1.754110 
# 
# From -- ./inp_files/195958.got.cif
#   From: 2010.06.25/outbox.ucp.g09.slc.cvg/sg12_98_cif.got.tgz:195958.got - 2010.06.28 13:50:54.
