data_PCOD8116085
_publ_section_title
;
Structure prediction by ZEFSAII (Michael W. Deem and Ramdas Pophale) SiO2 
 PCOD8116085
Probable space group: C 2/M
;
_chemical_formula_sum "Si O2"
_cell_formula_units_Z 48
_cell_length_a 20.134814
_cell_length_b 9.191485
_cell_length_c 26.289496
_cell_angle_alpha 90.000000
_cell_angle_beta 140.892004
_cell_angle_gamma 90.000000
_cell_volume 3068.995879
_symmetry_space_group_name_H-M "C 2/M"
_symmetry_group_IT_number 12
_symmetry_cell_setting 'monoclinic'
loop_
_space_group_symop_operation_xyz
x,y,z
-x,y,-z
-x,-y,-z
x,-y,z
1/2+x,1/2+y,z
1/2-x,1/2+y,-z
1/2-x,1/2-y,-z
1/2+x,1/2-y,z
loop_
_atom_site_type_symbol
_atom_site_label
_atom_site_fract_x
_atom_site_fract_y
_atom_site_fract_z
Si Si1 0.879637 0.169841 0.210614
Si Si2 0.310270 0.164843 0.079135
Si Si3 0.570620 0.163830 0.492073
Si Si4 0.398594 0.668790 0.336722
Si Si5 0.967804 0.335942 0.758881
Si Si6 0.762420 0.170435 0.350857
O O1 0.794105 0.254784 0.124403
O O2 0.854155 0.202278 0.254258
O O3 0.997362 0.230194 0.266977
O O4 0.874081 0.000000 0.194734
O O5 0.436681 0.166669 0.142709
O O6 0.267143 0.000000 0.056738
O O7 0.250000 0.250000 0.000000
O O8 0.500000 0.167661 0.500000
O O9 0.506547 0.242834 0.409165
O O10 0.679003 0.247332 0.568337
O O11 0.596849 0.000000 0.490565
O O12 0.427186 0.500000 0.360100
O O13 0.308800 0.716536 0.323526
O O14 0.953861 0.500000 0.729261
O O15 0.859941 0.282479 0.720757
O O16 0.777938 0.000000 0.369120
#
# Coordination Sequence:
#
# PCOD8116085 Si02
#       6
#     8   8   8   8   8   8
#     4   9  17  29  46  69  93 115 146 183 221 265
#     4   9  17  30  49  71  90 115 148 179 218 265
#     4   9  17  27  41  64  91 119 152 187 223 262
#     4   9  17  29  47  67  88 119 154 186 220 261
#     4   8  17  30  46  67  90 116 147 184 223 263
#     4   9  16  30  48  65  88 118 154 189 221 259
#
# _framework density 15.640294000000001
#
# number of rings (size 3 to 8) (size 9 to 14) (size 15 to 20)
#    1.000    2.167    0.000    1.000    0.000    4.000 
#    0.000    0.833    0.000    1.000    0.000    7.000 
#    0.000    0.000    0.000    0.000    0.000    0.000 
#
# Total GULP energy -297339.219047 kJ/mol
# GULP energy per Si atom -12389.134127 kJ/mol
# Density = 1.560470 g / cm^3
# Si number density = 15.640294 Si / 1000 Ang^3
#
#
#
# Elastic Constant Matrix: (Units=GPa)
#
#
# Indices 1 2 3 4 5 6 
#
# 1 44.2740 20.5407 15.9102 0.0000 -3.4138 0.0000
# 2 20.5407 80.0725 34.3632 0.0000 -9.9881 0.0001
# 3 15.9102 34.3632 65.6334 0.0000 -11.8155 0.0000
# 4 0.0000 0.0000 0.0000 27.7046 0.0000 -0.9633
# 5 -3.4138 -9.9881 -11.8155 0.0000 23.4797 0.0000
# 6 0.0000 0.0001 0.0000 -0.9633 0.0000 18.2237
#
#
#
# Elastic Compliance Matrix: (Units=1/GPa)
#
#
# Indices 1 2 3 4 5 6 
#
# 1 0.026306 -0.005189 -0.003704 0.000000 -0.000247 0.000000
# 2 -0.005189 0.017309 -0.007274 0.000000 0.002948 0.000000
# 3 -0.003704 -0.007274 0.021210 0.000000 0.007040 0.000000
# 4 0.000000 0.000000 0.000000 0.036161 0.000000 0.001911
# 5 -0.000247 0.002948 0.007040 0.000000 0.047351 0.000000
# 6 0.000000 0.000000 0.000000 0.001911 0.000000 0.054975
#
#
# Mechanical properties :
#
#
# Convention : Reuss Voigt Hill
#
# Bulk Modulus (GPa) = 30.77828 36.84534 33.81181
# Shear Modulus (GPa) = 20.28581 21.82601 21.05591
#
# Velocity S-wave (km/s) = 3.60533 3.73969 3.67312
# Velocity P-wave (km/s) = 6.08710 6.50047 6.29718
#
# Compressibility (1/GPa) = 0.03249044
#
# Stress axis : x y z
#
# Youngs Moduli (GPa) = 38.01364 57.77292 47.14797
#
# Poissons Ratio (x) = 0.29980 0.17466
# Poissons Ratio (y) = 0.19726 0.34294
# Poissons Ratio (z) = 0.14082 0.42022
#
# Static dielectric constant tensor:
#      x y z
#    x 2.764910 0.000000 0.038450 
#    y 0.000000 3.090320 0.000000 
#    z 0.038450 0.000000 2.849880 
# 
# 
# High freq. dielectric constant tensor:
#      x y z
#    x 1.564210 0.000000 -0.001000 
#    y 0.000000 1.611340 0.000000 
#    z -0.001000 0.000000 1.586740 
# 
# From -- ./inp_files/342061.got.cif
#   From: 2010.06.25/outbox.cif.g09.slc.cpg/sg12_172_cif.got.tgz:342061.got - 2010.06.28 00:19:55.
