data_PCOD8116673
_publ_section_title
;
Structure prediction by ZEFSAII (Michael W. Deem and Ramdas Pophale) SiO2 
 PCOD8116673
Probable space group: P 2/C
;
_chemical_formula_sum "Si O2"
_cell_formula_units_Z 24
_cell_length_a 27.595071
_cell_length_b 7.024095
_cell_length_c 5.326861
_cell_angle_alpha 90.000000
_cell_angle_beta 90.357275
_cell_angle_gamma 90.000000
_cell_volume 1032.487526
_symmetry_space_group_name_H-M "P 2/C"
_symmetry_group_IT_number 13
_symmetry_cell_setting 'monoclinic'
loop_
_space_group_symop_operation_xyz
x,y,z
-x,y,1/2-z
-x,-y,-z
x,-y,1/2+z
loop_
_atom_site_type_symbol
_atom_site_label
_atom_site_fract_x
_atom_site_fract_y
_atom_site_fract_z
Si Si1 0.056635 0.803204 0.751797
Si Si2 0.799184 0.123634 0.743827
Si Si3 0.692210 0.221545 0.719667
Si Si4 0.903393 0.225865 0.746912
Si Si5 0.446210 0.379015 0.227580
Si Si6 0.348255 0.793249 0.781224
O O1 0.072186 0.684768 0.503389
O O2 0.000000 0.848115 0.750000
O O3 0.086126 0.999803 0.752683
O O4 0.072196 0.684760 0.001186
O O5 0.749942 0.243988 0.743155
O O6 0.845677 0.263434 0.744973
O O7 0.800801 0.999466 0.494310
O O8 0.674837 0.318189 0.458810
O O9 0.673365 0.003987 0.699562
O O10 0.667835 0.317254 0.964277
O O11 0.500000 0.288461 0.250000
O O12 0.439115 0.530761 0.451544
O O13 0.406667 0.210878 0.259174
#
# Coordination Sequence:
#
# PCOD8116673 Si02
#       6
#     4   4   4   4   4   4
#     4  10  16  22  28  39  59  87 130 179 226 250
#     4  12  16  27  38  55  81 104 139 172 222 274
#     4  10  19  30  47  71  94 120 142 184 237 269
#     4  10  16  22  31  44  61  94 128 171 221 257
#     4  10  21  37  55  73  94 123 155 185 215 253
#     4  10  18  32  49  70  95 118 148 179 223 271
#
# _framework density 23.244834999999998
#
# number of rings (size 3 to 8) (size 9 to 14) (size 15 to 20)
#    0.000    1.667    6.667    3.500    0.000    0.000 
#    0.000    3.333    0.000    0.000    0.000    0.000 
#    0.000    0.000    0.000    0.000    0.000    0.000 
#
# Total GULP energy -297367.036024 kJ/mol
# GULP energy per Si atom -12390.293168 kJ/mol
# Density = 2.319193 g / cm^3
# Si number density = 23.244835 Si / 1000 Ang^3
#
#
#
# Elastic Constant Matrix: (Units=GPa)
#
#
# Indices 1 2 3 4 5 6 
#
# 1 194.0601 6.3054 34.5024 0.0000 -9.6196 0.0000
# 2 6.3054 20.6330 -15.9872 0.0000 -1.1655 0.0000
# 3 34.5024 -15.9872 251.1886 0.0000 -6.0312 0.0000
# 4 0.0000 0.0000 0.0000 -13.5531 0.0000 -2.2984
# 5 -9.6196 -1.1655 -6.0312 0.0000 42.4592 0.0000
# 6 0.0000 0.0000 0.0000 -2.2984 0.0000 3.6486
#
#
#
# Elastic Compliance Matrix: (Units=1/GPa)
#
#
# Indices 1 2 3 4 5 6 
#
# 1 0.005433 -0.002272 -0.000866 0.000000 0.001045 0.000000
# 2 -0.002272 0.052078 0.003661 0.000000 0.001435 0.000000
# 3 -0.000866 0.003661 0.004346 0.000000 0.000522 0.000000
# 4 0.000000 0.000000 0.000000 -0.066663 0.000000 -0.041992
# 5 0.001045 0.001435 0.000522 0.000000 0.023902 0.000000
# 6 0.000000 0.000000 0.000000 -0.041992 0.000000 0.247623
#
#
# Mechanical properties :
#
#
# Convention : Reuss Voigt Hill
#
# Bulk Modulus (GPa) = 15.89743 57.28032 36.58888
# Shear Modulus (GPa) = 17.44351 35.91502 26.67926
#
# Velocity S-wave (km/s) = 2.74236 3.93501 3.39152
# Velocity P-wave (km/s) = 4.10869 6.73360 5.57776
#
# Compressibility (1/GPa) = 0.06290325
#
# Stress axis : x y z
#
# Youngs Moduli (GPa) = 184.07384 19.20190 230.12205
#
# Poissons Ratio (x) = 0.04363 0.19922
# Poissons Ratio (y) = 0.41820 -0.84250
# Poissons Ratio (z) = 0.15935 -0.07030
#
# Static dielectric constant tensor:
#      x y z
#    x 4.516400 0.000000 -0.029390 
#    y 0.000000 3.124250 0.000000 
#    z -0.029390 0.000000 7.288080 
# 
# 
# High freq. dielectric constant tensor:
#      x y z
#    x 1.932560 0.000000 -0.001250 
#    y 0.000000 1.835260 0.000000 
#    z -0.001250 0.000000 1.969840 
# 
# From -- ./inp_files/7348.got.cif
#   From: 2010.06.25/outbox.cif.g09.slc.cpg/sg13_4_cif.got.tgz:7348.got - 2010.06.28 04:50:58.
