data_PCOD8116372
_publ_section_title
;
Structure prediction by ZEFSAII (Michael W. Deem and Ramdas Pophale) SiO2 
 PCOD8116372
Probable space group: C 2/M
;
_chemical_formula_sum "Si O2"
_cell_formula_units_Z 32
_cell_length_a 24.000000
_cell_length_b 9.000000
_cell_length_c 30.000000
_cell_angle_alpha 90.000000
_cell_angle_beta 30.000000
_cell_angle_gamma 90.000000
_cell_volume 3240.000000
_symmetry_space_group_name_H-M "C 2/M"
_symmetry_group_IT_number 12
_symmetry_cell_setting 'monoclinic'
loop_
_space_group_symop_operation_xyz
x,y,z
-x,y,-z
-x,-y,-z
x,-y,z
1/2+x,1/2+y,z
1/2-x,1/2+y,-z
1/2-x,1/2-y,-z
1/2+x,1/2-y,z
loop_
_atom_site_type_symbol
_atom_site_label
_atom_site_fract_x
_atom_site_fract_y
_atom_site_fract_z
Si Si1 0.029564 0.834146 0.354348
Si Si2 0.534484 0.825224 0.218766
Si Si3 0.967002 0.675552 0.881617
Si Si4 0.866441 0.326209 0.409121
Si Si5 0.215883 0.177471 0.933524
Si Si6 0.082987 0.333428 0.402017
Si Si7 0.276430 0.170300 0.160722
Si Si8 0.171183 0.170882 0.784802
O O1 0.052725 0.796481 0.389295
O O2 0.143147 0.826264 0.247657
O O3 0.944463 0.709914 0.396785
O O4 0.978239 0.000000 0.386920
O O5 0.513293 0.777305 0.182968
O O6 0.433118 0.760725 0.319581
O O7 0.657146 0.768575 0.147340
O O8 0.532535 0.000000 0.226675
O O9 0.946228 0.500000 0.901285
O O10 0.078793 0.722540 0.828725
O O11 0.859494 0.763500 0.973824
O O12 0.844864 0.500000 0.419758
O O13 0.750000 0.250000 0.500000
O O14 0.170442 0.255632 0.920096
O O15 0.205530 0.000000 0.937372
O O16 0.067579 0.500000 0.392619
O O17 0.214191 0.313879 0.323251
O O18 0.000000 0.309610 0.500000
O O19 0.311192 0.274177 0.177272
O O20 0.318889 0.000000 0.137104
O O21 0.130049 0.000000 0.813944
#
# Coordination Sequence:
#
# PCOD8116372 Si02
#       8
#     8   8   8   8   8   8   8   8
#     4  10  20  35  56  84 115 149 191 239 293 348
#     4   9  21  40  62  85 118 158 197 241 296 353
#     4  11  23  40  59  85 120 158 196 244 297 350
#     4  11  22  39  60  87 119 155 197 243 296 349
#     4  11  21  38  63  90 116 153 199 242 295 357
#     4   9  19  36  59  85 114 151 196 242 293 352
#     4  10  20  36  60  88 116 150 193 242 291 346
#     4  10  21  38  58  84 118 156 196 241 296 353
#
# _framework density 9.8765429999999999
#
# number of rings (size 3 to 8) (size 9 to 14) (size 15 to 20)
#    0.000    1.875    1.250    2.625    0.000    3.250 
#    0.000    9.375    0.000    0.000    0.000    0.000 
#    0.000    0.000    0.000    0.000    0.000    0.000 
#
# Total GULP energy -396716.410261 kJ/mol
# GULP energy per Si atom -12397.387821 kJ/mol
# Density = 0.985406 g / cm^3
# Si number density = 9.876543 Si / 1000 Ang^3
#
#
#
# Elastic Constant Matrix: (Units=GPa)
#
#
# Indices 1 2 3 4 5 6 
#
# 1 64.9952 21.9297 46.9802 0.0209 -0.3952 -0.0052
# 2 21.9297 85.7964 40.6253 0.0728 6.6599 -0.0298
# 3 46.9802 40.6253 148.6553 -0.0142 7.0800 -0.0004
# 4 0.0209 0.0728 -0.0142 32.4146 -0.0511 -0.4552
# 5 -0.3952 6.6599 7.0800 -0.0511 18.8825 0.0593
# 6 -0.0052 -0.0298 -0.0004 -0.4552 0.0593 27.0479
#
#
#
# Elastic Compliance Matrix: (Units=1/GPa)
#
#
# Indices 1 2 3 4 5 6 
#
# 1 0.020628 -0.002740 -0.005943 -0.000004 0.003627 -0.000007
# 2 -0.002740 0.013971 -0.002764 -0.000037 -0.003949 0.000023
# 3 -0.005943 -0.002764 0.009490 0.000010 -0.002708 0.000002
# 4 -0.000004 -0.000037 0.000010 0.030858 0.000091 0.000519
# 5 0.003627 -0.003949 -0.002708 0.000091 0.055444 -0.000124
# 6 -0.000007 0.000023 0.000002 0.000519 -0.000124 0.036980
#
#
# Mechanical properties :
#
#
# Convention : Reuss Voigt Hill
#
# Bulk Modulus (GPa) = 47.18214 57.61303 52.39758
# Shear Modulus (GPa) = 25.33823 28.32976 26.83399
#
# Velocity S-wave (km/s) = 3.58543 3.79118 3.68974
# Velocity P-wave (km/s) = 6.40923 6.95658 6.68851
#
# Compressibility (1/GPa) = 0.02119446
#
# Stress axis : x y z
#
# Youngs Moduli (GPa) = 48.47745 71.57555 105.37888
#
# Poissons Ratio (x) = 0.19611 0.62628
# Poissons Ratio (y) = 0.13283 0.29128
# Poissons Ratio (z) = 0.28811 0.19785
#
# Static dielectric constant tensor:
#      x y z
#    x 3.393050 0.000060 0.020700 
#    y 0.000060 3.604560 -0.000060 
#    z 0.020700 -0.000060 3.834810 
# 
# 
# High freq. dielectric constant tensor:
#      x y z
#    x 1.754210 -0.000010 0.002280 
#    y -0.000010 1.774190 0.000010 
#    z 0.002280 0.000010 1.781860 
# 
# From -- ./inp_files/382281.got.cif
#   From: 2010.06.25/outbox.ucp.g09.slc.cvg/sg12_192_cif.got.tgz:382281.got - 2010.06.28 13:50:54.
