data_PCOD8116441
_publ_section_title
;
Structure prediction by ZEFSAII (Michael W. Deem and Ramdas Pophale) SiO2 
 PCOD8116441
Probable space group: C 2/M
;
_chemical_formula_sum "Si O2"
_cell_formula_units_Z 28
_cell_length_a 21.000000
_cell_length_b 18.000000
_cell_length_c 21.000000
_cell_angle_alpha 90.000000
_cell_angle_beta 20.000000
_cell_angle_gamma 90.000000
_cell_volume 2714.955898
_symmetry_space_group_name_H-M "C 2/M"
_symmetry_group_IT_number 12
_symmetry_cell_setting 'monoclinic'
loop_
_space_group_symop_operation_xyz
x,y,z
-x,y,-z
-x,-y,-z
x,-y,z
1/2+x,1/2+y,z
1/2-x,1/2+y,-z
1/2-x,1/2-y,-z
1/2+x,1/2-y,z
loop_
_atom_site_type_symbol
_atom_site_label
_atom_site_fract_x
_atom_site_fract_y
_atom_site_fract_z
Si Si1 0.108777 0.086245 0.292900
Si Si2 0.182344 0.585456 0.033172
Si Si3 0.779307 0.657202 0.649778
Si Si4 0.155148 0.584754 0.282967
Si Si5 0.439214 0.586772 0.903992
Si Si6 0.692827 0.814065 0.788919
Si Si7 0.316133 0.086518 0.318900
O O1 0.241448 0.099436 0.108852
O O2 0.163963 0.145112 0.296399
O O3 0.899955 0.103371 0.462847
O O4 0.120605 0.000000 0.306255
O O5 0.182885 0.500000 0.052751
O O6 0.319374 0.621780 0.957390
O O7 0.964541 0.613619 0.234718
O O8 0.752879 0.604096 0.735636
O O9 0.622984 0.637083 0.743621
O O10 0.783292 0.743264 0.668280
O O11 0.982033 0.639078 0.429534
O O12 0.083916 0.500000 0.350176
O O13 0.313058 0.597546 0.083652
O O14 0.495461 0.500000 0.840255
O O15 0.630736 0.875392 0.796941
O O16 0.500000 0.785281 0.000000
O O17 0.353552 0.000000 0.273400
#
# Coordination Sequence:
#
# PCOD8116441 Si02
#       7
#     8   8   8   8   8   8   8
#     4  10  21  37  60  90 120 155 198 241 289 344
#     4   9  19  37  61  89 118 152 196 244 286 342
#     4  11  23  37  56  89 122 151 193 242 296 354
#     4  10  21  38  62  88 115 150 193 248 302 348
#     4  10  20  38  65  90 117 153 195 242 295 349
#     4  12  23  36  59  86 119 163 193 240 297 344
#     4  10  21  37  58  86 118 154 200 244 287 342
#
# _framework density 10.313243
#
# number of rings (size 3 to 8) (size 9 to 14) (size 15 to 20)
#    0.000    1.714    1.429    3.857    4.000    4.000 
#    0.000    5.000    0.000    1.714    0.000    0.000 
#    0.000    0.000    0.000    0.000    0.000    0.000 
#
# Total GULP energy -346988.073533 kJ/mol
# GULP energy per Si atom -12392.431198 kJ/mol
# Density = 1.028977 g / cm^3
# Si number density = 10.313243 Si / 1000 Ang^3
#
#
#
# Elastic Constant Matrix: (Units=GPa)
#
#
# Indices 1 2 3 4 5 6 
#
# 1 109.7260 20.1878 26.0484 -0.2195 -51.8643 -0.0332
# 2 20.1878 74.1619 26.1769 -0.5415 -19.9664 0.1278
# 3 26.0484 26.1769 70.4600 -0.1536 -37.5946 0.0711
# 4 -0.2195 -0.5415 -0.1536 22.2380 0.1148 -3.8180
# 5 -51.8643 -19.9664 -37.5946 0.1148 44.9467 -0.0045
# 6 -0.0332 0.1278 0.0711 -3.8180 -0.0045 21.6706
#
#
#
# Elastic Compliance Matrix: (Units=1/GPa)
#
#
# Indices 1 2 3 4 5 6 
#
# 1 0.023725 -0.000511 0.010664 0.000115 0.036069 0.000032
# 2 -0.000511 0.015889 -0.004086 0.000334 0.003051 -0.000022
# 3 0.010664 -0.004086 0.031361 0.000024 0.036722 -0.000051
# 4 0.000115 0.000334 0.000024 0.046379 0.000183 0.008169
# 5 0.036069 0.003051 0.036722 0.000183 0.095939 -0.000031
# 6 0.000032 -0.000022 -0.000051 0.008169 -0.000031 0.047585
#
#
# Mechanical properties :
#
#
# Convention : Reuss Voigt Hill
#
# Bulk Modulus (GPa) = 12.03220 44.35266 28.19243
# Shear Modulus (GPa) = 18.08668 29.90004 23.99336
#
# Velocity S-wave (km/s) = 2.96441 3.81148 3.41432
# Velocity P-wave (km/s) = 4.19082 6.39682 5.40751
#
# Compressibility (1/GPa) = 0.08311035
#
# Stress axis : x y z
#
# Youngs Moduli (GPa) = 42.14967 62.93671 31.88639
#
# Poissons Ratio (x) = 0.03215 -0.34004
# Poissons Ratio (y) = 0.02153 0.13028
# Poissons Ratio (z) = -0.44949 0.25714
#
# Static dielectric constant tensor:
#      x y z
#    x 3.911520 -0.000260 -0.374660 
#    y -0.000260 3.675160 0.000840 
#    z -0.374660 0.000840 3.850180 
# 
# 
# High freq. dielectric constant tensor:
#      x y z
#    x 1.807330 -0.000010 -0.029600 
#    y -0.000010 1.790530 0.000060 
#    z -0.029600 0.000060 1.820000 
# 
# From -- ./inp_files/322639.got.cif
#   From: 2010.06.25/outbox.ucp.g09.slc.cvg/sg12_162_cif.got.tgz:322639.got - 2010.06.28 13:50:54.
