data_PCOD8116760
_publ_section_title
;
Structure prediction by ZEFSAII (Michael W. Deem and Ramdas Pophale) SiO2 
 PCOD8116760
Probable space group: P 2/C
;
_chemical_formula_sum "Si O2"
_cell_formula_units_Z 30
_cell_length_a 28.377327
_cell_length_b 13.107109
_cell_length_c 5.168197
_cell_angle_alpha 90.000000
_cell_angle_beta 109.604964
_cell_angle_gamma 90.000000
_cell_volume 1810.845696
_symmetry_space_group_name_H-M "P 2/C"
_symmetry_group_IT_number 13
_symmetry_cell_setting 'monoclinic'
loop_
_space_group_symop_operation_xyz
x,y,z
-x,y,1/2-z
-x,-y,-z
x,-y,1/2+z
loop_
_atom_site_type_symbol
_atom_site_label
_atom_site_fract_x
_atom_site_fract_y
_atom_site_fract_z
Si Si1 0.448021 0.066247 0.093686
Si Si2 0.913230 0.775068 0.998037
Si Si3 0.763271 0.932239 0.248543
Si Si4 0.173193 0.540306 0.138231
Si Si5 0.150746 0.230258 0.608457
Si Si6 0.345032 0.064205 0.034725
Si Si7 0.062321 0.451925 0.992505
Si Si8 0.000000 0.930503 0.250000
O O1 0.500000 0.128194 0.250000
O O2 0.447903 0.970487 0.296257
O O3 0.396067 0.128526 0.059901
O O4 0.886056 0.810897 0.683928
O O5 0.942492 0.669946 0.995023
O O6 0.874910 0.759596 0.161042
O O7 0.950969 0.861679 0.156473
O O8 0.802839 0.844104 0.277864
O O9 0.770507 0.980787 0.544836
O O10 0.707939 0.880234 0.119462
O O11 0.202350 0.519282 0.461545
O O12 0.169396 0.658500 0.058632
O O13 0.119995 0.487075 0.107826
O O14 0.346505 0.967687 0.838355
O O15 0.035319 0.507630 0.184445
O O16 0.000000 0.000000 0.500000
#
# Coordination Sequence:
#
# PCOD8116760 Si02
#       8
#     4   4   4   4   4   4   4   2
#     4   8  12  18  31  50  68  97 143 182 218 261
#     4  12  23  39  61  76  93 122 151 177 218 270
#     4  10  21  33  43  66  95 120 158 191 217 251
#     4  10  16  30  51  77 103 116 132 174 221 265
#     4  12  21  33  59  78  93 120 153 180 217 268
#     4   8  14  25  37  49  79 114 138 185 229 246
#     4  10  16  32  56  80 102 113 132 174 220 264
#     4  12  30  50  58  72 100 128 152 182 218 252
#
# _framework density 16.566846000000002
#
# number of rings (size 3 to 8) (size 9 to 14) (size 15 to 20)
#    0.000    1.867    5.333    1.600    0.000    3.200 
#    0.000    0.667    0.000    0.000    0.000    0.000 
#    0.000    0.000    0.000    0.000    0.000    1.333 
#
# Total GULP energy -371641.827736 kJ/mol
# GULP energy per Si atom -12388.060925 kJ/mol
# Density = 1.652914 g / cm^3
# Si number density = 16.566846 Si / 1000 Ang^3
#
#
#
# Elastic Constant Matrix: (Units=GPa)
#
#
# Indices 1 2 3 4 5 6 
#
# 1 55.6530 23.3132 30.9768 0.0000 7.0028 0.0000
# 2 23.3132 64.4746 20.2030 0.0000 9.9050 0.0000
# 3 30.9768 20.2030 106.0722 0.0000 -14.3941 0.0000
# 4 0.0000 0.0000 0.0000 17.3480 0.0000 -8.0773
# 5 7.0028 9.9050 -14.3941 0.0000 29.6873 0.0000
# 6 0.0000 0.0000 0.0000 -8.0773 0.0000 -0.0875
#
#
#
# Elastic Compliance Matrix: (Units=1/GPa)
#
#
# Indices 1 2 3 4 5 6 
#
# 1 0.025433 -0.005704 -0.007382 0.000000 -0.007676 0.000000
# 2 -0.005704 0.019507 -0.002944 0.000000 -0.006591 0.000000
# 3 -0.007382 -0.002944 0.013395 0.000000 0.009218 0.000000
# 4 0.000000 0.000000 0.000000 0.001310 0.000000 -0.120990
# 5 -0.007676 -0.006591 0.009218 0.000000 0.042164 0.000000
# 6 0.000000 0.000000 0.000000 -0.120990 0.000000 -0.259857
#
#
# Mechanical properties :
#
#
# Convention : Reuss Voigt Hill
#
# Bulk Modulus (GPa) = 38.05945 41.68730 39.87338
# Shear Modulus (GPa) = -42.65174 19.50336 -11.57419
#
# Velocity S-wave (km/s) = -5.07948 3.43483 -2.64604
# Velocity P-wave (km/s) = 3.37318 6.39910 3.84513
#
# Compressibility (1/GPa) = 0.02627468
#
# Stress axis : x y z
#
# Youngs Moduli (GPa) = 39.31949 51.26267 74.65359
#
# Poissons Ratio (x) = 0.29238 0.55113
# Poissons Ratio (y) = 0.22426 0.21979
# Poissons Ratio (z) = 0.29028 0.15093
#
# Static dielectric constant tensor:
#      x y z
#    x 3.416330 0.000000 -0.175310 
#    y 0.000000 2.779550 0.000000 
#    z -0.175310 0.000000 3.928280 
# 
# 
# High freq. dielectric constant tensor:
#      x y z
#    x 1.628760 0.000000 -0.017610 
#    y 0.000000 1.577200 0.000000 
#    z -0.017610 0.000000 1.674850 
# 
# From -- ./inp_files/7879.got.cif
#   From: 2010.06.25/outbox.cif.g09.slc.cpg/sg13_4_cif.got.tgz:7879.got - 2010.06.28 04:50:58.
