data_PCOD8116810
_publ_section_title
;
Structure prediction by ZEFSAII (Michael W. Deem and Ramdas Pophale) SiO2 
 PCOD8116810
Probable space group: P 2/C
;
_chemical_formula_sum "Si O2"
_cell_formula_units_Z 32
_cell_length_a 15.593213
_cell_length_b 11.337864
_cell_length_c 16.938283
_cell_angle_alpha 90.000000
_cell_angle_beta 150.653506
_cell_angle_gamma 90.000000
_cell_volume 1467.614647
_symmetry_space_group_name_H-M "P 2/C"
_symmetry_group_IT_number 13
_symmetry_cell_setting 'monoclinic'
loop_
_space_group_symop_operation_xyz
x,y,z
-x,y,1/2-z
-x,-y,-z
x,-y,1/2+z
loop_
_atom_site_type_symbol
_atom_site_label
_atom_site_fract_x
_atom_site_fract_y
_atom_site_fract_z
Si Si1 0.754155 0.273525 0.855045
Si Si2 0.738134 0.090262 0.275047
Si Si3 0.499734 0.926429 0.344056
Si Si4 0.984223 0.959455 0.366931
Si Si5 0.956729 0.305325 0.804317
Si Si6 0.683649 0.547002 0.178995
Si Si7 0.161974 0.172821 0.421197
Si Si8 0.135154 0.672265 0.602791
O O1 0.660288 0.153572 0.752986
O O2 0.646883 0.382371 0.731508
O O3 0.758810 0.268636 0.954074
O O4 0.949538 0.272825 0.979470
O O5 0.720120 0.232143 0.253622
O O6 0.883447 0.068925 0.457597
O O7 0.543056 0.047938 0.144965
O O8 0.805749 0.025469 0.250490
O O9 0.500000 0.944382 0.250000
O O10 0.683867 0.866072 0.515716
O O11 0.931145 0.836612 0.282146
O O12 0.088541 0.049287 0.394913
O O13 0.777533 0.370011 0.689382
O O14 0.000000 0.348054 0.750000
O O15 0.115644 0.344148 0.991797
O O16 0.820184 0.445643 0.314018
O O17 0.500000 0.500000 0.000000
O O18 0.000000 0.239860 0.250000
#
# Coordination Sequence:
#
# PCOD8116810 Si02
#       8
#     4   4   4   4   4   4   4   4
#     4  10  19  41  67  89 124 174 218 258 332 391
#     4  10  16  34  65  93 124 179 217 256 313 405
#     4  10  19  35  59  95 133 166 212 266 327 381
#     4  10  18  35  65  96 133 170 214 249 333 406
#     4  10  21  40  69  99 129 171 218 276 330 393
#     4  11  25  47  68  91 128 170 234 288 321 389
#     4  11  22  37  59 100 143 170 207 269 334 405
#     4  10  21  41  70  93 124 176 229 263 333 392
#
# _framework density 21.804089000000001
#
# number of rings (size 3 to 8) (size 9 to 14) (size 15 to 20)
#    0.000    1.750    3.750    4.125    0.000    1.000 
#    4.500   11.250    0.000    0.000    0.000    0.000 
#    0.000    0.000    0.000    0.000    0.000    0.000 
#
# Total GULP energy -396430.133106 kJ/mol
# GULP energy per Si atom -12388.441660 kJ/mol
# Density = 2.175446 g / cm^3
# Si number density = 21.804089 Si / 1000 Ang^3
#
#
#
# Elastic Constant Matrix: (Units=GPa)
#
#
# Indices 1 2 3 4 5 6 
#
# 1 85.2995 52.7003 40.3164 0.0000 10.1143 0.0000
# 2 52.7003 104.8113 37.1902 0.0000 0.6520 0.0000
# 3 40.3164 37.1902 98.2771 0.0000 4.2992 0.0000
# 4 0.0000 0.0000 0.0000 27.6578 0.0000 3.5158
# 5 10.1143 0.6520 4.2992 0.0000 27.4707 0.0000
# 6 0.0000 0.0000 0.0000 3.5158 0.0000 14.1959
#
#
#
# Elastic Compliance Matrix: (Units=1/GPa)
#
#
# Indices 1 2 3 4 5 6 
#
# 1 0.019802 -0.008240 -0.004727 0.000000 -0.006355 0.000000
# 2 -0.008240 0.014454 -0.002222 0.000000 0.003038 0.000000
# 3 -0.004727 -0.002222 0.012966 0.000000 -0.000236 0.000000
# 4 0.000000 0.000000 0.000000 0.037331 0.000000 -0.009246
# 5 -0.006355 0.003038 -0.000236 0.000000 0.038707 0.000000
# 6 0.000000 0.000000 0.000000 -0.009246 0.000000 0.072733
#
#
# Mechanical properties :
#
#
# Convention : Reuss Voigt Hill
#
# Bulk Modulus (GPa) = 59.37227 60.97795 60.17511
# Shear Modulus (GPa) = 21.55302 24.41027 22.98165
#
# Velocity S-wave (km/s) = 3.14743 3.34956 3.25007
# Velocity P-wave (km/s) = 6.36376 6.55640 6.46080
#
# Compressibility (1/GPa) = 0.01684288
#
# Stress axis : x y z
#
# Youngs Moduli (GPa) = 50.49981 69.18676 77.12547
#
# Poissons Ratio (x) = 0.57008 0.36460
# Poissons Ratio (y) = 0.41611 0.17139
# Poissons Ratio (z) = 0.23873 0.15375
#
# Static dielectric constant tensor:
#      x y z
#    x 4.040250 0.000000 -0.146090 
#    y 0.000000 4.158960 0.000000 
#    z -0.146090 0.000000 4.100220 
# 
# 
# High freq. dielectric constant tensor:
#      x y z
#    x 1.845900 0.000000 -0.002940 
#    y 0.000000 1.849640 0.000000 
#    z -0.002940 0.000000 1.844710 
# 
# From -- ./inp_files/68717.got.cif
#   From: 2010.06.25/outbox.cif.g09.slc.cpg/sg13_35_cif.got.tgz:68717.got - 2010.06.28 04:50:58.
