data_PCOD8116678
_publ_section_title
;
Structure prediction by ZEFSAII (Michael W. Deem and Ramdas Pophale) SiO2 
 PCOD8116678
Probable space group: P 2/C
;
_chemical_formula_sum "Si O2"
_cell_formula_units_Z 20
_cell_length_a 24.811145
_cell_length_b 7.038516
_cell_length_c 5.341091
_cell_angle_alpha 90.000000
_cell_angle_beta 71.161080
_cell_angle_gamma 90.000000
_cell_volume 882.767723
_symmetry_space_group_name_H-M "P 2/C"
_symmetry_group_IT_number 13
_symmetry_cell_setting 'monoclinic'
loop_
_space_group_symop_operation_xyz
x,y,z
-x,y,1/2-z
-x,-y,-z
x,-y,1/2+z
loop_
_atom_site_type_symbol
_atom_site_label
_atom_site_fract_x
_atom_site_fract_y
_atom_site_fract_z
Si Si1 0.649771 0.621464 0.275340
Si Si2 0.178839 0.704757 0.981761
Si Si3 0.063371 0.877124 0.154926
Si Si4 0.523713 0.284151 0.964430
Si Si5 0.226239 0.276052 0.910660
O O1 0.651291 0.500000 0.523060
O O2 0.591701 0.740006 0.362447
O O3 0.705661 0.752326 0.191504
O O4 0.205168 0.495182 0.942276
O O5 0.201295 0.817468 0.701431
O O6 0.109872 0.707185 0.085194
O O7 0.201290 0.817466 0.194739
O O8 0.000000 0.786334 0.250000
O O9 0.072166 0.000022 0.391714
O O10 0.500000 0.181650 0.750000
O O11 0.500000 0.181650 0.250000
O O12 0.500000 0.500000 0.000000
#
# Coordination Sequence:
#
# PCOD8116678 Si02
#       5
#     4   4   4   4   4
#     4  12  16  25  38  55  86 118 159 189 215 265
#     4  10  18  32  49  68  95 118 151 190 220 273
#     4  10  21  37  55  73  92 119 153 187 228 275
#     4  10  16  22  31  49  75 114 161 192 210 245
#     4  10  19  30  45  71  94 125 156 182 228 276
#
# _framework density 22.656016999999999
#
# number of rings (size 3 to 8) (size 9 to 14) (size 15 to 20)
#    0.000    1.600    8.000    1.200    0.000    0.000 
#    0.000    4.000    0.000    0.000    0.000    0.000 
#    0.000    0.000    0.000    0.000    0.000  244.000 
#
# Total GULP energy -247768.508009 kJ/mol
# GULP energy per Si atom -12388.425400 kJ/mol
# Density = 2.260445 g / cm^3
# Si number density = 22.656017 Si / 1000 Ang^3
#
#
#
# Elastic Constant Matrix: (Units=GPa)
#
#
# Indices 1 2 3 4 5 6 
#
# 1 227.8248 12.1989 85.9098 0.0000 -22.4810 0.0000
# 2 12.1989 22.3237 -5.8358 0.0000 -8.8708 0.0000
# 3 85.9098 -5.8358 238.8386 0.0000 27.8731 0.0000
# 4 0.0000 0.0000 0.0000 -1.1261 0.0000 -4.8060
# 5 -22.4810 -8.8708 27.8731 0.0000 72.8516 0.0000
# 6 0.0000 0.0000 0.0000 -4.8060 0.0000 8.6592
#
#
#
# Elastic Compliance Matrix: (Units=1/GPa)
#
#
# Indices 1 2 3 4 5 6 
#
# 1 0.005663 -0.002795 -0.002376 0.000000 0.002316 0.000000
# 2 -0.002795 0.048511 0.001677 0.000000 0.004403 0.000000
# 3 -0.002376 0.001677 0.005385 0.000000 -0.002589 0.000000
# 4 0.000000 0.000000 0.000000 -0.263609 0.000000 -0.146307
# 5 0.002316 0.004403 -0.002589 0.000000 0.015968 0.000000
# 6 0.000000 0.000000 0.000000 -0.146307 0.000000 0.034281
#
#
# Mechanical properties :
#
#
# Convention : Reuss Voigt Hill
#
# Bulk Modulus (GPa) = 19.02203 74.83697 46.92950
# Shear Modulus (GPa) = -38.67320 42.52455 1.92567
#
# Velocity S-wave (km/s) = -4.13603 4.33710 0.92293
# Velocity P-wave (km/s) = 3.79405 7.62785 4.67917
#
# Compressibility (1/GPa) = 0.05257063
#
# Stress axis : x y z
#
# Youngs Moduli (GPa) = 176.57106 20.61392 185.71448
#
# Poissons Ratio (x) = 0.05763 0.44121
# Poissons Ratio (y) = 0.49360 -0.31145
# Poissons Ratio (z) = 0.41949 -0.03457
#
# Static dielectric constant tensor:
#      x y z
#    x 4.874470 0.000000 0.497510 
#    y 0.000000 3.045090 0.000000 
#    z 0.497510 0.000000 5.885720 
# 
# 
# High freq. dielectric constant tensor:
#      x y z
#    x 1.915780 0.000000 0.011960 
#    y 0.000000 1.811550 0.000000 
#    z 0.011960 0.000000 1.940090 
# 
# From -- ./inp_files/6710.got.cif
#   From: 2010.06.25/outbox.cif.g09.slc.cpg/sg13_4_cif.got.tgz:6710.got - 2010.06.28 04:50:58.
