data_PCOD8116714
_publ_section_title
;
Structure prediction by ZEFSAII (Michael W. Deem and Ramdas Pophale) SiO2 
 PCOD8116714
Probable space group: P 2/C
;
_chemical_formula_sum "Si O2"
_cell_formula_units_Z 30
_cell_length_a 16.382530
_cell_length_b 25.132575
_cell_length_c 5.193005
_cell_angle_alpha 90.000000
_cell_angle_beta 52.882645
_cell_angle_gamma 90.000000
_cell_volume 1704.957562
_symmetry_space_group_name_H-M "P 2/C"
_symmetry_group_IT_number 13
_symmetry_cell_setting 'monoclinic'
loop_
_space_group_symop_operation_xyz
x,y,z
-x,y,1/2-z
-x,-y,-z
x,-y,1/2+z
loop_
_atom_site_type_symbol
_atom_site_label
_atom_site_fract_x
_atom_site_fract_y
_atom_site_fract_z
Si Si1 0.565759 0.858946 0.377322
Si Si2 0.247751 0.296200 0.625748
Si Si3 0.614654 0.977047 0.305868
Si Si4 0.931835 0.370040 0.629689
Si Si5 0.222561 0.534155 0.089320
Si Si6 0.606760 0.613271 0.686625
Si Si7 0.673319 0.245373 0.552921
Si Si8 0.500000 0.687033 0.250000
O O1 0.500000 0.870286 0.250000
O O2 0.619103 0.914210 0.352161
O O3 0.652781 0.817061 0.126483
O O4 0.500000 0.838619 0.750000
O O5 0.135177 0.316592 0.768870
O O6 0.313798 0.347229 0.606571
O O7 0.242659 0.259819 0.890558
O O8 0.292465 0.261693 0.301708
O O9 0.500000 0.000000 0.500000
O O10 0.672075 0.006656 0.432962
O O11 0.861397 0.421354 0.804218
O O12 0.000000 0.362538 0.750000
O O13 0.000000 0.378930 0.250000
O O14 0.208523 0.510928 0.401582
O O15 0.337418 0.558147 0.849714
O O16 0.500000 0.600912 0.750000
O O17 0.585059 0.647554 0.979287
O O18 0.563809 0.274855 0.822319
#
# Coordination Sequence:
#
# PCOD8116714 Si02
#       8
#     4   4   4   4   4   4   4   2
#     4  12  20  27  43  67  96 137 197 231 255 295
#     4  10  22  38  54  80 108 130 166 216 262 308
#     4  10  16  28  39  55  86 133 186 256 258 269
#     4  11  23  42  69  86  99 128 167 206 262 334
#     4  11  26  41  56  82 111 129 160 211 254 298
#     4  10  21  35  55  72 102 142 176 196 241 300
#     4  11  21  32  49  74 108 137 171 223 261 292
#     4  10  20  32  52  70  98 140 184 206 240 296
#
# _framework density 17.595745999999998
#
# number of rings (size 3 to 8) (size 9 to 14) (size 15 to 20)
#    0.000    1.333    4.667    2.400    3.733    4.267 
#    0.000    0.000    0.000    0.000    0.000    0.000 
#    0.000    0.000    0.000    0.000    0.000   46.667 
#
# Total GULP energy -371740.950535 kJ/mol
# GULP energy per Si atom -12391.365018 kJ/mol
# Density = 1.755570 g / cm^3
# Si number density = 17.595746 Si / 1000 Ang^3
#
#
#
# Elastic Constant Matrix: (Units=GPa)
#
#
# Indices 1 2 3 4 5 6 
#
# 1 108.0242 35.2296 32.7125 0.0000 8.5347 0.0000
# 2 35.2296 94.9052 20.8132 0.0000 -3.8096 0.0000
# 3 32.7125 20.8132 51.5019 0.0000 9.6548 0.0000
# 4 0.0000 0.0000 0.0000 24.8413 0.0000 6.8857
# 5 8.5347 -3.8096 9.6548 0.0000 34.4641 0.0000
# 6 0.0000 0.0000 0.0000 6.8857 0.0000 18.6063
#
#
#
# Elastic Compliance Matrix: (Units=1/GPa)
#
#
# Indices 1 2 3 4 5 6 
#
# 1 0.012338 -0.003290 -0.006192 0.000000 -0.001685 0.000000
# 2 -0.003290 0.012687 -0.003645 0.000000 0.003238 0.000000
# 3 -0.006192 -0.003645 0.025975 0.000000 -0.006146 0.000000
# 4 0.000000 0.000000 0.000000 0.044857 0.000000 -0.016600
# 5 -0.001685 0.003238 -0.006146 0.000000 0.031513 0.000000
# 6 0.000000 0.000000 0.000000 -0.016600 0.000000 0.059888
#
#
# Mechanical properties :
#
#
# Convention : Reuss Voigt Hill
#
# Bulk Modulus (GPa) = 40.40746 47.99353 44.20049
# Shear Modulus (GPa) = 22.54697 26.62742 24.58719
#
# Velocity S-wave (km/s) = 3.58353 3.89432 3.74215
# Velocity P-wave (km/s) = 6.33533 6.89607 6.62164
#
# Compressibility (1/GPa) = 0.02474791
#
# Stress axis : x y z
#
# Youngs Moduli (GPa) = 81.04966 78.81882 38.49923
#
# Poissons Ratio (x) = 0.25930 0.23837
# Poissons Ratio (y) = 0.26664 0.14032
# Poissons Ratio (z) = 0.50182 0.28727
#
# Static dielectric constant tensor:
#      x y z
#    x 5.017410 0.000000 1.404680 
#    y 0.000000 3.264060 0.000000 
#    z 1.404680 0.000000 4.260490 
# 
# 
# High freq. dielectric constant tensor:
#      x y z
#    x 1.669030 0.000000 0.034860 
#    y 0.000000 1.676190 0.000000 
#    z 0.034860 0.000000 1.659930 
# 
# From -- ./inp_files/5670.got.cif
#   From: 2010.06.25/outbox.cif.g09.slc.cpg/sg13_3_cif.got.tgz:5670.got - 2010.06.28 04:50:58.
