data_PCOD8116173
_publ_section_title
;
Structure prediction by ZEFSAII (Michael W. Deem and Ramdas Pophale) SiO2 
 PCOD8116173
Probable space group: C 2/M
;
_chemical_formula_sum "Si O2"
_cell_formula_units_Z 20
_cell_length_a 15.000000
_cell_length_b 18.000000
_cell_length_c 24.000000
_cell_angle_alpha 90.000000
_cell_angle_beta 160.000000
_cell_angle_gamma 90.000000
_cell_volume 2216.290529
_symmetry_space_group_name_H-M "C 2/M"
_symmetry_group_IT_number 12
_symmetry_cell_setting 'monoclinic'
loop_
_space_group_symop_operation_xyz
x,y,z
-x,y,-z
-x,-y,-z
x,-y,z
1/2+x,1/2+y,z
1/2-x,1/2+y,-z
1/2-x,1/2-y,-z
1/2+x,1/2-y,z
loop_
_atom_site_type_symbol
_atom_site_label
_atom_site_fract_x
_atom_site_fract_y
_atom_site_fract_z
Si Si1 0.167138 0.781213 0.361113
Si Si2 0.786729 0.584822 0.508245
Si Si3 0.122096 0.918664 0.632552
Si Si4 0.246341 0.319006 0.817839
Si Si5 0.754468 0.261664 0.714227
O O1 0.180508 0.864453 0.394630
O O2 0.132012 0.781328 0.273265
O O3 0.439013 0.740103 0.533312
O O4 0.929779 0.737380 0.249705
O O5 0.808488 0.500000 0.499416
O O6 0.597108 0.590212 0.449314
O O7 0.073186 0.611434 0.696247
O O8 0.327079 0.850041 0.757192
O O9 0.000000 0.913703 0.500000
O O10 0.259652 0.000000 0.720478
O O11 0.368373 0.276793 0.835947
O O12 0.500000 0.347708 0.000000
#
# Coordination Sequence:
#
# PCOD8116173 Si02
#       5
#     8   8   8   8   8
#     4  10  18  34  54  77 101 133 185 218 257 302
#     4  10  19  34  55  77 105 136 175 224 260 302
#     4  10  16  26  51  82 102 124 165 224 273 293
#     4  11  21  33  50  77 113 143 171 208 260 326
#     4  10  17  33  55  75 103 136 178 230 248 299
#
# _framework density 9.0240880000000008
#
# number of rings (size 3 to 8) (size 9 to 14) (size 15 to 20)
#    0.000    1.800    6.000    1.200    0.000    1.200 
#    0.000    8.000    0.000    2.400    0.000    0.000 
#    0.000    0.000    0.000    0.000    0.000    0.000 
#
# Total GULP energy -247867.495926 kJ/mol
# GULP energy per Si atom -12393.374796 kJ/mol
# Density = 0.900355 g / cm^3
# Si number density = 9.024088 Si / 1000 Ang^3
#
#
#
# Elastic Constant Matrix: (Units=GPa)
#
#
# Indices 1 2 3 4 5 6 
#
# 1 129.2741 52.8266 20.4511 0.0097 -9.3460 -0.1549
# 2 52.8266 149.8194 17.1129 0.0453 -2.8972 -0.1130
# 3 20.4511 17.1129 43.7005 0.1173 -1.3489 -0.3924
# 4 0.0097 0.0453 0.1173 15.1519 -0.0287 -0.9785
# 5 -9.3460 -2.8972 -1.3489 -0.0287 16.1540 -0.0058
# 6 -0.1549 -0.1130 -0.3924 -0.9785 -0.0058 21.4186
#
#
#
# Elastic Compliance Matrix: (Units=1/GPa)
#
#
# Indices 1 2 3 4 5 6 
#
# 1 0.009832 -0.002998 -0.003277 0.000037 0.004877 -0.000002
# 2 -0.002998 0.007919 -0.001712 -0.000010 -0.000457 -0.000012
# 3 -0.003277 -0.001712 0.025088 -0.000160 -0.000108 0.000420
# 4 0.000037 -0.000010 -0.000160 0.066195 0.000125 0.003021
# 5 0.004877 -0.000457 -0.000108 0.000125 0.064635 0.000054
# 6 -0.000002 -0.000012 0.000420 0.003021 0.000054 0.046834
#
#
# Mechanical properties :
#
#
# Convention : Reuss Voigt Hill
#
# Bulk Modulus (GPa) = 37.22383 55.95278 46.58831
# Shear Modulus (GPa) = 20.37245 26.03848 23.20546
#
# Velocity S-wave (km/s) = 3.36338 3.80244 3.58963
# Velocity P-wave (km/s) = 5.97935 7.09558 6.56124
#
# Compressibility (1/GPa) = 0.02686451
#
# Stress axis : x y z
#
# Youngs Moduli (GPa) = 101.71330 126.28606 39.86019
#
# Poissons Ratio (x) = 0.37861 0.13060
# Poissons Ratio (y) = 0.30494 0.06824
# Poissons Ratio (z) = 0.33327 0.21620
#
# Static dielectric constant tensor:
#      x y z
#    x 3.735920 0.000000 -0.102700 
#    y 0.000000 3.760280 -0.000220 
#    z -0.102700 -0.000220 2.877690 
# 
# 
# High freq. dielectric constant tensor:
#      x y z
#    x 1.726610 0.000000 -0.003370 
#    y 0.000000 1.707690 -0.000010 
#    z -0.003370 -0.000010 1.644750 
# 
# From -- ./inp_files/60828.got.cif
#   From: 2010.06.25/outbox.ucp.g09.slc.cvg/sg12_31_cif.got.tgz:60828.got - 2010.06.28 13:50:54.
