data_PCOD8116889
_publ_section_title
;
Structure prediction by ZEFSAII (Michael W. Deem and Ramdas Pophale) SiO2 
 PCOD8116889
Probable space group: P 2/C
;
_chemical_formula_sum "Si O2"
_cell_formula_units_Z 32
_cell_length_a 9.285853
_cell_length_b 13.642000
_cell_length_c 21.229034
_cell_angle_alpha 90.000000
_cell_angle_beta 140.492410
_cell_angle_gamma 90.000000
_cell_volume 1710.843913
_symmetry_space_group_name_H-M "P 2/C"
_symmetry_group_IT_number 13
_symmetry_cell_setting 'monoclinic'
loop_
_space_group_symop_operation_xyz
x,y,z
-x,y,1/2-z
-x,-y,-z
x,-y,1/2+z
loop_
_atom_site_type_symbol
_atom_site_label
_atom_site_fract_x
_atom_site_fract_y
_atom_site_fract_z
Si Si1 0.309478 0.406985 0.521287
Si Si2 0.837420 0.498461 0.867029
Si Si3 0.460589 0.562033 0.838494
Si Si4 0.832104 0.763800 0.604057
Si Si5 0.664106 0.222829 0.182223
Si Si6 0.359339 0.056723 0.142934
Si Si7 0.861838 0.876186 0.491020
Si Si8 0.705882 0.705299 0.362445
O O1 0.494710 0.495481 0.582908
O O2 0.269665 0.345876 0.443627
O O3 0.392415 0.335166 0.604856
O O4 0.075508 0.455570 0.465449
O O5 0.656519 0.542088 0.854206
O O6 0.774255 0.530408 0.774080
O O7 0.846269 0.379601 0.873626
O O8 0.468659 0.674957 0.860600
O O9 0.718000 0.805691 0.628362
O O10 0.766627 0.832542 0.523816
O O11 0.103801 0.761714 0.701126
O O12 0.506033 0.139312 0.157487
O O13 0.500000 0.017505 0.250000
O O14 0.303834 0.967631 0.077467
O O15 0.122608 0.097269 0.088731
O O16 0.857143 0.800031 0.430704
O O17 0.500000 0.741506 0.250000
#
# Coordination Sequence:
#
# PCOD8116889 Si02
#       8
#     4   4   4   4   4   4   4   4
#     4  10  19  32  52  79 117 150 193 228 276 333
#     4  10  18  29  48  85 114 144 189 228 283 331
#     4  10  19  30  52  82 112 153 185 235 272 329
#     4  10  22  40  56  82 113 160 190 231 281 349
#     4  11  23  36  59  82 117 153 193 230 289 341
#     4  11  23  40  60  92 110 140 184 247 293 339
#     4  10  23  38  62  85 114 139 189 241 294 337
#     4  10  17  31  51  82 112 146 180 230 287 341
#
# _framework density 18.704219999999999
#
# number of rings (size 3 to 8) (size 9 to 14) (size 15 to 20)
#    0.000    1.750    5.000    1.875    7.000    1.000 
#    0.000    0.000    0.000    0.000    0.000    1.750 
#    0.000    0.000    0.000    0.000    0.000    0.000 
#
# Total GULP energy -396573.215030 kJ/mol
# GULP energy per Si atom -12392.912970 kJ/mol
# Density = 1.866165 g / cm^3
# Si number density = 18.704220 Si / 1000 Ang^3
#
#
#
# Elastic Constant Matrix: (Units=GPa)
#
#
# Indices 1 2 3 4 5 6 
#
# 1 38.9389 34.4422 32.3438 0.0000 -7.9730 0.0000
# 2 34.4422 116.4848 47.4919 0.0000 -4.2177 0.0000
# 3 32.3438 47.4919 121.7713 0.0000 -5.3340 0.0000
# 4 0.0000 0.0000 0.0000 29.6681 0.0000 -2.4905
# 5 -7.9730 -4.2177 -5.3340 0.0000 18.8811 0.0000
# 6 0.0000 0.0000 0.0000 -2.4905 0.0000 14.7616
#
#
#
# Elastic Compliance Matrix: (Units=1/GPa)
#
#
# Indices 1 2 3 4 5 6 
#
# 1 0.042559 -0.009179 -0.007115 0.000000 0.013911 0.000000
# 2 -0.009179 0.012213 -0.002405 0.000000 -0.001827 0.000000
# 3 -0.007115 -0.002405 0.011021 0.000000 -0.000428 0.000000
# 4 0.000000 0.000000 0.000000 0.034190 0.000000 0.005768
# 5 0.013911 -0.001827 -0.000428 0.000000 0.058308 0.000000
# 6 0.000000 0.000000 0.000000 0.005768 0.000000 0.068716
#
#
# Mechanical properties :
#
#
# Convention : Reuss Voigt Hill
#
# Bulk Modulus (GPa) = 35.21783 56.19453 45.70618
# Shear Modulus (GPa) = 18.25675 23.52333 20.89004
#
# Velocity S-wave (km/s) = 3.12761 3.55018 3.34557
# Velocity P-wave (km/s) = 5.64910 6.84938 6.27799
#
# Compressibility (1/GPa) = 0.02839471
#
# Stress axis : x y z
#
# Youngs Moduli (GPa) = 23.49702 81.87711 90.73445
#
# Poissons Ratio (x) = 0.75157 0.64554
# Poissons Ratio (y) = 0.21569 0.21824
# Poissons Ratio (z) = 0.16717 0.19694
#
# Static dielectric constant tensor:
#      x y z
#    x 2.940840 0.000000 -0.138110 
#    y 0.000000 3.562960 0.000000 
#    z -0.138110 0.000000 3.919840 
# 
# 
# High freq. dielectric constant tensor:
#      x y z
#    x 1.676620 0.000000 -0.011990 
#    y 0.000000 1.727710 0.000000 
#    z -0.011990 0.000000 1.750140 
# 
# From -- ./inp_files/76640.got.cif
#   From: 2010.06.25/outbox.cif.g09.slc.cpg/sg13_39_cif.got.tgz:76640.got - 2010.06.28 04:50:58.
