data_PCOD8116443
_publ_section_title
;
Structure prediction by ZEFSAII (Michael W. Deem and Ramdas Pophale) SiO2 
 PCOD8116443
Probable space group: C 2/M
;
_chemical_formula_sum "Si O2"
_cell_formula_units_Z 32
_cell_length_a 18.000000
_cell_length_b 9.000000
_cell_length_c 30.000000
_cell_angle_alpha 90.000000
_cell_angle_beta 40.000000
_cell_angle_gamma 90.000000
_cell_volume 3123.947783
_symmetry_space_group_name_H-M "C 2/M"
_symmetry_group_IT_number 12
_symmetry_cell_setting 'monoclinic'
loop_
_space_group_symop_operation_xyz
x,y,z
-x,y,-z
-x,-y,-z
x,-y,z
1/2+x,1/2+y,z
1/2-x,1/2+y,-z
1/2-x,1/2-y,-z
1/2+x,1/2-y,z
loop_
_atom_site_type_symbol
_atom_site_label
_atom_site_fract_x
_atom_site_fract_y
_atom_site_fract_z
Si Si1 0.042181 0.829584 0.282007
Si Si2 0.323720 0.173173 0.353437
Si Si3 0.062566 0.665152 0.357367
Si Si4 0.813444 0.165770 0.269544
Si Si5 0.904859 0.326344 0.509567
Si Si6 0.411065 0.328361 0.130185
Si Si7 0.680526 0.671834 0.993402
Si Si8 0.235570 0.673079 0.876120
O O1 0.934923 0.718064 0.330451
O O2 0.093535 0.790129 0.306736
O O3 0.135252 0.796092 0.200915
O O4 0.001969 0.000000 0.298673
O O5 0.354874 0.227950 0.289624
O O6 0.214552 0.244219 0.427790
O O7 0.303667 0.000000 0.362124
O O8 0.046814 0.500000 0.343492
O O9 0.175100 0.662268 0.336928
O O10 0.950914 0.706420 0.438428
O O11 0.862770 0.225916 0.200032
O O12 0.863740 0.000000 0.254618
O O13 0.883886 0.500000 0.527073
O O14 0.000000 0.264214 0.500000
O O15 0.376430 0.500000 0.137897
O O16 0.356630 0.227582 0.117264
O O17 0.546856 0.303687 0.065252
O O18 0.713292 0.500000 0.977384
O O19 0.717639 0.739820 0.929630
O O20 0.750000 0.750000 0.000000
O O21 0.214841 0.500000 0.894234
#
# Coordination Sequence:
#
# PCOD8116443 Si02
#       8
#     8   8   8   8   8   8   8   8
#     4  11  25  43  63  89 126 165 206 256 314 371
#     4  12  26  40  60  92 126 163 210 259 312 369
#     4  10  20  38  67  94 120 158 206 255 308 370
#     4  10  20  39  65  92 124 162 205 256 312 371
#     4  10  20  39  64  90 122 164 207 251 312 376
#     4  10  22  41  67  94 124 165 208 252 307 370
#     4  11  25  43  64  95 131 168 209 253 307 367
#     4  11  24  42  66  94 125 165 209 256 309 367
#
# _framework density 10.243449
#
# number of rings (size 3 to 8) (size 9 to 14) (size 15 to 20)
#    0.000    1.375    2.500    2.625    1.750    6.250 
#    0.000    0.000    0.000    0.000    0.000    0.000 
#    0.000    0.000    0.000    0.000    0.000    0.000 
#
# Total GULP energy -396852.900587 kJ/mol
# GULP energy per Si atom -12401.653143 kJ/mol
# Density = 1.022013 g / cm^3
# Si number density = 10.243449 Si / 1000 Ang^3
#
#
#
# Elastic Constant Matrix: (Units=GPa)
#
#
# Indices 1 2 3 4 5 6 
#
# 1 40.8216 36.5810 31.8310 0.0002 -2.3624 0.0026
# 2 36.5810 96.3501 64.6289 0.0011 -0.5218 0.0033
# 3 31.8310 64.6289 124.8950 -0.0004 5.9266 -0.0014
# 4 0.0002 0.0011 -0.0004 32.6110 0.0000 4.0417
# 5 -2.3624 -0.5218 5.9266 0.0000 31.0943 0.0010
# 6 0.0026 0.0033 -0.0014 4.0417 0.0010 30.9629
#
#
#
# Elastic Compliance Matrix: (Units=1/GPa)
#
#
# Indices 1 2 3 4 5 6 
#
# 1 0.038406 -0.012082 -0.003698 0.000000 0.003420 -0.000002
# 2 -0.012082 0.019804 -0.007206 -0.000001 0.000788 -0.000001
# 3 -0.003698 -0.007206 0.012813 0.000000 -0.002844 0.000002
# 4 0.000000 -0.000001 0.000000 0.031169 0.000000 -0.004069
# 5 0.003420 0.000788 -0.002844 0.000000 0.032975 -0.000002
# 6 -0.000002 -0.000001 0.000002 -0.004069 -0.000002 0.032828
#
#
# Mechanical properties :
#
#
# Convention : Reuss Voigt Hill
#
# Bulk Modulus (GPa) = 39.92054 58.68316 49.30185
# Shear Modulus (GPa) = 22.49040 27.53535 25.01288
#
# Velocity S-wave (km/s) = 3.31689 3.67010 3.49796
# Velocity P-wave (km/s) = 5.84784 6.83125 6.35858
#
# Compressibility (1/GPa) = 0.02504976
#
# Stress axis : x y z
#
# Youngs Moduli (GPa) = 26.03786 50.49537 78.04545
#
# Poissons Ratio (x) = 0.61009 0.28864
# Poissons Ratio (y) = 0.31459 0.56239
# Poissons Ratio (z) = 0.09630 0.36386
#
# Static dielectric constant tensor:
#      x y z
#    x 3.488520 0.000000 -0.010470 
#    y 0.000000 3.662860 0.000000 
#    z -0.010470 0.000000 3.907300 
# 
# 
# High freq. dielectric constant tensor:
#      x y z
#    x 1.791640 0.000000 0.003500 
#    y 0.000000 1.794220 0.000000 
#    z 0.003500 0.000000 1.820610 
# 
# From -- ./inp_files/378046.got.cif
#   From: 2010.06.25/outbox.ucp.g09.slc.cvg/sg12_190_cif.got.tgz:378046.got - 2010.06.28 13:50:54.
