data_PCOD8116301
_publ_section_title
;
Structure prediction by ZEFSAII (Michael W. Deem and Ramdas Pophale) SiO2 
 PCOD8116301
Probable space group: C 2/M
;
_chemical_formula_sum "Si O2"
_cell_formula_units_Z 28
_cell_length_a 21.000000
_cell_length_b 9.000000
_cell_length_c 30.000000
_cell_angle_alpha 90.000000
_cell_angle_beta 30.000000
_cell_angle_gamma 90.000000
_cell_volume 2835.000000
_symmetry_space_group_name_H-M "C 2/M"
_symmetry_group_IT_number 12
_symmetry_cell_setting 'monoclinic'
loop_
_space_group_symop_operation_xyz
x,y,z
-x,y,-z
-x,-y,-z
x,-y,z
1/2+x,1/2+y,z
1/2-x,1/2+y,-z
1/2-x,1/2-y,-z
1/2+x,1/2-y,z
loop_
_atom_site_type_symbol
_atom_site_label
_atom_site_fract_x
_atom_site_fract_y
_atom_site_fract_z
Si Si1 0.681821 0.324478 0.666198
Si Si2 0.704669 0.333593 0.483974
Si Si3 0.424036 0.664409 0.679479
Si Si4 0.724441 0.825535 0.731419
Si Si5 0.570158 0.674988 0.225560
Si Si6 0.691397 0.667079 0.909957
Si Si7 0.579810 0.668093 0.885282
O O1 0.688797 0.500000 0.667236
O O2 0.768017 0.272148 0.573701
O O3 0.737812 0.249875 0.675918
O O4 0.538698 0.266687 0.741818
O O5 0.765392 0.500000 0.443695
O O6 0.750000 0.250000 0.500000
O O7 0.554791 0.349013 0.574556
O O8 0.367492 0.500000 0.723065
O O9 0.328869 0.744208 0.702385
O O10 0.443884 0.743913 0.715615
O O11 0.593231 0.776441 0.834628
O O12 0.736060 0.000000 0.717333
O O13 0.557980 0.500000 0.234851
O O14 0.707293 0.729531 0.125713
O O15 0.744006 0.500000 0.875398
O O16 0.663018 0.726043 0.877047
O O17 0.567055 0.673093 0.014601
O O18 0.619605 0.500000 0.848968
#
# Coordination Sequence:
#
# PCOD8116301 Si02
#       7
#     8   8   8   8   8   8   8
#     4  11  24  41  58  81 117 153 186 231 287 338
#     4  11  21  38  61  86 115 148 189 234 282 332
#     4   9  19  36  58  83 113 146 183 232 283 329
#     4  11  22  38  59  84 113 149 191 231 278 338
#     4  10  19  36  58  82 112 148 187 230 281 332
#     4   9  18  32  55  86 116 145 185 232 277 330
#     4   9  18  34  54  82 119 151 178 226 288 332
#
# _framework density 9.8765429999999999
#
# number of rings (size 3 to 8) (size 9 to 14) (size 15 to 20)
#    0.000    2.000    2.857    2.143    0.000    2.286 
#    0.000    7.857    0.000    0.000    0.000    0.000 
#    0.000    0.000    0.000    0.000    0.000    0.000 
#
# Total GULP energy -346969.761584 kJ/mol
# GULP energy per Si atom -12391.777199 kJ/mol
# Density = 0.985406 g / cm^3
# Si number density = 9.876543 Si / 1000 Ang^3
#
#
#
# Elastic Constant Matrix: (Units=GPa)
#
#
# Indices 1 2 3 4 5 6 
#
# 1 95.8237 35.7907 21.3328 0.0038 9.4337 -0.0246
# 2 35.7907 51.1152 23.0977 0.0241 2.0788 0.0027
# 3 21.3328 23.0977 31.2948 -0.0040 6.3832 -0.0032
# 4 0.0038 0.0241 -0.0040 30.0175 0.0000 4.2233
# 5 9.4337 2.0788 6.3832 0.0000 27.5827 0.0049
# 6 -0.0246 0.0027 -0.0032 4.2233 0.0049 29.2382
#
#
#
# Elastic Compliance Matrix: (Units=1/GPa)
#
#
# Indices 1 2 3 4 5 6 
#
# 1 0.014749 -0.008968 -0.002670 0.000003 -0.003751 0.000013
# 2 -0.008968 0.035036 -0.020815 -0.000028 0.005244 -0.000010
# 3 -0.002670 -0.020815 0.051040 0.000023 -0.009330 0.000004
# 4 0.000003 -0.000028 0.000023 0.034005 -0.000003 -0.004912
# 5 -0.003751 0.005244 -0.009330 -0.000003 0.039301 -0.000011
# 6 0.000013 -0.000010 0.000004 -0.004912 -0.000011 0.034911
#
#
# Mechanical properties :
#
#
# Convention : Reuss Voigt Hill
#
# Bulk Modulus (GPa) = 27.84057 37.63067 32.73562
# Shear Modulus (GPa) = 17.48729 23.90184 20.69457
#
# Velocity S-wave (km/s) = 2.97862 3.48232 3.24027
# Velocity P-wave (km/s) = 5.09455 5.93807 5.53241
#
# Compressibility (1/GPa) = 0.03591881
#
# Stress axis : x y z
#
# Youngs Moduli (GPa) = 67.80032 28.54224 19.59247
#
# Poissons Ratio (x) = 0.25598 0.05231
# Poissons Ratio (y) = 0.60806 0.40782
# Poissons Ratio (z) = 0.18101 0.59410
#
# Static dielectric constant tensor:
#      x y z
#    x 3.506930 -0.000030 -0.177830 
#    y -0.000030 3.613020 0.000010 
#    z -0.177830 0.000010 3.362150 
# 
# 
# High freq. dielectric constant tensor:
#      x y z
#    x 1.757670 0.000000 -0.005320 
#    y 0.000000 1.755120 0.000000 
#    z -0.005320 0.000000 1.753410 
# 
# From -- ./inp_files/380653.got.cif
#   From: 2010.06.25/outbox.ucp.g09.slc.cvg/sg12_191_cif.got.tgz:380653.got - 2010.06.28 13:50:54.
