data_PCOD8116398
_publ_section_title
;
Structure prediction by ZEFSAII (Michael W. Deem and Ramdas Pophale) SiO2 
 PCOD8116398
Probable space group: C 2/M
;
_chemical_formula_sum "Si O2"
_cell_formula_units_Z 28
_cell_length_a 9.000000
_cell_length_b 18.000000
_cell_length_c 27.000000
_cell_angle_alpha 90.000000
_cell_angle_beta 40.000000
_cell_angle_gamma 90.000000
_cell_volume 2811.553005
_symmetry_space_group_name_H-M "C 2/M"
_symmetry_group_IT_number 12
_symmetry_cell_setting 'monoclinic'
loop_
_space_group_symop_operation_xyz
x,y,z
-x,y,-z
-x,-y,-z
x,-y,z
1/2+x,1/2+y,z
1/2-x,1/2+y,-z
1/2-x,1/2-y,-z
1/2+x,1/2-y,z
loop_
_atom_site_type_symbol
_atom_site_label
_atom_site_fract_x
_atom_site_fract_y
_atom_site_fract_z
Si Si1 0.459849 0.197393 0.808324
Si Si2 0.229172 0.816837 0.967210
Si Si3 0.952728 0.662610 0.372984
Si Si4 0.132473 0.818885 0.363574
Si Si5 0.259618 0.084467 0.045614
Si Si6 0.355014 0.344124 0.200772
Si Si7 0.188801 0.587076 0.491464
O O1 0.418182 0.168947 0.875262
O O2 0.682945 0.157940 0.726254
O O3 0.510933 0.284150 0.800551
O O4 0.244186 0.188260 0.825876
O O5 0.250000 0.750000 0.000000
O O6 0.199114 0.891937 0.005421
O O7 0.000000 0.792728 0.000000
O O8 0.740492 0.681447 0.390938
O O9 0.878982 0.606764 0.434940
O O10 0.035353 0.737403 0.378116
O O11 0.152740 0.624188 0.287909
O O12 0.929546 0.877930 0.413513
O O13 0.048243 0.095752 0.137683
O O14 0.315457 0.000000 0.028354
O O15 0.500000 0.125641 0.000000
O O16 0.222007 0.500000 0.479973
O O17 0.000000 0.614900 0.500000
#
# Coordination Sequence:
#
# PCOD8116398 Si02
#       7
#     8   8   8   8   8   8   8
#     4  10  20  36  59  94 115 148 198 244 299 345
#     4  12  21  36  63  89 117 155 200 248 297 344
#     4  10  21  38  65  91 120 154 195 244 299 350
#     4  10  21  38  62  91 122 153 195 246 295 351
#     4  11  25  41  55  81 120 162 203 243 296 355
#     4  10  21  38  60  89 119 152 194 251 295 350
#     4  11  24  42  61  86 121 160 200 241 295 357
#
# _framework density 9.9589090000000002
#
# number of rings (size 3 to 8) (size 9 to 14) (size 15 to 20)
#    0.000    1.429    2.857    2.143    2.000    3.143 
#    0.000    2.857    0.000    0.000    0.000    0.000 
#    0.000    0.000    0.000    0.000    0.000    0.000 
#
# Total GULP energy -346951.435253 kJ/mol
# GULP energy per Si atom -12391.122688 kJ/mol
# Density = 0.993624 g / cm^3
# Si number density = 9.958909 Si / 1000 Ang^3
#
#
#
# Elastic Constant Matrix: (Units=GPa)
#
#
# Indices 1 2 3 4 5 6 
#
# 1 124.4444 39.0709 53.3215 -0.0176 3.2617 0.0111
# 2 39.0709 55.1333 42.1657 -0.0431 -2.7937 0.0089
# 3 53.3215 42.1657 141.9400 -0.0429 15.2903 -0.0065
# 4 -0.0176 -0.0431 -0.0429 21.1838 -0.0019 1.5189
# 5 3.2617 -2.7937 15.2903 -0.0019 37.7185 -0.0036
# 6 0.0111 0.0089 -0.0065 1.5189 -0.0036 23.0859
#
#
#
# Elastic Compliance Matrix: (Units=1/GPa)
#
#
# Indices 1 2 3 4 5 6 
#
# 1 0.010907 -0.006029 -0.002255 -0.000008 -0.000476 -0.000003
# 2 -0.006029 0.027654 -0.006511 0.000039 0.005209 -0.000011
# 3 -0.002255 -0.006511 0.010308 0.000005 -0.004466 0.000005
# 4 -0.000008 0.000039 0.000005 0.047430 0.000004 -0.003120
# 5 -0.000476 0.005209 -0.004466 0.000004 0.028750 0.000001
# 6 -0.000003 -0.000011 0.000005 -0.003120 0.000001 0.043522
#
#
# Mechanical properties :
#
#
# Convention : Reuss Voigt Hill
#
# Bulk Modulus (GPa) = 51.87216 65.62600 58.74908
# Shear Modulus (GPa) = 24.43937 28.86162 26.65049
#
# Velocity S-wave (km/s) = 3.50667 3.81075 3.66187
# Velocity P-wave (km/s) = 6.51884 7.23756 6.88758
#
# Compressibility (1/GPa) = 0.01927816
#
# Stress axis : x y z
#
# Youngs Moduli (GPa) = 91.68124 36.16079 97.01323
#
# Poissons Ratio (x) = 0.21801 0.21879
# Poissons Ratio (y) = 0.55274 0.63170
# Poissons Ratio (z) = 0.20677 0.23546
#
# Static dielectric constant tensor:
#      x y z
#    x 2.691980 0.000060 -0.076980 
#    y 0.000060 3.197390 0.000060 
#    z -0.076980 0.000060 3.993920 
# 
# 
# High freq. dielectric constant tensor:
#      x y z
#    x 1.793450 0.000000 0.003480 
#    y 0.000000 1.733870 0.000000 
#    z 0.003480 0.000000 1.801820 
# 
# From -- ./inp_files/257067.got.cif
#   From: 2010.06.25/outbox.ucp.g09.slc.cvg/sg12_129_cif.got.tgz:257067.got - 2010.06.28 13:50:54.
