data_PCOD8116782
_publ_section_title
;
Structure prediction by ZEFSAII (Michael W. Deem and Ramdas Pophale) SiO2 
 PCOD8116782
Probable space group: P 2/C
;
_chemical_formula_sum "Si O2"
_cell_formula_units_Z 30
_cell_length_a 29.885938
_cell_length_b 8.589416
_cell_length_c 17.687841
_cell_angle_alpha 90.000000
_cell_angle_beta 17.739940
_cell_angle_gamma 90.000000
_cell_volume 1383.482389
_symmetry_space_group_name_H-M "P 2/C"
_symmetry_group_IT_number 13
_symmetry_cell_setting 'monoclinic'
loop_
_space_group_symop_operation_xyz
x,y,z
-x,y,1/2-z
-x,-y,-z
x,-y,1/2+z
loop_
_atom_site_type_symbol
_atom_site_label
_atom_site_fract_x
_atom_site_fract_y
_atom_site_fract_z
Si Si1 0.059740 0.540056 0.736951
Si Si2 0.897350 0.693186 0.595436
Si Si3 0.524701 0.107746 0.530963
Si Si4 0.790301 0.218018 0.412100
Si Si5 0.228917 0.002965 0.267008
Si Si6 0.000000 0.053317 0.750000
Si Si7 0.824074 0.883016 0.308831
Si Si8 0.754583 0.252929 0.065373
O O1 0.113820 0.710900 0.674648
O O2 0.204849 0.433213 0.507749
O O3 0.000000 0.557118 0.750000
O O4 0.930965 0.467026 0.997215
O O5 0.792934 0.661943 0.836476
O O6 0.816327 0.817395 0.673112
O O7 0.045574 0.761115 0.393902
O O8 0.605586 0.008615 0.466515
O O9 0.631296 0.243277 0.327971
O O10 0.500000 0.000000 0.500000
O O11 0.377531 0.186062 0.797452
O O12 0.872260 0.058008 0.255305
O O13 0.111025 0.945545 0.520742
O O14 0.233614 0.892961 0.185081
O O15 0.095580 0.162215 0.652179
O O16 0.704080 0.823195 0.565066
#
# Coordination Sequence:
#
# PCOD8116782 Si02
#       8
#     4   4   4   4   4   2   4   4
#     4  11  21  41  62  91 120 162 204 262 310 363
#     4  10  21  39  65  91 119 158 210 250 315 369
#     4  11  23  39  56  90 127 162 195 252 308 374
#     4  11  23  38  57  91 126 158 203 260 305 356
#     4  10  19  32  60  88 116 158 202 246 308 371
#     4  10  16  30  58  88 110 158 200 244 296 362
#     4  10  20  37  60  95 114 153 206 261 303 357
#     4  10  19  38  64  82 123 161 205 235 313 370
#
# _framework density 21.68441
#
# number of rings (size 3 to 8) (size 9 to 14) (size 15 to 20)
#    0.000    1.600    4.667    2.800    0.000    2.667 
#    6.000    0.000    0.000    0.000    0.000    0.000 
#    0.000    0.000    0.000    0.000    0.000    0.000 
#
# Total GULP energy -371770.038850 kJ/mol
# GULP energy per Si atom -12392.334628 kJ/mol
# Density = 2.163506 g / cm^3
# Si number density = 21.684410 Si / 1000 Ang^3
#
#
#
# Elastic Constant Matrix: (Units=GPa)
#
#
# Indices 1 2 3 4 5 6 
#
# 1 171.0379 48.1786 64.1034 0.0000 9.0397 0.0000
# 2 48.1786 38.7083 21.8384 0.0000 0.6440 0.0000
# 3 64.1034 21.8384 111.0667 0.0000 17.6102 0.0000
# 4 0.0000 0.0000 0.0000 13.9550 0.0000 -1.8387
# 5 9.0397 0.6440 17.6102 0.0000 35.5298 0.0000
# 6 0.0000 0.0000 0.0000 -1.8387 0.0000 19.3836
#
#
#
# Elastic Compliance Matrix: (Units=1/GPa)
#
#
# Indices 1 2 3 4 5 6 
#
# 1 0.010291 -0.010685 -0.003749 0.000000 -0.000566 0.000000
# 2 -0.010685 0.040357 -0.002261 0.000000 0.003108 0.000000
# 3 -0.003749 -0.002261 0.012431 0.000000 -0.005167 0.000000
# 4 0.000000 0.000000 0.000000 0.072566 0.000000 0.006884
# 5 -0.000566 0.003108 -0.005167 0.000000 0.030794 0.000000
# 6 0.000000 0.000000 0.000000 0.006884 0.000000 0.052243
#
#
# Mechanical properties :
#
#
# Convention : Reuss Voigt Hill
#
# Bulk Modulus (GPa) = 33.68154 65.45042 49.56598
# Shear Modulus (GPa) = 19.08620 26.21985 22.65302
#
# Velocity S-wave (km/s) = 2.97000 3.48107 3.23564
# Velocity P-wave (km/s) = 5.22758 6.81218 6.07179
#
# Compressibility (1/GPa) = 0.02968985
#
# Stress axis : x y z
#
# Youngs Moduli (GPa) = 97.16798 24.77875 80.44255
#
# Poissons Ratio (x) = 0.26476 0.30159
# Poissons Ratio (y) = 1.03822 0.18189
# Poissons Ratio (z) = 0.36429 0.05603
#
# Static dielectric constant tensor:
#      x y z
#    x 4.391730 0.000000 0.740630 
#    y 0.000000 3.622270 0.000000 
#    z 0.740630 0.000000 4.695540 
# 
# 
# High freq. dielectric constant tensor:
#      x y z
#    x 1.869850 0.000000 0.030080 
#    y 0.000000 1.810630 0.000000 
#    z 0.030080 0.000000 1.840020 
# 
# From -- ./inp_files/72396.got.cif
#   From: 2010.06.25/outbox.cif.g09.slc.cpg/sg13_37_cif.got.tgz:72396.got - 2010.06.28 04:50:58.
