data_PCOD8116480
_publ_section_title
;
Structure prediction by ZEFSAII (Michael W. Deem and Ramdas Pophale) SiO2 
 PCOD8116480
Probable space group: C 2/M
;
_chemical_formula_sum "Si O2"
_cell_formula_units_Z 20
_cell_length_a 15.000000
_cell_length_b 18.000000
_cell_length_c 24.000000
_cell_angle_alpha 90.000000
_cell_angle_beta 20.000000
_cell_angle_gamma 90.000000
_cell_volume 2216.290529
_symmetry_space_group_name_H-M "C 2/M"
_symmetry_group_IT_number 12
_symmetry_cell_setting 'monoclinic'
loop_
_space_group_symop_operation_xyz
x,y,z
-x,y,-z
-x,-y,-z
x,-y,z
1/2+x,1/2+y,z
1/2-x,1/2+y,-z
1/2-x,1/2-y,-z
1/2+x,1/2-y,z
loop_
_atom_site_type_symbol
_atom_site_label
_atom_site_fract_x
_atom_site_fract_y
_atom_site_fract_z
Si Si1 0.745436 0.415284 0.506745
Si Si2 0.997178 0.296980 0.143707
Si Si3 0.149343 0.582866 0.855203
Si Si4 0.996230 0.700745 0.439538
Si Si5 0.249947 0.652365 0.609255
O O1 0.793606 0.500000 0.496530
O O2 0.445953 0.390853 0.691074
O O3 0.932652 0.364403 0.433929
O O4 0.813520 0.407178 0.401147
O O5 0.006387 0.359532 0.091190
O O6 0.771021 0.238046 0.263855
O O7 0.984130 0.341135 0.209882
O O8 0.250000 0.250000 0.000000
O O9 0.151258 0.500000 0.827056
O O10 0.000000 0.580572 0.000000
O O11 0.786004 0.767155 0.558898
O O12 0.000000 0.667317 0.500000
O O13 0.500000 0.629767 0.500000
#
# Coordination Sequence:
#
# PCOD8116480 Si02
#       5
#     8   8   8   8   8
#     4  11  21  35  58  82 111 150 182 224 283 326
#     4  10  21  36  58  82 109 147 183 224 285 325
#     4  10  22  35  52  83 114 143 183 228 276 329
#     4   9  20  36  55  81 108 139 188 234 262 323
#     4   9  18  35  56  82 106 138 186 233 263 318
#
# _framework density 9.0240880000000008
#
# number of rings (size 3 to 8) (size 9 to 14) (size 15 to 20)
#    0.000    2.600    4.000    0.600    5.600    1.600 
#    0.000    1.000    0.000    1.200    0.000    0.000 
#    0.000    0.000    0.000    0.000    0.000    0.000 
#
# Total GULP energy -247852.729377 kJ/mol
# GULP energy per Si atom -12392.636469 kJ/mol
# Density = 0.900355 g / cm^3
# Si number density = 9.024088 Si / 1000 Ang^3
#
#
#
# Elastic Constant Matrix: (Units=GPa)
#
#
# Indices 1 2 3 4 5 6 
#
# 1 92.9767 57.1256 27.0421 0.0032 2.9902 -0.0552
# 2 57.1256 89.0083 26.5608 -0.1175 -7.4030 0.1377
# 3 27.0421 26.5608 65.4957 -0.4562 7.5436 -0.0388
# 4 0.0032 -0.1175 -0.4562 12.8464 0.0395 -4.4679
# 5 2.9902 -7.4030 7.5436 0.0395 16.0671 0.0072
# 6 -0.0552 0.1377 -0.0388 -4.4679 0.0072 25.5919
#
#
#
# Elastic Compliance Matrix: (Units=1/GPa)
#
#
# Indices 1 2 3 4 5 6 
#
# 1 0.019258 -0.012491 -0.001915 -0.000131 -0.008440 0.000085
# 2 -0.012491 0.022180 -0.005585 -0.000100 0.015167 -0.000177
# 3 -0.001915 -0.005585 0.019647 0.000748 -0.011443 0.000190
# 4 -0.000131 -0.000100 0.000748 0.082905 -0.000583 0.014475
# 5 -0.008440 0.015167 -0.011443 -0.000583 0.076172 -0.000240
# 6 0.000085 -0.000177 0.000190 0.014475 -0.000240 0.041604
#
#
# Mechanical properties :
#
#
# Convention : Reuss Voigt Hill
#
# Bulk Modulus (GPa) = 47.38488 52.10418 49.74453
# Shear Modulus (GPa) = 16.19268 20.01789 18.10529
#
# Velocity S-wave (km/s) = 2.99857 3.33398 3.17071
# Velocity P-wave (km/s) = 6.18871 6.61459 6.40519
#
# Compressibility (1/GPa) = 0.02110378
#
# Stress axis : x y z
#
# Youngs Moduli (GPa) = 51.92567 45.08603 50.89842
#
# Poissons Ratio (x) = 0.56317 0.09745
# Poissons Ratio (y) = 0.64860 0.28427
# Poissons Ratio (z) = 0.09942 0.25181
#
# Static dielectric constant tensor:
#      x y z
#    x 3.251740 0.000050 0.248660 
#    y 0.000050 3.336490 -0.000440 
#    z 0.248660 -0.000440 3.581500 
# 
# 
# High freq. dielectric constant tensor:
#      x y z
#    x 1.692720 0.000000 0.016080 
#    y 0.000000 1.692300 0.000070 
#    z 0.016080 0.000070 1.674530 
# 
# From -- ./inp_files/144649.got.cif
#   From: 2010.06.25/outbox.ucp.g09.slc.cvg/sg12_73_cif.got.tgz:144649.got - 2010.06.28 13:50:54.
