data_PCOD8116249
_publ_section_title
;
Structure prediction by ZEFSAII (Michael W. Deem and Ramdas Pophale) SiO2 
 PCOD8116249
Probable space group: C 2/M
;
_chemical_formula_sum "Si O2"
_cell_formula_units_Z 24
_cell_length_a 18.000000
_cell_length_b 9.000000
_cell_length_c 30.000000
_cell_angle_alpha 90.000000
_cell_angle_beta 30.000000
_cell_angle_gamma 90.000000
_cell_volume 2430.000000
_symmetry_space_group_name_H-M "C 2/M"
_symmetry_group_IT_number 12
_symmetry_cell_setting 'monoclinic'
loop_
_space_group_symop_operation_xyz
x,y,z
-x,y,-z
-x,-y,-z
x,-y,z
1/2+x,1/2+y,z
1/2-x,1/2+y,-z
1/2-x,1/2-y,-z
1/2+x,1/2-y,z
loop_
_atom_site_type_symbol
_atom_site_label
_atom_site_fract_x
_atom_site_fract_y
_atom_site_fract_z
Si Si1 0.518342 0.323784 0.698553
Si Si2 0.091585 0.672090 0.815624
Si Si3 0.716563 0.673855 0.470767
Si Si4 0.368934 0.176186 0.857823
Si Si5 0.931820 0.328525 0.988341
Si Si6 0.089801 0.826937 0.340977
O O1 0.528028 0.500000 0.697138
O O2 0.684354 0.253782 0.618624
O O3 0.409383 0.259070 0.791608
O O4 0.457771 0.264638 0.682600
O O5 0.093843 0.500000 0.802245
O O6 0.255045 0.745072 0.723040
O O7 0.972644 0.742201 0.843438
O O8 0.053891 0.697008 0.886910
O O9 0.754992 0.500000 0.452842
O O10 0.750000 0.750000 0.500000
O O11 0.539344 0.698626 0.554898
O O12 0.380555 0.000000 0.845957
O O13 0.202170 0.221975 0.955900
O O14 0.878960 0.500000 0.017715
O O15 0.000000 0.278787 0.000000
O O16 0.119360 0.000000 0.317912
#
# Coordination Sequence:
#
# PCOD8116249 Si02
#       6
#     8   8   8   8   8   8
#     4  10  19  33  54  76 102 138 179 219 257 305
#     4   9  18  33  52  76 104 134 170 209 254 310
#     4   9  16  28  50  79 107 135 172 219 265 305
#     4  11  22  34  51  76 107 137 166 211 264 309
#     4  10  20  36  59  80 100 133 174 211 250 305
#     4   8  15  30  53  77  99 130 174 216 251 298
#
# _framework density 9.8765429999999999
#
# number of rings (size 3 to 8) (size 9 to 14) (size 15 to 20)
#    0.000    2.500    0.000    4.000    0.000    3.000 
#    0.000    1.667    0.000   19.000    0.000    0.000 
#    0.000    0.000    0.000    0.000    0.000    0.000 
#
# Total GULP energy -297418.626226 kJ/mol
# GULP energy per Si atom -12392.442759 kJ/mol
# Density = 0.985406 g / cm^3
# Si number density = 9.876543 Si / 1000 Ang^3
#
#
#
# Elastic Constant Matrix: (Units=GPa)
#
#
# Indices 1 2 3 4 5 6 
#
# 1 69.1070 12.5925 17.5685 0.0001 -27.9593 0.0003
# 2 12.5925 64.4574 25.2065 0.0002 -12.0060 0.0015
# 3 17.5685 25.2065 79.7293 0.0011 -34.6353 -0.0003
# 4 0.0001 0.0002 0.0011 32.0940 0.0000 -1.1401
# 5 -27.9593 -12.0060 -34.6353 0.0000 26.8318 -0.0006
# 6 0.0003 0.0015 -0.0003 -1.1401 -0.0006 15.3470
#
#
#
# Elastic Compliance Matrix: (Units=1/GPa)
#
#
# Indices 1 2 3 4 5 6 
#
# 1 0.033677 -0.003115 0.018675 -0.000001 0.057804 0.000002
# 2 -0.003115 0.018021 -0.006644 0.000000 -0.003759 -0.000002
# 3 0.018675 -0.006644 0.040273 -0.000001 0.068473 0.000003
# 4 -0.000001 0.000000 -0.000001 0.031241 -0.000002 0.002321
# 5 0.057804 -0.003759 0.068473 -0.000002 0.184206 0.000007
# 6 0.000002 -0.000002 0.000003 0.002321 0.000007 0.065332
#
#
# Mechanical properties :
#
#
# Convention : Reuss Voigt Hill
#
# Bulk Modulus (GPa) = 9.10728 36.00319 22.55523
# Shear Modulus (GPa) = 12.77080 25.38299 19.07690
#
# Velocity S-wave (km/s) = 2.54544 3.58860 3.11105
# Velocity P-wave (km/s) = 3.64137 5.95289 4.93439
#
# Compressibility (1/GPa) = 0.10980231
#
# Stress axis : x y z
#
# Youngs Moduli (GPa) = 29.69414 55.49187 24.83051
#
# Poissons Ratio (x) = 0.17288 -0.46371
# Poissons Ratio (y) = 0.09251 0.16496
# Poissons Ratio (z) = -0.55453 0.36866
#
# Static dielectric constant tensor:
#      x y z
#    x 3.583940 0.000000 -0.320630 
#    y 0.000000 3.403270 0.000000 
#    z -0.320630 0.000000 3.950600 
# 
# 
# High freq. dielectric constant tensor:
#      x y z
#    x 1.745290 0.000000 -0.011190 
#    y 0.000000 1.738480 0.000000 
#    z -0.011190 0.000000 1.785090 
# 
# From -- ./inp_files/274590.got.cif
#   From: 2010.06.25/outbox.ucp.g09.slc.cvg/sg12_138_cif.got.tgz:274590.got - 2010.06.28 13:50:54.
