data_PCOD8116370
_publ_section_title
;
Structure prediction by ZEFSAII (Michael W. Deem and Ramdas Pophale) SiO2 
 PCOD8116370
Probable space group: C 2/M
;
_chemical_formula_sum "Si O2"
_cell_formula_units_Z 20
_cell_length_a 18.000000
_cell_length_b 9.000000
_cell_length_c 24.000000
_cell_angle_alpha 90.000000
_cell_angle_beta 30.000000
_cell_angle_gamma 90.000000
_cell_volume 1944.000000
_symmetry_space_group_name_H-M "C 2/M"
_symmetry_group_IT_number 12
_symmetry_cell_setting 'monoclinic'
loop_
_space_group_symop_operation_xyz
x,y,z
-x,y,-z
-x,-y,-z
x,-y,z
1/2+x,1/2+y,z
1/2-x,1/2+y,-z
1/2-x,1/2-y,-z
1/2+x,1/2-y,z
loop_
_atom_site_type_symbol
_atom_site_label
_atom_site_fract_x
_atom_site_fract_y
_atom_site_fract_z
Si Si1 0.590293 0.675699 0.600145
Si Si2 0.850264 0.324497 0.981245
Si Si3 0.088265 0.158207 0.389337
Si Si4 0.151455 0.831150 0.800212
Si Si5 0.694984 0.172878 0.180539
O O1 0.600352 0.500000 0.606964
O O2 0.750000 0.750000 0.500000
O O3 0.530109 0.715451 0.578447
O O4 0.470026 0.756952 0.718065
O O5 0.837251 0.500000 0.984319
O O6 0.020369 0.275599 0.866288
O O7 0.750000 0.250000 0.000000
O O8 0.799153 0.266446 0.073472
O O9 0.209484 0.281889 0.327760
O O10 0.000000 0.117780 0.500000
O O11 0.160021 0.000000 0.321457
O O12 0.218373 0.804690 0.818030
O O13 0.102758 0.000000 0.821548
O O14 0.686180 0.000000 0.169454
#
# Coordination Sequence:
#
# PCOD8116370 Si02
#       5
#     8   8   8   8   8
#     4  10  20  35  56  82 113 149 190 235 284 335
#     4  12  25  40  59  84 115 148 186 233 285 338
#     4   9  19  36  57  81 110 147 190 233 277 327
#     4  10  21  38  60  85 114 149 189 232 279 335
#     4  10  21  39  61  84 113 149 190 234 282 338
#
# _framework density 10.288066000000001
#
# number of rings (size 3 to 8) (size 9 to 14) (size 15 to 20)
#    0.000    1.800    0.000    4.200    0.000    7.600 
#    0.000    6.000    0.000    0.000    0.000    0.000 
#    0.000    0.000    0.000    0.000    0.000    0.000 
#
# Total GULP energy -247778.374592 kJ/mol
# GULP energy per Si atom -12388.918730 kJ/mol
# Density = 1.026465 g / cm^3
# Si number density = 10.288066 Si / 1000 Ang^3
#
#
#
# Elastic Constant Matrix: (Units=GPa)
#
#
# Indices 1 2 3 4 5 6 
#
# 1 55.9481 50.8244 47.4575 0.0000 -30.9421 0.0001
# 2 50.8244 161.9034 49.1169 0.0002 -23.7309 0.0001
# 3 47.4575 49.1169 74.2694 0.0006 -25.7644 -0.0001
# 4 0.0000 0.0002 0.0006 37.5681 -0.0002 -11.1698
# 5 -30.9421 -23.7309 -25.7644 -0.0002 32.6360 0.0000
# 6 0.0001 0.0001 -0.0001 -11.1698 0.0000 33.1466
#
#
#
# Elastic Compliance Matrix: (Units=1/GPa)
#
#
# Indices 1 2 3 4 5 6 
#
# 1 0.066983 -0.008062 -0.024062 0.000001 0.038648 0.000000
# 2 -0.008062 0.008812 -0.001521 0.000000 -0.002438 0.000000
# 3 -0.024062 -0.001521 0.029675 0.000000 -0.000493 0.000000
# 4 0.000001 0.000000 0.000000 0.029582 0.000000 0.009969
# 5 0.038648 -0.002438 -0.000493 0.000000 0.065121 0.000000
# 6 0.000000 0.000000 0.000000 0.009969 0.000000 0.033528
#
#
# Mechanical properties :
#
#
# Convention : Reuss Voigt Hill
#
# Bulk Modulus (GPa) = 26.19341 65.21316 45.70329
# Shear Modulus (GPa) = 15.93782 30.31829 23.12805
#
# Velocity S-wave (km/s) = 2.78614 3.84274 3.35628
# Velocity P-wave (km/s) = 4.80705 7.17296 6.10570
#
# Compressibility (1/GPa) = 0.03817754
#
# Stress axis : x y z
#
# Youngs Moduli (GPa) = 14.92925 113.48569 33.69810
#
# Poissons Ratio (x) = 0.91497 0.81085
# Poissons Ratio (y) = 0.12037 0.05126
# Poissons Ratio (z) = 0.35923 0.17264
#
# Static dielectric constant tensor:
#      x y z
#    x 3.549920 0.000000 -0.166450 
#    y 0.000000 3.968860 0.000000 
#    z -0.166450 0.000000 3.494530 
# 
# 
# High freq. dielectric constant tensor:
#      x y z
#    x 1.792970 0.000000 -0.019560 
#    y 0.000000 1.821630 0.000000 
#    z -0.019560 0.000000 1.795540 
# 
# From -- ./inp_files/151930.got.cif
#   From: 2010.06.25/outbox.ucp.g09.slc.cvg/sg12_76_cif.got.tgz:151930.got - 2010.06.28 13:50:54.
