data_PCOD8116531
_publ_section_title
;
Structure prediction by ZEFSAII (Michael W. Deem and Ramdas Pophale) SiO2 
 PCOD8116531
Probable space group: C 2/M
;
_chemical_formula_sum "Si O2"
_cell_formula_units_Z 32
_cell_length_a 24.000000
_cell_length_b 9.000000
_cell_length_c 30.000000
_cell_angle_alpha 90.000000
_cell_angle_beta 30.000000
_cell_angle_gamma 90.000000
_cell_volume 3240.000000
_symmetry_space_group_name_H-M "C 2/M"
_symmetry_group_IT_number 12
_symmetry_cell_setting 'monoclinic'
loop_
_space_group_symop_operation_xyz
x,y,z
-x,y,-z
-x,-y,-z
x,-y,z
1/2+x,1/2+y,z
1/2-x,1/2+y,-z
1/2-x,1/2-y,-z
1/2+x,1/2-y,z
loop_
_atom_site_type_symbol
_atom_site_label
_atom_site_fract_x
_atom_site_fract_y
_atom_site_fract_z
Si Si1 0.669460 0.824738 0.762316
Si Si2 0.573254 0.675896 0.405058
Si Si3 0.731087 0.676248 0.138137
Si Si4 0.562029 0.179691 0.319005
Si Si5 0.862139 0.179874 0.401521
Si Si6 0.012775 0.324991 0.040502
Si Si7 0.083438 0.670598 0.728566
Si Si8 0.172283 0.671120 0.090386
O O1 0.796964 0.777893 0.682240
O O2 0.579335 0.757135 0.860842
O O3 0.647891 0.768576 0.727196
O O4 0.654914 0.000000 0.774056
O O5 0.500000 0.721217 0.500000
O O6 0.559002 0.500000 0.406807
O O7 0.533405 0.766190 0.389058
O O8 0.712955 0.500000 0.156770
O O9 0.680866 0.756783 0.217408
O O10 0.667481 0.739906 0.139877
O O11 0.859375 0.713073 0.036693
O O12 0.466115 0.249317 0.355063
O O13 0.561962 0.000000 0.316706
O O14 0.750000 0.250000 0.500000
O O15 0.878701 0.224793 0.338357
O O16 0.860154 0.000000 0.407126
O O17 0.991968 0.500000 0.053205
O O18 0.000000 0.256140 0.000000
O O19 0.114414 0.500000 0.694610
O O20 0.956334 0.677425 0.834016
O O21 0.212198 0.500000 0.068601
O O22 0.250000 0.750000 0.000000
#
# Coordination Sequence:
#
# PCOD8116531 Si02
#       8
#     8   8   8   8   8   8   8   8
#     4   9  18  35  59  90 127 165 208 260 315 375
#     4  10  22  40  65  96 124 162 213 265 319 379
#     4  11  21  36  61  90 119 157 208 262 317 376
#     4  12  25  43  65  93 129 168 208 258 318 382
#     4  12  26  44  68  96 126 164 210 263 320 379
#     4   9  17  31  56  88 120 159 209 259 310 371
#     4  10  21  39  62  90 127 171 212 257 313 381
#     4  11  22  36  57  86 124 165 210 255 310 375
#
# _framework density 9.8765429999999999
#
# number of rings (size 3 to 8) (size 9 to 14) (size 15 to 20)
#    0.000    1.500    1.250    4.500    1.750    4.750 
#    0.000    0.625    0.000    8.250    0.000    0.000 
#    0.000    0.000    0.000    0.000    0.000    0.000 
#
# Total GULP energy -396570.915735 kJ/mol
# GULP energy per Si atom -12392.841117 kJ/mol
# Density = 0.985406 g / cm^3
# Si number density = 9.876543 Si / 1000 Ang^3
#
#
#
# Elastic Constant Matrix: (Units=GPa)
#
#
# Indices 1 2 3 4 5 6 
#
# 1 109.7278 32.7025 47.0773 0.0073 20.0238 -0.0063
# 2 32.7025 119.0336 47.6365 0.0136 8.2610 -0.0087
# 3 47.0773 47.6365 180.4195 0.0014 22.9715 -0.0033
# 4 0.0073 0.0136 0.0014 38.7139 -0.0035 8.9933
# 5 20.0238 8.2610 22.9715 -0.0035 42.9278 0.0046
# 6 -0.0063 -0.0087 -0.0033 8.9933 0.0046 27.4175
#
#
#
# Elastic Compliance Matrix: (Units=1/GPa)
#
#
# Indices 1 2 3 4 5 6 
#
# 1 0.011243 -0.002062 -0.001902 -0.000002 -0.003830 0.000003
# 2 -0.002062 0.009782 -0.002069 -0.000004 0.000186 0.000004
# 3 -0.001902 -0.002069 0.006891 0.000001 -0.002402 0.000000
# 4 -0.000002 -0.000004 0.000001 0.027961 0.000005 -0.009172
# 5 -0.003830 0.000186 -0.002402 0.000005 0.026331 -0.000007
# 6 0.000003 0.000004 0.000000 -0.009172 -0.000007 0.039481
#
#
# Mechanical properties :
#
#
# Convention : Reuss Voigt Hill
#
# Bulk Modulus (GPa) = 63.08411 73.77927 68.43169
# Shear Modulus (GPa) = 35.96151 40.59616 38.27884
#
# Velocity S-wave (km/s) = 4.27142 4.53833 4.40690
# Velocity P-wave (km/s) = 7.50549 8.05567 7.78544
#
# Compressibility (1/GPa) = 0.01585185
#
# Stress axis : x y z
#
# Youngs Moduli (GPa) = 88.94648 102.22464 145.12013
#
# Poissons Ratio (x) = 0.21078 0.27595
# Poissons Ratio (y) = 0.18341 0.30019
# Poissons Ratio (z) = 0.16913 0.21145
#
# Static dielectric constant tensor:
#      x y z
#    x 3.754030 -0.000010 0.112080 
#    y -0.000010 3.562360 0.000000 
#    z 0.112080 0.000000 4.160210 
# 
# 
# High freq. dielectric constant tensor:
#      x y z
#    x 1.780780 0.000000 0.011050 
#    y 0.000000 1.755600 0.000000 
#    z 0.011050 0.000000 1.811560 
# 
# From -- ./inp_files/382228.got.cif
#   From: 2010.06.25/outbox.ucp.g09.slc.cvg/sg12_192_cif.got.tgz:382228.got - 2010.06.28 13:50:54.
