data_PCOD8116288
_publ_section_title
;
Structure prediction by ZEFSAII (Michael W. Deem and Ramdas Pophale) SiO2 
 PCOD8116288
Probable space group: C 2/M
;
_chemical_formula_sum "Si O2"
_cell_formula_units_Z 32
_cell_length_a 12.000000
_cell_length_b 30.000000
_cell_length_c 18.000000
_cell_angle_alpha 90.000000
_cell_angle_beta 30.000000
_cell_angle_gamma 90.000000
_cell_volume 3240.000000
_symmetry_space_group_name_H-M "C 2/M"
_symmetry_group_IT_number 12
_symmetry_cell_setting 'monoclinic'
loop_
_space_group_symop_operation_xyz
x,y,z
-x,y,-z
-x,-y,-z
x,-y,z
1/2+x,1/2+y,z
1/2-x,1/2+y,-z
1/2-x,1/2-y,-z
1/2+x,1/2-y,z
loop_
_atom_site_type_symbol
_atom_site_label
_atom_site_fract_x
_atom_site_fract_y
_atom_site_fract_z
Si Si1 0.020078 0.392677 0.688603
Si Si2 0.766528 0.300614 0.858926
Si Si3 0.679544 0.290054 0.223404
Si Si4 0.902803 0.691329 0.940237
Si Si5 0.528239 0.905424 0.850567
Si Si6 0.625568 0.550769 0.144718
Si Si7 0.006630 0.116113 0.342723
Si Si8 0.353295 0.448653 0.153221
O O1 0.022706 0.417054 0.766813
O O2 0.275549 0.391798 0.516855
O O3 0.906862 0.344332 0.758770
O O4 0.878964 0.421695 0.711475
O O5 0.890370 0.262242 0.736910
O O6 0.792311 0.287658 0.931006
O O7 0.500000 0.305751 0.000000
O O8 0.502664 0.330515 0.326776
O O9 0.834705 0.296703 0.206282
O O10 0.801250 0.291161 0.074248
O O11 0.880092 0.638172 0.951417
O O12 0.782959 0.899201 0.729110
O O13 0.391766 0.942717 0.975901
O O14 0.591356 0.500000 0.192601
O O15 0.519804 0.585785 0.262463
O O16 0.490427 0.560074 0.147916
O O17 0.292060 0.500000 0.177462
O O18 0.500000 0.430540 0.000000
#
# Coordination Sequence:
#
# PCOD8116288 Si02
#       8
#     8   8   8   8   8   8   8   8
#     4  11  24  39  60  92 124 161 202 249 302 367
#     4  11  22  33  59  90 117 154 209 259 288 348
#     4  10  19  35  58  81 118 159 194 245 309 347
#     4   9  18  34  54  86 110 144 197 246 294 345
#     4  10  20  39  65  86 116 160 202 245 294 358
#     4  11  23  40  66  95 118 153 205 261 301 350
#     4  11  24  40  59  88 130 164 196 243 314 372
#     4  10  21  41  66  88 117 157 202 250 305 362
#
# _framework density 9.8765429999999999
#
# number of rings (size 3 to 8) (size 9 to 14) (size 15 to 20)
#    0.000    1.625    3.750    1.500    1.750    2.500 
#    0.000    1.250    0.000    2.250    0.000    0.000 
#    0.000    0.000    0.000    0.000    0.000    0.000 
#
# Total GULP energy -396521.554190 kJ/mol
# GULP energy per Si atom -12391.298568 kJ/mol
# Density = 0.985406 g / cm^3
# Si number density = 9.876543 Si / 1000 Ang^3
#
#
#
# Elastic Constant Matrix: (Units=GPa)
#
#
# Indices 1 2 3 4 5 6 
#
# 1 107.2979 38.7653 28.5105 0.0003 -7.4683 0.0002
# 2 38.7653 80.4078 35.4616 -0.0010 -3.9115 0.0012
# 3 28.5105 35.4616 77.9863 0.0008 -2.2972 -0.0015
# 4 0.0003 -0.0010 0.0008 16.4377 -0.0005 0.8740
# 5 -7.4683 -3.9115 -2.2972 -0.0005 21.4360 0.0004
# 6 0.0002 0.0012 -0.0015 0.8740 0.0004 29.0983
#
#
#
# Elastic Compliance Matrix: (Units=1/GPa)
#
#
# Indices 1 2 3 4 5 6 
#
# 1 0.011750 -0.004581 -0.002123 0.000000 0.003030 0.000000
# 2 -0.004581 0.017436 -0.006227 0.000002 0.000918 -0.000001
# 3 -0.002123 -0.006227 0.016427 -0.000001 -0.000116 0.000001
# 4 0.000000 0.000002 -0.000001 0.060933 0.000001 -0.001830
# 5 0.003030 0.000918 -0.000116 0.000001 0.047861 -0.000001
# 6 0.000000 -0.000001 0.000001 -0.001830 -0.000001 0.034421
#
#
# Mechanical properties :
#
#
# Convention : Reuss Voigt Hill
#
# Bulk Modulus (GPa) = 50.63014 52.35189 51.49101
# Shear Modulus (GPa) = 22.59642 24.25803 23.42723
#
# Velocity S-wave (km/s) = 3.38589 3.50817 3.44758
# Velocity P-wave (km/s) = 6.40100 6.55518 6.47855
#
# Compressibility (1/GPa) = 0.01975108
#
# Stress axis : x y z
#
# Youngs Moduli (GPa) = 85.10651 57.35313 60.87558
#
# Poissons Ratio (x) = 0.26273 0.12926
# Poissons Ratio (y) = 0.38987 0.37905
# Poissons Ratio (z) = 0.18071 0.35711
#
# Static dielectric constant tensor:
#      x y z
#    x 3.806130 0.000000 -0.065690 
#    y 0.000000 3.796970 0.000000 
#    z -0.065690 0.000000 3.299630 
# 
# 
# High freq. dielectric constant tensor:
#      x y z
#    x 1.782590 0.000000 -0.007010 
#    y 0.000000 1.783990 0.000000 
#    z -0.007010 0.000000 1.736240 
# 
# From -- ./inp_files/266281.got.cif
#   From: 2010.06.25/outbox.ucp.g09.slc.cvg/sg12_134_cif.got.tgz:266281.got - 2010.06.28 13:50:54.
