data_PCOD8116102
_publ_section_title
;
Structure prediction by ZEFSAII (Michael W. Deem and Ramdas Pophale) SiO2 
 PCOD8116102
Probable space group: C 2/M
;
_chemical_formula_sum "Si O2"
_cell_formula_units_Z 56
_cell_length_a 28.486028
_cell_length_b 9.591709
_cell_length_c 17.723643
_cell_angle_alpha 90.000000
_cell_angle_beta 137.028959
_cell_angle_gamma 90.000000
_cell_volume 3300.872163
_symmetry_space_group_name_H-M "C 2/M"
_symmetry_group_IT_number 12
_symmetry_cell_setting 'monoclinic'
loop_
_space_group_symop_operation_xyz
x,y,z
-x,y,-z
-x,-y,-z
x,-y,z
1/2+x,1/2+y,z
1/2-x,1/2+y,-z
1/2-x,1/2-y,-z
1/2+x,1/2-y,z
loop_
_atom_site_type_symbol
_atom_site_label
_atom_site_fract_x
_atom_site_fract_y
_atom_site_fract_z
Si Si1 0.932057 0.837960 0.577760
Si Si2 0.660049 0.334162 0.667573
Si Si3 0.070724 0.665810 0.117303
Si Si4 0.185610 0.334154 0.140207
Si Si5 0.090496 0.837989 0.738634
Si Si6 0.950515 0.659728 0.740227
Si Si7 0.610036 0.839965 0.902470
O O1 0.880813 0.779507 0.453561
O O2 0.916472 0.754333 0.635820
O O3 0.009106 0.810774 0.639227
O O4 0.919335 0.000000 0.579745
O O5 0.658736 0.500000 0.666352
O O6 0.737752 0.275401 0.756054
O O7 0.622646 0.280135 0.699038
O O8 0.067698 0.500000 0.107509
O O9 0.135343 0.725845 0.146075
O O10 0.079452 0.710318 0.214720
O O11 0.000000 0.728193 0.000000
O O12 0.185068 0.500000 0.143143
O O13 0.159624 0.286296 0.027410
O O14 0.125343 0.753681 0.847678
O O15 0.107403 0.000000 0.771123
O O16 0.930809 0.500000 0.700228
O O17 0.032419 0.678561 0.840013
O O18 0.625220 0.000000 0.899121
#
# Coordination Sequence:
#
# PCOD8116102 Si02
#       7
#     8   8   8   8   8   8   8
#     4   9  17  30  47  64  86 117 152 183 212 252
#     4   9  17  29  44  62  85 117 153 184 212 250
#     4   9  14  24  44  68  90 113 142 176 216 261
#     4   9  16  26  43  67  91 113 144 183 218 256
#     4   9  17  29  46  65  86 115 151 184 214 253
#     4   9  16  27  46  70  91 110 140 183 223 257
#     4   9  16  27  44  68  92 112 139 180 225 262
#
# _framework density 16.965214
#
# number of rings (size 3 to 8) (size 9 to 14) (size 15 to 20)
#    0.000    3.000    1.429    0.429    0.000    2.286 
#    0.000    1.429    0.000    5.571    0.000    0.000 
#    0.000    0.000    0.000    0.000    0.000    0.000 
#
# Total GULP energy -347157.054821 kJ/mol
# GULP energy per Si atom -12398.466244 kJ/mol
# Density = 1.692660 g / cm^3
# Si number density = 16.965214 Si / 1000 Ang^3
#
#
#
# Elastic Constant Matrix: (Units=GPa)
#
#
# Indices 1 2 3 4 5 6 
#
# 1 122.9014 35.1732 92.8559 0.0000 -20.9616 0.0000
# 2 35.1732 33.4545 39.6186 0.0000 -11.0061 0.0000
# 3 92.8559 39.6186 148.0799 0.0000 -19.6675 0.0000
# 4 0.0000 0.0000 0.0000 20.5672 0.0000 -8.6645
# 5 -20.9616 -11.0061 -19.6675 0.0000 25.7178 0.0000
# 6 0.0000 0.0000 0.0000 -8.6645 0.0000 16.5890
#
#
#
# Elastic Compliance Matrix: (Units=1/GPa)
#
#
# Indices 1 2 3 4 5 6 
#
# 1 0.017145 -0.006549 -0.008365 0.000000 0.004775 0.000000
# 2 -0.006549 0.049173 -0.007751 0.000000 0.009779 0.000000
# 3 -0.008365 -0.007751 0.014165 0.000000 0.000698 0.000000
# 4 0.000000 0.000000 0.000000 0.062338 0.000000 0.032559
# 5 0.004775 0.009779 0.000698 0.000000 0.047494 0.000000
# 6 0.000000 0.000000 0.000000 0.032559 0.000000 0.077287
#
#
# Mechanical properties :
#
#
# Convention : Reuss Voigt Hill
#
# Bulk Modulus (GPa) = 28.44668 71.08124 49.76396
# Shear Modulus (GPa) = 15.40133 21.69400 18.54766
#
# Velocity S-wave (km/s) = 3.01627 3.57982 3.31006
# Velocity P-wave (km/s) = 5.37909 7.68609 6.63365
#
# Compressibility (1/GPa) = 0.03515348
#
# Stress axis : x y z
#
# Youngs Moduli (GPa) = 58.32583 20.33656 70.59822
#
# Poissons Ratio (x) = 0.13319 0.59054
# Poissons Ratio (y) = 0.38198 0.54718
# Poissons Ratio (z) = 0.48788 0.15762
#
# Static dielectric constant tensor:
#      x y z
#    x 3.309380 0.000000 -0.062940 
#    y 0.000000 2.758660 0.000000 
#    z -0.062940 0.000000 3.272710 
# 
# 
# High freq. dielectric constant tensor:
#      x y z
#    x 1.655240 0.000000 -0.012040 
#    y 0.000000 1.602300 0.000000 
#    z -0.012040 0.000000 1.655550 
# 
# From -- ./inp_files/231952.got.cif
#   From: 2010.06.25/outbox.cif.g09.slc.cpg/sg12_116_cif.got.tgz:231952.got - 2010.06.28 00:19:55.
