data_PCOD8116621
_publ_section_title
;
Structure prediction by ZEFSAII (Michael W. Deem and Ramdas Pophale) SiO2 
 PCOD8116621
Probable space group: C 2/M
;
_chemical_formula_sum "Si O2"
_cell_formula_units_Z 32
_cell_length_a 9.000000
_cell_length_b 18.000000
_cell_length_c 30.000000
_cell_angle_alpha 90.000000
_cell_angle_beta 40.000000
_cell_angle_gamma 90.000000
_cell_volume 3123.947783
_symmetry_space_group_name_H-M "C 2/M"
_symmetry_group_IT_number 12
_symmetry_cell_setting 'monoclinic'
loop_
_space_group_symop_operation_xyz
x,y,z
-x,y,-z
-x,-y,-z
x,-y,z
1/2+x,1/2+y,z
1/2-x,1/2+y,-z
1/2-x,1/2-y,-z
1/2+x,1/2-y,z
loop_
_atom_site_type_symbol
_atom_site_label
_atom_site_fract_x
_atom_site_fract_y
_atom_site_fract_z
Si Si1 0.064365 0.343967 0.157334
Si Si2 0.866402 0.329947 0.962522
Si Si3 0.123296 0.826072 0.150478
Si Si4 0.001038 0.087971 0.427273
Si Si5 0.856820 0.587315 0.419274
Si Si6 0.682808 0.671383 0.699478
Si Si7 0.990382 0.085273 0.098965
Si Si8 0.126071 0.174367 0.310541
O O1 0.060818 0.340353 0.105180
O O2 0.123322 0.261369 0.159565
O O3 0.251851 0.404920 0.127850
O O4 0.826426 0.367929 0.236201
O O5 0.116992 0.343599 0.926815
O O6 0.750000 0.250000 0.000000
O O7 0.696667 0.394215 0.017792
O O8 0.970791 0.858865 0.145393
O O9 0.016243 0.860113 0.220801
O O10 0.212449 0.114854 0.409693
O O11 0.030395 0.125765 0.372850
O O12 0.763957 0.114525 0.506621
O O13 0.001664 0.000000 0.419372
O O14 0.845805 0.500000 0.422769
O O15 0.119655 0.610906 0.353142
O O16 0.792664 0.745722 0.692840
O O17 0.584254 0.688989 0.673980
O O18 0.020418 0.000000 0.107429
#
# Coordination Sequence:
#
# PCOD8116621 Si02
#       8
#     8   8   8   8   8   8   8   8
#     4  11  23  42  66  94 126 172 223 262 325 407
#     4  12  22  42  70  96 121 174 226 270 325 395
#     4  11  23  42  66  94 126 172 223 262 325 407
#     4   9  20  41  68  95 126 171 220 262 317 391
#     4   9  20  41  68  95 126 171 220 262 317 391
#     4  11  24  40  63  96 131 167 213 272 321 382
#     4  12  28  42  64 100 131 164 216 281 337 387
#     4  11  24  40  63  96 131 167 213 272 321 382
#
# _framework density 10.243449
#
# number of rings (size 3 to 8) (size 9 to 14) (size 15 to 20)
#    0.000    1.250    3.750    2.250    7.000    4.500 
#    0.000    1.250    0.000    0.000    0.000    0.000 
#    0.000    0.000    0.000    0.000    0.000    0.000 
#
# Total GULP energy -396605.277436 kJ/mol
# GULP energy per Si atom -12393.914920 kJ/mol
# Density = 1.022013 g / cm^3
# Si number density = 10.243449 Si / 1000 Ang^3
#
#
#
# Elastic Constant Matrix: (Units=GPa)
#
#
# Indices 1 2 3 4 5 6 
#
# 1 59.2668 14.5100 29.8809 0.0194 5.9821 0.0035
# 2 14.5100 42.1108 23.1081 -0.0189 0.8790 0.0018
# 3 29.8809 23.1081 143.8287 -0.0635 11.8075 -0.0070
# 4 0.0194 -0.0189 -0.0635 27.7116 0.0133 -2.7226
# 5 5.9821 0.8790 11.8075 0.0133 40.9456 0.0033
# 6 0.0035 0.0018 -0.0070 -2.7226 0.0033 26.5397
#
#
#
# Elastic Compliance Matrix: (Units=1/GPa)
#
#
# Indices 1 2 3 4 5 6 
#
# 1 0.019902 -0.005083 -0.003163 -0.000024 -0.001886 -0.000005
# 2 -0.005083 0.027358 -0.003434 0.000014 0.001145 -0.000001
# 3 -0.003163 -0.003434 0.008314 0.000020 -0.001862 0.000005
# 4 -0.000024 0.000014 0.000020 0.036454 -0.000015 0.003740
# 5 -0.001886 0.001145 -0.001862 -0.000015 0.025211 -0.000005
# 6 -0.000005 -0.000001 0.000005 0.003740 -0.000005 0.038063
#
#
# Mechanical properties :
#
#
# Convention : Reuss Voigt Hill
#
# Bulk Modulus (GPa) = 31.04017 42.24492 36.64255
# Shear Modulus (GPa) = 26.39911 30.88651 28.64281
#
# Velocity S-wave (km/s) = 3.59358 3.88702 3.74318
# Velocity P-wave (km/s) = 5.69232 6.38831 6.05033
#
# Compressibility (1/GPa) = 0.03221632
#
# Stress axis : x y z
#
# Youngs Moduli (GPa) = 50.24501 36.55177 120.27280
#
# Poissons Ratio (x) = 0.18577 0.38047
# Poissons Ratio (y) = 0.25537 0.41297
# Poissons Ratio (z) = 0.15894 0.12551
#
# Static dielectric constant tensor:
#      x y z
#    x 3.696370 -0.000030 -0.067320 
#    y -0.000030 3.413880 0.000040 
#    z -0.067320 0.000040 4.374840 
# 
# 
# High freq. dielectric constant tensor:
#      x y z
#    x 1.798280 0.000000 0.005860 
#    y 0.000000 1.771000 0.000000 
#    z 0.005860 0.000000 1.829380 
# 
# From -- ./inp_files/372903.got.cif
#   From: 2010.06.25/outbox.ucp.g09.slc.cvg/sg12_187_cif.got.tgz:372903.got - 2010.06.28 13:50:54.
