data_PCOD8116230
_publ_section_title
;
Structure prediction by ZEFSAII (Michael W. Deem and Ramdas Pophale) SiO2 
 PCOD8116230
Probable space group: C 2/M
;
_chemical_formula_sum "Si O2"
_cell_formula_units_Z 20
_cell_length_a 24.000000
_cell_length_b 9.000000
_cell_length_c 30.000000
_cell_angle_alpha 90.000000
_cell_angle_beta 20.000000
_cell_angle_gamma 90.000000
_cell_volume 2216.290529
_symmetry_space_group_name_H-M "C 2/M"
_symmetry_group_IT_number 12
_symmetry_cell_setting 'monoclinic'
loop_
_space_group_symop_operation_xyz
x,y,z
-x,y,-z
-x,-y,-z
x,-y,z
1/2+x,1/2+y,z
1/2-x,1/2+y,-z
1/2-x,1/2-y,-z
1/2+x,1/2-y,z
loop_
_atom_site_type_symbol
_atom_site_label
_atom_site_fract_x
_atom_site_fract_y
_atom_site_fract_z
Si Si1 0.074579 0.333387 0.178076
Si Si2 0.244813 0.176549 0.551590
Si Si3 0.389179 0.833158 0.954391
Si Si4 0.956181 0.176073 0.463196
Si Si5 0.255582 0.824820 0.294317
O O1 0.041375 0.500000 0.221535
O O2 0.100875 0.340297 0.105987
O O3 0.921872 0.226554 0.300025
O O4 0.234477 0.269104 0.083415
O O5 0.250000 0.250000 0.500000
O O6 0.403734 0.234800 0.458752
O O7 0.251387 0.000000 0.543341
O O8 0.558020 0.763407 0.847962
O O9 0.360590 0.000000 0.994694
O O10 0.837048 0.232685 0.592077
O O11 0.144516 0.216063 0.334646
O O12 0.937979 0.000000 0.468764
O O13 0.269095 0.000000 0.289024
#
# Coordination Sequence:
#
# PCOD8116230 Si02
#       5
#     8   8   8   8   8
#     4  10  19  32  50  74 104 136 172 211 253 301
#     4  12  24  37  53  73 101 137 175 216 257 303
#     4   9  16  29  50  77 107 137 167 204 250 303
#     4   9  16  31  52  76 103 135 172 207 249 301
#     4   8  14  27  52  78 105 137 166 202 250 306
#
# _framework density 9.0240880000000008
#
# number of rings (size 3 to 8) (size 9 to 14) (size 15 to 20)
#    0.000    2.400    2.000    3.600    0.000    0.800 
#    0.000    3.000    0.000    1.200    0.000    8.400 
#    0.000    0.000    0.000    0.000    0.000    0.000 
#
# Total GULP energy -247865.463061 kJ/mol
# GULP energy per Si atom -12393.273153 kJ/mol
# Density = 0.900355 g / cm^3
# Si number density = 9.024088 Si / 1000 Ang^3
#
#
#
# Elastic Constant Matrix: (Units=GPa)
#
#
# Indices 1 2 3 4 5 6 
#
# 1 104.3003 43.5392 34.8930 0.0057 -36.5829 0.0000
# 2 43.5392 105.0787 27.6734 0.0021 -16.0690 -0.0115
# 3 34.8930 27.6734 64.5397 0.0355 -42.9760 0.0074
# 4 0.0057 0.0021 0.0355 27.5016 0.0121 -6.9890
# 5 -36.5829 -16.0690 -42.9760 0.0121 42.1111 -0.0013
# 6 0.0000 -0.0115 0.0074 -6.9890 -0.0013 26.6860
#
#
#
# Elastic Compliance Matrix: (Units=1/GPa)
#
#
# Indices 1 2 3 4 5 6 
#
# 1 0.016146 -0.005378 0.004838 -0.000019 0.016911 -0.000008
# 2 -0.005378 0.012567 -0.007486 0.000016 -0.007516 0.000011
# 3 0.004838 -0.007486 0.053006 -0.000104 0.055440 -0.000043
# 4 -0.000019 0.000016 -0.000104 0.038954 -0.000127 0.010202
# 5 0.016911 -0.007516 0.055440 -0.000127 0.092149 -0.000047
# 6 -0.000008 0.000011 -0.000043 0.010202 -0.000047 0.040145
#
#
# Mechanical properties :
#
#
# Convention : Reuss Voigt Hill
#
# Bulk Modulus (GPa) = 15.22854 54.01445 34.62149
# Shear Modulus (GPa) = 17.18762 30.44727 23.81744
#
# Velocity S-wave (km/s) = 3.08931 4.11177 3.63665
# Velocity P-wave (km/s) = 4.60230 7.24811 6.07109
#
# Compressibility (1/GPa) = 0.06566619
#
# Stress axis : x y z
#
# Youngs Moduli (GPa) = 61.93588 79.57287 18.86594
#
# Poissons Ratio (x) = 0.42794 -0.09127
# Poissons Ratio (y) = 0.33309 0.14123
# Poissons Ratio (z) = -0.29963 0.59567
#
# Static dielectric constant tensor:
#      x y z
#    x 3.336730 -0.000070 -0.575880 
#    y -0.000070 3.379880 0.000790 
#    z -0.575880 0.000790 3.917120 
# 
# 
# High freq. dielectric constant tensor:
#      x y z
#    x 1.682210 0.000000 -0.041980 
#    y 0.000000 1.683040 0.000000 
#    z -0.041980 0.000000 1.692140 
# 
# From -- ./inp_files/162395.got.cif
#   From: 2010.06.25/outbox.ucp.g09.slc.cvg/sg12_82_cif.got.tgz:162395.got - 2010.06.28 13:50:54.
