data_PCOD8116363
_publ_section_title
;
Structure prediction by ZEFSAII (Michael W. Deem and Ramdas Pophale) SiO2 
 PCOD8116363
Probable space group: C 2/M
;
_chemical_formula_sum "Si O2"
_cell_formula_units_Z 32
_cell_length_a 30.000000
_cell_length_b 9.000000
_cell_length_c 24.000000
_cell_angle_alpha 90.000000
_cell_angle_beta 30.000000
_cell_angle_gamma 90.000000
_cell_volume 3240.000000
_symmetry_space_group_name_H-M "C 2/M"
_symmetry_group_IT_number 12
_symmetry_cell_setting 'monoclinic'
loop_
_space_group_symop_operation_xyz
x,y,z
-x,y,-z
-x,-y,-z
x,-y,z
1/2+x,1/2+y,z
1/2-x,1/2+y,-z
1/2-x,1/2-y,-z
1/2+x,1/2-y,z
loop_
_atom_site_type_symbol
_atom_site_label
_atom_site_fract_x
_atom_site_fract_y
_atom_site_fract_z
Si Si1 0.769339 0.175151 0.732708
Si Si2 0.270954 0.332858 0.422227
Si Si3 0.855058 0.175728 0.526127
Si Si4 0.211793 0.823901 0.162696
Si Si5 0.040586 0.164476 0.816912
Si Si6 0.403541 0.671930 0.123358
Si Si7 0.045676 0.823542 0.269516
Si Si8 0.896891 0.675106 0.908196
O O1 0.841570 0.220274 0.606443
O O2 0.794539 0.238307 0.766924
O O3 0.671406 0.233232 0.825306
O O4 0.762906 0.000000 0.742910
O O5 0.233286 0.500000 0.461860
O O6 0.250000 0.250000 0.500000
O O7 0.226841 0.250033 0.417595
O O8 0.377947 0.333709 0.313758
O O9 0.951078 0.230343 0.398177
O O10 0.847296 0.000000 0.527257
O O11 0.123379 0.768401 0.226901
O O12 0.215737 0.000000 0.160258
O O13 0.299157 0.767809 0.033735
O O14 0.096294 0.203788 0.811657
O O15 0.964991 0.283782 0.884168
O O16 0.995904 0.000000 0.869336
O O17 0.386450 0.500000 0.127208
O O18 0.500000 0.726495 0.000000
O O19 0.067077 0.754974 0.186157
O O20 0.046136 0.000000 0.261925
O O21 0.897262 0.500000 0.897506
#
# Coordination Sequence:
#
# PCOD8116363 Si02
#       8
#     8   8   8   8   8   8   8   8
#     4  10  20  36  58  84 115 147 187 236 282 333
#     4  11  22  36  55  78 111 149 185 228 276 330
#     4  10  21  36  57  85 113 147 191 234 279 336
#     4   9  20  38  59  84 113 147 187 236 290 339
#     4  10  21  36  53  78 110 147 182 215 270 334
#     4  10  20  35  55  80 111 147 186 224 270 334
#     4  10  21  39  60  81 112 151 189 233 287 342
#     4  11  22  36  57  86 115 144 188 239 286 337
#
# _framework density 9.8765429999999999
#
# number of rings (size 3 to 8) (size 9 to 14) (size 15 to 20)
#    0.000    1.875    1.250    2.625    0.000    5.750 
#    0.000    4.375    0.000    0.000    0.000    2.625 
#    0.000    0.000    0.000    0.000    0.000    0.000 
#
# Total GULP energy -396587.772780 kJ/mol
# GULP energy per Si atom -12393.367899 kJ/mol
# Density = 0.985406 g / cm^3
# Si number density = 9.876543 Si / 1000 Ang^3
#
#
#
# Elastic Constant Matrix: (Units=GPa)
#
#
# Indices 1 2 3 4 5 6 
#
# 1 76.9554 24.6577 42.8187 -0.0083 -7.9215 -0.0034
# 2 24.6577 33.1700 28.5067 0.0101 3.0164 -0.0137
# 3 42.8187 28.5067 127.0972 -0.0159 1.6886 -0.0278
# 4 -0.0083 0.0101 -0.0159 25.7991 -0.0068 0.7864
# 5 -7.9215 3.0164 1.6886 -0.0068 37.3620 0.0082
# 6 -0.0034 -0.0137 -0.0278 0.7864 0.0082 13.1780
#
#
#
# Elastic Compliance Matrix: (Units=1/GPa)
#
#
# Indices 1 2 3 4 5 6 
#
# 1 0.019461 -0.011457 -0.004056 0.000010 0.005234 -0.000019
# 2 -0.011457 0.044353 -0.006012 -0.000027 -0.005738 0.000036
# 3 -0.004056 -0.006012 0.010594 0.000007 -0.000853 0.000015
# 4 0.000010 -0.000027 0.000007 0.038832 0.000012 -0.002317
# 5 0.005234 -0.005738 -0.000853 0.000012 0.028377 -0.000025
# 6 -0.000019 0.000036 0.000015 -0.002317 -0.000025 0.076023
#
#
# Mechanical properties :
#
#
# Convention : Reuss Voigt Hill
#
# Bulk Modulus (GPa) = 31.88953 47.68765 39.78859
# Shear Modulus (GPa) = 18.44045 24.68378 21.56211
#
# Velocity S-wave (km/s) = 3.05872 3.53883 3.30749
# Velocity P-wave (km/s) = 5.35289 6.39469 5.89684
#
# Compressibility (1/GPa) = 0.03135826
#
# Stress axis : x y z
#
# Youngs Moduli (GPa) = 51.38397 22.54637 94.39031
#
# Poissons Ratio (x) = 0.25831 0.38288
# Poissons Ratio (y) = 0.58871 0.56747
# Poissons Ratio (z) = 0.20843 0.13555
#
# Static dielectric constant tensor:
#      x y z
#    x 3.918260 -0.000080 0.205560 
#    y -0.000080 3.333610 0.000090 
#    z 0.205560 0.000090 3.789970 
# 
# 
# High freq. dielectric constant tensor:
#      x y z
#    x 1.777050 0.000000 0.008140 
#    y 0.000000 1.747010 0.000010 
#    z 0.008140 0.000010 1.790610 
# 
# From -- ./inp_files/353290.got.cif
#   From: 2010.06.25/outbox.ucp.g09.slc.cvg/sg12_177_cif.got.tgz:353290.got - 2010.06.28 13:50:54.
