data_PCOD8116561
_publ_section_title
;
Structure prediction by ZEFSAII (Michael W. Deem and Ramdas Pophale) SiO2 
 PCOD8116561
Probable space group: C 2/M
;
_chemical_formula_sum "Si O2"
_cell_formula_units_Z 28
_cell_length_a 9.000000
_cell_length_b 30.000000
_cell_length_c 21.000000
_cell_angle_alpha 90.000000
_cell_angle_beta 30.000000
_cell_angle_gamma 90.000000
_cell_volume 2835.000000
_symmetry_space_group_name_H-M "C 2/M"
_symmetry_group_IT_number 12
_symmetry_cell_setting 'monoclinic'
loop_
_space_group_symop_operation_xyz
x,y,z
-x,y,-z
-x,-y,-z
x,-y,z
1/2+x,1/2+y,z
1/2-x,1/2+y,-z
1/2-x,1/2-y,-z
1/2+x,1/2-y,z
loop_
_atom_site_type_symbol
_atom_site_label
_atom_site_fract_x
_atom_site_fract_y
_atom_site_fract_z
Si Si1 0.715062 0.766987 0.295201
Si Si2 0.097438 0.051269 0.396604
Si Si3 0.600482 0.882723 0.892915
Si Si4 0.158444 0.449334 0.110497
Si Si5 0.381649 0.685725 0.478473
Si Si6 0.839541 0.888264 0.392266
Si Si7 0.674230 0.217521 0.874242
O O1 0.576838 0.729138 0.391381
O O2 0.465013 0.804532 0.380221
O O3 0.842572 0.750291 0.179944
O O4 0.981860 0.789651 0.234890
O O5 0.446224 0.059985 0.250659
O O6 0.000000 0.073785 0.500000
O O7 0.889622 0.068644 0.416977
O O8 0.020341 0.000000 0.429418
O O9 0.405992 0.912560 0.918339
O O10 0.528781 0.830209 0.910528
O O11 0.951014 0.890770 0.748133
O O12 0.500000 0.898295 0.000000
O O13 0.098195 0.500000 0.108176
O O14 0.500000 0.443198 0.000000
O O15 0.500000 0.663884 0.500000
O O16 0.435186 0.654156 0.398621
O O17 0.500000 0.884907 0.500000
O O18 0.500000 0.238416 0.000000
#
# Coordination Sequence:
#
# PCOD8116561 Si02
#       7
#     8   8   8   8   8   8   8
#     4  11  22  38  59  83 107 149 195 244 291 341
#     4   9  19  37  60  87 123 156 188 236 292 353
#     4  10  22  39  57  85 122 154 189 241 297 347
#     4   9  19  38  64  91 117 153 198 238 282 344
#     4  11  22  36  59  83 109 143 192 249 292 336
#     4  11  22  37  59  85 117 153 196 244 290 349
#     4  11  22  40  58  81 117 155 195 239 296 357
#
# _framework density 9.8765429999999999
#
# number of rings (size 3 to 8) (size 9 to 14) (size 15 to 20)
#    0.000    1.714    2.857    1.714    0.000    1.714 
#    0.000    9.286    0.000    0.000    0.000    0.000 
#    0.000    0.000    0.000    0.000    0.000    0.000 
#
# Total GULP energy -347136.658734 kJ/mol
# GULP energy per Si atom -12397.737812 kJ/mol
# Density = 0.985406 g / cm^3
# Si number density = 9.876543 Si / 1000 Ang^3
#
#
#
# Elastic Constant Matrix: (Units=GPa)
#
#
# Indices 1 2 3 4 5 6 
#
# 1 93.7296 38.7372 55.9013 0.0000 4.3077 -0.0001
# 2 38.7372 70.8126 36.9015 0.0001 1.7980 0.0001
# 3 55.9013 36.9015 123.5502 -0.0013 17.6859 -0.0018
# 4 0.0000 0.0001 -0.0013 24.5573 0.0004 -0.5772
# 5 4.3077 1.7980 17.6859 0.0004 44.8779 0.0005
# 6 -0.0001 0.0001 -0.0018 -0.5772 0.0005 25.2357
#
#
#
# Elastic Compliance Matrix: (Units=1/GPa)
#
#
# Indices 1 2 3 4 5 6 
#
# 1 0.016618 -0.006071 -0.005842 0.000000 0.000950 0.000000
# 2 -0.006071 0.019023 -0.003083 0.000000 0.001036 0.000000
# 3 -0.005842 -0.003083 0.012251 0.000001 -0.004144 0.000001
# 4 0.000000 0.000000 0.000001 0.040743 -0.000001 0.000932
# 5 0.000950 0.001036 -0.004144 -0.000001 0.023783 -0.000001
# 6 0.000000 0.000000 0.000001 0.000932 -0.000001 0.039648
#
#
# Mechanical properties :
#
#
# Convention : Reuss Voigt Hill
#
# Bulk Modulus (GPa) = 55.86335 61.24138 58.55237
# Shear Modulus (GPa) = 26.59214 29.37101 27.98157
#
# Velocity S-wave (km/s) = 3.67308 3.86023 3.76781
# Velocity P-wave (km/s) = 6.80668 7.13717 6.97388
#
# Compressibility (1/GPa) = 0.01790082
#
# Stress axis : x y z
#
# Youngs Moduli (GPa) = 60.17391 52.56763 81.62445
#
# Poissons Ratio (x) = 0.31912 0.47685
# Poissons Ratio (y) = 0.36530 0.25167
# Poissons Ratio (z) = 0.35154 0.16208
#
# Static dielectric constant tensor:
#      x y z
#    x 3.557340 0.000000 0.214260 
#    y 0.000000 3.524720 0.000000 
#    z 0.214260 0.000000 3.938360 
# 
# 
# High freq. dielectric constant tensor:
#      x y z
#    x 1.754390 0.000000 0.013030 
#    y 0.000000 1.761990 0.000000 
#    z 0.013030 0.000000 1.795670 
# 
# From -- ./inp_files/302968.got.cif
#   From: 2010.06.25/outbox.ucp.g09.slc.cvg/sg12_152_cif.got.tgz:302968.got - 2010.06.28 13:50:54.
