data_PCOD8116520
_publ_section_title
;
Structure prediction by ZEFSAII (Michael W. Deem and Ramdas Pophale) SiO2 
 PCOD8116520
Probable space group: C 2/M
;
_chemical_formula_sum "Si O2"
_cell_formula_units_Z 32
_cell_length_a 30.000000
_cell_length_b 9.000000
_cell_length_c 18.000000
_cell_angle_alpha 90.000000
_cell_angle_beta 140.000000
_cell_angle_gamma 90.000000
_cell_volume 3123.947783
_symmetry_space_group_name_H-M "C 2/M"
_symmetry_group_IT_number 12
_symmetry_cell_setting 'monoclinic'
loop_
_space_group_symop_operation_xyz
x,y,z
-x,y,-z
-x,-y,-z
x,-y,z
1/2+x,1/2+y,z
1/2-x,1/2+y,-z
1/2-x,1/2-y,-z
1/2+x,1/2-y,z
loop_
_atom_site_type_symbol
_atom_site_label
_atom_site_fract_x
_atom_site_fract_y
_atom_site_fract_z
Si Si1 0.569388 0.675257 0.629038
Si Si2 0.402936 0.826609 0.814948
Si Si3 0.850264 0.175223 0.893080
Si Si4 0.323199 0.674726 0.592220
Si Si5 0.963000 0.329859 0.110526
Si Si6 0.294654 0.323657 0.286162
Si Si7 0.364052 0.830221 0.503463
Si Si8 0.017375 0.665172 0.695841
O O1 0.500000 0.738710 0.500000
O O2 0.568358 0.500000 0.624086
O O3 0.641768 0.730714 0.685109
O O4 0.567339 0.727010 0.712443
O O5 0.390121 0.775561 0.882546
O O6 0.354456 0.709421 0.711726
O O7 0.480455 0.804084 0.882607
O O8 0.381182 0.000000 0.777885
O O9 0.775428 0.236399 0.822796
O O10 0.846527 0.000000 0.869360
O O11 0.900944 0.209919 0.026307
O O12 0.319331 0.500000 0.571784
O O13 0.250000 0.750000 0.500000
O O14 0.370245 0.759272 0.592503
O O15 0.936401 0.500000 0.071552
O O16 0.991423 0.294940 0.228941
O O17 0.282728 0.500000 0.266996
O O18 0.311716 0.274421 0.391642
O O19 0.439801 0.825241 0.563034
O O20 0.336085 0.000000 0.471826
O O21 0.047766 0.500000 0.724831
#
# Coordination Sequence:
#
# PCOD8116520 Si02
#       8
#     8   8   8   8   8   8   8   8
#     4  10  21  38  62  94 126 157 201 250 304 367
#     4  11  22  41  65  89 121 161 207 253 304 364
#     4  12  26  42  61  91 124 160 209 259 305 359
#     4  12  24  37  55  83 122 164 204 250 303 362
#     4  10  22  43  66  90 121 163 208 251 303 364
#     4  11  23  41  63  89 124 166 204 250 309 369
#     4  11  21  37  59  88 123 159 199 246 301 365
#     4  10  21  38  63  93 123 156 198 246 301 363
#
# _framework density 10.243449
#
# number of rings (size 3 to 8) (size 9 to 14) (size 15 to 20)
#    0.000    1.125    2.500    4.500    0.000    4.750 
#    0.000    0.625    0.000    0.000    0.000    0.000 
#    0.000    0.000    0.000    0.000    0.000    0.000 
#
# Total GULP energy -396616.916486 kJ/mol
# GULP energy per Si atom -12394.278640 kJ/mol
# Density = 1.022013 g / cm^3
# Si number density = 10.243449 Si / 1000 Ang^3
#
#
#
# Elastic Constant Matrix: (Units=GPa)
#
#
# Indices 1 2 3 4 5 6 
#
# 1 119.9096 50.0083 36.0663 0.0000 14.6994 0.0000
# 2 50.0083 103.9019 33.7695 0.0000 13.5710 0.0000
# 3 36.0663 33.7695 65.2768 0.0000 25.6099 0.0000
# 4 0.0000 0.0000 0.0000 32.4763 0.0000 -2.9531
# 5 14.6994 13.5710 25.6099 0.0000 22.2313 0.0000
# 6 0.0000 0.0000 0.0000 -2.9531 0.0000 38.0504
#
#
#
# Elastic Compliance Matrix: (Units=1/GPa)
#
#
# Indices 1 2 3 4 5 6 
#
# 1 0.011287 -0.004093 -0.003962 0.000000 -0.000401 0.000000
# 2 -0.004093 0.013055 -0.004429 0.000000 -0.000161 0.000000
# 3 -0.003962 -0.004429 0.032317 0.000000 -0.031905 0.000000
# 4 0.000000 0.000000 0.000000 0.031011 0.000000 0.002407
# 5 -0.000401 -0.000161 -0.031905 0.000000 0.082098 0.000000
# 6 0.000000 0.000000 0.000000 0.002407 0.000000 0.026468
#
#
# Mechanical properties :
#
#
# Convention : Reuss Voigt Hill
#
# Bulk Modulus (GPa) = 31.55436 58.75297 45.15367
# Shear Modulus (GPa) = 21.57340 29.83454 25.70397
#
# Velocity S-wave (km/s) = 3.24857 3.82026 3.54595
# Velocity P-wave (km/s) = 5.43200 6.94260 6.23323
#
# Compressibility (1/GPa) = 0.03169134
#
# Stress axis : x y z
#
# Youngs Moduli (GPa) = 88.59588 76.60001 30.94358
#
# Poissons Ratio (x) = 0.31349 0.12259
# Poissons Ratio (y) = 0.36258 0.13706
# Poissons Ratio (z) = 0.35100 0.33929
#
# Static dielectric constant tensor:
#      x y z
#    x 3.708740 0.000000 0.133280 
#    y 0.000000 3.713880 0.000000 
#    z 0.133280 0.000000 3.416130 
# 
# 
# High freq. dielectric constant tensor:
#      x y z
#    x 1.805480 0.000000 0.005670 
#    y 0.000000 1.804450 0.000000 
#    z 0.005670 0.000000 1.786160 
# 
# From -- ./inp_files/295671.got.cif
#   From: 2010.06.25/outbox.ucp.g09.slc.cvg/sg12_148_cif.got.tgz:295671.got - 2010.06.28 13:50:54.
