data_PCOD8116831
_publ_section_title
;
Structure prediction by ZEFSAII (Michael W. Deem and Ramdas Pophale) SiO2 
 PCOD8116831
Probable space group: P 2/C
;
_chemical_formula_sum "Si O2"
_cell_formula_units_Z 32
_cell_length_a 22.112340
_cell_length_b 8.558203
_cell_length_c 19.962447
_cell_angle_alpha 90.000000
_cell_angle_beta 151.356655
_cell_angle_gamma 90.000000
_cell_volume 1810.877882
_symmetry_space_group_name_H-M "P 2/C"
_symmetry_group_IT_number 13
_symmetry_cell_setting 'monoclinic'
loop_
_space_group_symop_operation_xyz
x,y,z
-x,y,1/2-z
-x,-y,-z
x,-y,1/2+z
loop_
_atom_site_type_symbol
_atom_site_label
_atom_site_fract_x
_atom_site_fract_y
_atom_site_fract_z
Si Si1 0.327454 0.738710 0.383993
Si Si2 0.541948 0.445457 0.944300
Si Si3 0.636146 0.264619 0.912249
Si Si4 0.309200 0.755729 0.812790
Si Si5 0.606120 0.051199 0.674606
Si Si6 0.143533 0.474751 0.621656
Si Si7 0.720676 0.321150 0.855054
Si Si8 0.680271 0.038851 0.059950
O O1 0.432257 0.628128 0.519288
O O2 0.394415 0.857383 0.396966
O O3 0.211647 0.639213 0.241722
O O4 0.278409 0.857122 0.395085
O O5 0.622524 0.391541 0.958031
O O6 0.420520 0.647120 0.951577
O O7 0.393743 0.420493 0.789431
O O8 0.500000 0.219967 0.750000
O O9 0.724279 0.335921 0.939045
O O10 0.704434 0.109889 0.009288
O O11 0.202448 0.646723 0.677812
O O12 0.357390 0.870558 0.800587
O O13 0.247809 0.859868 0.813053
O O14 0.704449 0.138012 0.819971
O O15 0.469342 0.067578 0.573817
O O16 0.155348 0.395184 0.559155
O O17 0.000000 0.500000 0.500000
#
# Coordination Sequence:
#
# PCOD8116831 Si02
#       8
#     4   4   4   4   4   4   4   4
#     4   9  19  29  48  74 100 126 166 203 250 296
#     4   9  17  28  48  74 101 130 156 200 243 306
#     4   9  16  32  44  70 106 134 155 189 247 316
#     4   9  17  29  49  73  98 124 159 201 252 297
#     4  10  17  26  46  77 103 124 155 192 257 305
#     4  10  22  35  49  72 100 133 172 216 254 286
#     4  10  19  30  50  69 104 138 160 199 247 304
#     4  10  17  28  49  75 105 126 155 198 247 314
#
# _framework density 17.670987
#
# number of rings (size 3 to 8) (size 9 to 14) (size 15 to 20)
#    0.000    2.500    3.750    1.500    5.250    1.500 
#    0.000    8.750    0.000    6.750    0.000    3.500 
#    0.000    0.000    0.000    0.000    0.000    0.000 
#
# Total GULP energy -396557.916863 kJ/mol
# GULP energy per Si atom -12392.434902 kJ/mol
# Density = 1.763077 g / cm^3
# Si number density = 17.670987 Si / 1000 Ang^3
#
#
#
# Elastic Constant Matrix: (Units=GPa)
#
#
# Indices 1 2 3 4 5 6 
#
# 1 99.3929 33.3802 31.1813 0.0000 -0.9890 0.0000
# 2 33.3802 117.0927 23.8917 0.0000 -0.6876 0.0000
# 3 31.1813 23.8917 32.6977 0.0000 3.5133 0.0000
# 4 0.0000 0.0000 0.0000 16.5183 0.0000 -4.2140
# 5 -0.9890 -0.6876 3.5133 0.0000 20.4882 0.0000
# 6 0.0000 0.0000 0.0000 -4.2140 0.0000 21.5942
#
#
#
# Elastic Compliance Matrix: (Units=1/GPa)
#
#
# Indices 1 2 3 4 5 6 
#
# 1 0.014764 -0.001474 -0.013319 0.000000 0.002947 0.000000
# 2 -0.001474 0.010237 -0.006218 0.000000 0.001339 0.000000
# 3 -0.013319 -0.006218 0.048819 0.000000 -0.009223 0.000000
# 4 0.000000 0.000000 0.000000 0.063711 0.000000 0.012433
# 5 0.002947 0.001339 -0.009223 0.000000 0.050577 0.000000
# 6 0.000000 0.000000 0.000000 0.012433 0.000000 0.048735
#
#
# Mechanical properties :
#
#
# Convention : Reuss Voigt Hill
#
# Bulk Modulus (GPa) = 31.44886 47.34331 39.39609
# Shear Modulus (GPa) = 17.27334 22.43550 19.85442
#
# Velocity S-wave (km/s) = 3.12989 3.56704 3.35559
# Velocity P-wave (km/s) = 5.55852 6.61927 6.11195
#
# Compressibility (1/GPa) = 0.03179765
#
# Stress axis : x y z
#
# Youngs Moduli (GPa) = 67.73360 97.68419 20.48391
#
# Poissons Ratio (x) = 0.14398 0.27282
# Poissons Ratio (y) = 0.09983 0.12738
# Poissons Ratio (z) = 0.90212 0.60744
#
# Static dielectric constant tensor:
#      x y z
#    x 3.286140 0.000000 -0.306950 
#    y 0.000000 3.750500 0.000000 
#    z -0.306950 0.000000 2.896570 
# 
# 
# High freq. dielectric constant tensor:
#      x y z
#    x 1.659420 0.000000 -0.022790 
#    y 0.000000 1.698690 0.000000 
#    z -0.022790 0.000000 1.628030 
# 
# From -- ./inp_files/82087.got.cif
#   From: 2010.06.25/outbox.cif.g09.slc.cpg/sg13_42_cif.got.tgz:82087.got - 2010.06.28 04:50:58.
