data_PCOD8116486
_publ_section_title
;
Structure prediction by ZEFSAII (Michael W. Deem and Ramdas Pophale) SiO2 
 PCOD8116486
Probable space group: C 2/M
;
_chemical_formula_sum "Si O2"
_cell_formula_units_Z 32
_cell_length_a 30.000000
_cell_length_b 9.000000
_cell_length_c 24.000000
_cell_angle_alpha 90.000000
_cell_angle_beta 30.000000
_cell_angle_gamma 90.000000
_cell_volume 3240.000000
_symmetry_space_group_name_H-M "C 2/M"
_symmetry_group_IT_number 12
_symmetry_cell_setting 'monoclinic'
loop_
_space_group_symop_operation_xyz
x,y,z
-x,y,-z
-x,-y,-z
x,-y,z
1/2+x,1/2+y,z
1/2-x,1/2+y,-z
1/2-x,1/2-y,-z
1/2+x,1/2-y,z
loop_
_atom_site_type_symbol
_atom_site_label
_atom_site_fract_x
_atom_site_fract_y
_atom_site_fract_z
Si Si1 0.492634 0.834024 0.771806
Si Si2 0.270366 0.662795 0.713861
Si Si3 0.173606 0.825105 0.548805
Si Si4 0.551531 0.161151 0.304034
Si Si5 0.651155 0.168494 0.465531
Si Si6 0.202950 0.832014 0.188916
Si Si7 0.123649 0.173263 0.015177
Si Si8 0.924845 0.333361 0.042013
O O1 0.585720 0.755085 0.663952
O O2 0.440495 0.843783 0.770659
O O3 0.437052 0.729222 0.870497
O O4 0.506026 0.000000 0.782020
O O5 0.305949 0.500000 0.655925
O O6 0.303402 0.799791 0.642059
O O7 0.305408 0.698333 0.737057
O O8 0.164395 0.662317 0.825633
O O9 0.250000 0.750000 0.500000
O O10 0.191190 0.786933 0.465349
O O11 0.168954 0.000000 0.563756
O O12 0.452590 0.195410 0.430971
O O13 0.608637 0.296951 0.264410
O O14 0.582664 0.000000 0.294042
O O15 0.670343 0.000000 0.464681
O O16 0.231508 0.000000 0.145790
O O17 0.276977 0.729272 0.081027
O O18 0.124599 0.000000 0.014119
O O19 0.083183 0.227871 0.001495
O O20 0.949932 0.500000 0.994661
O O21 0.000000 0.264704 0.000000
#
# Coordination Sequence:
#
# PCOD8116486 Si02
#       8
#     8   8   8   8   8   8   8   8
#     4  10  21  39  59  81 112 146 182 225 272 324
#     4   9  19  35  54  79 108 142 184 226 272 324
#     4  11  22  38  59  83 112 145 183 226 272 323
#     4   9  20  37  56  79 107 141 181 224 272 326
#     4  10  21  37  56  80 111 146 182 224 274 325
#     4  10  21  37  57  80 109 144 182 226 275 326
#     4  11  22  36  56  82 112 145 183 226 271 323
#     4   9  19  37  58  79 108 145 183 225 274 325
#
# _framework density 9.8765429999999999
#
# number of rings (size 3 to 8) (size 9 to 14) (size 15 to 20)
#    0.000    2.125    0.000    4.875    0.000    7.750 
#    0.000    6.250    0.000    0.000    0.000    0.000 
#    0.000    0.000    0.000    0.000    0.000    0.000 
#
# Total GULP energy -396694.432759 kJ/mol
# GULP energy per Si atom -12396.701024 kJ/mol
# Density = 0.985406 g / cm^3
# Si number density = 9.876543 Si / 1000 Ang^3
#
#
#
# Elastic Constant Matrix: (Units=GPa)
#
#
# Indices 1 2 3 4 5 6 
#
# 1 68.8128 67.5516 67.8672 -0.0128 -21.6780 0.0133
# 2 67.5516 195.3669 86.1882 0.0564 13.2101 -0.0226
# 3 67.8672 86.1882 73.1072 0.0243 23.5251 -0.0181
# 4 -0.0128 0.0564 0.0243 32.8396 -0.0015 2.9979
# 5 -21.6780 13.2101 23.5251 -0.0015 15.9237 -0.0045
# 6 0.0133 -0.0226 -0.0181 2.9979 -0.0045 23.1878
#
#
#
# Elastic Compliance Matrix: (Units=1/GPa)
#
#
# Indices 1 2 3 4 5 6 
#
# 1 -0.002992 -0.003849 0.014483 -0.000007 -0.022277 0.000006
# 2 -0.003849 0.009647 -0.006746 -0.000014 -0.003276 0.000008
# 3 0.014483 -0.006746 0.000078 0.000019 0.025198 -0.000012
# 4 -0.000007 -0.000014 0.000019 0.030815 -0.000025 -0.003984
# 5 -0.022277 -0.003276 0.025198 -0.000025 -0.002036 0.000032
# 6 0.000006 0.000008 -0.000012 -0.003984 0.000032 0.043641
#
#
# Mechanical properties :
#
#
# Convention : Reuss Voigt Hill
#
# Bulk Modulus (GPa) = 68.91669 86.72233 77.81951
# Shear Modulus (GPa) = 65.60519 22.10219 43.85369
#
# Velocity S-wave (km/s) = 5.76929 3.34866 4.71690
# Velocity P-wave (km/s) = 8.90755 7.67788 8.31548
#
# Compressibility (1/GPa) = 0.01451027
#
# Stress axis : x y z
#
# Youngs Moduli (GPa) = -334.24643 103.65949 12740.56434
#
# Poissons Ratio (x) = 0.39895 -184.52338
# Poissons Ratio (y) = -1.28638 85.95065
# Poissons Ratio (z) = 4.84094 0.69931
#
# Static dielectric constant tensor:
#      x y z
#    x 3.434280 -0.000010 0.016920 
#    y -0.000010 3.623860 0.000040 
#    z 0.016920 0.000040 3.422490 
# 
# 
# High freq. dielectric constant tensor:
#      x y z
#    x 1.750720 0.000000 -0.002750 
#    y 0.000000 1.772350 0.000000 
#    z -0.002750 0.000000 1.751810 
# 
# From -- ./inp_files/353372.got.cif
#   From: 2010.06.25/outbox.ucp.g09.slc.cvg/sg12_177_cif.got.tgz:353372.got - 2010.06.28 13:50:54.
