data_PCOD8116854
_publ_section_title
;
Structure prediction by ZEFSAII (Michael W. Deem and Ramdas Pophale) SiO2 
 PCOD8116854
Probable space group: P 2/C
;
_chemical_formula_sum "Si O2"
_cell_formula_units_Z 28
_cell_length_a 14.429122
_cell_length_b 13.817578
_cell_length_c 9.804918
_cell_angle_alpha 90.000000
_cell_angle_beta 125.281019
_cell_angle_gamma 90.000000
_cell_volume 1595.809367
_symmetry_space_group_name_H-M "P 2/C"
_symmetry_group_IT_number 13
_symmetry_cell_setting 'monoclinic'
loop_
_space_group_symop_operation_xyz
x,y,z
-x,y,1/2-z
-x,-y,-z
x,-y,1/2+z
loop_
_atom_site_type_symbol
_atom_site_label
_atom_site_fract_x
_atom_site_fract_y
_atom_site_fract_z
Si Si1 0.299220 0.272577 0.056295
Si Si2 0.415660 0.834929 0.290858
Si Si3 0.596543 0.564499 0.716001
Si Si4 0.240720 0.019067 0.701907
Si Si5 0.404428 0.639167 0.380500
Si Si6 0.442909 0.115824 0.327483
Si Si7 0.868280 0.897952 0.118789
O O1 0.295517 0.370069 0.146026
O O2 0.397577 0.210637 0.211393
O O3 0.328579 0.310198 0.931491
O O4 0.185419 0.208279 0.953089
O O5 0.500000 0.877393 0.250000
O O6 0.292567 0.885502 0.173348
O O7 0.405330 0.719209 0.261295
O O8 0.462951 0.856252 0.482698
O O9 0.500000 0.553040 0.750000
O O10 0.533698 0.614378 0.534360
O O11 0.650060 0.460498 0.721594
O O12 0.183883 0.048004 0.795400
O O13 0.345318 0.945789 0.818349
O O14 0.149726 0.967875 0.526304
O O15 0.500000 0.055037 0.250000
O O16 0.000000 0.879703 0.250000
#
# Coordination Sequence:
#
# PCOD8116854 Si02
#       7
#     4   4   4   4   4   4   4
#     4  10  18  35  55  73 104 149 183 214 260 316
#     4  12  20  29  47  82 118 143 169 210 259 325
#     4   9  17  29  49  78 109 143 170 202 252 318
#     4  11  22  35  53  81 106 142 177 224 269 315
#     4  10  17  29  49  77 112 140 170 204 250 319
#     4  11  18  33  51  74 115 154 174 199 255 333
#     4  11  23  40  59  76  99 140 191 236 272 306
#
# _framework density 17.545954999999999
#
# number of rings (size 3 to 8) (size 9 to 14) (size 15 to 20)
#    0.000    1.429    4.286    3.857    0.000    0.000 
#    0.000    0.000    0.000    0.857    0.000    0.000 
#    0.000    0.000    0.000    0.000    0.000    0.000 
#
# Total GULP energy -346947.915203 kJ/mol
# GULP energy per Si atom -12390.996972 kJ/mol
# Density = 1.750602 g / cm^3
# Si number density = 17.545955 Si / 1000 Ang^3
#
#
#
# Elastic Constant Matrix: (Units=GPa)
#
#
# Indices 1 2 3 4 5 6 
#
# 1 65.7580 36.8018 31.4340 0.0000 5.2984 0.0000
# 2 36.8018 137.7019 45.6032 0.0000 7.2709 0.0000
# 3 31.4340 45.6032 70.8697 0.0000 6.2196 0.0000
# 4 0.0000 0.0000 0.0000 25.8806 0.0000 -3.6947
# 5 5.2984 7.2709 6.2196 0.0000 30.1380 0.0000
# 6 0.0000 0.0000 0.0000 -3.6947 0.0000 18.1400
#
#
#
# Elastic Compliance Matrix: (Units=1/GPa)
#
#
# Indices 1 2 3 4 5 6 
#
# 1 0.020350 -0.003070 -0.006927 0.000000 -0.001407 0.000000
# 2 -0.003070 0.009723 -0.004823 0.000000 -0.000810 0.000000
# 3 -0.006927 -0.004823 0.020448 0.000000 -0.001838 0.000000
# 4 0.000000 0.000000 0.000000 0.039796 0.000000 0.008106
# 5 -0.001407 -0.000810 -0.001838 0.000000 0.034003 0.000000
# 6 0.000000 0.000000 0.000000 0.008106 0.000000 0.056778
#
#
# Mechanical properties :
#
#
# Convention : Reuss Voigt Hill
#
# Bulk Modulus (GPa) = 47.89421 55.77864 51.83642
# Shear Modulus (GPa) = 22.96740 25.53108 24.24924
#
# Velocity S-wave (km/s) = 3.62192 3.81871 3.72162
# Velocity P-wave (km/s) = 6.69677 7.16257 6.93358
#
# Compressibility (1/GPa) = 0.02087935
#
# Stress axis : x y z
#
# Youngs Moduli (GPa) = 49.13915 102.85057 48.90453
#
# Poissons Ratio (x) = 0.31579 0.33877
# Poissons Ratio (y) = 0.15088 0.23589
# Poissons Ratio (z) = 0.34039 0.49610
#
# Static dielectric constant tensor:
#      x y z
#    x 2.933420 0.000000 -0.210300 
#    y 0.000000 3.660780 0.000000 
#    z -0.210300 0.000000 3.338330 
# 
# 
# High freq. dielectric constant tensor:
#      x y z
#    x 1.634280 0.000000 -0.029030 
#    y 0.000000 1.697010 0.000000 
#    z -0.029030 0.000000 1.669290 
# 
# From -- ./inp_files/19446.got.cif
#   From: 2010.06.25/outbox.cif.g09.slc.cpg/sg13_10_cif.got.tgz:19446.got - 2010.06.28 04:50:58.
