data_PCOD8116502
_publ_section_title
;
Structure prediction by ZEFSAII (Michael W. Deem and Ramdas Pophale) SiO2 
 PCOD8116502
Probable space group: C 2/M
;
_chemical_formula_sum "Si O2"
_cell_formula_units_Z 28
_cell_length_a 21.000000
_cell_length_b 21.000000
_cell_length_c 18.000000
_cell_angle_alpha 90.000000
_cell_angle_beta 20.000000
_cell_angle_gamma 90.000000
_cell_volume 2714.955898
_symmetry_space_group_name_H-M "C 2/M"
_symmetry_group_IT_number 12
_symmetry_cell_setting 'monoclinic'
loop_
_space_group_symop_operation_xyz
x,y,z
-x,y,-z
-x,-y,-z
x,-y,z
1/2+x,1/2+y,z
1/2-x,1/2+y,-z
1/2-x,1/2-y,-z
1/2+x,1/2-y,z
loop_
_atom_site_type_symbol
_atom_site_label
_atom_site_fract_x
_atom_site_fract_y
_atom_site_fract_z
Si Si1 0.154793 0.833284 0.927859
Si Si2 0.230334 0.338230 0.365627
Si Si3 0.880866 0.749309 0.784541
Si Si4 0.410170 0.925324 0.734258
Si Si5 0.366665 0.928457 0.945711
Si Si6 0.989933 0.880739 0.598373
Si Si7 0.106015 0.574872 0.812927
O O1 0.212402 0.819962 0.780215
O O2 0.238483 0.772487 0.877160
O O3 0.259496 0.896105 0.842930
O O4 0.930517 0.839585 0.188773
O O5 0.074079 0.291635 0.574096
O O6 0.125187 0.406648 0.480202
O O7 0.947020 0.819378 0.693686
O O8 0.750000 0.750000 0.000000
O O9 0.359734 0.896470 0.871711
O O10 0.387919 0.000000 0.751459
O O11 0.519837 0.895048 0.831603
O O12 0.430790 0.000000 0.859185
O O13 0.172476 0.930095 0.203384
O O14 0.000000 0.866634 0.500000
O O15 0.178154 0.911173 0.421400
O O16 0.066603 0.500000 0.855257
O O17 0.000000 0.605595 0.000000
#
# Coordination Sequence:
#
# PCOD8116502 Si02
#       7
#     8   8   8   8   8   8   8
#     4  10  22  42  64  86 120 159 199 246 307 360
#     4  10  22  42  64  87 118 163 197 246 309 361
#     4  11  24  41  60  86 120 156 199 253 305 358
#     4  10  21  38  62  92 124 154 197 248 297 364
#     4  10  22  38  56  85 123 160 193 239 301 354
#     4  12  22  35  61  89 111 153 207 250 287 351
#     4  10  21  38  57  84 123 159 193 242 298 351
#
# _framework density 10.313243
#
# number of rings (size 3 to 8) (size 9 to 14) (size 15 to 20)
#    0.000    1.571    1.429    4.714    0.000    6.286 
#    2.571    4.286    0.000    0.000    0.000    0.000 
#    0.000    0.000    0.000    0.000    0.000    0.000 
#
# Total GULP energy -346946.981315 kJ/mol
# GULP energy per Si atom -12390.963618 kJ/mol
# Density = 1.028977 g / cm^3
# Si number density = 10.313243 Si / 1000 Ang^3
#
#
#
# Elastic Constant Matrix: (Units=GPa)
#
#
# Indices 1 2 3 4 5 6 
#
# 1 78.9409 5.7147 44.9128 -0.2519 -8.8608 0.0913
# 2 5.7147 39.2269 2.6122 0.0635 0.7737 -0.0336
# 3 44.9128 2.6122 157.7894 -0.2348 -14.1854 0.0965
# 4 -0.2519 0.0635 -0.2348 53.7542 0.1502 -3.8987
# 5 -8.8608 0.7737 -14.1854 0.1502 52.8162 -0.0670
# 6 0.0913 -0.0336 0.0965 -3.8987 -0.0670 20.3637
#
#
#
# Elastic Compliance Matrix: (Units=1/GPa)
#
#
# Indices 1 2 3 4 5 6 
#
# 1 0.015373 -0.001988 -0.004210 0.000049 0.001477 -0.000038
# 2 -0.001988 0.025791 0.000077 -0.000034 -0.000691 0.000042
# 3 -0.004210 0.000077 0.007656 0.000009 0.001349 -0.000011
# 4 0.000049 -0.000034 0.000009 0.018866 -0.000038 0.003611
# 5 0.001477 -0.000691 0.001349 -0.000038 0.019554 0.000043
# 6 -0.000038 0.000042 -0.000011 0.003611 0.000043 0.049799
#
#
# Mechanical properties :
#
#
# Convention : Reuss Voigt Hill
#
# Bulk Modulus (GPa) = 27.33976 42.49295 34.91635
# Shear Modulus (GPa) = 30.96490 40.23466 35.59978
#
# Velocity S-wave (km/s) = 3.87876 4.42139 4.15893
# Velocity P-wave (km/s) = 5.77436 6.83453 6.32669
#
# Compressibility (1/GPa) = 0.03657677
#
# Stress axis : x y z
#
# Youngs Moduli (GPa) = 65.04984 38.77320 130.61912
#
# Poissons Ratio (x) = 0.07710 0.54989
# Poissons Ratio (y) = 0.12935 -0.01004
# Poissons Ratio (z) = 0.27385 -0.00298
#
# Static dielectric constant tensor:
#      x y z
#    x 4.021580 -0.000310 0.084560 
#    y -0.000310 3.540360 -0.000240 
#    z 0.084560 -0.000240 4.226250 
# 
# 
# High freq. dielectric constant tensor:
#      x y z
#    x 1.815580 -0.000020 0.002940 
#    y -0.000020 1.790760 0.000030 
#    z 0.002940 0.000030 1.829760 
# 
# From -- ./inp_files/285987.got.cif
#   From: 2010.06.25/outbox.ucp.g09.slc.cvg/sg12_143_cif.got.tgz:285987.got - 2010.06.28 13:50:54.
