data_PCOD8116148
_publ_section_title
;
Structure prediction by ZEFSAII (Michael W. Deem and Ramdas Pophale) SiO2 
 PCOD8116148
Probable space group: C 2/M
;
_chemical_formula_sum "Si O2"
_cell_formula_units_Z 56
_cell_length_a 17.071855
_cell_length_b 24.029601
_cell_length_c 9.611895
_cell_angle_alpha 90.000000
_cell_angle_beta 55.734646
_cell_angle_gamma 90.000000
_cell_volume 3258.719970
_symmetry_space_group_name_H-M "C 2/M"
_symmetry_group_IT_number 12
_symmetry_cell_setting 'monoclinic'
loop_
_space_group_symop_operation_xyz
x,y,z
-x,y,-z
-x,-y,-z
x,-y,z
1/2+x,1/2+y,z
1/2-x,1/2+y,-z
1/2-x,1/2-y,-z
1/2+x,1/2-y,z
loop_
_atom_site_type_symbol
_atom_site_label
_atom_site_fract_x
_atom_site_fract_y
_atom_site_fract_z
Si Si1 0.825019 0.936845 0.834257
Si Si2 1.000000 0.934250 0.155633
Si Si3 0.107200 0.252292 0.553766
Si Si4 0.224605 0.671323 0.933862
Si Si5 0.325019 0.436845 0.515706
Si Si6 0.392800 0.752292 0.768166
Si Si7 0.775395 0.328677 0.383073
O O1 0.907666 0.915306 0.852488
O O2 0.736750 0.895051 0.944741
O O3 0.861874 0.932869 0.638126
O O4 0.792588 0.000000 0.901395
O O5 0.907666 0.915306 0.332180
O O6 0.000000 0.000000 0.145638
O O7 0.000000 0.908088 0.000000
O O8 0.112640 0.268327 0.387360
O O9 0.140206 0.306911 0.604808
O O10 0.175361 0.200661 0.521988
O O11 0.000000 0.236276 0.704379
O O12 0.324639 0.700661 0.872710
O O13 0.197004 0.684892 0.802996
O O14 0.140206 0.693089 0.114779
O O15 0.292588 0.500000 0.513429
O O16 0.236750 0.395051 0.581758
#
# Coordination Sequence:
#
# PCOD8116148 Si02
#       7
#     8   8   8   8   8   8   8
#     4   9  17  29  46  67  92 123 155 187 228 278
#     4   9  17  27  39  61  93 125 155 185 220 265
#     4   9  18  32  49  68  93 123 153 190 234 275
#     4   9  18  31  49  71  94 120 154 192 229 274
#     4   9  17  29  46  67  92 123 155 187 228 278
#     4   9  18  32  49  68  93 123 153 190 234 275
#     4   9  18  31  49  71  94 120 154 192 229 274
#
# _framework density 17.184663
#
# number of rings (size 3 to 8) (size 9 to 14) (size 15 to 20)
#    0.000    3.000    0.000    0.429    2.000    3.429 
#    0.000    0.000    0.000    0.857    0.000    6.000 
#    0.000    0.000    0.000    0.000    0.000    0.000 
#
# Total GULP energy -347103.261328 kJ/mol
# GULP energy per Si atom -12396.545047 kJ/mol
# Density = 1.714555 g / cm^3
# Si number density = 17.184663 Si / 1000 Ang^3
#
#
#
# Elastic Constant Matrix: (Units=GPa)
#
#
# Indices 1 2 3 4 5 6 
#
# 1 70.3079 22.5549 16.6720 0.0000 2.8585 0.0000
# 2 22.5549 76.6700 25.0011 0.0000 2.8201 0.0000
# 3 16.6720 25.0011 69.1786 0.0000 -4.1601 0.0000
# 4 0.0000 0.0000 0.0000 21.3692 0.0000 0.5592
# 5 2.8585 2.8201 -4.1601 0.0000 19.9661 0.0000
# 6 0.0000 0.0000 0.0000 0.5592 0.0000 20.8841
#
#
#
# Elastic Compliance Matrix: (Units=1/GPa)
#
#
# Indices 1 2 3 4 5 6 
#
# 1 0.016169 -0.003803 -0.002663 0.000000 -0.002333 0.000000
# 2 -0.003803 0.015890 -0.004991 0.000000 -0.002740 0.000000
# 3 -0.002663 -0.004991 0.017181 0.000000 0.004666 0.000000
# 4 0.000000 0.000000 0.000000 0.046829 0.000000 -0.001254
# 5 -0.002333 -0.002740 0.004666 0.000000 0.051778 0.000000
# 6 0.000000 0.000000 0.000000 -0.001254 0.000000 0.047917
#
#
# Mechanical properties :
#
#
# Convention : Reuss Voigt Hill
#
# Bulk Modulus (GPa) = 37.98258 38.29028 38.13643
# Shear Modulus (GPa) = 21.98255 22.57245 22.27750
#
# Velocity S-wave (km/s) = 3.58047 3.62819 3.60441
# Velocity P-wave (km/s) = 6.26447 6.31520 6.28988
#
# Compressibility (1/GPa) = 0.02632786
#
# Stress axis : x y z
#
# Youngs Moduli (GPa) = 61.84555 62.93339 58.20248
#
# Poissons Ratio (x) = 0.23931 0.15498
# Poissons Ratio (y) = 0.23517 0.29048
# Poissons Ratio (z) = 0.16468 0.31409
#
# Static dielectric constant tensor:
#      x y z
#    x 3.092630 0.000000 0.183830 
#    y 0.000000 3.194200 0.000000 
#    z 0.183830 0.000000 3.252080 
# 
# 
# High freq. dielectric constant tensor:
#      x y z
#    x 1.639290 0.000000 0.017640 
#    y 0.000000 1.654800 0.000000 
#    z 0.017640 0.000000 1.654590 
# 
# From -- ./inp_files/66835.got.cif
#   From: 2010.06.25/outbox.cif.g09.slc.cpg/sg12_34_cif.got.tgz:66835.got - 2010.06.28 00:19:55.
