data_PCOD8116780
_publ_section_title
;
Structure prediction by ZEFSAII (Michael W. Deem and Ramdas Pophale) SiO2 
 PCOD8116780
Probable space group: P 2/C
;
_chemical_formula_sum "Si O2"
_cell_formula_units_Z 28
_cell_length_a 25.885204
_cell_length_b 8.717259
_cell_length_c 20.937728
_cell_angle_alpha 90.000000
_cell_angle_beta 18.162627
_cell_angle_gamma 90.000000
_cell_volume 1472.716250
_symmetry_space_group_name_H-M "P 2/C"
_symmetry_group_IT_number 13
_symmetry_cell_setting 'monoclinic'
loop_
_space_group_symop_operation_xyz
x,y,z
-x,y,1/2-z
-x,-y,-z
x,-y,1/2+z
loop_
_atom_site_type_symbol
_atom_site_label
_atom_site_fract_x
_atom_site_fract_y
_atom_site_fract_z
Si Si1 0.518592 0.458347 0.652789
Si Si2 0.650698 0.374496 0.258693
Si Si3 0.000000 0.007148 0.750000
Si Si4 0.738688 0.764178 0.092500
Si Si5 0.000000 0.481307 0.250000
Si Si6 0.665392 0.695705 0.310596
Si Si7 0.149550 0.408503 0.791655
Si Si8 0.989370 0.269787 0.667867
O O1 0.500000 0.491420 0.750000
O O2 0.416005 0.584757 0.733728
O O3 0.437347 0.288398 0.732976
O O4 0.710353 0.474498 0.402520
O O5 0.680019 0.523443 0.267005
O O6 0.520214 0.266712 0.448920
O O7 0.813026 0.274690 0.062642
O O8 0.951704 0.106509 0.744573
O O9 0.167695 0.905937 0.549434
O O10 0.714081 0.809862 0.195897
O O11 0.857288 0.615908 0.950741
O O12 0.915457 0.588734 0.295734
O O13 0.783217 0.706698 0.233355
O O14 0.085589 0.287719 0.814131
O O15 0.000000 0.500000 0.000000
#
# Coordination Sequence:
#
# PCOD8116780 Si02
#       8
#     4   4   2   4   2   4   4   4
#     4  10  20  33  60  93 116 152 201 261 305 348
#     4   9  17  32  56  87 119 144 192 253 309 355
#     4  10  26  38  60  84 124 172 198 240 296 378
#     4  10  19  38  58  79 117 164 209 235 293 372
#     4  10  16  30  58  82 102 154 200 256 286 344
#     4   9  17  32  56  84 111 152 193 250 298 349
#     4  11  20  31  57 100 122 142 198 270 316 345
#     4  11  20  35  58  92 120 152 195 254 309 358
#
# _framework density 19.012488000000001
#
# number of rings (size 3 to 8) (size 9 to 14) (size 15 to 20)
#    0.000    2.000    4.286    1.714    2.000    1.143 
#    0.000    1.429    6.286    0.000    0.000    0.000 
#    0.000    0.000    0.000    0.000    0.000    0.000 
#
# Total GULP energy -346872.041451 kJ/mol
# GULP energy per Si atom -12388.287195 kJ/mol
# Density = 1.896921 g / cm^3
# Si number density = 19.012488 Si / 1000 Ang^3
#
#
#
# Elastic Constant Matrix: (Units=GPa)
#
#
# Indices 1 2 3 4 5 6 
#
# 1 155.7659 36.8404 62.9953 0.0000 8.0788 0.0000
# 2 36.8404 75.1930 43.9452 0.0000 3.7275 0.0000
# 3 62.9953 43.9452 130.1251 0.0000 8.3613 0.0000
# 4 0.0000 0.0000 0.0000 22.5226 0.0000 3.6135
# 5 8.0788 3.7275 8.3613 0.0000 28.3893 0.0000
# 6 0.0000 0.0000 0.0000 3.6135 0.0000 20.0086
#
#
#
# Elastic Compliance Matrix: (Units=1/GPa)
#
#
# Indices 1 2 3 4 5 6 
#
# 1 0.008283 -0.002119 -0.003221 0.000000 -0.001130 0.000000
# 2 -0.002119 0.017120 -0.004740 0.000000 -0.000249 0.000000
# 3 -0.003221 -0.004740 0.010953 0.000000 -0.001687 0.000000
# 4 0.000000 0.000000 0.000000 0.045725 0.000000 -0.008258
# 5 -0.001130 -0.000249 -0.001687 0.000000 0.036076 0.000000
# 6 0.000000 0.000000 0.000000 -0.008258 0.000000 0.051470
#
#
# Mechanical properties :
#
#
# Convention : Reuss Voigt Hill
#
# Bulk Modulus (GPa) = 61.74679 72.07176 66.90927
# Shear Modulus (GPa) = 25.61671 28.67095 27.14383
#
# Velocity S-wave (km/s) = 3.67463 3.88752 3.78257
# Velocity P-wave (km/s) = 7.10994 7.62498 7.37196
#
# Compressibility (1/GPa) = 0.01619517
#
# Stress axis : x y z
#
# Youngs Moduli (GPa) = 120.73610 58.41190 91.29529
#
# Poissons Ratio (x) = 0.12379 0.29409
# Poissons Ratio (y) = 0.25588 0.43271
# Poissons Ratio (z) = 0.38893 0.27685
#
# Static dielectric constant tensor:
#      x y z
#    x 3.775430 0.000000 0.190070 
#    y 0.000000 2.972490 0.000000 
#    z 0.190070 0.000000 3.961830 
# 
# 
# High freq. dielectric constant tensor:
#      x y z
#    x 1.750370 0.000000 0.018110 
#    y 0.000000 1.677800 0.000000 
#    z 0.018110 0.000000 1.759520 
# 
# From -- ./inp_files/75375.got.cif
#   From: 2010.06.25/outbox.cif.g09.slc.cpg/sg13_38_cif.got.tgz:75375.got - 2010.06.28 04:50:58.
