data_PCOD8116474
_publ_section_title
;
Structure prediction by ZEFSAII (Michael W. Deem and Ramdas Pophale) SiO2 
 PCOD8116474
Probable space group: C 2/M
;
_chemical_formula_sum "Si O2"
_cell_formula_units_Z 32
_cell_length_a 24.000000
_cell_length_b 9.000000
_cell_length_c 30.000000
_cell_angle_alpha 90.000000
_cell_angle_beta 30.000000
_cell_angle_gamma 90.000000
_cell_volume 3240.000000
_symmetry_space_group_name_H-M "C 2/M"
_symmetry_group_IT_number 12
_symmetry_cell_setting 'monoclinic'
loop_
_space_group_symop_operation_xyz
x,y,z
-x,y,-z
-x,-y,-z
x,-y,z
1/2+x,1/2+y,z
1/2-x,1/2+y,-z
1/2-x,1/2-y,-z
1/2+x,1/2-y,z
loop_
_atom_site_type_symbol
_atom_site_label
_atom_site_fract_x
_atom_site_fract_y
_atom_site_fract_z
Si Si1 0.361858 0.831145 0.305935
Si Si2 0.868401 0.177381 0.083061
Si Si3 0.391127 0.829464 0.884431
Si Si4 0.778621 0.676062 0.054339
Si Si5 0.974611 0.669378 0.437435
Si Si6 0.318186 0.322248 0.724761
Si Si7 0.741259 0.664008 0.550342
Si Si8 0.146024 0.826073 0.402287
O O1 0.478047 0.804893 0.201231
O O2 0.359102 0.732375 0.351805
O O3 0.263833 0.780662 0.341487
O O4 0.345888 0.000000 0.332072
O O5 0.789396 0.248878 0.176460
O O6 0.852396 0.000000 0.094435
O O7 0.828374 0.242438 0.063276
O O8 0.000000 0.217644 0.000000
O O9 0.349916 0.778073 0.961581
O O10 0.358364 0.000000 0.897979
O O11 0.344191 0.734127 0.874908
O O12 0.776986 0.500000 0.064976
O O13 0.013755 0.500000 0.418773
O O14 0.857422 0.674342 0.494795
O O15 0.956492 0.751693 0.498233
O O16 0.062721 0.752816 0.342412
O O17 0.310935 0.500000 0.736430
O O18 0.331905 0.271895 0.663505
O O19 0.704854 0.500000 0.563791
O O20 0.750000 0.750000 0.500000
O O21 0.121881 0.000000 0.420902
#
# Coordination Sequence:
#
# PCOD8116474 Si02
#       8
#     8   8   8   8   8   8   8   8
#     4   9  18  34  56  82 112 148 186 230 284 341
#     4  11  26  45  62  85 119 158 199 246 302 360
#     4   9  19  36  61  89 118 153 192 239 297 350
#     4  10  21  38  62  88 117 152 195 245 295 349
#     4  10  21  37  57  83 118 153 190 235 287 346
#     4  11  23  38  61  88 114 152 197 240 290 346
#     4  10  21  36  54  79 110 148 186 229 281 336
#     4   9  19  35  57  86 118 150 193 241 285 340
#
# _framework density 9.8765429999999999
#
# number of rings (size 3 to 8) (size 9 to 14) (size 15 to 20)
#    0.000    2.125    0.000    2.250    1.750    7.000 
#    0.000    1.250    0.000    0.000    0.000    0.000 
#    0.000    0.000    0.000    0.000    0.000    0.000 
#
# Total GULP energy -396514.634758 kJ/mol
# GULP energy per Si atom -12391.082336 kJ/mol
# Density = 0.985406 g / cm^3
# Si number density = 9.876543 Si / 1000 Ang^3
#
#
#
# Elastic Constant Matrix: (Units=GPa)
#
#
# Indices 1 2 3 4 5 6 
#
# 1 76.7060 32.9010 40.9807 -0.0067 18.6228 0.0078
# 2 32.9010 103.5794 52.4587 -0.0006 11.2931 -0.0057
# 3 40.9807 52.4587 137.6145 0.0075 3.6516 -0.0097
# 4 -0.0067 -0.0006 0.0075 37.6782 0.0078 4.3252
# 5 18.6228 11.2931 3.6516 0.0078 27.4857 -0.0109
# 6 0.0078 -0.0057 -0.0097 4.3252 -0.0109 29.7431
#
#
#
# Elastic Compliance Matrix: (Units=1/GPa)
#
#
# Indices 1 2 3 4 5 6 
#
# 1 0.019313 -0.002641 -0.004442 0.000008 -0.011410 -0.000012
# 2 -0.002641 0.012861 -0.004038 0.000001 -0.002958 0.000001
# 3 -0.004442 -0.004038 0.010040 -0.000004 0.003335 0.000006
# 4 0.000008 0.000001 -0.000004 0.026991 -0.000015 -0.003925
# 5 -0.011410 -0.002958 0.003335 -0.000015 0.044886 0.000022
# 6 -0.000012 0.000001 0.000006 -0.003925 0.000022 0.034192
#
#
# Mechanical properties :
#
#
# Convention : Reuss Voigt Hill
#
# Bulk Modulus (GPa) = 50.06748 63.39785 56.73267
# Shear Modulus (GPa) = 28.21979 31.75202 29.98590
#
# Velocity S-wave (km/s) = 3.78382 4.01365 3.90043
# Velocity P-wave (km/s) = 6.67019 7.32420 7.00483
#
# Compressibility (1/GPa) = 0.01997304
#
# Stress axis : x y z
#
# Youngs Moduli (GPa) = 51.77939 77.75625 99.60128
#
# Poissons Ratio (x) = 0.20535 0.44240
# Poissons Ratio (y) = 0.13675 0.40215
# Poissons Ratio (z) = 0.22999 0.31395
#
# Static dielectric constant tensor:
#      x y z
#    x 3.580650 -0.000010 -0.075550 
#    y -0.000010 3.799010 0.000040 
#    z -0.075550 0.000040 3.826070 
# 
# 
# High freq. dielectric constant tensor:
#      x y z
#    x 1.772300 -0.000010 -0.004480 
#    y -0.000010 1.777430 0.000000 
#    z -0.004480 0.000000 1.783790 
# 
# From -- ./inp_files/382263.got.cif
#   From: 2010.06.25/outbox.ucp.g09.slc.cvg/sg12_192_cif.got.tgz:382263.got - 2010.06.28 13:50:54.
