data_PCOD8116924
_publ_section_title
;
Structure prediction by ZEFSAII (Michael W. Deem and Ramdas Pophale) SiO2 
 PCOD8116924
Probable space group: P 2/C
;
_chemical_formula_sum "Si O2"
_cell_formula_units_Z 32
_cell_length_a 27.727705
_cell_length_b 10.437549
_cell_length_c 8.840364
_cell_angle_alpha 90.000000
_cell_angle_beta 142.023426
_cell_angle_gamma 90.000000
_cell_volume 1574.335209
_symmetry_space_group_name_H-M "P 2/C"
_symmetry_group_IT_number 13
_symmetry_cell_setting 'monoclinic'
loop_
_space_group_symop_operation_xyz
x,y,z
-x,y,1/2-z
-x,-y,-z
x,-y,1/2+z
loop_
_atom_site_type_symbol
_atom_site_label
_atom_site_fract_x
_atom_site_fract_y
_atom_site_fract_z
Si Si1 0.592129 0.353152 0.493025
Si Si2 0.845529 0.562658 0.259238
Si Si3 0.766109 0.919002 0.079619
Si Si4 0.217073 0.277835 0.137760
Si Si5 0.320732 0.513433 0.033859
Si Si6 0.914201 0.798304 0.588354
Si Si7 0.288950 0.842524 0.242998
Si Si8 0.850644 0.277275 0.223375
O O1 0.632815 0.409566 0.445976
O O2 0.614588 0.442978 0.686719
O O3 0.625089 0.207055 0.591800
O O4 0.500000 0.345272 0.250000
O O5 0.895341 0.650608 0.496946
O O6 0.881540 0.421050 0.332071
O O7 0.846944 0.629252 0.098521
O O8 0.754352 0.557047 0.080810
O O9 0.854573 0.899061 0.362280
O O10 0.708312 0.892565 0.077725
O O11 0.750981 0.826682 0.899956
O O12 0.746944 0.058258 0.967454
O O13 0.292221 0.359424 0.375886
O O14 0.170259 0.214222 0.164546
O O15 0.911066 0.802823 0.766280
O O16 0.000000 0.840393 0.750000
O O17 0.229598 0.720224 0.077188
#
# Coordination Sequence:
#
# PCOD8116924 Si02
#       8
#     4   4   4   4   4   4   4   4
#     4  12  24  38  61  96 130 158 193 256 316 358
#     4  10  18  33  59  85 117 162 205 242 295 370
#     4  10  23  39  65  85 114 160 216 246 298 353
#     4  10  17  32  59  87 108 151 216 244 278 355
#     4  11  20  37  61  87 126 158 206 235 300 378
#     4  10  22  38  56  89 127 157 199 263 314 351
#     4  11  21  40  63  86 114 160 215 249 291 367
#     4  10  18  33  57  84 113 159 202 245 296 366
#
# _framework density 20.326041
#
# number of rings (size 3 to 8) (size 9 to 14) (size 15 to 20)
#    0.000    1.500    3.750    4.875    0.000    0.500 
#    0.000    5.625    0.000    0.750    0.000    0.000 
#    0.000    0.000    0.000    0.000    0.000    0.000 
#
# Total GULP energy -396511.268773 kJ/mol
# GULP energy per Si atom -12390.977149 kJ/mol
# Density = 2.027978 g / cm^3
# Si number density = 20.326041 Si / 1000 Ang^3
#
#
#
# Elastic Constant Matrix: (Units=GPa)
#
#
# Indices 1 2 3 4 5 6 
#
# 1 110.6528 27.9753 38.8453 0.0000 -13.5000 0.0000
# 2 27.9753 75.5924 29.5475 0.0000 -5.7788 0.0000
# 3 38.8453 29.5475 70.7801 0.0000 0.0504 0.0000
# 4 0.0000 0.0000 0.0000 27.3382 0.0000 -9.3962
# 5 -13.5000 -5.7788 0.0504 0.0000 40.0945 0.0000
# 6 0.0000 0.0000 0.0000 -9.3962 0.0000 22.7183
#
#
#
# Elastic Compliance Matrix: (Units=1/GPa)
#
#
# Indices 1 2 3 4 5 6 
#
# 1 0.012015 -0.001887 -0.005809 0.000000 0.003781 0.000000
# 2 -0.001887 0.016317 -0.005777 0.000000 0.001724 0.000000
# 3 -0.005809 -0.005777 0.019730 0.000000 -0.002813 0.000000
# 4 0.000000 0.000000 0.000000 0.042640 0.000000 0.017636
# 5 0.003781 0.001724 -0.002813 0.000000 0.026466 0.000000
# 6 0.000000 0.000000 0.000000 0.017636 0.000000 0.051312
#
#
# Mechanical properties :
#
#
# Convention : Reuss Voigt Hill
#
# Bulk Modulus (GPa) = 47.35800 49.97350 48.66575
# Shear Modulus (GPa) = 24.69561 28.74067 26.71814
#
# Velocity S-wave (km/s) = 3.48943 3.76438 3.62951
# Velocity P-wave (km/s) = 6.29163 6.59798 6.44662
#
# Compressibility (1/GPa) = 0.02111576
#
# Stress axis : x y z
#
# Youngs Moduli (GPa) = 83.23033 61.28519 50.68390
#
# Poissons Ratio (x) = 0.11563 0.29442
# Poissons Ratio (y) = 0.15704 0.29282
# Poissons Ratio (z) = 0.48348 0.35407
#
# Static dielectric constant tensor:
#      x y z
#    x 3.908200 0.000000 -0.364960 
#    y 0.000000 3.699760 0.000000 
#    z -0.364960 0.000000 3.495680 
# 
# 
# High freq. dielectric constant tensor:
#      x y z
#    x 1.794900 0.000000 -0.038350 
#    y 0.000000 1.788150 0.000000 
#    z -0.038350 0.000000 1.767800 
# 
# From -- ./inp_files/24955.got.cif
#   From: 2010.06.25/outbox.cif.g09.slc.cpg/sg13_13_cif.got.tgz:24955.got - 2010.06.28 04:50:58.
