data_PCOD8116216
_publ_section_title
;
Structure prediction by ZEFSAII (Michael W. Deem and Ramdas Pophale) SiO2 
 PCOD8116216
Probable space group: C 2/M
;
_chemical_formula_sum "Si O2"
_cell_formula_units_Z 28
_cell_length_a 30.000000
_cell_length_b 9.000000
_cell_length_c 18.000000
_cell_angle_alpha 90.000000
_cell_angle_beta 40.000000
_cell_angle_gamma 90.000000
_cell_volume 3123.947783
_symmetry_space_group_name_H-M "C 2/M"
_symmetry_group_IT_number 12
_symmetry_cell_setting 'monoclinic'
loop_
_space_group_symop_operation_xyz
x,y,z
-x,y,-z
-x,-y,-z
x,-y,z
1/2+x,1/2+y,z
1/2-x,1/2+y,-z
1/2-x,1/2-y,-z
1/2+x,1/2-y,z
loop_
_atom_site_type_symbol
_atom_site_label
_atom_site_fract_x
_atom_site_fract_y
_atom_site_fract_z
Si Si1 0.057675 0.837792 0.319697
Si Si2 0.890260 0.174515 0.172706
Si Si3 0.365815 0.831064 0.490212
Si Si4 0.903025 0.164065 0.575247
Si Si5 0.740215 0.827334 0.590022
Si Si6 0.029217 0.826381 0.072975
Si Si7 0.982704 0.330525 0.763192
O O1 0.108248 0.796565 0.323514
O O2 0.982310 0.844517 0.450904
O O3 0.064024 0.716864 0.247021
O O4 0.076679 0.000000 0.262491
O O5 0.822499 0.263084 0.282047
O O6 0.954690 0.231671 0.139704
O O7 0.876832 0.000000 0.201031
O O8 0.909166 0.211736 0.063153
O O9 0.371619 0.802744 0.570634
O O10 0.312122 0.704481 0.537614
O O11 0.436419 0.797148 0.355520
O O12 0.340777 0.000000 0.507974
O O13 0.870020 0.000000 0.600983
O O14 0.750000 0.750000 0.500000
O O15 0.727211 0.000000 0.594866
O O16 0.046469 0.755060 0.129128
O O17 0.023167 0.000000 0.090844
O O18 0.969403 0.500000 0.796086
#
# Coordination Sequence:
#
# PCOD8116216 Si02
#       7
#     8   8   8   8   8   8   8
#     4   8  14  25  42  63  91 125 158 192 234 281
#     4   9  19  36  54  72  93 121 158 196 235 282
#     4  10  20  32  46  68  98 131 162 195 236 280
#     4   8  14  26  43  64  90 123 160 195 232 279
#     4  12  24  36  51  71  96 127 160 196 235 277
#     4   9  18  33  53  72  93 123 156 192 237 284
#     4  10  19  28  43  70 100 127 159 197 236 276
#
# _framework density 8.9630179999999999
#
# number of rings (size 3 to 8) (size 9 to 14) (size 15 to 20)
#    0.000    2.571    0.000    4.714    0.000    5.714 
#    0.000    4.286    0.000    0.000    0.000    1.000 
#    0.000    0.000    0.000    0.000    0.000    0.000 
#
# Total GULP energy -346894.807612 kJ/mol
# GULP energy per Si atom -12389.100272 kJ/mol
# Density = 0.894262 g / cm^3
# Si number density = 8.963018 Si / 1000 Ang^3
#
#
#
# Elastic Constant Matrix: (Units=GPa)
#
#
# Indices 1 2 3 4 5 6 
#
# 1 55.4274 26.7638 36.4985 -0.0183 22.6374 0.0050
# 2 26.7638 41.4333 44.0300 -0.0094 8.3604 0.0073
# 3 36.4985 44.0300 74.6062 -0.0206 20.6953 0.0102
# 4 -0.0183 -0.0094 -0.0206 20.6320 0.0154 1.7215
# 5 22.6374 8.3604 20.6953 0.0154 20.7391 -0.0082
# 6 0.0050 0.0073 0.0102 1.7215 -0.0082 19.6324
#
#
#
# Elastic Compliance Matrix: (Units=1/GPa)
#
#
# Indices 1 2 3 4 5 6 
#
# 1 0.045030 -0.026281 0.005775 0.000069 -0.044320 -0.000029
# 2 -0.026281 0.084502 -0.049117 -0.000068 0.043636 0.000025
# 3 0.005775 -0.049117 0.049533 0.000061 -0.035932 -0.000029
# 4 0.000069 -0.000068 0.000061 0.048826 -0.000147 -0.004281
# 5 -0.044320 0.043636 -0.035932 -0.000147 0.114861 0.000075
# 6 -0.000029 0.000025 -0.000029 -0.004281 0.000075 0.051312
#
#
# Mechanical properties :
#
#
# Convention : Reuss Voigt Hill
#
# Bulk Modulus (GPa) = 25.11407 42.89462 34.00434
# Shear Modulus (GPa) = 9.14773 16.47901 12.81337
#
# Velocity S-wave (km/s) = 2.26144 3.03525 2.67646
# Velocity P-wave (km/s) = 4.56717 6.02198 5.34431
#
# Compressibility (1/GPa) = 0.03981832
#
# Stress axis : x y z
#
# Youngs Moduli (GPa) = 22.20732 11.83400 20.18849
#
# Poissons Ratio (x) = 0.31101 -0.11659
# Poissons Ratio (y) = 0.58363 0.99161
# Poissons Ratio (z) = -0.12825 0.58126
#
# Static dielectric constant tensor:
#      x y z
#    x 3.455410 0.000020 0.333620 
#    y 0.000020 3.241980 0.000040 
#    z 0.333620 0.000040 3.087600 
# 
# 
# High freq. dielectric constant tensor:
#      x y z
#    x 1.675070 0.000000 0.027250 
#    y 0.000000 1.689980 0.000000 
#    z 0.027250 0.000000 1.658190 
# 
# From -- ./inp_files/287414.got.cif
#   From: 2010.06.25/outbox.ucp.g09.slc.cvg/sg12_144_cif.got.tgz:287414.got - 2010.06.28 13:50:54.
