data_PCOD8116616
_publ_section_title
;
Structure prediction by ZEFSAII (Michael W. Deem and Ramdas Pophale) SiO2 
 PCOD8116616
Probable space group: C 2/M
;
_chemical_formula_sum "Si O2"
_cell_formula_units_Z 28
_cell_length_a 15.000000
_cell_length_b 9.000000
_cell_length_c 24.000000
_cell_angle_alpha 90.000000
_cell_angle_beta 60.000000
_cell_angle_gamma 90.000000
_cell_volume 2805.922308
_symmetry_space_group_name_H-M "C 2/M"
_symmetry_group_IT_number 12
_symmetry_cell_setting 'monoclinic'
loop_
_space_group_symop_operation_xyz
x,y,z
-x,y,-z
-x,-y,-z
x,-y,z
1/2+x,1/2+y,z
1/2-x,1/2+y,-z
1/2-x,1/2-y,-z
1/2+x,1/2-y,z
loop_
_atom_site_type_symbol
_atom_site_label
_atom_site_fract_x
_atom_site_fract_y
_atom_site_fract_z
Si Si1 0.835783 0.671864 0.204263
Si Si2 0.744481 0.672787 0.354022
Si Si3 0.104745 0.825679 0.991304
Si Si4 0.280974 0.177322 0.854192
Si Si5 0.447523 0.324623 0.869989
Si Si6 0.026526 0.673779 0.427208
Si Si7 0.833322 0.179091 0.433098
O O1 0.851149 0.500000 0.182460
O O2 0.806705 0.685493 0.277626
O O3 0.745531 0.746082 0.196057
O O4 0.937450 0.765484 0.159799
O O5 0.728830 0.500000 0.376314
O O6 0.635721 0.753048 0.380752
O O7 0.811392 0.761326 0.378293
O O8 0.201304 0.764232 0.926276
O O9 0.099922 0.000000 0.982561
O O10 0.114326 0.788494 0.053650
O O11 0.000000 0.752840 0.000000
O O12 0.392941 0.236808 0.836945
O O13 0.283597 0.000000 0.846719
O O14 0.450306 0.500000 0.856897
O O15 0.026673 0.500000 0.410143
O O16 0.000000 0.692645 0.500000
O O17 0.945437 0.764780 0.415728
O O18 0.750000 0.250000 0.500000
O O19 0.826875 0.000000 0.436834
#
# Coordination Sequence:
#
# PCOD8116616 Si02
#       7
#     8   8   8   8   8   8   8
#     4  11  25  44  63  89 124 165 213 258 308 370
#     4  11  25  44  66  92 126 165 208 259 308 366
#     4   9  17  34  60  91 122 158 206 258 314 370
#     4  11  22  39  64  91 125 165 207 259 315 371
#     4  11  22  39  64  91 125 165 208 259 313 372
#     4  11  23  40  66  98 128 161 202 250 305 367
#     4  12  24  40  66  97 129 163 202 249 305 366
#
# _framework density 9.9788940000000004
#
# number of rings (size 3 to 8) (size 9 to 14) (size 15 to 20)
#    0.000    1.143    2.857    3.857    0.000    4.000 
#    0.000    2.857    0.000    0.000    0.000    0.000 
#    0.000    0.000    0.000    0.000    0.000    0.000 
#
# Total GULP energy -347299.082161 kJ/mol
# GULP energy per Si atom -12403.538649 kJ/mol
# Density = 0.995618 g / cm^3
# Si number density = 9.978894 Si / 1000 Ang^3
#
#
#
# Elastic Constant Matrix: (Units=GPa)
#
#
# Indices 1 2 3 4 5 6 
#
# 1 126.7677 51.3662 16.5078 0.0000 21.9387 0.0000
# 2 51.3662 158.3569 43.7687 0.0000 14.1053 0.0001
# 3 16.5078 43.7687 66.3460 0.0000 13.3137 0.0000
# 4 0.0000 0.0000 0.0000 27.1684 0.0000 -0.7974
# 5 21.9387 14.1053 13.3137 0.0000 30.8408 0.0000
# 6 0.0000 0.0001 0.0000 -0.7974 0.0000 43.0068
#
#
#
# Elastic Compliance Matrix: (Units=1/GPa)
#
#
# Indices 1 2 3 4 5 6 
#
# 1 0.010029 -0.002885 0.000629 0.000000 -0.006086 0.000000
# 2 -0.002885 0.008613 -0.005021 0.000000 0.000280 0.000000
# 3 0.000629 -0.005021 0.019551 0.000000 -0.006591 0.000000
# 4 0.000000 0.000000 0.000000 0.036827 0.000000 0.000683
# 5 -0.006086 0.000280 -0.006591 0.000000 0.039471 0.000000
# 6 0.000000 0.000000 0.000000 0.000683 0.000000 0.023265
#
#
# Mechanical properties :
#
#
# Convention : Reuss Voigt Hill
#
# Bulk Modulus (GPa) = 42.30087 63.86177 53.08132
# Shear Modulus (GPa) = 31.21311 36.19172 33.70242
#
# Velocity S-wave (km/s) = 3.95898 4.26304 4.11382
# Velocity P-wave (km/s) = 6.49147 7.50328 7.01564
#
# Compressibility (1/GPa) = 0.02364017
#
# Stress axis : x y z
#
# Youngs Moduli (GPa) = 99.71354 116.09935 51.14886
#
# Poissons Ratio (x) = 0.33492 -0.03218
# Poissons Ratio (y) = 0.28765 0.25680
# Poissons Ratio (z) = -0.06273 0.58290
#
# Static dielectric constant tensor:
#      x y z
#    x 4.017760 0.000000 -0.040010 
#    y 0.000000 3.806210 0.000000 
#    z -0.040010 0.000000 3.689540 
# 
# 
# High freq. dielectric constant tensor:
#      x y z
#    x 1.796830 0.000000 0.005270 
#    y 0.000000 1.792740 0.000000 
#    z 0.005270 0.000000 1.777180 
# 
# From -- ./inp_files/338502.got.cif
#   From: 2010.06.25/outbox.ucp.g09.slc.cvg/sg12_170_cif.got.tgz:338502.got - 2010.06.28 13:50:54.
