data_PCOD8116632
_publ_section_title
;
Structure prediction by ZEFSAII (Michael W. Deem and Ramdas Pophale) SiO2 
 PCOD8116632
Probable space group: P 2/C
;
_chemical_formula_sum "Si O2"
_cell_formula_units_Z 32
_cell_length_a 19.455361
_cell_length_b 26.687943
_cell_length_c 5.265834
_cell_angle_alpha 90.000000
_cell_angle_beta 97.772453
_cell_angle_gamma 90.000000
_cell_volume 2709.026448
_symmetry_space_group_name_H-M "P 2/C"
_symmetry_group_IT_number 13
_symmetry_cell_setting 'monoclinic'
loop_
_space_group_symop_operation_xyz
x,y,z
-x,y,1/2-z
-x,-y,-z
x,-y,1/2+z
loop_
_atom_site_type_symbol
_atom_site_label
_atom_site_fract_x
_atom_site_fract_y
_atom_site_fract_z
Si Si1 0.917325 0.141369 0.708697
Si Si2 0.082689 0.028009 0.791317
Si Si3 0.917264 0.802534 0.708668
Si Si4 0.082469 0.632401 0.291217
Si Si5 0.167420 0.466670 0.834218
Si Si6 0.082472 0.310552 0.291220
Si Si7 0.320417 0.532250 0.410348
Si Si8 0.529271 0.557430 0.014626
O O1 0.889067 0.084695 0.694573
O O2 0.888927 0.169394 0.444477
O O3 0.000000 0.141666 0.750000
O O4 0.888927 0.169392 0.944545
O O5 0.000000 0.027686 0.750000
O O6 0.111151 0.999999 0.555540
O O7 0.888402 0.745935 0.694251
O O8 0.000000 0.802553 0.750000
O O9 0.110855 0.576443 0.305298
O O10 0.109933 0.661276 0.554131
O O11 0.000000 0.628958 0.250000
O O12 0.109931 0.661289 0.055788
O O13 0.156390 0.500154 0.579235
O O14 0.244693 0.441421 0.872472
O O15 0.000000 0.309457 0.250000
O O16 0.327046 0.500023 0.663736
O O17 0.387890 0.567202 0.443978
O O18 0.500000 0.584819 0.250000
O O19 0.500000 0.584819 0.750000
O O20 0.500000 0.500000 0.000000
#
# Coordination Sequence:
#
# PCOD8116632 Si02
#       8
#     4   4   4   4   4   4   4   4
#     4   9  15  21  30  43  59  75  92 114 139 170
#     4   9  15  21  27  36  53  78 102 116 127 150
#     4   9  15  23  34  48  60  69  84 112 152 183
#     4  10  19  31  43  53  63  78 100 123 151 188
#     4  10  21  31  41  53  68  85 101 122 147 175
#     4   9  17  28  42  54  63  73  90 121 157 193
#     4  10  16  25  35  50  69  85 101 119 140 163
#     4  10  14  20  34  51  67  85 103 119 135 156
#
# _framework density 11.812363
#
# number of rings (size 3 to 8) (size 9 to 14) (size 15 to 20)
#    0.000    2.500    2.500    2.250    0.000    6.500 
#    0.000    0.000    0.000    0.000    0.000    0.000 
#    0.000    0.000    0.000    0.000    0.000    0.000 
#
# Total GULP energy -396547.327335 kJ/mol
# GULP energy per Si atom -12392.103979 kJ/mol
# Density = 1.178548 g / cm^3
# Si number density = 11.812363 Si / 1000 Ang^3
#
#
#
# Elastic Constant Matrix: (Units=GPa)
#
#
# Indices 1 2 3 4 5 6 
#
# 1 20.1029 17.2990 18.5798 0.0000 -0.9807 0.0000
# 2 17.2990 83.8347 49.1021 0.0000 -4.5386 0.0000
# 3 18.5798 49.1021 128.3048 0.0000 -16.9787 0.0000
# 4 0.0000 0.0000 0.0000 9.5039 0.0000 -1.6282
# 5 -0.9807 -4.5386 -16.9787 0.0000 6.4515 0.0000
# 6 0.0000 0.0000 0.0000 -1.6282 0.0000 0.4299
#
#
#
# Elastic Compliance Matrix: (Units=1/GPa)
#
#
# Indices 1 2 3 4 5 6 
#
# 1 0.064576 -0.009566 -0.008104 0.000000 -0.018242 0.000000
# 2 -0.009566 0.017010 -0.005728 0.000000 -0.004563 0.000000
# 3 -0.008104 -0.005728 0.016055 0.000000 0.036990 0.000000
# 4 0.000000 0.000000 0.000000 0.299623 0.000000 1.134744
# 5 -0.018242 -0.004563 0.036990 0.000000 0.246366 0.000000
# 6 0.000000 0.000000 0.000000 1.134744 0.000000 6.623593
#
#
# Mechanical properties :
#
#
# Convention : Reuss Voigt Hill
#
# Bulk Modulus (GPa) = 19.66809 44.68936 32.17873
# Shear Modulus (GPa) = 0.68204 13.09449 6.88826
#
# Velocity S-wave (km/s) = 0.76069 3.33309 2.41745
# Velocity P-wave (km/s) = 4.17829 7.26137 5.92392
#
# Compressibility (1/GPa) = 0.05084378
#
# Stress axis : x y z
#
# Youngs Moduli (GPa) = 15.48553 58.78815 62.28707
#
# Poissons Ratio (x) = 0.56236 0.50480
# Poissons Ratio (y) = 0.14813 0.35681
# Poissons Ratio (z) = 0.12550 0.33676
#
# Static dielectric constant tensor:
#      x y z
#    x 2.218320 0.000000 -0.126720 
#    y 0.000000 2.338790 0.000000 
#    z -0.126720 0.000000 2.925160 
# 
# 
# High freq. dielectric constant tensor:
#      x y z
#    x 1.387210 0.000000 -0.016070 
#    y 0.000000 1.420250 0.000000 
#    z -0.016070 0.000000 1.477370 
# 
# From -- ./inp_files/6475.got.cif
#   From: 2010.06.25/outbox.cif.g09.slc.cpg/sg13_4_cif.got.tgz:6475.got - 2010.06.28 04:50:58.
