data_PCOD8116514
_publ_section_title
;
Structure prediction by ZEFSAII (Michael W. Deem and Ramdas Pophale) SiO2 
 PCOD8116514
Probable space group: C 2/M
;
_chemical_formula_sum "Si O2"
_cell_formula_units_Z 32
_cell_length_a 9.000000
_cell_length_b 30.000000
_cell_length_c 24.000000
_cell_angle_alpha 90.000000
_cell_angle_beta 150.000000
_cell_angle_gamma 90.000000
_cell_volume 3240.000000
_symmetry_space_group_name_H-M "C 2/M"
_symmetry_group_IT_number 12
_symmetry_cell_setting 'monoclinic'
loop_
_space_group_symop_operation_xyz
x,y,z
-x,y,-z
-x,-y,-z
x,-y,z
1/2+x,1/2+y,z
1/2-x,1/2+y,-z
1/2-x,1/2-y,-z
1/2+x,1/2-y,z
loop_
_atom_site_type_symbol
_atom_site_label
_atom_site_fract_x
_atom_site_fract_y
_atom_site_fract_z
Si Si1 0.253076 0.205816 0.770031
Si Si2 0.726384 0.549915 0.223606
Si Si3 0.659394 0.675518 0.993253
Si Si4 0.071124 0.295506 0.755201
Si Si5 0.695127 0.426802 0.007629
Si Si6 0.639919 0.623865 0.384617
Si Si7 0.391635 0.551309 0.226789
Si Si8 0.733805 0.617676 0.623175
O O1 0.051394 0.249293 0.715414
O O2 0.415177 0.209698 0.763842
O O3 0.020891 0.165152 0.698260
O O4 0.517500 0.199830 0.902030
O O5 0.852398 0.500000 0.275063
O O6 0.536055 0.567304 0.214968
O O7 0.002937 0.580882 0.293792
O O8 0.482341 0.546263 0.096177
O O9 0.426385 0.694639 0.872731
O O10 0.500000 0.680789 0.000000
O O11 0.714619 0.624468 0.997016
O O12 0.896986 0.334795 0.666602
O O13 0.036178 0.443159 0.119687
O O14 0.500000 0.433875 0.000000
O O15 0.571794 0.578382 0.331136
O O16 0.473826 0.617888 0.389711
O O17 0.000000 0.631430 0.500000
O O18 0.467707 0.500000 0.261137
O O19 0.500000 0.607127 0.500000
#
# Coordination Sequence:
#
# PCOD8116514 Si02
#       8
#     8   8   8   8   8   8   8   8
#     4  10  21  38  61  89 122 158 198 246 300 361
#     4  11  24  41  62  92 127 160 201 252 304 363
#     4   9  17  35  59  87 122 155 193 241 295 357
#     4  10  21  38  61  89 122 158 198 246 300 361
#     4  11  20  37  64  92 126 164 202 246 301 363
#     4  11  24  43  65  88 119 160 207 257 305 361
#     4  11  24  41  62  92 127 160 201 252 304 363
#     4  11  24  43  65  88 119 160 207 257 305 361
#
# _framework density 9.8765429999999999
#
# number of rings (size 3 to 8) (size 9 to 14) (size 15 to 20)
#    0.000    1.500    2.500    2.625    0.000    6.500 
#    0.000    2.500    0.000    0.000    0.000    0.000 
#    0.000    0.000    0.000    0.000    0.000    0.000 
#
# Total GULP energy -396542.733829 kJ/mol
# GULP energy per Si atom -12391.960432 kJ/mol
# Density = 0.985406 g / cm^3
# Si number density = 9.876543 Si / 1000 Ang^3
#
#
#
# Elastic Constant Matrix: (Units=GPa)
#
#
# Indices 1 2 3 4 5 6 
#
# 1 100.8392 36.5933 36.3372 -0.0020 28.2443 -0.0002
# 2 36.5933 109.9739 35.3489 -0.0011 13.0736 -0.0002
# 3 36.3372 35.3489 124.3821 -0.0082 27.6637 -0.0032
# 4 -0.0020 -0.0011 -0.0082 21.5330 -0.0001 2.6442
# 5 28.2443 13.0736 27.6637 -0.0001 41.3401 -0.0001
# 6 -0.0002 -0.0002 -0.0032 2.6442 -0.0001 33.1434
#
#
#
# Elastic Compliance Matrix: (Units=1/GPa)
#
#
# Indices 1 2 3 4 5 6 
#
# 1 0.013660 -0.003207 -0.001444 0.000001 -0.007352 0.000000
# 2 -0.003207 0.010838 -0.002195 -0.000001 0.000233 0.000000
# 3 -0.001444 -0.002195 0.010235 0.000004 -0.005168 0.000001
# 4 0.000001 -0.000001 0.000004 0.046900 -0.000002 -0.003742
# 5 -0.007352 0.000233 -0.005168 -0.000002 0.032598 0.000000
# 6 0.000000 0.000000 0.000001 -0.003742 0.000000 0.030470
#
#
# Mechanical properties :
#
#
# Convention : Reuss Voigt Hill
#
# Bulk Modulus (GPa) = 47.52627 61.30600 54.41614
# Shear Modulus (GPa) = 30.22842 34.33103 32.27973
#
# Velocity S-wave (km/s) = 3.91617 4.17347 4.04686
# Velocity P-wave (km/s) = 6.67539 7.37071 7.03165
#
# Compressibility (1/GPa) = 0.02104099
#
# Stress axis : x y z
#
# Youngs Moduli (GPa) = 73.20460 92.26695 97.70561
#
# Poissons Ratio (x) = 0.29592 0.14109
# Poissons Ratio (y) = 0.23478 0.21445
# Poissons Ratio (z) = 0.10571 0.20252
#
# Static dielectric constant tensor:
#      x y z
#    x 3.806770 0.000010 0.309000 
#    y 0.000010 3.743790 0.000000 
#    z 0.309000 0.000000 3.798640 
# 
# 
# High freq. dielectric constant tensor:
#      x y z
#    x 1.780210 0.000000 0.024250 
#    y 0.000000 1.784070 0.000000 
#    z 0.024250 0.000000 1.776390 
# 
# From -- ./inp_files/334357.got.cif
#   From: 2010.06.25/outbox.ucp.g09.slc.cvg/sg12_168_cif.got.tgz:334357.got - 2010.06.28 13:50:54.
