data_PCOD8116462
_publ_section_title
;
Structure prediction by ZEFSAII (Michael W. Deem and Ramdas Pophale) SiO2 
 PCOD8116462
Probable space group: C 2/M
;
_chemical_formula_sum "Si O2"
_cell_formula_units_Z 24
_cell_length_a 12.000000
_cell_length_b 21.000000
_cell_length_c 12.000000
_cell_angle_alpha 90.000000
_cell_angle_beta 50.000000
_cell_angle_gamma 90.000000
_cell_volume 2316.518396
_symmetry_space_group_name_H-M "C 2/M"
_symmetry_group_IT_number 12
_symmetry_cell_setting 'monoclinic'
loop_
_space_group_symop_operation_xyz
x,y,z
-x,y,-z
-x,-y,-z
x,-y,z
1/2+x,1/2+y,z
1/2-x,1/2+y,-z
1/2-x,1/2-y,-z
1/2+x,1/2-y,z
loop_
_atom_site_type_symbol
_atom_site_label
_atom_site_fract_x
_atom_site_fract_y
_atom_site_fract_z
Si Si1 0.545163 0.869734 0.169173
Si Si2 0.864699 0.737473 0.155625
Si Si3 0.659407 0.847496 0.338911
Si Si4 0.252333 0.928277 0.361024
Si Si5 0.701546 0.370138 0.156485
Si Si6 0.390330 0.423437 0.321997
O O1 0.444035 0.811958 0.188203
O O2 0.632114 0.852895 0.224963
O O3 0.426553 0.924474 0.268318
O O4 0.665599 0.896678 0.005061
O O5 0.766178 0.786664 0.289270
O O6 0.748114 0.703853 0.145337
O O7 0.000000 0.769707 0.000000
O O8 0.500000 0.841741 0.500000
O O9 0.759651 0.905720 0.319435
O O10 0.197740 0.899709 0.280978
O O11 0.166044 0.898684 0.521541
O O12 0.203537 0.000000 0.387567
O O13 0.543916 0.385282 0.200931
O O14 0.415439 0.500000 0.297918
#
# Coordination Sequence:
#
# PCOD8116462 Si02
#       6
#     8   8   8   8   8   8
#     4  10  23  42  62  98 128 165 212 260 324 379
#     4   9  23  42  68  95 127 166 207 268 326 375
#     4  12  26  42  64  92 128 176 214 261 317 388
#     4  10  20  40  66  91 128 168 212 263 315 370
#     4  10  22  41  66  98 127 160 213 270 319 373
#     4  11  25  42  64  95 133 174 212 260 319 379
#
# _framework density 10.360374999999999
#
# number of rings (size 3 to 8) (size 9 to 14) (size 15 to 20)
#    0.000    1.667    1.667    2.500    4.667    9.000 
#    0.000    0.833    0.000    0.000    0.000    0.000 
#    0.000    0.000    0.000    0.000    0.000    0.000 
#
# Total GULP energy -297313.862442 kJ/mol
# GULP energy per Si atom -12388.077602 kJ/mol
# Density = 1.033679 g / cm^3
# Si number density = 10.360375 Si / 1000 Ang^3
#
#
#
# Elastic Constant Matrix: (Units=GPa)
#
#
# Indices 1 2 3 4 5 6 
#
# 1 144.3956 30.0078 40.7919 0.0000 -21.0489 0.0000
# 2 30.0078 60.2396 29.8819 0.0000 -14.7314 0.0000
# 3 40.7919 29.8819 115.8284 0.0000 -30.1531 0.0000
# 4 0.0000 0.0000 0.0000 27.9877 0.0000 -7.7078
# 5 -21.0489 -14.7314 -30.1531 0.0000 51.6768 0.0000
# 6 0.0000 0.0000 0.0000 -7.7078 0.0000 32.3602
#
#
#
# Elastic Compliance Matrix: (Units=1/GPa)
#
#
# Indices 1 2 3 4 5 6 
#
# 1 0.008240 -0.002857 -0.001772 0.000000 0.001508 0.000000
# 2 -0.002857 0.020435 -0.003599 0.000000 0.002562 0.000000
# 3 -0.001772 -0.003599 0.011474 0.000000 0.004947 0.000000
# 4 0.000000 0.000000 0.000000 0.038238 0.000000 0.009108
# 5 0.001508 0.002562 0.004947 0.000000 0.023582 0.000000
# 6 0.000000 0.000000 0.000000 0.009108 0.000000 0.033072
#
#
# Mechanical properties :
#
#
# Convention : Reuss Voigt Hill
#
# Bulk Modulus (GPa) = 42.20693 57.98077 50.09385
# Shear Modulus (GPa) = 31.36883 37.05708 34.21295
#
# Velocity S-wave (km/s) = 3.89509 4.23354 4.06784
# Velocity P-wave (km/s) = 6.37515 7.20693 6.80377
#
# Compressibility (1/GPa) = 0.02369279
#
# Stress axis : x y z
#
# Youngs Moduli (GPa) = 121.36627 48.93532 87.15371
#
# Poissons Ratio (x) = 0.13979 0.15446
# Poissons Ratio (y) = 0.34669 0.31367
# Poissons Ratio (z) = 0.21510 0.17612
#
# Static dielectric constant tensor:
#      x y z
#    x 4.094930 0.000000 -0.285360 
#    y 0.000000 3.650130 0.000000 
#    z -0.285360 0.000000 4.254370 
# 
# 
# High freq. dielectric constant tensor:
#      x y z
#    x 1.838730 0.000000 -0.018820 
#    y 0.000000 1.790160 0.000000 
#    z -0.018820 0.000000 1.834650 
# 
# From -- ./inp_files/51457.got.cif
#   From: 2010.06.25/outbox.ucp.g09.slc.cvg/sg12_26_cif.got.tgz:51457.got - 2010.06.28 13:50:54.
