data_PCOD8116797
_publ_section_title
;
Structure prediction by ZEFSAII (Michael W. Deem and Ramdas Pophale) SiO2 
 PCOD8116797
Probable space group: P 2/C
;
_chemical_formula_sum "Si O2"
_cell_formula_units_Z 22
_cell_length_a 25.903510
_cell_length_b 8.327593
_cell_length_c 19.691991
_cell_angle_alpha 90.000000
_cell_angle_beta 164.279510
_cell_angle_gamma 90.000000
_cell_volume 1150.928657
_symmetry_space_group_name_H-M "P 2/C"
_symmetry_group_IT_number 13
_symmetry_cell_setting 'monoclinic'
loop_
_space_group_symop_operation_xyz
x,y,z
-x,y,1/2-z
-x,-y,-z
x,-y,1/2+z
loop_
_atom_site_type_symbol
_atom_site_label
_atom_site_fract_x
_atom_site_fract_y
_atom_site_fract_z
Si Si1 0.811353 0.353521 0.140476
Si Si2 0.500000 0.393895 0.250000
Si Si3 0.084879 0.113889 0.550330
Si Si4 0.000000 0.694765 0.750000
Si Si5 0.500000 0.105138 0.750000
Si Si6 0.162284 0.999317 0.002892
Si Si7 0.480749 0.142859 0.112391
O O1 0.955906 0.275132 0.378026
O O2 0.924372 0.413686 0.216277
O O3 0.683950 0.500777 0.005813
O O4 0.674730 0.209101 0.943914
O O5 0.551665 0.290872 0.248815
O O6 0.101462 0.999315 0.504962
O O7 0.291279 0.184519 0.831040
O O8 0.000000 0.000000 0.500000
O O9 0.827724 0.810153 0.504949
O O10 0.572630 0.002114 0.905213
O O11 0.358709 0.093179 0.238859
O O12 0.000000 0.083377 0.750000
#
# Coordination Sequence:
#
# PCOD8116797 Si02
#       7
#     4   2   4   2   2   4   4
#     4  10  19  39  55  86 116 164 197 235 303 366
#     4  10  26  36  58  84 128 176 188 230 306 388
#     4  11  21  34  64  97 115 149 201 276 299 331
#     4   8  16  32  62  80 104 150 212 236 280 342
#     4  10  16  32  62  78 112 152 198 244 274 360
#     4   9  19  36  61  91 114 151 199 255 301 341
#     4  11  20  36  56  91 123 147 204 247 302 351
#
# _framework density 19.114998
#
# number of rings (size 3 to 8) (size 9 to 14) (size 15 to 20)
#    0.545    1.455    3.636    0.545    2.545    0.727 
#    1.636    0.000    0.000    5.455    0.000    0.000 
#    0.000    0.000    0.000    0.000    0.000    0.000 
#
# Total GULP energy -272575.748828 kJ/mol
# GULP energy per Si atom -12389.806765 kJ/mol
# Density = 1.907149 g / cm^3
# Si number density = 19.114998 Si / 1000 Ang^3
#
#
#
# Elastic Constant Matrix: (Units=GPa)
#
#
# Indices 1 2 3 4 5 6 
#
# 1 124.1524 29.2033 27.0975 0.0000 1.4042 0.0000
# 2 29.2033 62.9430 25.8042 0.0000 4.4745 0.0000
# 3 27.0975 25.8042 119.7053 0.0000 -3.0756 0.0000
# 4 0.0000 0.0000 0.0000 18.9554 0.0000 1.1718
# 5 1.4042 4.4745 -3.0756 0.0000 30.4036 0.0000
# 6 0.0000 0.0000 0.0000 1.1718 0.0000 18.1857
#
#
#
# Elastic Compliance Matrix: (Units=1/GPa)
#
#
# Indices 1 2 3 4 5 6 
#
# 1 0.009216 -0.003752 -0.001277 0.000000 -0.000003 0.000000
# 2 -0.003752 0.019223 -0.003372 0.000000 -0.002997 0.000000
# 3 -0.001277 -0.003372 0.009409 0.000000 0.001507 0.000000
# 4 0.000000 0.000000 0.000000 0.052966 0.000000 -0.003413
# 5 -0.000003 -0.002997 0.001507 0.000000 0.033484 0.000000
# 6 0.000000 0.000000 0.000000 -0.003413 0.000000 0.055208
#
#
# Mechanical properties :
#
#
# Convention : Reuss Voigt Hill
#
# Bulk Modulus (GPa) = 47.51515 52.33453 49.92484
# Shear Modulus (GPa) = 24.59123 28.48864 26.53994
#
# Velocity S-wave (km/s) = 3.59066 3.86473 3.73021
# Velocity P-wave (km/s) = 6.48860 6.88136 6.68786
#
# Compressibility (1/GPa) = 0.02104592
#
# Stress axis : x y z
#
# Youngs Moduli (GPa) = 108.50667 52.01983 106.28641
#
# Poissons Ratio (x) = 0.19518 0.13578
# Poissons Ratio (y) = 0.40712 0.35835
# Poissons Ratio (z) = 0.13862 0.17539
#
# Static dielectric constant tensor:
#      x y z
#    x 3.452390 0.000000 0.039440 
#    y 0.000000 3.133680 0.000000 
#    z 0.039440 0.000000 3.580000 
# 
# 
# High freq. dielectric constant tensor:
#      x y z
#    x 1.748530 0.000000 0.007480 
#    y 0.000000 1.702930 0.000000 
#    z 0.007480 0.000000 1.742730 
# 
# From -- ./inp_files/62892.got.cif
#   From: 2010.06.25/outbox.cif.g09.slc.cpg/sg13_32_cif.got.tgz:62892.got - 2010.06.28 04:50:58.
