data_PCOD8116190
_publ_section_title
;
Structure prediction by ZEFSAII (Michael W. Deem and Ramdas Pophale) SiO2 
 PCOD8116190
Probable space group: C 2/M
;
_chemical_formula_sum "Si O2"
_cell_formula_units_Z 20
_cell_length_a 24.000000
_cell_length_b 9.000000
_cell_length_c 30.000000
_cell_angle_alpha 90.000000
_cell_angle_beta 20.000000
_cell_angle_gamma 90.000000
_cell_volume 2216.290529
_symmetry_space_group_name_H-M "C 2/M"
_symmetry_group_IT_number 12
_symmetry_cell_setting 'monoclinic'
loop_
_space_group_symop_operation_xyz
x,y,z
-x,y,-z
-x,-y,-z
x,-y,z
1/2+x,1/2+y,z
1/2-x,1/2+y,-z
1/2-x,1/2-y,-z
1/2+x,1/2-y,z
loop_
_atom_site_type_symbol
_atom_site_label
_atom_site_fract_x
_atom_site_fract_y
_atom_site_fract_z
Si Si1 0.757788 0.179820 0.198615
Si Si2 0.761849 0.169965 0.037284
Si Si3 0.953364 0.319815 0.970584
Si Si4 0.436681 0.328434 0.414128
Si Si5 0.413852 0.833904 0.340963
O O1 0.566890 0.229452 0.344505
O O2 0.864389 0.252016 0.158657
O O3 0.770108 0.000000 0.189708
O O4 0.830839 0.247406 0.098400
O O5 0.575796 0.171665 0.191340
O O6 0.826417 0.000000 0.986006
O O7 0.750000 0.250000 0.000000
O O8 0.886123 0.266461 0.973747
O O9 0.956375 0.500000 0.971946
O O10 0.487347 0.500000 0.382478
O O11 0.438223 0.287636 0.360873
O O12 0.245586 0.299594 0.570835
O O13 0.390390 0.000000 0.379280
#
# Coordination Sequence:
#
# PCOD8116190 Si02
#       5
#     8   8   8   8   8
#     4  11  20  32  51  77 109 141 168 213 269 318
#     4  11  22  37  55  77 107 143 179 217 259 309
#     4  11  21  34  52  77 104 137 178 219 261 312
#     4  10  18  30  51  78 106 137 172 214 262 314
#     4   9  19  33  50  74 106 139 174 215 262 310
#
# _framework density 9.0240880000000008
#
# number of rings (size 3 to 8) (size 9 to 14) (size 15 to 20)
#    0.000    1.600    2.000    6.000    0.000    1.600 
#    0.000    0.000    0.000    1.200    0.000    8.400 
#    0.000    0.000    0.000    0.000    0.000    0.000 
#
# Total GULP energy -247808.173679 kJ/mol
# GULP energy per Si atom -12390.408684 kJ/mol
# Density = 0.900355 g / cm^3
# Si number density = 9.024088 Si / 1000 Ang^3
#
#
#
# Elastic Constant Matrix: (Units=GPa)
#
#
# Indices 1 2 3 4 5 6 
#
# 1 121.6173 54.6416 43.5797 -0.0026 -34.6959 0.0023
# 2 54.6416 169.5744 38.9583 -0.0318 -20.7091 0.0132
# 3 43.5797 38.9583 70.1976 -0.0777 -41.4151 0.0009
# 4 -0.0026 -0.0318 -0.0777 29.1267 0.0008 -9.7567
# 5 -34.6959 -20.7091 -41.4151 0.0008 36.7589 -0.0001
# 6 0.0023 0.0132 0.0009 -9.7567 -0.0001 35.3801
#
#
#
# Elastic Compliance Matrix: (Units=1/GPa)
#
#
# Indices 1 2 3 4 5 6 
#
# 1 0.012342 -0.002687 -0.000570 -0.000004 0.009494 -0.000001
# 2 -0.002687 0.007363 -0.004376 -0.000005 -0.003318 -0.000004
# 3 -0.000570 -0.004376 0.045501 0.000127 0.048261 0.000036
# 4 -0.000004 -0.000005 0.000127 0.037827 0.000136 0.010432
# 5 0.009494 -0.003318 0.048261 0.000136 0.088670 0.000037
# 6 -0.000001 -0.000004 0.000036 0.010432 0.000037 0.031141
#
#
# Mechanical properties :
#
#
# Convention : Reuss Voigt Hill
#
# Bulk Modulus (GPa) = 20.02359 70.63870 45.33115
# Shear Modulus (GPa) = 19.62644 35.20047 27.41346
#
# Velocity S-wave (km/s) = 3.30122 4.42108 3.90154
# Velocity P-wave (km/s) = 5.06452 8.07993 6.74294
#
# Compressibility (1/GPa) = 0.04994109
#
# Stress axis : x y z
#
# Youngs Moduli (GPa) = 81.02186 135.81497 21.97731
#
# Poissons Ratio (x) = 0.36489 0.01253
# Poissons Ratio (y) = 0.21768 0.09617
# Poissons Ratio (z) = 0.04620 0.59432
#
# Static dielectric constant tensor:
#      x y z
#    x 3.336010 -0.000020 -0.698340 
#    y -0.000020 3.836490 0.000130 
#    z -0.698340 0.000130 3.563330 
# 
# 
# High freq. dielectric constant tensor:
#      x y z
#    x 1.679270 0.000000 -0.053840 
#    y 0.000000 1.732680 0.000010 
#    z -0.053840 0.000010 1.693960 
# 
# From -- ./inp_files/171379.got.cif
#   From: 2010.06.25/outbox.ucp.g09.slc.cvg/sg12_86_cif.got.tgz:171379.got - 2010.06.28 13:50:54.
