data_PCOD8116579
_publ_section_title
;
Structure prediction by ZEFSAII (Michael W. Deem and Ramdas Pophale) SiO2 
 PCOD8116579
Probable space group: C 2/M
;
_chemical_formula_sum "Si O2"
_cell_formula_units_Z 32
_cell_length_a 9.000000
_cell_length_b 18.000000
_cell_length_c 30.000000
_cell_angle_alpha 90.000000
_cell_angle_beta 40.000000
_cell_angle_gamma 90.000000
_cell_volume 3123.947783
_symmetry_space_group_name_H-M "C 2/M"
_symmetry_group_IT_number 12
_symmetry_cell_setting 'monoclinic'
loop_
_space_group_symop_operation_xyz
x,y,z
-x,y,-z
-x,-y,-z
x,-y,z
1/2+x,1/2+y,z
1/2-x,1/2+y,-z
1/2-x,1/2-y,-z
1/2+x,1/2-y,z
loop_
_atom_site_type_symbol
_atom_site_label
_atom_site_fract_x
_atom_site_fract_y
_atom_site_fract_z
Si Si1 0.825916 0.086788 0.700688
Si Si2 0.524616 0.328162 0.419972
Si Si3 0.829972 0.086549 0.297693
Si Si4 0.927028 0.160998 0.841953
Si Si5 0.976907 0.412247 0.924574
Si Si6 0.069458 0.338230 0.155528
Si Si7 0.872875 0.328717 0.420515
Si Si8 0.492328 0.412457 0.915508
O O1 0.917303 0.111200 0.631070
O O2 0.599336 0.133948 0.766226
O O3 0.022911 0.102036 0.691848
O O4 0.760133 0.000000 0.713607
O O5 0.733569 0.321120 0.406630
O O6 0.292514 0.352057 0.500102
O O7 0.492793 0.249562 0.403145
O O8 0.567206 0.108849 0.369146
O O9 0.928517 0.135284 0.234315
O O10 0.837817 0.000000 0.282349
O O11 0.693477 0.113061 0.904437
O O12 0.890604 0.249891 0.848778
O O13 0.055665 0.137528 0.857712
O O14 0.988353 0.500000 0.910085
O O15 0.032128 0.360148 0.869179
O O16 0.745898 0.392478 0.004645
O O17 0.304312 0.386323 0.098739
O O18 0.505250 0.500000 0.901951
#
# Coordination Sequence:
#
# PCOD8116579 Si02
#       8
#     8   8   8   8   8   8   8   8
#     4  11  24  42  65  91 128 176 220 267 328 396
#     4  10  22  41  67  98 133 171 213 266 325 386
#     4  11  24  42  65  91 128 176 220 267 328 396
#     4  12  25  41  65  95 128 168 217 273 325 386
#     4  11  23  45  67  87 128 175 212 261 331 401
#     4  12  25  41  65  95 128 168 217 273 325 386
#     4  10  22  41  67  98 133 171 213 266 325 386
#     4  11  25  41  65  97 126 165 216 269 329 393
#
# _framework density 10.243449
#
# number of rings (size 3 to 8) (size 9 to 14) (size 15 to 20)
#    0.000    1.000    1.250    5.250    1.750    7.500 
#    0.000    2.500    0.000    0.000    0.000    0.000 
#    0.000    0.000    0.000    0.000    0.000    0.000 
#
# Total GULP energy -396846.122738 kJ/mol
# GULP energy per Si atom -12401.441336 kJ/mol
# Density = 1.022013 g / cm^3
# Si number density = 10.243449 Si / 1000 Ang^3
#
#
#
# Elastic Constant Matrix: (Units=GPa)
#
#
# Indices 1 2 3 4 5 6 
#
# 1 66.1145 32.2069 36.6009 0.0036 4.3505 0.0017
# 2 32.2069 142.8300 63.7076 -0.0057 2.2673 0.0024
# 3 36.6009 63.7076 133.1523 -0.0022 3.8011 -0.0010
# 4 0.0036 -0.0057 -0.0022 44.0930 -0.0029 1.1515
# 5 4.3505 2.2673 3.8011 -0.0029 44.4777 -0.0029
# 6 0.0017 0.0024 -0.0010 1.1515 -0.0029 41.0398
#
#
#
# Elastic Compliance Matrix: (Units=1/GPa)
#
#
# Indices 1 2 3 4 5 6 
#
# 1 0.018555 -0.002422 -0.003903 -0.000002 -0.001358 -0.000001
# 2 -0.002422 0.009217 -0.003747 0.000001 0.000087 -0.000001
# 3 -0.003903 -0.003747 0.010385 0.000000 -0.000315 0.000001
# 4 -0.000002 0.000001 0.000000 0.022696 0.000002 -0.000637
# 5 -0.001358 0.000087 -0.000315 0.000002 0.022638 0.000002
# 6 -0.000001 -0.000001 0.000001 -0.000637 0.000002 0.024384
#
#
# Mechanical properties :
#
#
# Convention : Reuss Voigt Hill
#
# Bulk Modulus (GPa) = 55.51223 67.45864 61.48544
# Shear Modulus (GPa) = 37.30690 39.89420 38.60055
#
# Velocity S-wave (km/s) = 4.27196 4.41761 4.34540
# Velocity P-wave (km/s) = 7.17552 7.68242 7.43329
#
# Compressibility (1/GPa) = 0.01801405
#
# Stress axis : x y z
#
# Youngs Moduli (GPa) = 53.89395 108.49226 96.29477
#
# Poissons Ratio (x) = 0.26272 0.37584
# Poissons Ratio (y) = 0.13051 0.36081
# Poissons Ratio (z) = 0.21035 0.40651
#
# Static dielectric constant tensor:
#      x y z
#    x 3.833010 -0.000010 0.000650 
#    y -0.000010 3.738960 0.000020 
#    z 0.000650 0.000020 3.862500 
# 
# 
# High freq. dielectric constant tensor:
#      x y z
#    x 1.818490 0.000000 0.003510 
#    y 0.000000 1.813960 0.000000 
#    z 0.003510 0.000000 1.824500 
# 
# From -- ./inp_files/372893.got.cif
#   From: 2010.06.25/outbox.ucp.g09.slc.cvg/sg12_187_cif.got.tgz:372893.got - 2010.06.28 13:50:54.
