data_PCOD8116107
_publ_section_title
;
Structure prediction by ZEFSAII (Michael W. Deem and Ramdas Pophale) SiO2 
 PCOD8116107
Probable space group: C 2/M
;
_chemical_formula_sum "Si O2"
_cell_formula_units_Z 56
_cell_length_a 21.039476
_cell_length_b 23.403633
_cell_length_c 7.614209
_cell_angle_alpha 90.000000
_cell_angle_beta 90.000000
_cell_angle_gamma 90.000000
_cell_volume 3749.237843
_symmetry_space_group_name_H-M "C 2/M"
_symmetry_group_IT_number 12
_symmetry_cell_setting 'monoclinic'
loop_
_space_group_symop_operation_xyz
x,y,z
-x,y,-z
-x,-y,-z
x,-y,z
1/2+x,1/2+y,z
1/2-x,1/2+y,-z
1/2-x,1/2-y,-z
1/2+x,1/2-y,z
loop_
_atom_site_type_symbol
_atom_site_label
_atom_site_fract_x
_atom_site_fract_y
_atom_site_fract_z
Si Si1 0.295993 0.166708 0.500000
Si Si2 0.572591 0.271492 0.198025
Si Si3 0.072591 0.771492 0.801975
Si Si4 0.613733 0.857262 0.201914
Si Si5 0.500000 0.935986 0.791706
Si Si6 0.660507 0.296552 0.500000
Si Si7 0.386267 0.857262 0.201913
O O1 0.324053 0.137546 0.675836
O O2 0.313272 0.232868 0.500000
O O3 0.219608 0.159407 0.500000
O O4 0.324053 0.137546 0.324163
O O5 0.500000 0.287231 0.240973
O O6 0.580727 0.203952 0.224307
O O7 0.618027 0.307168 0.327051
O O8 0.590684 0.289127 0.000000
O O9 0.118027 0.807168 0.672950
O O10 0.080727 0.703952 0.775693
O O11 0.563295 0.903691 0.272027
O O12 0.634162 0.868062 0.000000
O O13 0.563295 0.903692 0.727973
O O14 0.500000 0.000000 0.713979
O O15 0.500000 0.936067 0.000000
#
# Coordination Sequence:
#
# PCOD8116107 Si02
#       7
#     8   8   8   8   8   8   8
#     4   9  18  27  36  51  70  95 126 156 191 229
#     4   9  15  24  39  55  72  96 125 154 190 229
#     4   9  15  24  39  55  72  96 125 154 190 229
#     4   9  16  27  40  53  72  98 125 156 195 229
#     4   9  16  27  43  61  78  97 129 170 203 227
#     4   9  17  26  35  52  72  92 123 161 190 218
#     4   9  16  27  40  53  72  98 125 156 195 229
#
# _framework density 14.936368
#
# number of rings (size 3 to 8) (size 9 to 14) (size 15 to 20)
#    0.000    3.000    1.429    0.429    0.000    1.714 
#    0.000    7.143    0.000    0.000    0.000    0.000 
#    0.000    0.000    0.000    0.000    0.000   11.429 
#
# Total GULP energy -347095.852501 kJ/mol
# GULP energy per Si atom -12396.280446 kJ/mol
# Density = 1.490237 g / cm^3
# Si number density = 14.936368 Si / 1000 Ang^3
#
#
#
# Elastic Constant Matrix: (Units=GPa)
#
#
# Indices 1 2 3 4 5 6 
#
# 1 135.5401 36.7800 77.3926 0.0000 -0.0001 0.0000
# 2 36.7800 30.2985 22.7514 0.0000 0.0000 0.0000
# 3 77.3926 22.7514 107.0799 0.0000 0.0000 0.0000
# 4 0.0000 0.0000 0.0000 7.2940 0.0000 0.0000
# 5 -0.0001 0.0000 0.0000 0.0000 25.0101 0.0000
# 6 0.0000 0.0000 0.0000 0.0000 0.0000 12.7707
#
#
#
# Elastic Compliance Matrix: (Units=1/GPa)
#
#
# Indices 1 2 3 4 5 6 
#
# 1 0.015782 -0.012604 -0.008729 0.000000 0.000000 0.000000
# 2 -0.012604 0.049336 -0.001373 0.000000 0.000000 0.000000
# 3 -0.008729 -0.001373 0.015939 0.000000 0.000000 0.000000
# 4 0.000000 0.000000 0.000000 0.137099 0.000000 0.000000
# 5 0.000000 0.000000 0.000000 0.000000 0.039984 0.000000
# 6 0.000000 0.000000 0.000000 0.000000 0.000000 0.078304
#
#
# Mechanical properties :
#
#
# Convention : Reuss Voigt Hill
#
# Bulk Modulus (GPa) = 28.05341 60.75185 44.40263
# Shear Modulus (GPa) = 12.69885 18.08127 15.39006
#
# Velocity S-wave (km/s) = 2.91898 3.48307 3.21343
# Velocity P-wave (km/s) = 5.49393 7.54572 6.60004
#
# Compressibility (1/GPa) = 0.03564629
#
# Stress axis : x y z
#
# Youngs Moduli (GPa) = 63.36327 20.26926 62.73836
#
# Poissons Ratio (x) = 0.25547 0.54762
# Poissons Ratio (y) = 0.79861 0.08614
# Poissons Ratio (z) = 0.55307 0.02783
#
# Static dielectric constant tensor:
#      x y z
#    x 3.017070 0.000000 0.000000 
#    y 0.000000 2.483560 0.000000 
#    z 0.000000 0.000000 3.040700 
# 
# 
# High freq. dielectric constant tensor:
#      x y z
#    x 1.566460 0.000000 0.000000 
#    y 0.000000 1.497680 0.000000 
#    z 0.000000 0.000000 1.585370 
# 
# From -- ./inp_files/78465.got.cif
#   From: 2010.06.25/outbox.cif.g09.slc.cpg/sg12_40_cif.got.tgz:78465.got - 2010.06.28 00:19:55.
