data_PCOD8116222
_publ_section_title
;
Structure prediction by ZEFSAII (Michael W. Deem and Ramdas Pophale) SiO2 
 PCOD8116222
Probable space group: C 2/M
;
_chemical_formula_sum "Si O2"
_cell_formula_units_Z 20
_cell_length_a 27.000000
_cell_length_b 9.000000
_cell_length_c 18.000000
_cell_angle_alpha 90.000000
_cell_angle_beta 30.000000
_cell_angle_gamma 90.000000
_cell_volume 2187.000000
_symmetry_space_group_name_H-M "C 2/M"
_symmetry_group_IT_number 12
_symmetry_cell_setting 'monoclinic'
loop_
_space_group_symop_operation_xyz
x,y,z
-x,y,-z
-x,-y,-z
x,-y,z
1/2+x,1/2+y,z
1/2-x,1/2+y,-z
1/2-x,1/2-y,-z
1/2+x,1/2-y,z
loop_
_atom_site_type_symbol
_atom_site_label
_atom_site_fract_x
_atom_site_fract_y
_atom_site_fract_z
Si Si1 0.240813 0.825477 0.172641
Si Si2 0.096108 0.828755 0.234802
Si Si3 0.546513 0.173664 0.148903
Si Si4 0.624335 0.330232 0.459827
Si Si5 0.346016 0.322106 0.413017
O O1 0.185031 0.765234 0.170915
O O2 0.190474 0.750916 0.310617
O O3 0.218006 0.000000 0.201423
O O4 0.357903 0.792818 0.026917
O O5 0.086747 0.723654 0.176309
O O6 0.990650 0.816200 0.414067
O O7 0.113792 0.000000 0.186788
O O8 0.450593 0.263271 0.242563
O O9 0.519782 0.000000 0.184990
O O10 0.657085 0.500000 0.423398
O O11 0.649211 0.262298 0.508415
O O12 0.342176 0.500000 0.410087
O O13 0.250000 0.250000 0.500000
#
# Coordination Sequence:
#
# PCOD8116222 Si02
#       5
#     8   8   8   8   8
#     4   9  16  27  46  73 101 128 161 199 233 269
#     4   9  16  28  48  71  98 133 167 197 228 268
#     4  10  19  30  47  72 101 129 158 194 235 283
#     4   8  15  28  48  73  95 121 162 203 234 269
#     4  10  20  36  57  73  89 118 157 201 244 288
#
# _framework density 9.1449470000000002
#
# number of rings (size 3 to 8) (size 9 to 14) (size 15 to 20)
#    0.000    2.800    0.000    3.600    0.000    2.400 
#    0.000    2.000    0.000   28.800    0.000    0.000 
#    0.000    0.000    0.000    0.000    0.000    0.000 
#
# Total GULP energy -247802.886255 kJ/mol
# GULP energy per Si atom -12390.144313 kJ/mol
# Density = 0.912413 g / cm^3
# Si number density = 9.144947 Si / 1000 Ang^3
#
#
#
# Elastic Constant Matrix: (Units=GPa)
#
#
# Indices 1 2 3 4 5 6 
#
# 1 79.3513 21.1122 30.8256 -0.0047 -34.7262 0.0016
# 2 21.1122 60.4573 30.7202 0.0009 -12.0817 0.0032
# 3 30.8256 30.7202 96.0493 -0.0037 -22.7213 0.0061
# 4 -0.0047 0.0009 -0.0037 20.9545 -0.0003 -9.3577
# 5 -34.7262 -12.0817 -22.7213 -0.0003 34.0902 -0.0006
# 6 0.0016 0.0032 0.0061 -9.3577 -0.0006 24.4549
#
#
#
# Elastic Compliance Matrix: (Units=1/GPa)
#
#
# Indices 1 2 3 4 5 6 
#
# 1 0.023607 -0.003152 -0.001358 0.000006 0.022025 0.000002
# 2 -0.003152 0.020491 -0.005442 -0.000004 0.000424 -0.000002
# 3 -0.001358 -0.005442 0.014014 0.000002 0.006028 -0.000002
# 4 0.000006 -0.000004 0.000002 0.057558 0.000007 0.022025
# 5 0.022025 0.000424 0.006028 0.000007 0.055938 0.000001
# 6 0.000002 -0.000002 -0.000002 0.022025 0.000001 0.049319
#
#
# Mechanical properties :
#
#
# Convention : Reuss Voigt Hill
#
# Bulk Modulus (GPa) = 26.17249 44.57488 35.37369
# Shear Modulus (GPa) = 19.71854 26.11325 22.91590
#
# Velocity S-wave (km/s) = 3.28702 3.78265 3.54351
# Velocity P-wave (km/s) = 5.36161 6.59561 6.01037
#
# Compressibility (1/GPa) = 0.03820806
#
# Stress axis : x y z
#
# Youngs Moduli (GPa) = 42.35987 48.80105 71.35872
#
# Poissons Ratio (x) = 0.15384 0.09690
# Poissons Ratio (y) = 0.13353 0.38833
# Poissons Ratio (z) = 0.05752 0.26557
#
# Static dielectric constant tensor:
#      x y z
#    x 3.340830 0.000000 -0.071480 
#    y 0.000000 3.097050 0.000000 
#    z -0.071480 0.000000 3.708990 
# 
# 
# High freq. dielectric constant tensor:
#      x y z
#    x 1.693480 0.000000 -0.018560 
#    y 0.000000 1.677700 0.000000 
#    z -0.018560 0.000000 1.719310 
# 
# From -- ./inp_files/152895.got.cif
#   From: 2010.06.25/outbox.ucp.g09.slc.cvg/sg12_77_cif.got.tgz:152895.got - 2010.06.28 13:50:54.
