data_PCOD8116390
_publ_section_title
;
Structure prediction by ZEFSAII (Michael W. Deem and Ramdas Pophale) SiO2 
 PCOD8116390
Probable space group: C 2/M
;
_chemical_formula_sum "Si O2"
_cell_formula_units_Z 32
_cell_length_a 18.000000
_cell_length_b 9.000000
_cell_length_c 30.000000
_cell_angle_alpha 90.000000
_cell_angle_beta 40.000000
_cell_angle_gamma 90.000000
_cell_volume 3123.947783
_symmetry_space_group_name_H-M "C 2/M"
_symmetry_group_IT_number 12
_symmetry_cell_setting 'monoclinic'
loop_
_space_group_symop_operation_xyz
x,y,z
-x,y,-z
-x,-y,-z
x,-y,z
1/2+x,1/2+y,z
1/2-x,1/2+y,-z
1/2-x,1/2-y,-z
1/2+x,1/2-y,z
loop_
_atom_site_type_symbol
_atom_site_label
_atom_site_fract_x
_atom_site_fract_y
_atom_site_fract_z
Si Si1 0.169901 0.329455 0.632675
Si Si2 0.926355 0.168861 0.075081
Si Si3 0.521969 0.671563 0.773523
Si Si4 0.914762 0.669634 0.171443
Si Si5 0.872446 0.326617 0.562635
Si Si6 0.821116 0.165818 0.672000
Si Si7 0.163679 0.662206 0.185994
Si Si8 0.463324 0.163766 0.666626
O O1 0.195598 0.500000 0.630212
O O2 0.113820 0.268604 0.704022
O O3 0.288289 0.245572 0.564472
O O4 0.087810 0.301778 0.629015
O O5 0.942844 0.276804 0.109086
O O6 0.797609 0.175940 0.116182
O O7 0.961071 0.000000 0.072227
O O8 0.000000 0.229803 0.000000
O O9 0.554945 0.500000 0.754350
O O10 0.515765 0.724127 0.827258
O O11 0.394973 0.701523 0.812589
O O12 0.956183 0.500000 0.157053
O O13 0.779911 0.685473 0.245585
O O14 0.876542 0.500000 0.554072
O O15 0.808372 0.280939 0.637660
O O16 0.000000 0.257462 0.500000
O O17 0.940785 0.209636 0.640848
O O18 0.829916 0.000000 0.649008
O O19 0.117991 0.500000 0.189904
O O20 0.136456 0.672073 0.250679
O O21 0.461445 0.000000 0.644930
#
# Coordination Sequence:
#
# PCOD8116390 Si02
#       8
#     8   8   8   8   8   8   8   8
#     4  10  20  36  57  84 115 149 186 228 285 337
#     4  10  21  38  60  85 115 153 193 233 285 344
#     4  11  21  33  56  85 113 146 188 237 282 332
#     4  11  22  36  56  85 117 148 190 238 283 334
#     4  11  24  40  59  84 115 152 191 232 282 339
#     4  11  22  35  57  86 114 147 190 236 279 333
#     4   9  18  34  55  81 115 149 183 231 286 335
#     4   9  18  33  56  83 113 146 183 232 283 331
#
# _framework density 10.243449
#
# number of rings (size 3 to 8) (size 9 to 14) (size 15 to 20)
#    0.000    1.750    2.500    3.375    0.000    5.250 
#    0.000    1.250    0.000    0.000    0.000    0.000 
#    0.000    0.000    0.000    0.000    0.000    0.000 
#
# Total GULP energy -396571.941050 kJ/mol
# GULP energy per Si atom -12392.873158 kJ/mol
# Density = 1.022013 g / cm^3
# Si number density = 10.243449 Si / 1000 Ang^3
#
#
#
# Elastic Constant Matrix: (Units=GPa)
#
#
# Indices 1 2 3 4 5 6 
#
# 1 50.1036 14.3348 -1.0357 0.0003 -6.9025 0.0032
# 2 14.3348 38.8138 5.1767 0.0008 -6.4542 0.0031
# 3 -1.0357 5.1767 -0.8400 -0.0001 -14.8688 -0.0003
# 4 0.0003 0.0008 -0.0001 21.7590 -0.0002 -4.5071
# 5 -6.9025 -6.4542 -14.8688 -0.0002 19.4552 -0.0003
# 6 0.0032 0.0031 -0.0003 -4.5071 -0.0003 13.2301
#
#
#
# Elastic Compliance Matrix: (Units=1/GPa)
#
#
# Indices 1 2 3 4 5 6 
#
# 1 0.021256 -0.006907 -0.011131 -0.000001 -0.003257 -0.000004
# 2 -0.006907 0.029509 0.004162 -0.000002 0.010520 -0.000006
# 3 -0.011131 0.004162 -0.076104 -0.000001 -0.060731 -0.000002
# 4 -0.000001 -0.000002 -0.000001 0.049447 -0.000001 0.016845
# 5 -0.003257 0.010520 -0.060731 -0.000001 0.007320 -0.000004
# 6 -0.000004 -0.000006 -0.000002 0.016845 -0.000004 0.081324
#
#
# Mechanical properties :
#
#
# Convention : Reuss Voigt Hill
#
# Bulk Modulus (GPa) = -18.83601 13.89213 -2.47194
# Shear Modulus (GPa) = 40.71419 15.52899 28.12159
#
# Velocity S-wave (km/s) = 4.46278 2.75616 3.70897
# Velocity P-wave (km/s) = 4.16426 4.11391 4.13916
#
# Compressibility (1/GPa) = -0.05308981
#
# Stress axis : x y z
#
# Youngs Moduli (GPa) = 47.04525 33.88767 -13.13994
#
# Poissons Ratio (x) = 0.23408 -0.14625
# Poissons Ratio (y) = 0.32496 0.05469
# Poissons Ratio (z) = 0.52364 -0.14105
#
# Static dielectric constant tensor:
#      x y z
#    x 4.133040 0.000000 -0.109380 
#    y 0.000000 3.732190 0.000000 
#    z -0.109380 0.000000 3.402750 
# 
# 
# High freq. dielectric constant tensor:
#      x y z
#    x 1.790930 0.000000 -0.008570 
#    y 0.000000 1.795040 0.000000 
#    z -0.008570 0.000000 1.762460 
# 
# From -- ./inp_files/378195.got.cif
#   From: 2010.06.25/outbox.ucp.g09.slc.cvg/sg12_190_cif.got.tgz:378195.got - 2010.06.28 13:50:54.
