data_PCOD8116586
_publ_section_title
;
Structure prediction by ZEFSAII (Michael W. Deem and Ramdas Pophale) SiO2 
 PCOD8116586
Probable space group: C 2/M
;
_chemical_formula_sum "Si O2"
_cell_formula_units_Z 24
_cell_length_a 21.000000
_cell_length_b 18.000000
_cell_length_c 18.000000
_cell_angle_alpha 90.000000
_cell_angle_beta 20.000000
_cell_angle_gamma 90.000000
_cell_volume 2327.105055
_symmetry_space_group_name_H-M "C 2/M"
_symmetry_group_IT_number 12
_symmetry_cell_setting 'monoclinic'
loop_
_space_group_symop_operation_xyz
x,y,z
-x,y,-z
-x,-y,-z
x,-y,z
1/2+x,1/2+y,z
1/2-x,1/2+y,-z
1/2-x,1/2-y,-z
1/2+x,1/2-y,z
loop_
_atom_site_type_symbol
_atom_site_label
_atom_site_fract_x
_atom_site_fract_y
_atom_site_fract_z
Si Si1 0.907796 0.825792 0.761670
Si Si2 0.515320 0.171426 0.396580
Si Si3 0.244639 0.082825 0.340176
Si Si4 0.843515 0.416778 0.066579
Si Si5 0.140464 0.085325 0.781862
Si Si6 0.148159 0.913719 0.029043
O O1 0.926269 0.738404 0.723527
O O2 0.739149 0.857416 0.898333
O O3 0.865087 0.850971 0.892361
O O4 0.105221 0.859113 0.525689
O O5 0.500000 0.197054 0.500000
O O6 0.319616 0.138203 0.583962
O O7 0.672225 0.107463 0.217775
O O8 0.231749 0.085873 0.265779
O O9 0.192689 0.000000 0.424365
O O10 0.445118 0.105833 0.150586
O O11 0.829039 0.500000 0.048834
O O12 0.038610 0.092800 0.814519
O O13 0.201298 0.000000 0.729861
O O14 0.000000 0.112353 0.000000
O O15 0.170085 0.000000 0.032886
#
# Coordination Sequence:
#
# PCOD8116586 Si02
#       6
#     8   8   8   8   8   8
#     4  12  24  38  59  96 138 168 196 258 339 396
#     4  12  25  42  67  99 131 170 213 264 326 386
#     4   9  18  34  56  83 120 175 231 262 295 364
#     4   9  18  34  57  84 120 174 228 264 296 364
#     4  10  22  44  72  95 120 163 222 277 317 367
#     4  11  25  44  68  96 127 170 221 270 318 378
#
# _framework density 10.313243
#
# number of rings (size 3 to 8) (size 9 to 14) (size 15 to 20)
#    0.000    1.500    1.667    5.000    0.000    5.333 
#    3.000    1.667    0.000    0.000    0.000    0.000 
#    0.000    0.000    0.000    0.000    0.000    0.000 
#
# Total GULP energy -297564.561062 kJ/mol
# GULP energy per Si atom -12398.523378 kJ/mol
# Density = 1.028977 g / cm^3
# Si number density = 10.313243 Si / 1000 Ang^3
#
#
#
# Elastic Constant Matrix: (Units=GPa)
#
#
# Indices 1 2 3 4 5 6 
#
# 1 104.0421 46.4084 32.2329 0.0144 -6.0728 -0.0074
# 2 46.4084 114.1429 49.5886 0.2134 -0.5862 -0.1346
# 3 32.2329 49.5886 100.4770 0.1021 -2.7115 -0.0954
# 4 0.0144 0.2134 0.1021 40.8625 -0.1330 1.7687
# 5 -6.0728 -0.5862 -2.7115 -0.1330 30.8420 0.0961
# 6 -0.0074 -0.1346 -0.0954 1.7687 0.0961 37.6339
#
#
#
# Elastic Compliance Matrix: (Units=1/GPa)
#
#
# Indices 1 2 3 4 5 6 
#
# 1 0.012142 -0.004148 -0.001790 0.000030 0.002155 -0.000024
# 2 -0.004148 0.012572 -0.004901 -0.000057 -0.001009 0.000037
# 3 -0.001790 -0.004901 0.012964 -0.000005 0.000694 0.000013
# 4 0.000030 -0.000057 -0.000005 0.024523 0.000114 -0.001153
# 5 0.002155 -0.001009 0.000694 0.000114 0.032890 -0.000091
# 6 -0.000024 0.000037 0.000013 -0.001153 -0.000091 0.026626
#
#
# Mechanical properties :
#
#
# Convention : Reuss Voigt Hill
#
# Bulk Modulus (GPa) = 62.49956 63.90243 63.20100
# Shear Modulus (GPa) = 33.61827 34.56315 34.09071
#
# Velocity S-wave (km/s) = 4.04153 4.09793 4.06983
# Velocity P-wave (km/s) = 7.22115 7.31018 7.26580
#
# Compressibility (1/GPa) = 0.01600011
#
# Stress axis : x y z
#
# Youngs Moduli (GPa) = 82.35823 79.54393 77.13551
#
# Poissons Ratio (x) = 0.32996 0.13806
# Poissons Ratio (y) = 0.34164 0.37804
# Poissons Ratio (z) = 0.14740 0.38984
#
# Static dielectric constant tensor:
#      x y z
#    x 3.726480 -0.000060 0.010930 
#    y -0.000060 3.761140 0.000360 
#    z 0.010930 0.000360 3.755210 
# 
# 
# High freq. dielectric constant tensor:
#      x y z
#    x 1.808220 -0.000010 -0.007570 
#    y -0.000010 1.808220 0.000020 
#    z -0.007570 0.000020 1.816230 
# 
# From -- ./inp_files/285333.got.cif
#   From: 2010.06.25/outbox.ucp.g09.slc.cvg/sg12_143_cif.got.tgz:285333.got - 2010.06.28 13:50:54.
