data_PCOD8116109
_publ_section_title
;
Structure prediction by ZEFSAII (Michael W. Deem and Ramdas Pophale) SiO2 
 PCOD8116109
Probable space group: C 2/M
;
_chemical_formula_sum "Si O2"
_cell_formula_units_Z 64
_cell_length_a 9.111120
_cell_length_b 19.436216
_cell_length_c 20.902831
_cell_angle_alpha 90.000000
_cell_angle_beta 90.000000
_cell_angle_gamma 90.000000
_cell_volume 3701.592383
_symmetry_space_group_name_H-M "C 2/M"
_symmetry_group_IT_number 12
_symmetry_cell_setting 'monoclinic'
loop_
_space_group_symop_operation_xyz
x,y,z
-x,y,-z
-x,-y,-z
x,-y,z
1/2+x,1/2+y,z
1/2-x,1/2+y,-z
1/2-x,1/2-y,-z
1/2+x,1/2-y,z
loop_
_atom_site_type_symbol
_atom_site_label
_atom_site_fract_x
_atom_site_fract_y
_atom_site_fract_z
Si Si1 0.422435 0.578872 0.688221
Si Si2 0.079543 0.177950 0.199819
Si Si3 0.078519 0.323213 0.941178
Si Si4 0.077565 0.578872 0.688221
Si Si5 0.579543 0.177950 0.800181
Si Si6 0.415597 0.581934 0.438265
Si Si7 0.421481 0.676787 0.941178
Si Si8 0.415597 0.081934 0.561735
O O1 0.465657 0.500000 0.701851
O O2 0.477301 0.622846 0.748747
O O3 0.250000 0.586310 0.676164
O O4 0.504028 0.607935 0.625686
O O5 0.250000 0.193515 0.209359
O O6 0.052426 0.144290 0.129219
O O7 1.000000 0.250000 0.210053
O O8 0.052426 0.355710 0.870781
O O9 0.250000 0.315771 0.956472
O O10 0.000000 0.250000 0.938726
O O11 0.000000 0.365271 0.000000
O O12 0.034343 0.500000 0.701851
O O13 0.022699 0.622846 0.748747
O O14 0.995972 0.607935 0.625686
O O15 0.500000 0.611930 0.500000
O O16 0.417800 0.500000 0.440499
O O17 0.250000 0.610336 0.438778
O O18 0.500000 0.634729 0.000000
O O19 0.500000 0.111930 0.500000
O O20 0.417800 0.000000 0.559501
#
# Coordination Sequence:
#
# PCOD8116109 Si02
#       8
#     8   8   8   8   8   8   8   8
#     4   9  17  30  47  66  89 117 148 181 217 259
#     4   9  18  30  45  66  90 117 147 180 220 263
#     4   9  15  24  39  60  84 109 141 179 217 255
#     4   9  17  30  47  66  89 117 148 181 217 259
#     4   9  18  30  45  66  90 117 147 180 220 263
#     4   9  16  26  42  65  90 115 145 181 219 257
#     4   9  15  24  39  60  84 109 141 179 217 255
#     4   9  16  26  42  65  90 115 145 181 219 257
#
# _framework density 17.289854999999999
#
# number of rings (size 3 to 8) (size 9 to 14) (size 15 to 20)
#    0.000    3.000    0.000    2.250    0.000    5.000 
#    0.000    0.000    0.000    1.500    0.000    5.250 
#    0.000    0.000    0.000    0.000    0.000    6.750 
#
# Total GULP energy -396530.597612 kJ/mol
# GULP energy per Si atom -12391.581175 kJ/mol
# Density = 1.725050 g / cm^3
# Si number density = 17.289855 Si / 1000 Ang^3
#
#
#
# Elastic Constant Matrix: (Units=GPa)
#
#
# Indices 1 2 3 4 5 6 
#
# 1 89.1093 24.8848 75.7236 0.0000 0.0000 0.0000
# 2 24.8848 38.4440 51.4470 0.0000 0.0000 0.0000
# 3 75.7236 51.4470 201.1253 0.0000 0.0000 0.0000
# 4 0.0000 0.0000 0.0000 18.1447 0.0000 0.0000
# 5 0.0000 0.0000 0.0000 0.0000 32.5037 0.0000
# 6 0.0000 0.0000 0.0000 0.0000 0.0000 12.6708
#
#
#
# Elastic Compliance Matrix: (Units=1/GPa)
#
#
# Indices 1 2 3 4 5 6 
#
# 1 0.016836 -0.003672 -0.005399 0.000000 0.000000 0.000000
# 2 -0.003672 0.040352 -0.008939 0.000000 0.000000 0.000000
# 3 -0.005399 -0.008939 0.009291 0.000000 0.000000 0.000000
# 4 0.000000 0.000000 0.000000 0.055113 0.000000 0.000000
# 5 0.000000 0.000000 0.000000 0.000000 0.030766 0.000000
# 6 0.000000 0.000000 0.000000 0.000000 0.000000 0.078922
#
#
# Mechanical properties :
#
#
# Convention : Reuss Voigt Hill
#
# Bulk Modulus (GPa) = 32.83279 70.30994 51.57137
# Shear Modulus (GPa) = 18.02107 24.43872 21.22990
#
# Velocity S-wave (km/s) = 3.23196 3.76370 3.50792
# Velocity P-wave (km/s) = 5.74093 7.72275 6.80438
#
# Compressibility (1/GPa) = 0.03045736
#
# Stress axis : x y z
#
# Youngs Moduli (GPa) = 59.39647 24.78221 107.62555
#
# Poissons Ratio (x) = 0.09101 0.58111
# Poissons Ratio (y) = 0.21812 0.96208
# Poissons Ratio (z) = 0.32070 0.22153
#
# Static dielectric constant tensor:
#      x y z
#    x 3.321770 0.000000 0.000000 
#    y 0.000000 2.670320 0.000000 
#    z 0.000000 0.000000 4.168090 
# 
# 
# High freq. dielectric constant tensor:
#      x y z
#    x 1.675360 0.000000 0.000000 
#    y 0.000000 1.593850 0.000000 
#    z 0.000000 0.000000 1.695120 
# 
# From -- ./inp_files/300780.got.cif
#   From: 2010.06.25/outbox.cif.g09.slc.cpg/sg12_151_cif.got.tgz:300780.got - 2010.06.28 00:19:55.
