data_PCOD8116908
_publ_section_title
;
Structure prediction by ZEFSAII (Michael W. Deem and Ramdas Pophale) SiO2 
 PCOD8116908
Probable space group: P 2/C
;
_chemical_formula_sum "Si O2"
_cell_formula_units_Z 32
_cell_length_a 18.627178
_cell_length_b 9.645223
_cell_length_c 28.289540
_cell_angle_alpha 90.000000
_cell_angle_beta 161.134416
_cell_angle_gamma 90.000000
_cell_volume 1643.451313
_symmetry_space_group_name_H-M "P 2/C"
_symmetry_group_IT_number 13
_symmetry_cell_setting 'monoclinic'
loop_
_space_group_symop_operation_xyz
x,y,z
-x,y,1/2-z
-x,-y,-z
x,-y,1/2+z
loop_
_atom_site_type_symbol
_atom_site_label
_atom_site_fract_x
_atom_site_fract_y
_atom_site_fract_z
Si Si1 0.173656 0.816739 0.677866
Si Si2 0.826897 0.405964 0.679813
Si Si3 0.029058 0.852985 0.492647
Si Si4 0.853333 0.095031 0.723954
Si Si5 0.329451 0.638935 0.859524
Si Si6 0.565644 0.087497 0.679898
Si Si7 0.383322 0.869967 0.972727
Si Si8 0.809591 0.997975 0.491072
O O1 0.248851 0.696914 0.759621
O O2 0.350946 0.941487 0.790110
O O3 0.142431 0.757255 0.604096
O O4 0.933956 0.866718 0.546551
O O5 0.901566 0.251144 0.738566
O O6 0.825874 0.507076 0.724880
O O7 0.579220 0.409390 0.504612
O O8 0.000000 0.467511 0.750000
O O9 0.185678 0.873733 0.543920
O O10 0.776749 0.810070 0.320844
O O11 0.000000 0.000000 0.500000
O O12 0.634746 0.079863 0.619843
O O13 0.070221 0.045712 0.886220
O O14 0.798610 0.993081 0.645779
O O15 0.319084 0.743805 0.897978
O O16 0.438129 0.051047 0.649410
O O17 0.398078 0.164242 0.538208
#
# Coordination Sequence:
#
# PCOD8116908 Si02
#       8
#     4   4   4   4   4   4   4   4
#     4  10  19  35  52  73 110 144 182 218 269 322
#     4  10  23  36  54  78 112 145 184 218 271 334
#     4   8  18  32  46  72 111 139 174 218 268 316
#     4  10  18  31  51  79 111 140 172 220 266 325
#     4  10  21  39  54  77 111 150 175 223 274 326
#     4  10  18  28  49  83 110 142 172 223 269 323
#     4  10  17  32  54  77 114 138 174 216 271 326
#     4  10  18  29  50  81 108 141 174 224 272 315
#
# _framework density 19.471219000000001
#
# number of rings (size 3 to 8) (size 9 to 14) (size 15 to 20)
#    0.000    2.500    3.750    1.500    3.500    5.500 
#    0.000    0.000    0.000    0.750    0.000    0.000 
#    0.000    0.000    0.000    0.000    0.000    0.000 
#
# Total GULP energy -396420.161703 kJ/mol
# GULP energy per Si atom -12388.130053 kJ/mol
# Density = 1.942690 g / cm^3
# Si number density = 19.471219 Si / 1000 Ang^3
#
#
#
# Elastic Constant Matrix: (Units=GPa)
#
#
# Indices 1 2 3 4 5 6 
#
# 1 120.5051 20.1461 52.9109 0.0000 -9.2502 0.0000
# 2 20.1461 49.3533 22.6380 0.0000 -5.4113 0.0000
# 3 52.9109 22.6380 62.8493 0.0000 -18.1097 0.0000
# 4 0.0000 0.0000 0.0000 14.4524 0.0000 -11.3970
# 5 -9.2502 -5.4113 -18.1097 0.0000 46.3793 0.0000
# 6 0.0000 0.0000 0.0000 -11.3970 0.0000 13.9015
#
#
#
# Elastic Compliance Matrix: (Units=1/GPa)
#
#
# Indices 1 2 3 4 5 6 
#
# 1 0.013321 -0.000300 -0.011664 0.000000 -0.001932 0.000000
# 2 -0.000300 0.024297 -0.008676 0.000000 -0.000613 0.000000
# 3 -0.011664 -0.008676 0.031430 0.000000 0.008934 0.000000
# 4 0.000000 0.000000 0.000000 0.195746 0.000000 0.160480
# 5 -0.001932 -0.000613 0.008934 0.000000 0.024593 0.000000
# 6 0.000000 0.000000 0.000000 0.160480 0.000000 0.203503
#
#
# Mechanical properties :
#
#
# Convention : Reuss Voigt Hill
#
# Bulk Modulus (GPa) = 36.01092 47.12196 41.56644
# Shear Modulus (GPa) = 9.20092 24.08085 16.64088
#
# Velocity S-wave (km/s) = 2.17616 3.52055 2.92659
# Velocity P-wave (km/s) = 4.98486 6.38585 5.72834
#
# Compressibility (1/GPa) = 0.02776935
#
# Stress axis : x y z
#
# Youngs Moduli (GPa) = 75.06689 41.15776 31.81711
#
# Poissons Ratio (x) = 0.01233 0.37111
# Poissons Ratio (y) = 0.02249 0.27604
# Poissons Ratio (z) = 0.87556 0.35708
#
# Static dielectric constant tensor:
#      x y z
#    x 3.964590 0.000000 -0.377880 
#    y 0.000000 3.152390 0.000000 
#    z -0.377880 0.000000 3.923400 
# 
# 
# High freq. dielectric constant tensor:
#      x y z
#    x 1.768460 0.000000 -0.004180 
#    y 0.000000 1.693270 0.000000 
#    z -0.004180 0.000000 1.757850 
# 
# From -- ./inp_files/93345.got.cif
#   From: 2010.06.25/outbox.cif.g09.slc.cpg/sg13_47_cif.got.tgz:93345.got - 2010.06.28 04:50:58.
