data_PCOD8116106
_publ_section_title
;
Structure prediction by ZEFSAII (Michael W. Deem and Ramdas Pophale) SiO2 
 PCOD8116106
Probable space group: C 2/M
;
_chemical_formula_sum "Si O2"
_cell_formula_units_Z 56
_cell_length_a 9.138181
_cell_length_b 30.505481
_cell_length_c 13.525247
_cell_angle_alpha 90.000000
_cell_angle_beta 70.255943
_cell_angle_gamma 90.000000
_cell_volume 3548.704688
_symmetry_space_group_name_H-M "C 2/M"
_symmetry_group_IT_number 12
_symmetry_cell_setting 'monoclinic'
loop_
_space_group_symop_operation_xyz
x,y,z
-x,y,-z
-x,-y,-z
x,-y,z
1/2+x,1/2+y,z
1/2-x,1/2+y,-z
1/2-x,1/2-y,-z
1/2+x,1/2-y,z
loop_
_atom_site_type_symbol
_atom_site_label
_atom_site_fract_x
_atom_site_fract_y
_atom_site_fract_z
Si Si1 0.931670 0.550634 0.293740
Si Si2 0.864801 0.887015 0.109633
Si Si3 0.835143 0.052092 0.500000
Si Si4 0.976207 0.709958 0.888686
Si Si5 0.864893 0.209958 0.111314
Si Si6 0.025566 0.612985 0.109633
Si Si7 0.774590 0.050634 0.293740
O O1 0.903878 0.500000 0.272472
O O2 0.798688 0.569241 0.396274
O O3 0.924676 0.577990 0.193825
O O4 0.093654 0.557544 0.312692
O O5 0.864036 0.838415 0.160267
O O6 0.707162 0.894744 0.085676
O O7 0.881499 0.922010 0.193825
O O8 0.000000 0.894333 0.000000
O O9 0.805038 0.069241 0.396274
O O10 0.000000 0.070312 0.500000
O O11 0.831395 0.000000 0.500000
O O12 0.087948 0.750000 0.824104
O O13 0.799637 0.721004 0.900726
O O14 0.024303 0.661585 0.839733
O O15 0.000000 0.708151 0.000000
O O16 0.000000 0.208151 0.000000
O O17 0.000000 0.605667 0.000000
O O18 0.823650 0.000000 0.272472
#
# Coordination Sequence:
#
# PCOD8116106 Si02
#       7
#     8   8   8   8   8   8   8
#     4   9  17  30  46  62  83 113 144 171 204 248
#     4   9  18  29  41  61  88 115 142 171 204 246
#     4   9  17  29  45  65  84 103 136 181 218 243
#     4   9  15  24  38  56  79 106 137 171 205 240
#     4   9  15  24  38  56  79 106 137 171 205 240
#     4   9  18  29  41  61  88 115 142 171 204 246
#     4   9  17  30  46  62  83 113 144 171 204 248
#
# _framework density 15.780407
#
# number of rings (size 3 to 8) (size 9 to 14) (size 15 to 20)
#    0.000    3.000    0.000    2.143    0.000    4.571 
#    0.000    0.000    0.000    0.000    0.000    1.000 
#    0.000    0.000    0.000    0.000    0.000    0.000 
#
# Total GULP energy -346940.257270 kJ/mol
# GULP energy per Si atom -12390.723474 kJ/mol
# Density = 1.574449 g / cm^3
# Si number density = 15.780407 Si / 1000 Ang^3
#
#
#
# Elastic Constant Matrix: (Units=GPa)
#
#
# Indices 1 2 3 4 5 6 
#
# 1 78.1594 44.3568 46.8915 0.0000 1.0598 0.0000
# 2 44.3568 95.5232 60.8547 0.0000 1.9659 0.0000
# 3 46.8915 60.8547 102.3378 0.0000 1.8213 0.0000
# 4 0.0000 0.0000 0.0000 2.0802 0.0000 -1.9293
# 5 1.0598 1.9659 1.8213 0.0000 20.1718 0.0000
# 6 0.0000 0.0000 0.0000 -1.9293 0.0000 18.2699
#
#
#
# Elastic Compliance Matrix: (Units=1/GPa)
#
#
# Indices 1 2 3 4 5 6 
#
# 1 0.019194 -0.005329 -0.005626 0.000000 0.000019 0.000000
# 2 -0.005329 0.018344 -0.008453 0.000000 -0.000745 0.000000
# 3 -0.005626 -0.008453 0.017384 0.000000 -0.000450 0.000000
# 4 0.000000 0.000000 0.000000 0.532913 0.000000 0.056274
# 5 0.000019 -0.000745 -0.000450 0.000000 0.049686 0.000000
# 6 0.000000 0.000000 0.000000 0.056274 0.000000 0.060677
#
#
# Mechanical properties :
#
#
# Convention : Reuss Voigt Hill
#
# Bulk Modulus (GPa) = 62.09130 64.46959 63.28045
# Shear Modulus (GPa) = 6.73507 16.36554 11.55030
#
# Velocity S-wave (km/s) = 2.06815 3.22387 2.70837
# Velocity P-wave (km/s) = 6.71830 7.40275 7.06881
#
# Compressibility (1/GPa) = 0.01610532
#
# Stress axis : x y z
#
# Youngs Moduli (GPa) = 52.10026 54.51504 57.52414
#
# Poissons Ratio (x) = 0.29050 0.32364
# Poissons Ratio (y) = 0.27764 0.48625
# Poissons Ratio (z) = 0.29313 0.46081
#
# Static dielectric constant tensor:
#      x y z
#    x 3.091160 0.000000 -0.037110 
#    y 0.000000 3.845320 0.000000 
#    z -0.037110 0.000000 2.779770 
# 
# 
# High freq. dielectric constant tensor:
#      x y z
#    x 1.613340 0.000000 -0.005780 
#    y 0.000000 1.604400 0.000000 
#    z -0.005780 0.000000 1.564800 
# 
# From -- ./inp_files/200524.got.cif
#   From: 2010.06.25/outbox.cif.g09.slc.cpg/sg12_101_cif.got.tgz:200524.got - 2010.06.28 00:19:55.
