data_PCOD8116792
_publ_section_title
;
Structure prediction by ZEFSAII (Michael W. Deem and Ramdas Pophale) SiO2 
 PCOD8116792
Probable space group: P 2/C
;
_chemical_formula_sum "Si O2"
_cell_formula_units_Z 26
_cell_length_a 10.943028
_cell_length_b 8.777426
_cell_length_c 20.981796
_cell_angle_alpha 90.000000
_cell_angle_beta 40.321192
_cell_angle_gamma 90.000000
_cell_volume 1304.066794
_symmetry_space_group_name_H-M "P 2/C"
_symmetry_group_IT_number 13
_symmetry_cell_setting 'monoclinic'
loop_
_space_group_symop_operation_xyz
x,y,z
-x,y,1/2-z
-x,-y,-z
x,-y,1/2+z
loop_
_atom_site_type_symbol
_atom_site_label
_atom_site_fract_x
_atom_site_fract_y
_atom_site_fract_z
Si Si1 0.953793 0.847257 0.842771
Si Si2 0.617220 0.339103 0.021128
Si Si3 0.977793 0.191840 0.873823
Si Si4 0.424886 0.310694 0.968064
Si Si5 0.000000 0.415361 0.750000
Si Si6 0.746943 0.384151 0.267516
Si Si7 0.633141 0.317367 0.755948
O O1 0.000000 0.827120 0.750000
O O2 0.100154 0.734658 0.821025
O O3 0.988243 0.018867 0.849015
O O4 0.744040 0.803155 0.946999
O O5 0.658828 0.520051 0.009390
O O6 0.434277 0.293326 0.135178
O O7 0.784137 0.236470 0.987693
O O8 0.579713 0.297708 0.962101
O O9 0.940486 0.308623 0.831021
O O10 0.171116 0.226850 0.833808
O O11 0.531954 0.259204 0.860867
O O12 0.825489 0.521621 0.797764
O O13 0.685084 0.503226 0.237509
O O14 0.500000 0.281194 0.750000
#
# Coordination Sequence:
#
# PCOD8116792 Si02
#       7
#     4   4   4   4   2   4   4
#     4  12  22  35  55  95 127 150 177 236 309 365
#     4  10  18  34  57  90 114 149 183 244 297 347
#     4  11  22  33  55  86 122 152 191 232 298 353
#     4  10  20  35  61  86 120 151 192 237 295 343
#     4  10  16  32  54  82 116 154 184 242 290 344
#     4  10  19  36  62  84 120 149 194 241 292 339
#     4  10  23  43  62  81 110 159 210 245 272 331
#
# _framework density 19.937629000000001
#
# number of rings (size 3 to 8) (size 9 to 14) (size 15 to 20)
#    0.000    1.538    3.077    5.538    0.000    1.846 
#    0.000    8.462    0.000    0.000    0.000    0.000 
#    0.000    0.000    0.000    0.000    0.000    0.000 
#
# Total GULP energy -322266.358031 kJ/mol
# GULP energy per Si atom -12394.859924 kJ/mol
# Density = 1.989225 g / cm^3
# Si number density = 19.937629 Si / 1000 Ang^3
#
#
#
# Elastic Constant Matrix: (Units=GPa)
#
#
# Indices 1 2 3 4 5 6 
#
# 1 111.1558 37.7271 46.7668 0.0000 -28.2638 0.0000
# 2 37.7271 95.4220 31.6135 0.0000 -22.5436 0.0000
# 3 46.7668 31.6135 81.6758 0.0000 -31.3388 0.0000
# 4 0.0000 0.0000 0.0000 16.9158 0.0000 -10.5846
# 5 -28.2638 -22.5436 -31.3388 0.0000 30.7660 0.0000
# 6 0.0000 0.0000 0.0000 -10.5846 0.0000 13.1739
#
#
#
# Elastic Compliance Matrix: (Units=1/GPa)
#
#
# Indices 1 2 3 4 5 6 
#
# 1 0.013123 -0.002355 -0.004332 0.000000 0.005917 0.000000
# 2 -0.002355 0.013343 -0.001469 0.000000 0.006117 0.000000
# 3 -0.004332 -0.001469 0.021920 0.000000 0.017272 0.000000
# 4 0.000000 0.000000 0.000000 0.118882 0.000000 0.095516
# 5 0.005917 0.006117 0.017272 0.000000 0.060015 0.000000
# 6 0.000000 0.000000 0.000000 0.095516 0.000000 0.152650
#
#
# Mechanical properties :
#
#
# Convention : Reuss Voigt Hill
#
# Bulk Modulus (GPa) = 31.17871 57.82979 44.50425
# Shear Modulus (GPa) = 12.28696 23.64756 17.96726
#
# Velocity S-wave (km/s) = 2.48517 3.44768 3.00521
# Velocity P-wave (km/s) = 4.88946 6.70202 5.86617
#
# Compressibility (1/GPa) = 0.03207317
#
# Stress axis : x y z
#
# Youngs Moduli (GPa) = 76.20220 74.94726 45.62106
#
# Poissons Ratio (x) = 0.17652 0.19763
# Poissons Ratio (y) = 0.17948 0.06701
# Poissons Ratio (z) = 0.33011 0.11008
#
# Static dielectric constant tensor:
#      x y z
#    x 3.581760 0.000000 -0.521630 
#    y 0.000000 3.523200 0.000000 
#    z -0.521630 0.000000 3.721360 
# 
# 
# High freq. dielectric constant tensor:
#      x y z
#    x 1.746450 0.000000 -0.044900 
#    y 0.000000 1.765230 0.000000 
#    z -0.044900 0.000000 1.778700 
# 
# From -- ./inp_files/78185.got.cif
#   From: 2010.06.25/outbox.cif.g09.slc.cpg/sg13_40_cif.got.tgz:78185.got - 2010.06.28 04:50:58.
