data_PCOD8116926
_publ_section_title
;
Structure prediction by ZEFSAII (Michael W. Deem and Ramdas Pophale) SiO2 
 PCOD8116926
Probable space group: P 2/C
;
_chemical_formula_sum "Si O2"
_cell_formula_units_Z 26
_cell_length_a 8.837601
_cell_length_b 10.263538
_cell_length_c 18.272472
_cell_angle_alpha 90.000000
_cell_angle_beta 49.559531
_cell_angle_gamma 90.000000
_cell_volume 1261.418781
_symmetry_space_group_name_H-M "P 2/C"
_symmetry_group_IT_number 13
_symmetry_cell_setting 'monoclinic'
loop_
_space_group_symop_operation_xyz
x,y,z
-x,y,1/2-z
-x,-y,-z
x,-y,1/2+z
loop_
_atom_site_type_symbol
_atom_site_label
_atom_site_fract_x
_atom_site_fract_y
_atom_site_fract_z
Si Si1 0.060633 0.595346 0.574399
Si Si2 0.798583 0.322990 0.030699
Si Si3 0.342471 0.167839 0.984902
Si Si4 0.000000 0.351001 0.250000
Si Si5 0.406641 0.792666 0.622591
Si Si6 0.298522 0.062458 0.694936
Si Si7 0.907343 0.923126 0.397278
O O1 0.882815 0.667489 0.586507
O O2 0.985485 0.566242 0.680477
O O3 0.125262 0.454001 0.529627
O O4 0.248851 0.689528 0.507366
O O5 0.558467 0.313814 0.108493
O O6 0.868409 0.197484 0.963369
O O7 0.470446 0.161942 0.020619
O O8 0.172059 0.054858 0.037819
O O9 0.504642 0.154847 0.868299
O O10 0.186979 0.259518 0.183313
O O11 0.394112 0.919712 0.676482
O O12 0.186900 0.083651 0.653223
O O13 0.147649 0.081733 0.809980
#
# Coordination Sequence:
#
# PCOD8116926 Si02
#       7
#     4   4   4   2   4   4   4
#     4  10  25  41  60  86 126 159 211 251 311 363
#     4  11  22  42  60  87 126 170 191 259 322 367
#     4  10  18  37  59  89 120 163 204 259 296 372
#     4  10  22  40  62  92 114 158 212 260 286 386
#     4  10  18  37  64  88 125 159 204 247 318 363
#     4  10  17  32  61  96 120 161 204 260 299 374
#     4  10  19  34  61  90 126 156 212 251 310 364
#
# _framework density 20.611709999999999
#
# number of rings (size 3 to 8) (size 9 to 14) (size 15 to 20)
#    0.000    1.846    3.077    3.692    0.000    4.923 
#    2.769    0.769    0.000    0.000    0.000    0.000 
#    0.000    0.000    0.000    0.000    0.000    0.000 
#
# Total GULP energy -322105.294564 kJ/mol
# GULP energy per Si atom -12388.665176 kJ/mol
# Density = 2.056480 g / cm^3
# Si number density = 20.611710 Si / 1000 Ang^3
#
#
#
# Elastic Constant Matrix: (Units=GPa)
#
#
# Indices 1 2 3 4 5 6 
#
# 1 89.5811 33.5786 39.3558 0.0000 -2.9906 0.0000
# 2 33.5786 59.4878 -4.2144 0.0000 6.6194 0.0000
# 3 39.3558 -4.2144 93.0838 0.0000 -17.6784 0.0000
# 4 0.0000 0.0000 0.0000 9.8119 0.0000 -0.1301
# 5 -2.9906 6.6194 -17.6784 0.0000 28.7280 0.0000
# 6 0.0000 0.0000 0.0000 -0.1301 0.0000 23.9852
#
#
#
# Elastic Compliance Matrix: (Units=1/GPa)
#
#
# Indices 1 2 3 4 5 6 
#
# 1 0.019300 -0.011432 -0.008827 0.000000 -0.000789 0.000000
# 2 -0.011432 0.024024 0.005258 0.000000 -0.003490 0.000000
# 3 -0.008827 0.005258 0.016202 0.000000 0.007840 0.000000
# 4 0.000000 0.000000 0.000000 0.101924 0.000000 0.000553
# 5 -0.000789 -0.003490 0.007840 0.000000 0.040356 0.000000
# 6 0.000000 0.000000 0.000000 0.000553 0.000000 0.041695
#
#
# Mechanical properties :
#
#
# Convention : Reuss Voigt Hill
#
# Bulk Modulus (GPa) = 33.87051 42.17698 38.02374
# Shear Modulus (GPa) = 17.64639 24.06721 20.85680
#
# Velocity S-wave (km/s) = 2.92915 3.42079 3.18447
# Velocity P-wave (km/s) = 5.28282 6.00912 5.65764
#
# Compressibility (1/GPa) = 0.02952421
#
# Stress axis : x y z
#
# Youngs Moduli (GPa) = 51.81354 41.62546 61.71976
#
# Poissons Ratio (x) = 0.47585 0.54483
# Poissons Ratio (y) = 0.59232 -0.32454
# Poissons Ratio (z) = 0.45738 -0.21888
#
# Static dielectric constant tensor:
#      x y z
#    x 3.836100 0.000000 -0.109850 
#    y 0.000000 3.582860 0.000000 
#    z -0.109850 0.000000 4.079310 
# 
# 
# High freq. dielectric constant tensor:
#      x y z
#    x 1.790540 0.000000 -0.017680 
#    y 0.000000 1.793610 0.000000 
#    z -0.017680 0.000000 1.812090 
# 
# From -- ./inp_files/75631.got.cif
#   From: 2010.06.25/outbox.cif.g09.slc.cpg/sg13_38_cif.got.tgz:75631.got - 2010.06.28 04:50:58.
