data_PCOD8116878
_publ_section_title
;
Structure prediction by ZEFSAII (Michael W. Deem and Ramdas Pophale) SiO2 
 PCOD8116878
Probable space group: P 2/C
;
_chemical_formula_sum "Si O2"
_cell_formula_units_Z 20
_cell_length_a 16.336371
_cell_length_b 12.114077
_cell_length_c 8.979879
_cell_angle_alpha 90.000000
_cell_angle_beta 32.820587
_cell_angle_gamma 90.000000
_cell_volume 963.216386
_symmetry_space_group_name_H-M "P 2/C"
_symmetry_group_IT_number 13
_symmetry_cell_setting 'monoclinic'
loop_
_space_group_symop_operation_xyz
x,y,z
-x,y,1/2-z
-x,-y,-z
x,-y,1/2+z
loop_
_atom_site_type_symbol
_atom_site_label
_atom_site_fract_x
_atom_site_fract_y
_atom_site_fract_z
Si Si1 0.799064 0.802267 0.950810
Si Si2 0.837181 0.446130 0.931373
Si Si3 0.863214 0.754426 0.170551
Si Si4 0.671772 0.616362 0.981772
Si Si5 0.887351 0.038650 0.794469
O O1 0.770615 0.749318 0.157891
O O2 0.682149 0.745915 0.013743
O O3 0.964314 0.777853 0.634370
O O4 0.776191 0.935475 0.002315
O O5 0.849098 0.358612 0.780462
O O6 0.000000 0.476627 0.750000
O O7 0.769577 0.554247 0.957994
O O8 0.731234 0.401026 0.224303
O O9 0.796562 0.853622 0.376075
O O10 0.500000 0.575309 0.250000
O O11 0.000000 0.078243 0.750000
O O12 0.000000 0.000000 0.500000
#
# Coordination Sequence:
#
# PCOD8116878 Si02
#       5
#     4   4   4   4   4
#     4  10  20  36  58  87 128 157 199 245 304 357
#     4  12  24  40  66  91 117 158 212 258 293 359
#     4  10  20  34  60  97 119 153 201 263 294 345
#     4  12  27  43  61  87 128 164 197 250 320 370
#     4  10  17  30  55  93 129 151 191 256 307 341
#
# _framework density 20.763766
#
# number of rings (size 3 to 8) (size 9 to 14) (size 15 to 20)
#    0.000    1.200    6.000    3.000    5.600    0.000 
#    0.000    0.000    0.000    6.000    0.000    0.000 
#    0.000    0.000    0.000    0.000    0.000    0.000 
#
# Total GULP energy -247871.819310 kJ/mol
# GULP energy per Si atom -12393.590966 kJ/mol
# Density = 2.071651 g / cm^3
# Si number density = 20.763766 Si / 1000 Ang^3
#
#
#
# Elastic Constant Matrix: (Units=GPa)
#
#
# Indices 1 2 3 4 5 6 
#
# 1 80.3320 35.9874 41.0486 0.0000 21.2078 0.0000
# 2 35.9874 96.1624 10.2631 0.0000 0.4306 0.0000
# 3 41.0486 10.2631 70.7329 0.0000 5.8101 0.0000
# 4 0.0000 0.0000 0.0000 9.7311 0.0000 12.7233
# 5 21.2078 0.4306 5.8101 0.0000 32.3825 0.0000
# 6 0.0000 0.0000 0.0000 12.7233 0.0000 31.4759
#
#
#
# Elastic Compliance Matrix: (Units=1/GPa)
#
#
# Indices 1 2 3 4 5 6 
#
# 1 0.027126 -0.008671 -0.013229 0.000000 -0.015276 0.000000
# 2 -0.008671 0.013335 0.002685 0.000000 0.005020 0.000000
# 3 -0.013229 0.002685 0.021026 0.000000 0.004856 0.000000
# 4 0.000000 0.000000 0.000000 0.217957 0.000000 -0.088104
# 5 -0.015276 0.005020 0.004856 0.000000 0.039948 0.000000
# 6 0.000000 0.000000 0.000000 -0.088104 0.000000 0.067384
#
#
# Mechanical properties :
#
#
# Convention : Reuss Voigt Hill
#
# Bulk Modulus (GPa) = 43.37089 46.86949 45.12019
# Shear Modulus (GPa) = 11.55024 25.37977 18.46500
#
# Velocity S-wave (km/s) = 2.36109 3.49995 2.98533
# Velocity P-wave (km/s) = 5.32599 6.24136 5.80176
#
# Compressibility (1/GPa) = 0.02305694
#
# Stress axis : x y z
#
# Youngs Moduli (GPa) = 36.86560 74.99018 47.55917
#
# Poissons Ratio (x) = 0.65025 0.62915
# Poissons Ratio (y) = 0.31966 -0.12769
# Poissons Ratio (z) = 0.48769 -0.20134
#
# Static dielectric constant tensor:
#      x y z
#    x 4.044930 0.000000 0.772480 
#    y 0.000000 2.029470 0.000000 
#    z 0.772480 0.000000 4.045120 
# 
# 
# High freq. dielectric constant tensor:
#      x y z
#    x 1.811230 0.000000 0.047130 
#    y 0.000000 1.829910 0.000000 
#    z 0.047130 0.000000 1.771040 
# 
# From -- ./inp_files/15268.got.cif
#   From: 2010.06.25/outbox.cif.g09.slc.cpg/sg13_8_cif.got.tgz:15268.got - 2010.06.28 04:50:58.
