data_PCOD8116199
_publ_section_title
;
Structure prediction by ZEFSAII (Michael W. Deem and Ramdas Pophale) SiO2 
 PCOD8116199
Probable space group: C 2/M
;
_chemical_formula_sum "Si O2"
_cell_formula_units_Z 28
_cell_length_a 30.000000
_cell_length_b 9.000000
_cell_length_c 21.000000
_cell_angle_alpha 90.000000
_cell_angle_beta 30.000000
_cell_angle_gamma 90.000000
_cell_volume 2835.000000
_symmetry_space_group_name_H-M "C 2/M"
_symmetry_group_IT_number 12
_symmetry_cell_setting 'monoclinic'
loop_
_space_group_symop_operation_xyz
x,y,z
-x,y,-z
-x,-y,-z
x,-y,z
1/2+x,1/2+y,z
1/2-x,1/2+y,-z
1/2-x,1/2-y,-z
1/2+x,1/2-y,z
loop_
_atom_site_type_symbol
_atom_site_label
_atom_site_fract_x
_atom_site_fract_y
_atom_site_fract_z
Si Si1 0.316533 0.334627 0.764603
Si Si2 0.985956 0.171168 0.624761
Si Si3 0.789947 0.664368 0.359182
Si Si4 0.037411 0.675496 0.220275
Si Si5 0.617334 0.336551 0.656819
Si Si6 0.292928 0.671901 0.006900
Si Si7 0.182585 0.169087 0.377817
O O1 0.291521 0.500000 0.822609
O O2 0.424565 0.317292 0.637225
O O3 0.274190 0.195790 0.852313
O O4 0.278884 0.323136 0.740224
O O5 0.084307 0.241624 0.495164
O O6 0.939865 0.266605 0.737068
O O7 0.993446 0.000000 0.637209
O O8 0.829026 0.500000 0.295876
O O9 0.712269 0.649373 0.506585
O O10 0.869548 0.764061 0.289447
O O11 0.750227 0.744651 0.344496
O O12 0.039433 0.500000 0.214742
O O13 0.943021 0.732670 0.312362
O O14 0.116916 0.746574 0.080864
O O15 0.574185 0.500000 0.718382
O O16 0.309585 0.500000 0.972208
O O17 0.250000 0.750000 0.000000
O O18 0.172315 0.000000 0.414823
#
# Coordination Sequence:
#
# PCOD8116199 Si02
#       7
#     8   8   8   8   8   8   8
#     4  10  20  34  56  81 110 148 188 223 263 318
#     4  10  18  32  53  80 113 148 183 219 263 318
#     4   9  17  31  52  79 112 145 181 219 264 323
#     4  12  23  35  55  81 110 142 181 226 276 323
#     4  10  19  33  53  79 110 142 181 224 274 323
#     4  12  24  39  57  78 107 143 184 229 273 317
#     4   9  17  32  54  82 113 149 185 218 262 325
#
# _framework density 9.8765429999999999
#
# number of rings (size 3 to 8) (size 9 to 14) (size 15 to 20)
#    0.000    1.714    2.857    3.429    0.000    2.286 
#    0.000    1.429    0.000    2.571    0.000    6.000 
#    0.000    0.000    0.000    0.000    0.000    0.000 
#
# Total GULP energy -346917.533785 kJ/mol
# GULP energy per Si atom -12389.911921 kJ/mol
# Density = 0.985406 g / cm^3
# Si number density = 9.876543 Si / 1000 Ang^3
#
#
#
# Elastic Constant Matrix: (Units=GPa)
#
#
# Indices 1 2 3 4 5 6 
#
# 1 107.9955 32.3886 -6.3249 -0.0011 8.1007 -0.0009
# 2 32.3886 114.2600 12.4507 -0.0053 -4.2475 0.0026
# 3 -6.3249 12.4507 16.8440 -0.0089 1.8418 0.0036
# 4 -0.0011 -0.0053 -0.0089 19.1091 0.0019 -4.7233
# 5 8.1007 -4.2475 1.8418 0.0019 13.2399 -0.0005
# 6 -0.0009 0.0026 0.0036 -4.7233 -0.0005 23.0670
#
#
#
# Elastic Compliance Matrix: (Units=1/GPa)
#
#
# Indices 1 2 3 4 5 6 
#
# 1 0.011985 -0.004769 0.009134 0.000005 -0.010134 0.000000
# 2 -0.004769 0.011640 -0.011294 -0.000003 0.008224 0.000000
# 3 0.009134 -0.011294 0.073268 0.000033 -0.019404 -0.000004
# 4 0.000005 -0.000003 0.000033 0.055121 -0.000016 0.011287
# 5 -0.010134 0.008224 -0.019404 -0.000016 0.087067 0.000001
# 6 0.000000 0.000000 -0.000004 0.011287 0.000001 0.045663
#
#
# Mechanical properties :
#
#
# Convention : Reuss Voigt Hill
#
# Bulk Modulus (GPa) = 12.04329 35.12536 23.58432
# Shear Modulus (GPa) = 15.32417 24.45554 19.88985
#
# Velocity S-wave (km/s) = 2.78832 3.52243 3.17665
# Velocity P-wave (km/s) = 4.05912 5.86209 5.04185
#
# Compressibility (1/GPa) = 0.08303376
#
# Stress axis : x y z
#
# Youngs Moduli (GPa) = 83.43738 85.90829 13.64850
#
# Poissons Ratio (x) = 0.40972 -0.12466
# Poissons Ratio (y) = 0.39794 0.15415
# Poissons Ratio (z) = -0.76210 0.97027
#
# Static dielectric constant tensor:
#      x y z
#    x 3.745590 -0.000010 -0.130830 
#    y -0.000010 3.576040 0.000010 
#    z -0.130830 0.000010 3.267020 
# 
# 
# High freq. dielectric constant tensor:
#      x y z
#    x 1.771810 0.000000 -0.014790 
#    y 0.000000 1.746760 0.000000 
#    z -0.014790 0.000000 1.719520 
# 
# From -- ./inp_files/237326.got.cif
#   From: 2010.06.25/outbox.ucp.g09.slc.cvg/sg12_119_cif.got.tgz:237326.got - 2010.06.28 13:50:54.
