data_PCOD8116498
_publ_section_title
;
Structure prediction by ZEFSAII (Michael W. Deem and Ramdas Pophale) SiO2 
 PCOD8116498
Probable space group: C 2/M
;
_chemical_formula_sum "Si O2"
_cell_formula_units_Z 32
_cell_length_a 9.000000
_cell_length_b 18.000000
_cell_length_c 30.000000
_cell_angle_alpha 90.000000
_cell_angle_beta 40.000000
_cell_angle_gamma 90.000000
_cell_volume 3123.947783
_symmetry_space_group_name_H-M "C 2/M"
_symmetry_group_IT_number 12
_symmetry_cell_setting 'monoclinic'
loop_
_space_group_symop_operation_xyz
x,y,z
-x,y,-z
-x,-y,-z
x,-y,z
1/2+x,1/2+y,z
1/2-x,1/2+y,-z
1/2-x,1/2-y,-z
1/2+x,1/2-y,z
loop_
_atom_site_type_symbol
_atom_site_label
_atom_site_fract_x
_atom_site_fract_y
_atom_site_fract_z
Si Si1 0.464017 0.916412 0.205713
Si Si2 0.180245 0.787095 0.715899
Si Si3 0.261096 0.299130 0.955129
Si Si4 0.789018 0.413020 0.518491
Si Si5 0.777046 0.860232 0.650403
Si Si6 0.519147 0.912824 0.622204
Si Si7 0.979710 0.915619 0.055025
Si Si8 0.681966 0.224792 0.807075
O O1 0.379496 0.898835 0.275238
O O2 0.349900 0.861562 0.196794
O O3 0.737051 0.905355 0.135985
O O4 0.390802 0.000000 0.210228
O O5 0.263968 0.728508 0.659390
O O6 0.275311 0.867858 0.679333
O O7 0.280963 0.768559 0.741363
O O8 0.903040 0.778350 0.788869
O O9 0.340276 0.380182 0.952190
O O10 0.448047 0.262613 0.878727
O O11 0.250000 0.250000 0.000000
O O12 0.000000 0.306674 0.000000
O O13 0.765981 0.500000 0.531416
O O14 0.548508 0.378858 0.590819
O O15 0.000000 0.381360 0.500000
O O16 0.840820 0.394467 0.454993
O O17 0.683338 0.887408 0.624547
O O18 0.458507 0.000000 0.639509
O O19 0.055000 0.000000 0.032755
O O20 0.000000 0.879862 0.000000
#
# Coordination Sequence:
#
# PCOD8116498 Si02
#       8
#     8   8   8   8   8   8   8   8
#     4  10  21  37  66  94 122 169 215 261 324 386
#     4  11  24  41  62  92 130 169 210 275 325 380
#     4  12  23  39  64  92 124 171 218 258 318 391
#     4  10  23  40  64  97 132 167 209 268 324 384
#     4  11  22  42  66  91 129 169 219 260 323 390
#     4  11  24  42  66  96 128 169 216 266 325 391
#     4  10  22  41  64  95 132 167 214 269 323 385
#     4  11  23  41  61  91 130 163 215 269 321 376
#
# _framework density 10.243449
#
# number of rings (size 3 to 8) (size 9 to 14) (size 15 to 20)
#    0.000    1.250    1.250    5.625    3.500    2.250 
#    0.000    0.000    0.000    3.000    0.000    0.000 
#    0.000    0.000    0.000    0.000    0.000    0.000 
#
# Total GULP energy -396607.008278 kJ/mol
# GULP energy per Si atom -12393.969009 kJ/mol
# Density = 1.022013 g / cm^3
# Si number density = 10.243449 Si / 1000 Ang^3
#
#
#
# Elastic Constant Matrix: (Units=GPa)
#
#
# Indices 1 2 3 4 5 6 
#
# 1 118.0103 45.7135 68.2889 0.0123 -8.5504 -0.0084
# 2 45.7135 108.7435 57.8720 0.0083 -0.4912 -0.0014
# 3 68.2889 57.8720 163.9294 0.0068 -11.4021 -0.0100
# 4 0.0123 0.0083 0.0068 32.2854 -0.0197 -1.2652
# 5 -8.5504 -0.4912 -11.4021 -0.0197 40.0496 0.0097
# 6 -0.0084 -0.0014 -0.0100 -1.2652 0.0097 27.1307
#
#
#
# Elastic Compliance Matrix: (Units=1/GPa)
#
#
# Indices 1 2 3 4 5 6 
#
# 1 0.011944 -0.002979 -0.003825 -0.000002 0.001425 0.000002
# 2 -0.002979 0.012107 -0.003129 -0.000002 -0.001378 -0.000001
# 3 -0.003825 -0.003129 0.008915 0.000001 0.001683 0.000001
# 4 -0.000002 -0.000002 0.000001 0.031031 0.000015 0.001447
# 5 0.001425 -0.001378 0.001683 0.000015 0.025736 -0.000008
# 6 0.000002 -0.000001 0.000001 0.001447 -0.000008 0.036926
#
#
# Mechanical properties :
#
#
# Convention : Reuss Voigt Hill
#
# Bulk Modulus (GPa) = 76.33168 81.60357 78.96762
# Shear Modulus (GPa) = 33.13616 34.48039 33.80828
#
# Velocity S-wave (km/s) = 4.02609 4.10694 4.06672
# Velocity P-wave (km/s) = 7.67804 7.89987 7.78974
#
# Compressibility (1/GPa) = 0.01310072
#
# Stress axis : x y z
#
# Youngs Moduli (GPa) = 83.72073 82.59428 112.16676
#
# Poissons Ratio (x) = 0.24606 0.42903
# Poissons Ratio (y) = 0.24942 0.35098
# Poissons Ratio (z) = 0.32023 0.25844
#
# Static dielectric constant tensor:
#      x y z
#    x 3.516160 -0.000030 0.066640 
#    y -0.000030 3.781540 0.000030 
#    z 0.066640 0.000030 4.009630 
# 
# 
# High freq. dielectric constant tensor:
#      x y z
#    x 1.797810 0.000000 -0.000980 
#    y 0.000000 1.803540 0.000000 
#    z -0.000980 0.000000 1.826500 
# 
# From -- ./inp_files/372939.got.cif
#   From: 2010.06.25/outbox.ucp.g09.slc.cvg/sg12_187_cif.got.tgz:372939.got - 2010.06.28 13:50:54.
