data_PCOD8116918
_publ_section_title
;
Structure prediction by ZEFSAII (Michael W. Deem and Ramdas Pophale) SiO2 
 PCOD8116918
Probable space group: P 2/C
;
_chemical_formula_sum "Si O2"
_cell_formula_units_Z 24
_cell_length_a 16.478371
_cell_length_b 11.310564
_cell_length_c 11.861897
_cell_angle_alpha 90.000000
_cell_angle_beta 34.376901
_cell_angle_gamma 90.000000
_cell_volume 1248.302819
_symmetry_space_group_name_H-M "P 2/C"
_symmetry_group_IT_number 13
_symmetry_cell_setting 'monoclinic'
loop_
_space_group_symop_operation_xyz
x,y,z
-x,y,1/2-z
-x,-y,-z
x,-y,1/2+z
loop_
_atom_site_type_symbol
_atom_site_label
_atom_site_fract_x
_atom_site_fract_y
_atom_site_fract_z
Si Si1 0.943749 0.744136 0.053063
Si Si2 0.659619 0.712157 0.022255
Si Si3 0.887836 0.902431 0.787698
Si Si4 0.772694 0.331617 0.161080
Si Si5 0.845198 0.825985 0.384470
Si Si6 0.846660 0.569913 0.973256
O O1 0.821672 0.769269 0.287494
O O2 0.866545 0.675369 0.040577
O O3 0.021811 0.870365 0.929829
O O4 0.071091 0.666505 0.959309
O O5 0.500000 0.718985 0.250000
O O6 0.750864 0.610962 0.978419
O O7 0.736744 0.835867 0.960487
O O8 0.653771 0.687866 0.894519
O O9 0.000000 0.851508 0.750000
O O10 0.839808 0.034046 0.873541
O O11 0.757177 0.461171 0.126387
O O12 0.742709 0.230205 0.098608
O O13 0.000000 0.786265 0.250000
O O14 0.000000 0.526899 0.750000
#
# Coordination Sequence:
#
# PCOD8116918 Si02
#       6
#     4   4   4   4   4   4
#     4  10  17  32  56  94 113 145 180 238 281 332
#     4  11  24  41  57  79 114 155 193 232 283 335
#     4  10  17  36  59  87 110 147 191 234 278 335
#     4  10  22  35  58  88 119 145 183 239 286 331
#     4   9  19  31  56  91 120 139 183 239 291 325
#     4  12  20  36  63  87 112 146 193 230 283 341
#
# _framework density 19.226102999999998
#
# number of rings (size 3 to 8) (size 9 to 14) (size 15 to 20)
#    0.000    1.667    5.000    2.500    2.333    2.000 
#    0.000    0.833    0.000    0.000    0.000    0.000 
#    0.000    0.000    0.000    0.000    0.000    0.000 
#
# Total GULP energy -297324.304974 kJ/mol
# GULP energy per Si atom -12388.512707 kJ/mol
# Density = 1.918234 g / cm^3
# Si number density = 19.226103 Si / 1000 Ang^3
#
#
#
# Elastic Constant Matrix: (Units=GPa)
#
#
# Indices 1 2 3 4 5 6 
#
# 1 43.2483 41.6252 51.0660 0.0000 18.1808 0.0000
# 2 41.6252 117.5893 52.3263 0.0000 30.2250 0.0000
# 3 51.0660 52.3263 147.4388 0.0000 27.3614 0.0000
# 4 0.0000 0.0000 0.0000 12.5481 0.0000 11.2873
# 5 18.1808 30.2250 27.3614 0.0000 31.1121 0.0000
# 6 0.0000 0.0000 0.0000 11.2873 0.0000 12.9752
#
#
#
# Elastic Compliance Matrix: (Units=1/GPa)
#
#
# Indices 1 2 3 4 5 6 
#
# 1 0.051792 -0.010404 -0.012554 0.000000 -0.009118 0.000000
# 2 -0.010404 0.014159 0.000003 0.000000 -0.007679 0.000000
# 3 -0.012554 0.000003 0.011674 0.000000 -0.002934 0.000000
# 4 0.000000 0.000000 0.000000 0.366419 0.000000 -0.318754
# 5 -0.009118 -0.007679 -0.002934 0.000000 0.047510 0.000000
# 6 0.000000 0.000000 0.000000 -0.318754 0.000000 0.354359
#
#
# Mechanical properties :
#
#
# Convention : Reuss Voigt Hill
#
# Bulk Modulus (GPa) = 31.52975 66.47903 49.00439
# Shear Modulus (GPa) = 5.54082 22.21099 13.87591
#
# Velocity S-wave (km/s) = 1.69947 3.40259 2.68940
# Velocity P-wave (km/s) = 4.50399 7.07738 5.93192
#
# Compressibility (1/GPa) = 0.03171608
#
# Stress axis : x y z
#
# Youngs Moduli (GPa) = 19.30812 70.62512 85.66163
#
# Poissons Ratio (x) = 0.73476 1.07539
# Poissons Ratio (y) = 0.20088 -0.00028
# Poissons Ratio (z) = 0.24239 -0.00023
#
# Static dielectric constant tensor:
#      x y z
#    x 3.608420 0.000000 0.611460 
#    y 0.000000 3.370480 0.000000 
#    z 0.611460 0.000000 3.503330 
# 
# 
# High freq. dielectric constant tensor:
#      x y z
#    x 1.733710 0.000000 0.047930 
#    y 0.000000 1.750850 0.000000 
#    z 0.047930 0.000000 1.721590 
# 
# From -- ./inp_files/39091.got.cif
#   From: 2010.06.25/outbox.cif.g09.slc.cpg/sg13_20_cif.got.tgz:39091.got - 2010.06.28 04:50:58.
