data_PCOD8116053
_publ_section_title
;
Structure prediction by ZEFSAII (Michael W. Deem and Ramdas Pophale) SiO2 
 PCOD8116053
Probable space group: C 2/M
;
_chemical_formula_sum "Si O2"
_cell_formula_units_Z 48
_cell_length_a 16.584016
_cell_length_b 26.605942
_cell_length_c 18.080608
_cell_angle_alpha 90.000000
_cell_angle_beta 156.630122
_cell_angle_gamma 90.000000
_cell_volume 3164.503933
_symmetry_space_group_name_H-M "C 2/M"
_symmetry_group_IT_number 12
_symmetry_cell_setting 'monoclinic'
loop_
_space_group_symop_operation_xyz
x,y,z
-x,y,-z
-x,-y,-z
x,-y,z
1/2+x,1/2+y,z
1/2-x,1/2+y,-z
1/2-x,1/2-y,-z
1/2+x,1/2-y,z
loop_
_atom_site_type_symbol
_atom_site_label
_atom_site_fract_x
_atom_site_fract_y
_atom_site_fract_z
Si Si1 0.471318 0.289651 0.792517
Si Si2 0.206317 0.440938 0.205801
Si Si3 0.369270 0.441100 0.500164
Si Si4 0.091264 0.229000 0.499748
Si Si5 0.885555 0.710364 0.206759
Si Si6 0.765502 0.150045 0.499536
O O1 0.284606 0.264722 0.679554
O O2 0.552641 0.248890 0.804244
O O3 0.398217 0.337951 0.684149
O O4 0.649669 0.305739 0.999522
O O5 0.196246 0.500000 0.186803
O O6 0.228678 0.428396 0.311062
O O7 0.401362 0.422514 0.323835
O O8 0.000000 0.415524 0.000000
O O9 0.359466 0.500000 0.512014
O O10 0.286073 0.409047 0.499071
O O11 0.155247 0.181520 0.504336
O O12 0.000000 0.209042 0.500000
O O13 0.921130 0.262691 0.315274
O O14 0.029960 0.661773 0.319114
#
# Coordination Sequence:
#
# PCOD8116053 Si02
#       6
#     8   8   8   8   8   8
#     4   8  15  29  43  56  78 107 134 163 205 249
#     4   8  15  27  38  49  73 108 139 171 208 233
#     4   9  17  27  40  57  79 108 142 175 203 233
#     4   9  17  26  41  62  83 106 133 170 203 235
#     4   8  15  29  43  56  78 107 134 163 205 249
#     4   9  17  27  42  58  81 112 140 167 199 239
#
# _framework density 15.168253999999999
#
# number of rings (size 3 to 8) (size 9 to 14) (size 15 to 20)
#    0.000    3.500    0.000    3.000    2.333    2.000 
#    0.000    0.000    0.000    0.000    0.000    0.000 
#    0.000   10.667    0.000   12.000    0.000    0.000 
#
# Total GULP energy -297411.554970 kJ/mol
# GULP energy per Si atom -12392.148124 kJ/mol
# Density = 1.513373 g / cm^3
# Si number density = 15.168254 Si / 1000 Ang^3
#
#
#
# Elastic Constant Matrix: (Units=GPa)
#
#
# Indices 1 2 3 4 5 6 
#
# 1 33.2730 8.1444 13.1353 -0.0003 -1.2580 -0.0003
# 2 8.1444 53.9900 19.7297 -0.0002 1.0883 -0.0002
# 3 13.1353 19.7297 125.2788 -0.0007 12.0725 -0.0004
# 4 -0.0003 -0.0002 -0.0007 11.2179 -0.0005 -2.3547
# 5 -1.2580 1.0883 12.0725 -0.0005 9.4707 -0.0004
# 6 -0.0003 -0.0002 -0.0004 -2.3547 -0.0004 23.8190
#
#
#
# Elastic Compliance Matrix: (Units=1/GPa)
#
#
# Indices 1 2 3 4 5 6 
#
# 1 0.032830 -0.003767 -0.003775 0.000001 0.009605 0.000001
# 2 -0.003767 0.020116 -0.002852 0.000000 0.000824 0.000000
# 3 -0.003775 -0.002852 0.010082 0.000000 -0.013026 0.000000
# 4 0.000001 0.000000 0.000000 0.091032 0.000005 0.008999
# 5 0.009605 0.000824 -0.013026 0.000005 0.123374 0.000002
# 6 0.000001 0.000000 0.000000 0.008999 0.000002 0.042873
#
#
# Mechanical properties :
#
#
# Convention : Reuss Voigt Hill
#
# Bulk Modulus (GPa) = 23.67386 32.72893 28.20140
# Shear Modulus (GPa) = 14.07759 20.33702 17.20730
#
# Velocity S-wave (km/s) = 3.04977 3.66561 3.37178
# Velocity P-wave (km/s) = 5.29555 6.28806 5.81303
#
# Compressibility (1/GPa) = 0.04224068
#
# Stress axis : x y z
#
# Youngs Moduli (GPa) = 30.46031 49.71187 99.18262
#
# Poissons Ratio (x) = 0.18725 0.37437
# Poissons Ratio (y) = 0.11473 0.28292
# Poissons Ratio (z) = 0.11497 0.14180
#
# Static dielectric constant tensor:
#      x y z
#    x 2.615600 0.000000 0.209820 
#    y 0.000000 2.578070 0.000000 
#    z 0.209820 0.000000 3.749720 
# 
# 
# High freq. dielectric constant tensor:
#      x y z
#    x 1.544310 0.000000 0.007540 
#    y 0.000000 1.543360 0.000000 
#    z 0.007540 0.000000 1.594690 
# 
# From -- ./inp_files/218887.got.cif
#   From: 2010.06.25/outbox.cif.g09.slc.cpg/sg12_110_cif.got.tgz:218887.got - 2010.06.28 00:19:55.
