data_PCOD8116006
_publ_section_title
;
Structure prediction by ZEFSAII (Michael W. Deem and Ramdas Pophale) SiO2 
 PCOD8116006
Probable space group: C 2/M
;
_chemical_formula_sum "Si O2"
_cell_formula_units_Z 56
_cell_length_a 19.272738
_cell_length_b 9.240544
_cell_length_c 18.939458
_cell_angle_alpha 90.000000
_cell_angle_beta 105.961418
_cell_angle_gamma 90.000000
_cell_volume 3242.902499
_symmetry_space_group_name_H-M "C 2/M"
_symmetry_group_IT_number 12
_symmetry_cell_setting 'monoclinic'
loop_
_space_group_symop_operation_xyz
x,y,z
-x,y,-z
-x,-y,-z
x,-y,z
1/2+x,1/2+y,z
1/2-x,1/2+y,-z
1/2-x,1/2-y,-z
1/2+x,1/2-y,z
loop_
_atom_site_type_symbol
_atom_site_label
_atom_site_fract_x
_atom_site_fract_y
_atom_site_fract_z
Si Si1 0.473091 0.830684 0.570011
Si Si2 0.119447 0.836050 0.143217
Si Si3 0.083546 0.662770 0.002953
Si Si4 0.857885 0.332197 0.719497
Si Si5 0.951226 0.839989 0.133437
Si Si6 0.501861 0.669536 0.292730
Si Si7 0.311172 0.834825 0.557106
O O1 0.500000 0.792167 0.500000
O O2 0.522122 0.735805 0.638400
O O3 0.389872 0.781158 0.553698
O O4 0.482397 0.000000 0.590448
O O5 0.166356 0.753574 0.216624
O O6 0.036235 0.830885 0.141851
O O7 0.147578 0.000000 0.144299
O O8 0.130129 0.756059 0.071333
O O9 0.113400 0.500000 0.011286
O O10 0.093071 0.727237 0.926754
O O11 0.000000 0.667915 0.000000
O O12 0.869961 0.500000 0.742621
O O13 0.931302 0.266554 0.711287
O O14 0.800943 0.315352 0.639212
O O15 0.940509 0.810530 0.214543
O O16 0.923253 0.000000 0.105702
O O17 0.522702 0.500000 0.304948
O O18 0.250000 0.750000 0.500000
O O19 0.302069 0.000000 0.532521
#
# Coordination Sequence:
#
# PCOD8116006 Si02
#       7
#     8   8   8   8   8   8   8
#     4   9  18  32  47  63  85 113 144 177 214 255
#     4   9  15  22  32  46  66  94 127 164 204 242
#     4   9  15  20  28  43  63  91 127 163 197 237
#     4   9  16  26  38  53  74 101 134 168 204 247
#     4   8  14  22  30  43  66  94 124 160 199 239
#     4   9  16  25  38  56  76 100 132 169 208 248
#     4   9  18  30  45  64  85 111 141 176 215 254
#
# _framework density 17.268481000000001
#
# number of rings (size 3 to 8) (size 9 to 14) (size 15 to 20)
#    0.000    3.143    0.000    3.429    0.000    8.857 
#    0.000    0.000    0.000    0.000    0.000    0.000 
#    0.000    0.000    0.000    1.286    0.000   18.000 
#
# Total GULP energy -346931.498971 kJ/mol
# GULP energy per Si atom -12390.410678 kJ/mol
# Density = 1.722918 g / cm^3
# Si number density = 17.268481 Si / 1000 Ang^3
#
#
#
# Elastic Constant Matrix: (Units=GPa)
#
#
# Indices 1 2 3 4 5 6 
#
# 1 16.8381 14.2635 25.1485 0.0000 0.3257 0.0000
# 2 14.2635 133.2245 91.4319 0.0000 2.1426 0.0000
# 3 25.1485 91.4319 169.0178 0.0000 -2.0766 0.0000
# 4 0.0000 0.0000 0.0000 41.5170 0.0000 2.6817
# 5 0.3257 2.1426 -2.0766 0.0000 10.7291 0.0000
# 6 0.0000 0.0000 0.0000 2.6817 0.0000 9.8362
#
#
#
# Elastic Compliance Matrix: (Units=1/GPa)
#
#
# Indices 1 2 3 4 5 6 
#
# 1 0.076593 -0.000431 -0.011218 0.000000 -0.004410 0.000000
# 2 -0.000431 0.012085 -0.006518 0.000000 -0.003662 0.000000
# 3 -0.011218 -0.006518 0.011158 0.000000 0.003802 0.000000
# 4 0.000000 0.000000 0.000000 0.024518 0.000000 -0.006685
# 5 -0.004410 -0.003662 0.003802 0.000000 0.094806 0.000000
# 6 0.000000 0.000000 0.000000 -0.006685 0.000000 0.103487
#
#
# Mechanical properties :
#
#
# Convention : Reuss Voigt Hill
#
# Bulk Modulus (GPa) = 15.74725 64.52981 40.13853
# Shear Modulus (GPa) = 13.15276 24.96557 19.05917
#
# Velocity S-wave (km/s) = 2.76282 3.80640 3.32580
# Velocity P-wave (km/s) = 4.39504 7.53445 6.16783
#
# Compressibility (1/GPa) = 0.06350314
#
# Stress axis : x y z
#
# Youngs Moduli (GPa) = 13.05596 82.75044 89.61873
#
# Poissons Ratio (x) = 0.03565 1.00531
# Poissons Ratio (y) = 0.00563 0.58415
# Poissons Ratio (z) = 0.14646 0.53938
#
# Static dielectric constant tensor:
#      x y z
#    x 2.397210 0.000000 -0.052420 
#    y 0.000000 3.402530 0.000000 
#    z -0.052420 0.000000 3.890330 
# 
# 
# High freq. dielectric constant tensor:
#      x y z
#    x 1.561060 0.000000 0.000120 
#    y 0.000000 1.680570 0.000000 
#    z 0.000120 0.000000 1.694050 
# 
# From -- ./inp_files/287019.got.cif
#   From: 2010.06.25/outbox.cif.g09.slc.cpg/sg12_144_cif.got.tgz:287019.got - 2010.06.28 00:19:55.
