data_PCOD8116496
_publ_section_title
;
Structure prediction by ZEFSAII (Michael W. Deem and Ramdas Pophale) SiO2 
 PCOD8116496
Probable space group: C 2/M
;
_chemical_formula_sum "Si O2"
_cell_formula_units_Z 20
_cell_length_a 15.000000
_cell_length_b 18.000000
_cell_length_c 21.000000
_cell_angle_alpha 90.000000
_cell_angle_beta 160.000000
_cell_angle_gamma 90.000000
_cell_volume 1939.254213
_symmetry_space_group_name_H-M "C 2/M"
_symmetry_group_IT_number 12
_symmetry_cell_setting 'monoclinic'
loop_
_space_group_symop_operation_xyz
x,y,z
-x,y,-z
-x,-y,-z
x,-y,z
1/2+x,1/2+y,z
1/2-x,1/2+y,-z
1/2-x,1/2-y,-z
1/2+x,1/2-y,z
loop_
_atom_site_type_symbol
_atom_site_label
_atom_site_fract_x
_atom_site_fract_y
_atom_site_fract_z
Si Si1 0.766188 0.838891 0.219091
Si Si2 0.708540 0.085683 0.436307
Si Si3 0.042816 0.675889 0.629406
Si Si4 0.505288 0.849895 0.172028
Si Si5 0.425403 0.675666 0.777407
O O1 0.922133 0.761668 0.328909
O O2 0.674382 0.871711 0.224467
O O3 0.991847 0.893041 0.343820
O O4 0.500000 0.831070 0.000000
O O5 0.483067 0.128569 0.324080
O O6 0.640914 0.103058 0.318066
O O7 0.673862 0.000000 0.427981
O O8 0.296125 0.653578 0.758246
O O9 0.776156 0.656327 0.413382
O O10 0.525361 0.762715 0.197538
O O11 0.197876 0.869169 0.955164
#
# Coordination Sequence:
#
# PCOD8116496 Si02
#       5
#     8   8   8   8   8
#     4  11  23  39  67  97 122 162 215 269 309 362
#     4  12  26  41  60  92 136 173 203 252 320 386
#     4  10  21  39  64  96 123 160 212 263 311 365
#     4  10  21  37  61  94 122 161 205 262 319 359
#     4   9  19  38  65  91 121 155 213 268 303 359
#
# _framework density 10.313243
#
# number of rings (size 3 to 8) (size 9 to 14) (size 15 to 20)
#    0.000    1.600    2.000    2.400    8.400    2.000 
#    0.000    7.000    0.000    0.000    0.000    0.000 
#    0.000    0.000    0.000    0.000    0.000    0.000 
#
# Total GULP energy -247890.184584 kJ/mol
# GULP energy per Si atom -12394.509229 kJ/mol
# Density = 1.028977 g / cm^3
# Si number density = 10.313243 Si / 1000 Ang^3
#
#
#
# Elastic Constant Matrix: (Units=GPa)
#
#
# Indices 1 2 3 4 5 6 
#
# 1 105.2221 65.3427 15.6355 0.0258 10.8208 -0.0155
# 2 65.3427 47.7342 41.0243 -0.1919 18.7428 0.0158
# 3 15.6355 41.0243 114.8003 0.1234 13.3740 -0.0174
# 4 0.0258 -0.1919 0.1234 13.7111 -0.0942 -4.9644
# 5 10.8208 18.7428 13.3740 -0.0942 35.6602 0.0868
# 6 -0.0155 0.0158 -0.0174 -4.9644 0.0868 5.5450
#
#
#
# Elastic Compliance Matrix: (Units=1/GPa)
#
#
# Indices 1 2 3 4 5 6 
#
# 1 -0.070301 0.144114 -0.037215 0.003216 -0.040454 0.002789
# 2 0.144114 -0.258867 0.064967 -0.005786 0.067960 -0.004900
# 3 -0.037215 0.064967 -0.007085 0.001341 -0.020196 0.001205
# 4 0.003216 -0.005786 0.001341 0.107788 0.001612 0.096507
# 5 -0.040454 0.067960 -0.020196 0.001612 0.012175 0.000883
# 6 0.002789 -0.004900 0.001205 0.096507 0.000883 0.266758
#
#
# Mechanical properties :
#
#
# Convention : Reuss Voigt Hill
#
# Bulk Modulus (GPa) = 133.70601 56.86240 95.28420
# Shear Modulus (GPa) = -17.19562 20.70019 1.75229
#
# Velocity S-wave (km/s) = -2.89046 3.17136 0.92270
# Velocity P-wave (km/s) = 7.33645 6.40605 6.88698
#
# Compressibility (1/GPa) = 0.00747910
#
# Stress axis : x y z
#
# Youngs Moduli (GPa) = -14.22460 -3.86299 -141.13558
#
# Poissons Ratio (x) = 0.55671 -5.25235
# Poissons Ratio (y) = 2.04996 9.16920
# Poissons Ratio (z) = -0.52937 0.25097
#
# Static dielectric constant tensor:
#      x y z
#    x 3.901000 0.000170 0.176810 
#    y 0.000170 3.248640 -0.000580 
#    z 0.176810 -0.000580 4.105280 
# 
# 
# High freq. dielectric constant tensor:
#      x y z
#    x 1.820310 0.000000 0.012380 
#    y 0.000000 1.753830 -0.000040 
#    z 0.012380 -0.000040 1.831290 
# 
# From -- ./inp_files/60857.got.cif
#   From: 2010.06.25/outbox.ucp.g09.slc.cvg/sg12_31_cif.got.tgz:60857.got - 2010.06.28 13:50:54.
