data_PCOD8116057
_publ_section_title
;
Structure prediction by ZEFSAII (Michael W. Deem and Ramdas Pophale) SiO2 
 PCOD8116057
Probable space group: C 2/M
;
_chemical_formula_sum "Si O2"
_cell_formula_units_Z 56
_cell_length_a 31.738259
_cell_length_b 9.395407
_cell_length_c 13.582022
_cell_angle_alpha 90.000000
_cell_angle_beta 113.747103
_cell_angle_gamma 90.000000
_cell_volume 3707.163137
_symmetry_space_group_name_H-M "C 2/M"
_symmetry_group_IT_number 12
_symmetry_cell_setting 'monoclinic'
loop_
_space_group_symop_operation_xyz
x,y,z
-x,y,-z
-x,-y,-z
x,-y,z
1/2+x,1/2+y,z
1/2-x,1/2+y,-z
1/2-x,1/2-y,-z
1/2+x,1/2-y,z
loop_
_atom_site_type_symbol
_atom_site_label
_atom_site_fract_x
_atom_site_fract_y
_atom_site_fract_z
Si Si1 0.478634 0.831736 0.132190
Si Si2 0.652057 0.839153 0.512777
Si Si3 0.931330 0.332133 0.891564
Si Si4 0.429041 0.334003 0.477059
Si Si5 0.661424 0.832342 0.293155
Si Si6 0.246186 0.165089 0.396014
Si Si7 0.020120 0.833490 0.671887
O O1 0.528475 0.774985 0.142644
O O2 0.464470 0.753525 0.218386
O O3 0.478871 0.000000 0.151097
O O4 0.441145 0.789043 0.013725
O O5 0.618459 0.742230 0.543970
O O6 0.651620 0.795250 0.397682
O O7 0.703514 0.823865 0.607400
O O8 0.634350 0.000000 0.505795
O O9 0.932568 0.500000 0.882513
O O10 0.881693 0.275268 0.810947
O O11 0.420683 0.500000 0.481060
O O12 0.469259 0.285022 0.589513
O O13 0.443538 0.297072 0.379446
O O14 0.705764 0.742896 0.295917
O O15 0.670958 0.000000 0.287706
O O16 0.250000 0.250000 0.500000
O O17 0.233508 0.000000 0.403302
O O18 0.020585 0.000000 0.696631
#
# Coordination Sequence:
#
# PCOD8116057 Si02
#       7
#     8   8   8   8   8   8   8
#     4   9  16  28  45  62  82 112 142 168 200 240
#     4   9  17  27  41  62  85 106 135 173 204 233
#     4   8  15  27  43  63  86 110 139 169 200 240
#     4   9  18  30  43  58  81 113 141 164 203 250
#     4   9  16  27  42  61  86 113 137 167 203 241
#     4   9  17  28  40  58  84 111 137 168 205 245
#     4   9  18  31  42  58  85 111 136 171 206 239
#
# _framework density 15.10589
#
# number of rings (size 3 to 8) (size 9 to 14) (size 15 to 20)
#    0.000    3.143    0.000    3.857    0.000    5.143 
#    0.000    4.286    0.000    0.000    0.000    1.000 
#    0.000    0.000    0.000    0.000    0.000    0.000 
#
# Total GULP energy -347025.337790 kJ/mol
# GULP energy per Si atom -12393.762064 kJ/mol
# Density = 1.507151 g / cm^3
# Si number density = 15.105890 Si / 1000 Ang^3
#
#
#
# Elastic Constant Matrix: (Units=GPa)
#
#
# Indices 1 2 3 4 5 6 
#
# 1 100.8983 47.8363 54.2188 0.0000 14.8366 0.0000
# 2 47.8363 55.8461 38.3287 0.0000 3.1323 0.0000
# 3 54.2188 38.3287 97.7131 0.0000 10.1748 0.0000
# 4 0.0000 0.0000 0.0000 21.5958 0.0000 0.3920
# 5 14.8366 3.1323 10.1748 0.0000 26.9233 0.0000
# 6 0.0000 0.0000 0.0000 0.3920 0.0000 28.4694
#
#
#
# Elastic Compliance Matrix: (Units=1/GPa)
#
#
# Indices 1 2 3 4 5 6 
#
# 1 0.020065 -0.013221 -0.005159 0.000000 -0.007569 0.000000
# 2 -0.013221 0.033232 -0.006303 0.000000 0.005802 0.000000
# 3 -0.005159 -0.006303 0.015819 0.000000 -0.002402 0.000000
# 4 0.000000 0.000000 0.000000 0.046317 0.000000 -0.000638
# 5 -0.007569 0.005802 -0.002402 0.000000 0.041546 0.000000
# 6 0.000000 0.000000 0.000000 -0.000638 0.000000 0.035134
#
#
# Mechanical properties :
#
#
# Convention : Reuss Voigt Hill
#
# Bulk Modulus (GPa) = 50.63706 59.46946 55.05326
# Shear Modulus (GPa) = 20.15606 23.00261 21.57934
#
# Velocity S-wave (km/s) = 3.65679 3.90649 3.78370
# Velocity P-wave (km/s) = 7.17103 7.73313 7.45738
#
# Compressibility (1/GPa) = 0.01974838
#
# Stress axis : x y z
#
# Youngs Moduli (GPa) = 49.83916 30.09121 63.21374
#
# Poissons Ratio (x) = 0.39785 0.32612
# Poissons Ratio (y) = 0.65895 0.39846
# Poissons Ratio (z) = 0.25712 0.18968
#
# Static dielectric constant tensor:
#      x y z
#    x 3.118230 0.000000 0.394510 
#    y 0.000000 2.810340 0.000000 
#    z 0.394510 0.000000 2.979960 
# 
# 
# High freq. dielectric constant tensor:
#      x y z
#    x 1.569270 0.000000 0.016260 
#    y 0.000000 1.570500 0.000000 
#    z 0.016260 0.000000 1.556050 
# 
# From -- ./inp_files/247917.got.cif
#   From: 2010.06.25/outbox.cif.g09.slc.cpg/sg12_124_cif.got.tgz:247917.got - 2010.06.28 00:19:55.
