data_PCOD8116568
_publ_section_title
;
Structure prediction by ZEFSAII (Michael W. Deem and Ramdas Pophale) SiO2 
 PCOD8116568
Probable space group: C 2/M
;
_chemical_formula_sum "Si O2"
_cell_formula_units_Z 28
_cell_length_a 21.000000
_cell_length_b 18.000000
_cell_length_c 21.000000
_cell_angle_alpha 90.000000
_cell_angle_beta 20.000000
_cell_angle_gamma 90.000000
_cell_volume 2714.955898
_symmetry_space_group_name_H-M "C 2/M"
_symmetry_group_IT_number 12
_symmetry_cell_setting 'monoclinic'
loop_
_space_group_symop_operation_xyz
x,y,z
-x,y,-z
-x,-y,-z
x,-y,z
1/2+x,1/2+y,z
1/2-x,1/2+y,-z
1/2-x,1/2-y,-z
1/2+x,1/2-y,z
loop_
_atom_site_type_symbol
_atom_site_label
_atom_site_fract_x
_atom_site_fract_y
_atom_site_fract_z
Si Si1 0.714130 0.361776 0.291705
Si Si2 0.406145 0.583645 0.887245
Si Si3 0.103784 0.661514 0.252437
Si Si4 0.559979 0.912210 0.041549
Si Si5 0.218289 0.189492 0.786463
Si Si6 0.274185 0.085480 0.617138
Si Si7 0.804946 0.193787 0.892706
O O1 0.500000 0.389415 0.500000
O O2 0.710767 0.272588 0.292013
O O3 0.846693 0.389382 0.225184
O O4 0.799216 0.399319 0.149079
O O5 0.372150 0.500000 0.896459
O O6 0.563524 0.588516 0.791910
O O7 0.453723 0.633674 0.780237
O O8 0.216068 0.617934 0.092971
O O9 0.199296 0.648434 0.230089
O O10 0.097179 0.751841 0.250567
O O11 0.901711 0.623089 0.442939
O O12 0.566771 0.000000 0.055070
O O13 0.629759 0.854482 0.030544
O O14 0.289969 0.136272 0.663814
O O15 0.000000 0.192315 0.000000
O O16 0.333548 0.000000 0.574927
O O17 0.750000 0.250000 0.000000
#
# Coordination Sequence:
#
# PCOD8116568 Si02
#       7
#     8   8   8   8   8   8   8
#     4  11  22  39  66  96 128 164 204 249 315 383
#     4  10  22  40  62  86 122 163 206 260 309 362
#     4  11  21  40  62  88 122 164 205 254 313 375
#     4  11  23  41  65  95 131 161 203 261 312 368
#     4  12  21  39  64  92 129 164 205 254 313 385
#     4  11  25  39  61  95 126 160 206 259 317 374
#     4  10  22  41  64  90 118 167 215 254 303 364
#
# _framework density 10.313243
#
# number of rings (size 3 to 8) (size 9 to 14) (size 15 to 20)
#    0.000    1.143    4.286    3.000    2.000    3.714 
#    0.000    2.857    0.000    5.143    0.000    0.000 
#    0.000    0.000    0.000    0.000    0.000    0.000 
#
# Total GULP energy -347015.579170 kJ/mol
# GULP energy per Si atom -12393.413542 kJ/mol
# Density = 1.028977 g / cm^3
# Si number density = 10.313243 Si / 1000 Ang^3
#
#
#
# Elastic Constant Matrix: (Units=GPa)
#
#
# Indices 1 2 3 4 5 6 
#
# 1 79.4737 44.2691 11.3880 0.0303 -1.5448 -0.0268
# 2 44.2691 170.3139 36.5609 0.0333 -0.7687 -0.0245
# 3 11.3880 36.5609 99.0347 0.0318 1.9091 -0.0364
# 4 0.0303 0.0333 0.0318 26.0487 0.0008 -0.2929
# 5 -1.5448 -0.7687 1.9091 0.0008 10.3511 0.0261
# 6 -0.0268 -0.0245 -0.0364 -0.2929 0.0261 41.7265
#
#
#
# Elastic Compliance Matrix: (Units=1/GPa)
#
#
# Indices 1 2 3 4 5 6 
#
# 1 0.014762 -0.003753 -0.000350 -0.000012 0.001989 0.000006
# 2 -0.003753 0.007340 -0.002286 -0.000002 0.000407 0.000000
# 3 -0.000350 -0.002286 0.011025 -0.000010 -0.002255 0.000009
# 4 -0.000012 -0.000002 -0.000010 0.038393 -0.000004 0.000269
# 5 0.001989 0.000407 -0.002255 -0.000004 0.097352 -0.000061
# 6 0.000006 0.000000 0.000009 0.000269 -0.000061 0.023968
#
#
# Mechanical properties :
#
#
# Convention : Reuss Voigt Hill
#
# Bulk Modulus (GPa) = 49.14350 59.25092 54.19721
# Shear Modulus (GPa) = 23.54054 32.73221 28.13638
#
# Velocity S-wave (km/s) = 3.38194 3.98792 3.69737
# Velocity P-wave (km/s) = 6.25518 7.07055 6.67532
#
# Compressibility (1/GPa) = 0.02034857
#
# Stress axis : x y z
#
# Youngs Moduli (GPa) = 67.74093 136.24882 90.70207
#
# Poissons Ratio (x) = 0.51132 0.03178
# Poissons Ratio (y) = 0.25422 0.20733
# Poissons Ratio (z) = 0.02373 0.31144
#
# Static dielectric constant tensor:
#      x y z
#    x 3.916910 -0.000150 -0.029050 
#    y -0.000150 4.303060 0.000350 
#    z -0.029050 0.000350 3.798920 
# 
# 
# High freq. dielectric constant tensor:
#      x y z
#    x 1.806580 -0.000010 -0.009470 
#    y -0.000010 1.835950 0.000030 
#    z -0.009470 0.000030 1.788790 
# 
# From -- ./inp_files/322660.got.cif
#   From: 2010.06.25/outbox.ucp.g09.slc.cvg/sg12_162_cif.got.tgz:322660.got - 2010.06.28 13:50:54.
