data_PCOD8116946
_publ_section_title
;
Structure prediction by ZEFSAII (Michael W. Deem and Ramdas Pophale) SiO2 
 PCOD8116946
Probable space group: P 2/C
;
_chemical_formula_sum "Si O2"
_cell_formula_units_Z 24
_cell_length_a 11.726292
_cell_length_b 9.205974
_cell_length_c 15.401325
_cell_angle_alpha 90.000000
_cell_angle_beta 50.624495
_cell_angle_gamma 90.000000
_cell_volume 1285.200126
_symmetry_space_group_name_H-M "P 2/C"
_symmetry_group_IT_number 13
_symmetry_cell_setting 'monoclinic'
loop_
_space_group_symop_operation_xyz
x,y,z
-x,y,1/2-z
-x,-y,-z
x,-y,1/2+z
loop_
_atom_site_type_symbol
_atom_site_label
_atom_site_fract_x
_atom_site_fract_y
_atom_site_fract_z
Si Si1 0.414285 0.970232 0.631505
Si Si2 0.709039 0.380936 0.872770
Si Si3 0.692894 0.906211 0.054309
Si Si4 0.627829 0.306077 0.434534
Si Si5 0.803241 0.186132 0.686932
Si Si6 0.902220 0.150687 0.876871
O O1 0.363236 0.801892 0.653793
O O2 0.500000 0.000000 0.500000
O O3 0.533286 0.016306 0.647610
O O4 0.266646 0.065183 0.713662
O O5 0.731789 0.554345 0.869321
O O6 0.746868 0.338478 0.754679
O O7 0.813521 0.295549 0.890691
O O8 0.541372 0.346765 0.973776
O O9 0.750706 0.840440 0.115528
O O10 0.684949 0.770616 0.993788
O O11 0.797873 0.026495 0.962787
O O12 0.981190 0.186305 0.602559
O O13 0.000000 0.091468 0.750000
#
# Coordination Sequence:
#
# PCOD8116946 Si02
#       6
#     4   4   4   4   4   4
#     4  10  17  34  57  83 105 143 192 234 272 337
#     4  10  19  35  55  79 110 153 188 226 275 350
#     4  11  20  35  59  87 111 144 192 246 283 325
#     4  10  19  34  58  79 106 149 196 224 276 341
#     4  11  21  35  57  85 118 146 185 242 294 324
#     4  10  20  37  57  83 114 155 190 226 286 348
#
# _framework density 18.674135
#
# number of rings (size 3 to 8) (size 9 to 14) (size 15 to 20)
#    0.000    1.667    5.000    4.000    0.000    0.000 
#    0.000   10.000    3.667    0.000    0.000    0.000 
#    0.000    0.000    0.000    0.000    0.000    0.000 
#
# Total GULP energy -297383.001515 kJ/mol
# GULP energy per Si atom -12390.958396 kJ/mol
# Density = 1.863163 g / cm^3
# Si number density = 18.674135 Si / 1000 Ang^3
#
#
#
# Elastic Constant Matrix: (Units=GPa)
#
#
# Indices 1 2 3 4 5 6 
#
# 1 145.9520 70.6786 34.6476 0.0000 4.8306 0.0000
# 2 70.6786 165.9828 49.8212 0.0000 2.9657 0.0000
# 3 34.6476 49.8212 49.3124 0.0000 -3.9249 0.0000
# 4 0.0000 0.0000 0.0000 26.2084 0.0000 -6.0312
# 5 4.8306 2.9657 -3.9249 0.0000 33.4214 0.0000
# 6 0.0000 0.0000 0.0000 -6.0312 0.0000 21.9117
#
#
#
# Elastic Compliance Matrix: (Units=1/GPa)
#
#
# Indices 1 2 3 4 5 6 
#
# 1 0.009116 -0.002721 -0.003777 0.000000 -0.001520 0.000000
# 2 -0.002721 0.009569 -0.007866 0.000000 -0.001380 0.000000
# 3 -0.003777 -0.007866 0.031271 0.000000 0.004916 0.000000
# 4 0.000000 0.000000 0.000000 0.040736 0.000000 0.011213
# 5 -0.001520 -0.001380 0.004916 0.000000 0.030840 0.000000
# 6 0.000000 0.000000 0.000000 0.011213 0.000000 0.048724
#
#
# Mechanical properties :
#
#
# Convention : Reuss Voigt Hill
#
# Bulk Modulus (GPa) = 47.10645 74.61577 60.86111
# Shear Modulus (GPa) = 24.26477 30.04829 27.15653
#
# Velocity S-wave (km/s) = 3.60860 4.01569 3.81758
# Velocity P-wave (km/s) = 6.53016 7.84503 7.21760
#
# Compressibility (1/GPa) = 0.02122852
#
# Stress axis : x y z
#
# Youngs Moduli (GPa) = 109.69537 104.50444 31.97860
#
# Poissons Ratio (x) = 0.28435 0.12079
# Poissons Ratio (y) = 0.29848 0.25154
# Poissons Ratio (z) = 0.41433 0.82200
#
# Static dielectric constant tensor:
#      x y z
#    x 3.840490 0.000000 -0.195130 
#    y 0.000000 4.140040 0.000000 
#    z -0.195130 0.000000 3.326110 
# 
# 
# High freq. dielectric constant tensor:
#      x y z
#    x 1.738480 0.000000 -0.015260 
#    y 0.000000 1.716420 0.000000 
#    z -0.015260 0.000000 1.703480 
# 
# From -- ./inp_files/65896.got.cif
#   From: 2010.06.25/outbox.cif.g09.slc.cpg/sg13_33_cif.got.tgz:65896.got - 2010.06.28 04:50:58.
