data_PCOD8116664
_publ_section_title
;
Structure prediction by ZEFSAII (Michael W. Deem and Ramdas Pophale) SiO2 
 PCOD8116664
Probable space group: P 2/C
;
_chemical_formula_sum "Si O2"
_cell_formula_units_Z 32
_cell_length_a 14.447402
_cell_length_b 9.033098
_cell_length_c 24.261461
_cell_angle_alpha 90.000000
_cell_angle_beta 147.663991
_cell_angle_gamma 90.000000
_cell_volume 1693.567872
_symmetry_space_group_name_H-M "P 2/C"
_symmetry_group_IT_number 13
_symmetry_cell_setting 'monoclinic'
loop_
_space_group_symop_operation_xyz
x,y,z
-x,y,1/2-z
-x,-y,-z
x,-y,1/2+z
loop_
_atom_site_type_symbol
_atom_site_label
_atom_site_fract_x
_atom_site_fract_y
_atom_site_fract_z
Si Si1 0.978609 0.575769 0.801903
Si Si2 0.301384 0.924898 0.037099
Si Si3 0.301380 0.615198 0.153438
Si Si4 0.982078 0.926517 0.803991
Si Si5 0.187403 0.932531 0.096887
Si Si6 0.319568 0.426209 0.782296
Si Si7 0.316996 0.074763 0.780211
Si Si8 0.704571 0.572662 0.467097
O O1 0.966858 0.750952 0.801537
O O2 0.802776 0.507760 0.736500
O O3 0.000000 0.524669 0.750000
O O4 0.144119 0.510332 0.917963
O O5 0.286901 0.988165 0.092045
O O6 0.486940 0.972791 0.105841
O O7 0.289049 0.748872 0.033002
O O8 0.148107 0.987352 0.921236
O O9 0.500000 0.676287 0.250000
O O10 0.172426 0.754537 0.089025
O O11 0.275968 0.522985 0.197279
O O12 0.265505 0.514552 0.081016
O O13 0.000000 0.976732 0.750000
O O14 0.807877 0.997266 0.739371
O O15 0.280523 0.983622 0.199935
O O16 0.000000 0.000000 0.000000
O O17 0.293810 0.250603 0.773282
O O18 0.516653 0.475331 0.895722
#
# Coordination Sequence:
#
# PCOD8116664 Si02
#       8
#     4   4   4   4   4   4   4   4
#     4  10  21  35  51  72 100 135 171 207 254 302
#     4   9  17  32  51  74 103 135 169 198 249 311
#     4   8  15  29  50  76  98 127 170 203 240 303
#     4  10  21  36  51  72 102 137 173 207 255 308
#     4  10  15  25  50  78 101 128 160 206 245 300
#     4   9  18  33  54  76  97 125 172 213 242 294
#     4  10  19  33  54  77 100 132 170 211 250 296
#     4   8  16  32  53  72  97 134 164 200 249 306
#
# _framework density 18.895019999999999
#
# number of rings (size 3 to 8) (size 9 to 14) (size 15 to 20)
#    0.000    2.750    1.250    2.625    0.000    2.000 
#    0.000    1.250    0.000    3.000    0.000    0.000 
#    0.000    0.000    0.000    0.000    0.000    0.000 
#
# Total GULP energy -396615.189436 kJ/mol
# GULP energy per Si atom -12394.224670 kJ/mol
# Density = 1.885201 g / cm^3
# Si number density = 18.895020 Si / 1000 Ang^3
#
#
#
# Elastic Constant Matrix: (Units=GPa)
#
#
# Indices 1 2 3 4 5 6 
#
# 1 163.3216 25.9446 64.9270 0.0000 1.5400 0.0000
# 2 25.9446 14.5903 15.4564 0.0000 1.5807 0.0000
# 3 64.9270 15.4564 95.4451 0.0000 6.2938 0.0000
# 4 0.0000 0.0000 0.0000 16.7646 0.0000 9.7104
# 5 1.5400 1.5807 6.2938 0.0000 35.2229 0.0000
# 6 0.0000 0.0000 0.0000 9.7104 0.0000 12.7978
#
#
#
# Elastic Compliance Matrix: (Units=1/GPa)
#
#
# Indices 1 2 3 4 5 6 
#
# 1 0.010090 -0.012927 -0.004836 0.000000 0.001003 0.000000
# 2 -0.012927 0.099355 -0.007123 0.000000 -0.002621 0.000000
# 3 -0.004836 -0.007123 0.015063 0.000000 -0.002160 0.000000
# 4 0.000000 0.000000 0.000000 0.106419 0.000000 -0.080746
# 5 0.001003 -0.002621 -0.002160 0.000000 0.028850 0.000000
# 6 0.000000 0.000000 0.000000 -0.080746 0.000000 0.139405
#
#
# Mechanical properties :
#
#
# Convention : Reuss Voigt Hill
#
# Bulk Modulus (GPa) = 13.38056 54.00145 33.69101
# Shear Modulus (GPa) = 10.55149 24.09234 17.32191
#
# Velocity S-wave (km/s) = 2.36567 3.57468 3.03106
# Velocity P-wave (km/s) = 3.81559 6.75866 5.48809
#
# Compressibility (1/GPa) = 0.07473530
#
# Stress axis : x y z
#
# Youngs Moduli (GPa) = 99.11286 10.06490 66.38734
#
# Poissons Ratio (x) = 0.13011 0.32107
# Poissons Ratio (y) = 1.28120 0.47290
# Poissons Ratio (z) = 0.47933 0.07170
#
# Static dielectric constant tensor:
#      x y z
#    x 3.581020 0.000000 -0.158750 
#    y 0.000000 2.887270 0.000000 
#    z -0.158750 0.000000 3.776350 
# 
# 
# High freq. dielectric constant tensor:
#      x y z
#    x 1.743140 0.000000 -0.000440 
#    y 0.000000 1.674070 0.000000 
#    z -0.000440 0.000000 1.744440 
# 
# From -- ./inp_files/58840.got.cif
#   From: 2010.06.25/outbox.cif.g09.slc.cpg/sg13_30_cif.got.tgz:58840.got - 2010.06.28 04:50:58.
