data_PCOD8116729
_publ_section_title
;
Structure prediction by ZEFSAII (Michael W. Deem and Ramdas Pophale) SiO2 
 PCOD8116729
Probable space group: P 2/C
;
_chemical_formula_sum "Si O2"
_cell_formula_units_Z 28
_cell_length_a 13.017144
_cell_length_b 21.091749
_cell_length_c 5.110801
_cell_angle_alpha 90.000000
_cell_angle_beta 94.452191
_cell_angle_gamma 90.000000
_cell_volume 1398.958368
_symmetry_space_group_name_H-M "P 2/C"
_symmetry_group_IT_number 13
_symmetry_cell_setting 'monoclinic'
loop_
_space_group_symop_operation_xyz
x,y,z
-x,y,1/2-z
-x,-y,-z
x,-y,1/2+z
loop_
_atom_site_type_symbol
_atom_site_label
_atom_site_fract_x
_atom_site_fract_y
_atom_site_fract_z
Si Si1 0.385512 0.255322 0.280586
Si Si2 0.119556 0.040195 0.287667
Si Si3 0.716949 0.459555 0.903350
Si Si4 0.114696 0.247587 0.710320
Si Si5 0.954026 0.569820 0.488170
Si Si6 0.316180 0.323751 0.765696
Si Si7 0.187731 0.821948 0.720838
O O1 0.500000 0.229816 0.250000
O O2 0.379293 0.281731 0.572882
O O3 0.307869 0.196668 0.243473
O O4 0.356377 0.310475 0.066474
O O5 0.185787 0.103266 0.264964
O O6 0.000000 0.059306 0.250000
O O7 0.148315 0.010397 0.571504
O O8 0.690065 0.513543 0.684492
O O9 0.833329 0.436398 0.943376
O O10 0.657165 0.396226 0.806921
O O11 0.193572 0.307328 0.731568
O O12 0.122069 0.215171 0.427357
O O13 0.000000 0.272712 0.750000
O O14 0.142048 0.194263 0.928545
O O15 0.000000 0.607641 0.250000
O O16 0.000000 0.500000 0.500000
O O17 0.000000 0.606803 0.750000
#
# Coordination Sequence:
#
# PCOD8116729 Si02
#       7
#     4   4   4   4   4   4   4
#     4  10  21  42  66  82 102 134 186 247 295 329
#     4  10  19  30  48  80 121 161 191 213 251 308
#     4  12  21  34  53  72 109 143 168 215 272 335
#     4  10  19  34  52  78 114 148 183 227 277 319
#     4  10  16  29  43  66  95 135 184 198 224 297
#     4  10  23  37  56  88 106 136 182 229 283 339
#     4  10  20  34  57  82 110 149 196 229 270 324
#
# _framework density 20.014890999999999
#
# number of rings (size 3 to 8) (size 9 to 14) (size 15 to 20)
#    0.000    1.714    2.857    3.429    0.000    1.714 
#    0.000    2.857    0.000    9.429    0.000    0.000 
#    0.000    0.000    0.000    0.000    0.000    0.000 
#
# Total GULP energy -347118.151057 kJ/mol
# GULP energy per Si atom -12397.076823 kJ/mol
# Density = 1.996934 g / cm^3
# Si number density = 20.014891 Si / 1000 Ang^3
#
#
#
# Elastic Constant Matrix: (Units=GPa)
#
#
# Indices 1 2 3 4 5 6 
#
# 1 94.7704 26.1084 14.2193 0.0000 -15.5956 0.0000
# 2 26.1084 93.0295 11.2746 0.0000 1.9259 0.0000
# 3 14.2193 11.2746 115.3860 0.0000 -6.4959 0.0000
# 4 0.0000 0.0000 0.0000 23.5850 0.0000 -4.6470
# 5 -15.5956 1.9259 -6.4959 0.0000 21.6734 0.0000
# 6 0.0000 0.0000 0.0000 -4.6470 0.0000 10.6489
#
#
#
# Elastic Compliance Matrix: (Units=1/GPa)
#
#
# Indices 1 2 3 4 5 6 
#
# 1 0.013319 -0.003852 -0.000718 0.000000 0.009711 0.000000
# 2 -0.003852 0.012029 -0.000933 0.000000 -0.004120 0.000000
# 3 -0.000718 -0.000933 0.008973 0.000000 0.002255 0.000000
# 4 0.000000 0.000000 0.000000 0.046388 0.000000 0.020243
# 5 0.009711 -0.004120 0.002255 0.000000 0.054169 0.000000
# 6 0.000000 0.000000 0.000000 0.020243 0.000000 0.102740
#
#
# Mechanical properties :
#
#
# Convention : Reuss Voigt Hill
#
# Bulk Modulus (GPa) = 42.89059 45.15449 44.02254
# Shear Modulus (GPa) = 19.50114 27.95371 23.72743
#
# Velocity S-wave (km/s) = 3.12482 3.74123 3.44683
# Velocity P-wave (km/s) = 5.87326 6.42431 6.15496
#
# Compressibility (1/GPa) = 0.02331514
#
# Stress axis : x y z
#
# Youngs Moduli (GPa) = 75.08206 83.13523 111.44325
#
# Poissons Ratio (x) = 0.32022 0.08004
# Poissons Ratio (y) = 0.28920 0.10393
# Poissons Ratio (z) = 0.05393 0.07753
#
# Static dielectric constant tensor:
#      x y z
#    x 3.400620 0.000000 -0.094340 
#    y 0.000000 3.259820 0.000000 
#    z -0.094340 0.000000 4.083850 
# 
# 
# High freq. dielectric constant tensor:
#      x y z
#    x 1.751260 0.000000 -0.004910 
#    y 0.000000 1.758220 0.000000 
#    z -0.004910 0.000000 1.810150 
# 
# From -- ./inp_files/3941.got.cif
#   From: 2010.06.25/outbox.cif.g09.slc.cpg/sg13_2_cif.got.tgz:3941.got - 2010.06.28 04:50:58.
