data_PCOD8116184
_publ_section_title
;
Structure prediction by ZEFSAII (Michael W. Deem and Ramdas Pophale) SiO2 
 PCOD8116184
Probable space group: C 2/M
;
_chemical_formula_sum "Si O2"
_cell_formula_units_Z 28
_cell_length_a 30.000000
_cell_length_b 9.000000
_cell_length_c 18.000000
_cell_angle_alpha 90.000000
_cell_angle_beta 40.000000
_cell_angle_gamma 90.000000
_cell_volume 3123.947783
_symmetry_space_group_name_H-M "C 2/M"
_symmetry_group_IT_number 12
_symmetry_cell_setting 'monoclinic'
loop_
_space_group_symop_operation_xyz
x,y,z
-x,y,-z
-x,-y,-z
x,-y,z
1/2+x,1/2+y,z
1/2-x,1/2+y,-z
1/2-x,1/2-y,-z
1/2+x,1/2-y,z
loop_
_atom_site_type_symbol
_atom_site_label
_atom_site_fract_x
_atom_site_fract_y
_atom_site_fract_z
Si Si1 0.644639 0.829529 0.173923
Si Si2 0.380387 0.825181 0.521784
Si Si3 0.343018 0.162638 0.413416
Si Si4 0.753360 0.670783 0.260925
Si Si5 0.808203 0.837809 0.327859
Si Si6 0.011304 0.836504 0.399505
Si Si7 0.225887 0.668302 0.930751
O O1 0.586277 0.721385 0.279863
O O2 0.716415 0.788318 0.121891
O O3 0.625755 0.000000 0.217010
O O4 0.656899 0.807685 0.069290
O O5 0.378079 0.763922 0.440544
O O6 0.323103 0.744016 0.645583
O O7 0.457411 0.790242 0.447187
O O8 0.364280 0.000000 0.545908
O O9 0.262309 0.148943 0.536224
O O10 0.360737 0.257809 0.317576
O O11 0.374079 0.000000 0.358148
O O12 0.743219 0.500000 0.295514
O O13 0.801370 0.746075 0.261148
O O14 0.792324 0.690790 0.132617
O O15 0.837077 0.000000 0.270181
O O16 0.000000 0.857898 0.500000
O O17 0.999697 0.000000 0.377428
O O18 0.254216 0.500000 0.907580
#
# Coordination Sequence:
#
# PCOD8116184 Si02
#       7
#     8   8   8   8   8   8   8
#     4  10  20  34  52  71  92 121 158 197 233 272
#     4  10  20  32  47  69  95 124 160 196 230 274
#     4   8  15  27  41  60  89 122 153 187 229 275
#     4  10  18  29  46  68  97 128 155 188 233 280
#     4   9  16  25  40  64  92 121 155 191 226 271
#     4  11  23  36  49  68  96 127 157 190 231 279
#     4   9  19  34  50  70  95 123 155 192 235 279
#
# _framework density 8.9630179999999999
#
# number of rings (size 3 to 8) (size 9 to 14) (size 15 to 20)
#    0.000    2.429    0.000    3.857    0.000   10.286 
#    0.000    0.000    0.000    0.000    0.000    1.000 
#    0.000    8.000    0.000    0.000    0.000    0.000 
#
# Total GULP energy -346962.402557 kJ/mol
# GULP energy per Si atom -12391.514377 kJ/mol
# Density = 0.894262 g / cm^3
# Si number density = 8.963018 Si / 1000 Ang^3
#
#
#
# Elastic Constant Matrix: (Units=GPa)
#
#
# Indices 1 2 3 4 5 6 
#
# 1 44.6441 27.2266 30.7033 0.0063 17.9921 0.0013
# 2 27.2266 99.5658 44.1101 0.0569 17.1932 -0.0179
# 3 30.7033 44.1101 84.7970 0.0232 18.9995 -0.0054
# 4 0.0063 0.0569 0.0232 34.2700 -0.0024 1.9652
# 5 17.9921 17.1932 18.9995 -0.0024 19.3935 -0.0015
# 6 0.0013 -0.0179 -0.0054 1.9652 -0.0015 23.1790
#
#
#
# Elastic Compliance Matrix: (Units=1/GPa)
#
#
# Indices 1 2 3 4 5 6 
#
# 1 0.040170 -0.003236 -0.006604 0.000001 -0.027929 -0.000008
# 2 -0.003236 0.013942 -0.005105 -0.000020 -0.004357 0.000011
# 3 -0.006604 -0.005105 0.018517 -0.000003 -0.007489 0.000001
# 4 0.000001 -0.000020 -0.000003 0.029323 0.000024 -0.002486
# 5 -0.027929 -0.004357 -0.007489 0.000024 0.088674 0.000000
# 6 -0.000008 0.000011 0.000001 -0.002486 0.000000 0.043353
#
#
# Mechanical properties :
#
#
# Convention : Reuss Voigt Hill
#
# Bulk Modulus (GPa) = 23.39681 48.12074 35.75878
# Shear Modulus (GPa) = 17.97810 23.83295 20.90552
#
# Velocity S-wave (km/s) = 3.17030 3.65021 3.41869
# Velocity P-wave (km/s) = 5.14600 6.68339 5.96443
#
# Compressibility (1/GPa) = 0.04274086
#
# Stress axis : x y z
#
# Youngs Moduli (GPa) = 24.89403 71.72328 54.00369
#
# Poissons Ratio (x) = 0.23212 0.35662
# Poissons Ratio (y) = 0.08057 0.27566
# Poissons Ratio (z) = 0.16439 0.36612
#
# Static dielectric constant tensor:
#      x y z
#    x 3.370490 0.000020 0.372850 
#    y 0.000020 3.570250 0.000020 
#    z 0.372850 0.000020 3.115440 
# 
# 
# High freq. dielectric constant tensor:
#      x y z
#    x 1.666750 0.000000 0.033090 
#    y 0.000000 1.709320 0.000000 
#    z 0.033090 0.000000 1.656050 
# 
# From -- ./inp_files/287385.got.cif
#   From: 2010.06.25/outbox.ucp.g09.slc.cvg/sg12_144_cif.got.tgz:287385.got - 2010.06.28 13:50:54.
