data_PCOD8116677
_publ_section_title
;
Structure prediction by ZEFSAII (Michael W. Deem and Ramdas Pophale) SiO2 
 PCOD8116677
Probable space group: P 2/C
;
_chemical_formula_sum "Si O2"
_cell_formula_units_Z 24
_cell_length_a 12.858735
_cell_length_b 21.362900
_cell_length_c 5.364773
_cell_angle_alpha 90.000000
_cell_angle_beta 102.040711
_cell_angle_gamma 90.000000
_cell_volume 1441.280437
_symmetry_space_group_name_H-M "P 2/C"
_symmetry_group_IT_number 13
_symmetry_cell_setting 'monoclinic'
loop_
_space_group_symop_operation_xyz
x,y,z
-x,y,1/2-z
-x,-y,-z
x,-y,1/2+z
loop_
_atom_site_type_symbol
_atom_site_label
_atom_site_fract_x
_atom_site_fract_y
_atom_site_fract_z
Si Si1 0.624893 0.566736 0.312441
Si Si2 0.880876 0.025994 0.940436
Si Si3 0.712494 0.572196 0.856243
Si Si4 0.067513 0.368928 0.033758
Si Si5 0.880560 0.825719 0.440278
Si Si6 0.118839 0.226382 0.059421
O O1 0.500000 0.554658 0.250000
O O2 0.660989 0.603625 0.581070
O O3 0.685950 0.500949 0.342964
O O4 0.660986 0.603625 0.079904
O O5 0.880718 0.100139 0.940355
O O6 0.822755 1.000000 0.661376
O O7 0.000000 0.000000 0.000000
O O8 0.839070 0.580230 0.919536
O O9 0.120934 0.300907 0.060472
O O10 0.000000 0.378910 0.250000
O O11 0.000000 0.378909 0.750000
O O12 0.822763 0.799584 0.661521
O O13 0.999551 0.799548 0.499776
O O14 0.822763 0.799583 0.161239
#
# Coordination Sequence:
#
# PCOD8116677 Si02
#       6
#     4   4   4   4   4   4
#     4  10  19  38  57  74  92 110 137 182 235 278
#     4  10  16  22  31  49  70  86 116 186 248 258
#     4  10  20  32  53  75  90 115 149 175 219 276
#     4  12  21  34  44  64  94 125 151 186 216 247
#     4  10  16  25  38  50  65 100 152 170 220 270
#     4  10  16  27  38  50  68 107 149 174 202 248
#
# _framework density 16.651859999999999
#
# number of rings (size 3 to 8) (size 9 to 14) (size 15 to 20)
#    0.000    1.667    3.333    8.500    0.000    0.000 
#    0.000   10.000    0.000    0.000    0.000    0.000 
#    0.000    0.000    0.000    0.000    0.000    0.000 
#
# Total GULP energy -297367.419895 kJ/mol
# GULP energy per Si atom -12390.309162 kJ/mol
# Density = 1.661396 g / cm^3
# Si number density = 16.651860 Si / 1000 Ang^3
#
#
#
# Elastic Constant Matrix: (Units=GPa)
#
#
# Indices 1 2 3 4 5 6 
#
# 1 60.2987 38.8282 48.3976 0.0000 -3.5228 0.0000
# 2 38.8282 46.0613 27.7716 0.0000 2.4669 0.0000
# 3 48.3976 27.7716 206.3978 0.0000 -29.0880 0.0000
# 4 0.0000 0.0000 0.0000 13.2414 0.0000 -2.9850
# 5 -3.5228 2.4669 -29.0880 0.0000 19.5454 0.0000
# 6 0.0000 0.0000 0.0000 -2.9850 0.0000 -0.1304
#
#
#
# Elastic Compliance Matrix: (Units=1/GPa)
#
#
# Indices 1 2 3 4 5 6 
#
# 1 0.041486 -0.032355 -0.004739 0.000000 0.004508 0.000000
# 2 -0.032355 0.050431 -0.001161 0.000000 -0.013925 0.000000
# 3 -0.004739 -0.001161 0.007609 0.000000 0.010616 0.000000
# 4 0.000000 0.000000 0.000000 0.012257 0.000000 -0.280637
# 5 0.004508 -0.013925 0.010616 0.000000 0.069532 0.000000
# 6 0.000000 0.000000 0.000000 -0.280637 0.000000 -1.244904
#
#
# Mechanical properties :
#
#
# Convention : Reuss Voigt Hill
#
# Bulk Modulus (GPa) = 43.45192 60.30584 51.87888
# Shear Modulus (GPa) = -5.10513 19.71533 7.30510
#
# Velocity S-wave (km/s) = -1.75284 3.44462 2.09678
# Velocity P-wave (km/s) = 4.69621 7.21906 6.08971
#
# Compressibility (1/GPa) = 0.02301394
#
# Stress axis : x y z
#
# Youngs Moduli (GPa) = 24.10461 19.82917 131.43087
#
# Poissons Ratio (x) = 0.64158 0.62284
# Poissons Ratio (y) = 0.77992 0.15261
# Poissons Ratio (z) = 0.11423 0.02303
#
# Static dielectric constant tensor:
#      x y z
#    x 3.039060 0.000000 -4.247050 
#    y 0.000000 2.927980 0.000000 
#    z -4.247050 0.000000 22.071370 
# 
# 
# High freq. dielectric constant tensor:
#      x y z
#    x 1.558260 0.000000 -0.029590 
#    y 0.000000 1.618280 0.000000 
#    z -0.029590 0.000000 1.690850 
# 
# From -- ./inp_files/3819.got.cif
#   From: 2010.06.25/outbox.cif.g09.slc.cpg/sg13_2_cif.got.tgz:3819.got - 2010.06.28 04:50:58.
