data_PCOD8116600
_publ_section_title
;
Structure prediction by ZEFSAII (Michael W. Deem and Ramdas Pophale) SiO2 
 PCOD8116600
Probable space group: C 2/M
;
_chemical_formula_sum "Si O2"
_cell_formula_units_Z 24
_cell_length_a 12.000000
_cell_length_b 27.000000
_cell_length_c 15.000000
_cell_angle_alpha 90.000000
_cell_angle_beta 30.000000
_cell_angle_gamma 90.000000
_cell_volume 2430.000000
_symmetry_space_group_name_H-M "C 2/M"
_symmetry_group_IT_number 12
_symmetry_cell_setting 'monoclinic'
loop_
_space_group_symop_operation_xyz
x,y,z
-x,y,-z
-x,-y,-z
x,-y,z
1/2+x,1/2+y,z
1/2-x,1/2+y,-z
1/2-x,1/2-y,-z
1/2+x,1/2-y,z
loop_
_atom_site_type_symbol
_atom_site_label
_atom_site_fract_x
_atom_site_fract_y
_atom_site_fract_z
Si Si1 0.928497 0.941942 0.448947
Si Si2 0.304860 0.244114 0.708347
Si Si3 0.867309 0.893821 0.869937
Si Si4 0.284153 0.873464 0.706952
Si Si5 0.094411 0.441761 0.210162
Si Si6 0.308716 0.784407 0.038438
O O1 0.668304 0.930175 0.614143
O O2 0.000000 0.924047 0.500000
O O3 0.068382 0.914891 0.272868
O O4 0.978790 0.000000 0.405091
O O5 0.500000 0.256800 0.500000
O O6 0.263016 0.185121 0.742631
O O7 0.365109 0.264077 0.764741
O O8 0.075493 0.276038 0.860090
O O9 0.742226 0.841827 0.943063
O O10 0.080033 0.888807 0.786324
O O11 0.700441 0.930137 0.039577
O O12 0.500000 0.885429 0.500000
O O13 0.293828 0.906421 0.790971
O O14 0.135160 0.500000 0.205043
O O15 0.250000 0.750000 0.000000
#
# Coordination Sequence:
#
# PCOD8116600 Si02
#       6
#     8   8   8   8   8   8
#     4  10  24  46  68  96 136 175 220 276 329 392
#     4  10  24  43  64  93 132 174 222 271 332 391
#     4  12  24  41  69  97 134 174 224 272 331 395
#     4  11  22  43  68  99 134 177 217 271 337 399
#     4  11  25  42  69 104 135 175 220 270 336 401
#     4  11  23  40  63  95 128 173 220 272 326 388
#
# _framework density 9.8765429999999999
#
# number of rings (size 3 to 8) (size 9 to 14) (size 15 to 20)
#    0.000    1.167    3.333    2.000    2.333    8.333 
#    0.000    2.500    0.000    0.000    0.000    0.000 
#    0.000    0.000    0.000    0.000    0.000    0.000 
#
# Total GULP energy -297325.971509 kJ/mol
# GULP energy per Si atom -12388.582146 kJ/mol
# Density = 0.985406 g / cm^3
# Si number density = 9.876543 Si / 1000 Ang^3
#
#
#
# Elastic Constant Matrix: (Units=GPa)
#
#
# Indices 1 2 3 4 5 6 
#
# 1 131.7479 57.1271 60.2298 0.0020 23.7960 -0.0028
# 2 57.1271 136.2226 60.9287 0.0019 5.9878 -0.0006
# 3 60.2298 60.9287 172.3239 -0.0021 26.3476 0.0021
# 4 0.0020 0.0019 -0.0021 44.0248 0.0006 6.8898
# 5 23.7960 5.9878 26.3476 0.0006 42.4212 -0.0002
# 6 -0.0028 -0.0006 0.0021 6.8898 -0.0002 42.4816
#
#
#
# Elastic Compliance Matrix: (Units=1/GPa)
#
#
# Indices 1 2 3 4 5 6 
#
# 1 0.010738 -0.003482 -0.001852 0.000000 -0.004382 0.000001
# 2 -0.003482 0.009871 -0.002606 0.000000 0.002179 0.000000
# 3 -0.001852 -0.002606 0.007908 0.000001 -0.003505 -0.000001
# 4 0.000000 0.000000 0.000001 0.023306 0.000000 -0.003780
# 5 -0.004382 0.002179 -0.003505 0.000000 0.027900 0.000000
# 6 0.000001 0.000000 -0.000001 -0.003780 0.000000 0.024153
#
#
# Mechanical properties :
#
#
# Convention : Reuss Voigt Hill
#
# Bulk Modulus (GPa) = 79.13784 88.54063 83.83923
# Shear Modulus (GPa) = 40.33264 43.25278 41.79271
#
# Velocity S-wave (km/s) = 4.52357 4.68447 4.60472
# Velocity P-wave (km/s) = 8.21183 8.61278 8.41469
#
# Compressibility (1/GPa) = 0.01263618
#
# Stress axis : x y z
#
# Youngs Moduli (GPa) = 93.12453 101.30497 126.46007
#
# Poissons Ratio (x) = 0.35278 0.23420
# Poissons Ratio (y) = 0.32429 0.32957
# Poissons Ratio (z) = 0.17247 0.26402
#
# Static dielectric constant tensor:
#      x y z
#    x 4.073210 -0.000020 0.224620 
#    y -0.000020 3.571750 0.000010 
#    z 0.224620 0.000010 4.094160 
# 
# 
# High freq. dielectric constant tensor:
#      x y z
#    x 1.794170 0.000000 0.012570 
#    y 0.000000 1.790850 0.000000 
#    z 0.012570 0.000000 1.806030 
# 
# From -- ./inp_files/209264.got.cif
#   From: 2010.06.25/outbox.ucp.g09.slc.cvg/sg12_105_cif.got.tgz:209264.got - 2010.06.28 13:50:54.
