data_PCOD8116633
_publ_section_title
;
Structure prediction by ZEFSAII (Michael W. Deem and Ramdas Pophale) SiO2 
 PCOD8116633
Probable space group: P 2/C
;
_chemical_formula_sum "Si O2"
_cell_formula_units_Z 24
_cell_length_a 20.782096
_cell_length_b 17.648626
_cell_length_c 5.228338
_cell_angle_alpha 90.000000
_cell_angle_beta 111.884008
_cell_angle_gamma 90.000000
_cell_volume 1779.442462
_symmetry_space_group_name_H-M "P 2/C"
_symmetry_group_IT_number 13
_symmetry_cell_setting 'monoclinic'
loop_
_space_group_symop_operation_xyz
x,y,z
-x,y,1/2-z
-x,-y,-z
x,-y,1/2+z
loop_
_atom_site_type_symbol
_atom_site_label
_atom_site_fract_x
_atom_site_fract_y
_atom_site_fract_z
Si Si1 0.029657 0.913713 0.043927
Si Si2 0.582409 0.198459 0.372513
Si Si3 0.331616 0.950281 0.471564
Si Si4 0.417296 0.456916 0.627723
Si Si5 0.180177 0.953972 0.319444
Si Si6 0.582417 0.286141 0.872567
O O1 0.112746 0.903749 0.162495
O O2 0.000000 0.871657 0.250000
O O3 0.000000 0.871669 0.750000
O O4 0.000000 0.000000 0.000000
O O5 0.500000 0.191670 0.250000
O O6 0.611894 0.114282 0.411675
O O7 0.609702 0.242477 0.662841
O O8 0.609587 0.243435 0.164798
O O9 0.254176 0.913368 0.378154
O O10 0.342237 0.987955 0.210180
O O11 0.500000 0.456234 0.750000
O O12 0.389033 0.499876 0.335603
O O13 0.388034 0.371447 0.585073
O O14 0.176328 0.976859 0.611544
O O15 0.500000 0.288690 0.750000
#
# Coordination Sequence:
#
# PCOD8116633 Si02
#       6
#     4   4   4   4   4   4
#     4  10  14  20  34  51  67  85 103 123 162 223
#     4  10  19  31  43  53  67  91 125 159 193 230
#     4  10  21  31  41  53  68  89 119 163 208 232
#     4   9  15  23  37  58  80  95 107 128 167 217
#     4  10  16  25  35  50  69  85 105 137 181 228
#     4   9  17  28  42  57  73  93 116 144 179 222
#
# _framework density 13.487371
#
# number of rings (size 3 to 8) (size 9 to 14) (size 15 to 20)
#    0.000    2.333    3.333    2.000    0.000    4.667 
#    0.000    0.000    0.000    0.000    0.000    0.000 
#    0.000    0.000    0.000    0.000    0.000    0.000 
#
# Total GULP energy -297412.720582 kJ/mol
# GULP energy per Si atom -12392.196691 kJ/mol
# Density = 1.345667 g / cm^3
# Si number density = 13.487371 Si / 1000 Ang^3
#
#
#
# Elastic Constant Matrix: (Units=GPa)
#
#
# Indices 1 2 3 4 5 6 
#
# 1 38.7152 23.3106 29.0910 0.0000 -6.8116 0.0000
# 2 23.3106 60.6008 29.6828 0.0000 -2.0101 0.0000
# 3 29.0910 29.6828 99.1795 0.0000 -22.2595 0.0000
# 4 0.0000 0.0000 0.0000 16.0810 0.0000 -7.0072
# 5 -6.8116 -2.0101 -22.2595 0.0000 21.3623 0.0000
# 6 0.0000 0.0000 0.0000 -7.0072 0.0000 3.3620
#
#
#
# Elastic Compliance Matrix: (Units=1/GPa)
#
#
# Indices 1 2 3 4 5 6 
#
# 1 0.038612 -0.011251 -0.007091 0.000000 0.003864 0.000000
# 2 -0.011251 0.023122 -0.005138 0.000000 -0.006766 0.000000
# 3 -0.007091 -0.005138 0.017078 0.000000 0.015051 0.000000
# 4 0.000000 0.000000 0.000000 0.677469 0.000000 1.412024
# 5 0.003864 -0.006766 0.015051 0.000000 0.063090 0.000000
# 6 0.000000 0.000000 0.000000 1.412024 0.000000 3.240477
#
#
# Mechanical properties :
#
#
# Convention : Reuss Voigt Hill
#
# Bulk Modulus (GPa) = 31.39578 40.29603 35.84591
# Shear Modulus (GPa) = 1.21435 15.92180 8.56808
#
# Velocity S-wave (km/s) = 0.94990 3.43956 2.52318
# Velocity P-wave (km/s) = 4.95293 6.76135 5.92652
#
# Compressibility (1/GPa) = 0.03185141
#
# Stress axis : x y z
#
# Youngs Moduli (GPa) = 25.89857 43.24954 58.55318
#
# Poissons Ratio (x) = 0.48660 0.41520
# Poissons Ratio (y) = 0.29139 0.30087
# Poissons Ratio (z) = 0.18365 0.22223
#
# Static dielectric constant tensor:
#      x y z
#    x 2.691430 0.000000 -0.338330 
#    y 0.000000 2.380000 0.000000 
#    z -0.338330 0.000000 3.311700 
# 
# 
# High freq. dielectric constant tensor:
#      x y z
#    x 1.487760 0.000000 -0.026110 
#    y 0.000000 1.461810 0.000000 
#    z -0.026110 0.000000 1.536860 
# 
# From -- ./inp_files/6148.got.cif
#   From: 2010.06.25/outbox.cif.g09.slc.cpg/sg13_4_cif.got.tgz:6148.got - 2010.06.28 04:50:58.
