data_PCOD8116293
_publ_section_title
;
Structure prediction by ZEFSAII (Michael W. Deem and Ramdas Pophale) SiO2 
 PCOD8116293
Probable space group: C 2/M
;
_chemical_formula_sum "Si O2"
_cell_formula_units_Z 24
_cell_length_a 18.000000
_cell_length_b 9.000000
_cell_length_c 30.000000
_cell_angle_alpha 90.000000
_cell_angle_beta 30.000000
_cell_angle_gamma 90.000000
_cell_volume 2430.000000
_symmetry_space_group_name_H-M "C 2/M"
_symmetry_group_IT_number 12
_symmetry_cell_setting 'monoclinic'
loop_
_space_group_symop_operation_xyz
x,y,z
-x,y,-z
-x,-y,-z
x,-y,z
1/2+x,1/2+y,z
1/2-x,1/2+y,-z
1/2-x,1/2-y,-z
1/2+x,1/2-y,z
loop_
_atom_site_type_symbol
_atom_site_label
_atom_site_fract_x
_atom_site_fract_y
_atom_site_fract_z
Si Si1 0.183035 0.334296 0.258777
Si Si2 0.661176 0.662754 0.433407
Si Si3 0.418314 0.170125 0.086015
Si Si4 0.404251 0.171563 0.915395
Si Si5 0.358451 0.668255 0.259189
Si Si6 0.383500 0.824378 0.454223
O O1 0.159187 0.500000 0.253078
O O2 0.259800 0.246540 0.178259
O O3 0.277067 0.335284 0.254646
O O4 0.027608 0.259487 0.353812
O O5 0.500000 0.627288 0.500000
O O6 0.728221 0.500000 0.413073
O O7 0.767890 0.737020 0.341851
O O8 0.632248 0.780456 0.486774
O O9 0.517567 0.192535 0.077819
O O10 0.382601 0.000000 0.094287
O O11 0.500000 0.240271 0.000000
O O12 0.486683 0.249635 0.831025
O O13 0.385382 0.000000 0.912987
O O14 0.250000 0.250000 0.000000
O O15 0.383883 0.500000 0.263626
O O16 0.250000 0.750000 0.500000
O O17 0.383877 0.000000 0.450846
#
# Coordination Sequence:
#
# PCOD8116293 Si02
#       6
#     8   8   8   8   8   8
#     4   9  19  35  57  82 110 145 186 230 278 334
#     4  11  22  36  59  88 115 146 190 236 281 340
#     4   9  19  36  58  82 107 140 186 231 274 330
#     4  10  20  36  57  82 114 147 183 231 286 339
#     4  10  19  35  59  85 112 146 190 234 283 337
#     4  11  23  40  58  82 117 154 191 234 287 339
#
# _framework density 9.8765429999999999
#
# number of rings (size 3 to 8) (size 9 to 14) (size 15 to 20)
#    0.000    2.000    1.667    2.000    0.000    3.667 
#    3.000    0.000    0.000    0.000    0.000    0.000 
#    0.000    0.000    0.000    0.000    0.000    0.000 
#
# Total GULP energy -297413.531750 kJ/mol
# GULP energy per Si atom -12392.230490 kJ/mol
# Density = 0.985406 g / cm^3
# Si number density = 9.876543 Si / 1000 Ang^3
#
#
#
# Elastic Constant Matrix: (Units=GPa)
#
#
# Indices 1 2 3 4 5 6 
#
# 1 19.8170 24.2293 27.8339 0.0007 10.6159 -0.0019
# 2 24.2293 114.6369 85.0657 0.0023 5.7121 0.0001
# 3 27.8339 85.0657 204.7916 -0.0019 25.3872 0.0014
# 4 0.0007 0.0023 -0.0019 42.0806 -0.0001 7.5934
# 5 10.6159 5.7121 25.3872 -0.0001 31.1862 0.0003
# 6 -0.0019 0.0001 0.0014 7.5934 0.0003 24.9781
#
#
#
# Elastic Compliance Matrix: (Units=1/GPa)
#
#
# Indices 1 2 3 4 5 6 
#
# 1 0.085182 -0.015092 -0.002287 -0.000002 -0.024370 0.000008
# 2 -0.015092 0.015418 -0.005161 -0.000001 0.006514 -0.000001
# 3 -0.002287 -0.005161 0.007923 0.000001 -0.004726 -0.000001
# 4 -0.000002 -0.000001 0.000001 0.025143 0.000000 -0.007644
# 5 -0.024370 0.006514 -0.004726 0.000000 0.043015 -0.000002
# 6 0.000008 -0.000001 -0.000001 -0.007644 -0.000002 0.042359
#
#
# Mechanical properties :
#
#
# Convention : Reuss Voigt Hill
#
# Bulk Modulus (GPa) = 15.76219 68.16700 41.96460
# Shear Modulus (GPa) = 17.52739 33.12343 25.32541
#
# Velocity S-wave (km/s) = 2.98203 4.09941 3.58453
# Velocity P-wave (km/s) = 4.45574 7.54926 6.19859
#
# Compressibility (1/GPa) = 0.06344294
#
# Stress axis : x y z
#
# Youngs Moduli (GPa) = 11.73958 64.86025 126.20931
#
# Poissons Ratio (x) = 0.97888 0.28869
# Poissons Ratio (y) = 0.17718 0.65131
# Poissons Ratio (z) = 0.02685 0.33471
#
# Static dielectric constant tensor:
#      x y z
#    x 3.235760 -0.000010 0.121870 
#    y -0.000010 3.424060 0.000000 
#    z 0.121870 0.000000 3.921330 
# 
# 
# High freq. dielectric constant tensor:
#      x y z
#    x 1.730950 0.000000 0.012510 
#    y 0.000000 1.776070 0.000000 
#    z 0.012510 0.000000 1.789930 
# 
# From -- ./inp_files/229825.got.cif
#   From: 2010.06.25/outbox.ucp.g09.slc.cvg/sg12_115_cif.got.tgz:229825.got - 2010.06.28 13:50:54.
