data_PCOD8116773
_publ_section_title
;
Structure prediction by ZEFSAII (Michael W. Deem and Ramdas Pophale) SiO2 
 PCOD8116773
Probable space group: P 2/C
;
_chemical_formula_sum "Si O2"
_cell_formula_units_Z 24
_cell_length_a 8.942912
_cell_length_b 7.504723
_cell_length_c 28.785815
_cell_angle_alpha 90.000000
_cell_angle_beta 41.939947
_cell_angle_gamma 90.000000
_cell_volume 1291.210272
_symmetry_space_group_name_H-M "P 2/C"
_symmetry_group_IT_number 13
_symmetry_cell_setting 'monoclinic'
loop_
_space_group_symop_operation_xyz
x,y,z
-x,y,1/2-z
-x,-y,-z
x,-y,1/2+z
loop_
_atom_site_type_symbol
_atom_site_label
_atom_site_fract_x
_atom_site_fract_y
_atom_site_fract_z
Si Si1 0.000000 0.704390 0.750000
Si Si2 0.497249 0.885438 0.163508
Si Si3 0.137635 0.084805 0.303288
Si Si4 0.263665 0.814997 0.937891
Si Si5 0.456137 0.506553 0.659750
Si Si6 0.968633 0.036995 0.579309
Si Si7 0.500000 0.644255 0.750000
O O1 0.216798 0.582080 0.701208
O O2 0.985829 0.827985 0.798746
O O3 0.295092 0.932048 0.244856
O O4 0.451668 0.701047 0.146909
O O5 0.730855 0.859019 0.137169
O O6 0.526294 0.050314 0.120365
O O7 0.969872 0.007666 0.381466
O O8 0.284392 0.229592 0.297098
O O9 0.349689 0.612882 0.912767
O O10 0.065711 0.862480 0.946327
O O11 0.165303 0.840403 0.012463
O O12 0.508196 0.522091 0.702561
#
# Coordination Sequence:
#
# PCOD8116773 Si02
#       7
#     2   4   4   4   4   4   2
#     4  10  22  36  54  80 112 150 176 228 276 320
#     4  10  19  32  60  81 107 136 189 228 272 318
#     4  11  17  36  57  80 109 143 184 227 271 322
#     4   9  18  35  52  81 112 142 175 231 278 319
#     4  11  21  33  55  81 111 143 181 230 274 319
#     4   9  17  33  55  83 108 141 181 225 281 321
#     4  10  16  30  54  76 106 136 176 236 272 298
#
# _framework density 18.587212000000001
#
# number of rings (size 3 to 8) (size 9 to 14) (size 15 to 20)
#    1.000    1.000    6.667    0.000    2.333    1.333 
#    0.000    0.833    0.000    1.000    0.000    0.000 
#    0.000    0.000    0.000    0.000    0.000    0.000 
#
# Total GULP energy -297384.941892 kJ/mol
# GULP energy per Si atom -12391.039245 kJ/mol
# Density = 1.854491 g / cm^3
# Si number density = 18.587212 Si / 1000 Ang^3
#
#
#
# Elastic Constant Matrix: (Units=GPa)
#
#
# Indices 1 2 3 4 5 6 
#
# 1 73.1071 9.7409 16.1412 0.0000 12.6642 0.0000
# 2 9.7409 85.1278 16.4214 0.0000 5.3778 0.0000
# 3 16.1412 16.4214 83.3628 0.0000 20.2004 0.0000
# 4 0.0000 0.0000 0.0000 10.7329 0.0000 -3.1986
# 5 12.6642 5.3778 20.2004 0.0000 18.5738 0.0000
# 6 0.0000 0.0000 0.0000 -3.1986 0.0000 11.7838
#
#
#
# Elastic Compliance Matrix: (Units=1/GPa)
#
#
# Indices 1 2 3 4 5 6 
#
# 1 0.015628 -0.001083 -0.000416 0.000000 -0.009889 0.000000
# 2 -0.001083 0.012307 -0.002078 0.000000 -0.000565 0.000000
# 3 -0.000416 -0.002078 0.016662 0.000000 -0.017236 0.000000
# 4 0.000000 0.000000 0.000000 0.101372 0.000000 0.027517
# 5 -0.009889 -0.000565 -0.017236 0.000000 0.079491 0.000000
# 6 0.000000 0.000000 0.000000 0.027517 0.000000 0.092331
#
#
# Mechanical properties :
#
#
# Convention : Reuss Voigt Hill
#
# Bulk Modulus (GPa) = 26.70702 36.24497 31.47600
# Shear Modulus (GPa) = 14.81796 21.50437 18.16116
#
# Velocity S-wave (km/s) = 2.82656 3.40508 3.12922
# Velocity P-wave (km/s) = 5.00522 5.91622 5.47969
#
# Compressibility (1/GPa) = 0.03744334
#
# Stress axis : x y z
#
# Youngs Moduli (GPa) = 63.98813 81.25132 60.01583
#
# Poissons Ratio (x) = 0.08801 0.02498
# Poissons Ratio (y) = 0.06931 0.12470
# Poissons Ratio (z) = 0.02663 0.16882
#
# Static dielectric constant tensor:
#      x y z
#    x 3.117370 0.000000 0.072490 
#    y 0.000000 3.211730 0.000000 
#    z 0.072490 0.000000 3.328080 
# 
# 
# High freq. dielectric constant tensor:
#      x y z
#    x 1.683400 0.000000 0.002760 
#    y 0.000000 1.704340 0.000000 
#    z 0.002760 0.000000 1.716230 
# 
# From -- ./inp_files/90988.got.cif
#   From: 2010.06.25/outbox.cif.g09.slc.cpg/sg13_46_cif.got.tgz:90988.got - 2010.06.28 04:50:58.
