data_PCOD8116344
_publ_section_title
;
Structure prediction by ZEFSAII (Michael W. Deem and Ramdas Pophale) SiO2 
 PCOD8116344
Probable space group: C 2/M
;
_chemical_formula_sum "Si O2"
_cell_formula_units_Z 20
_cell_length_a 18.000000
_cell_length_b 9.000000
_cell_length_c 27.000000
_cell_angle_alpha 90.000000
_cell_angle_beta 30.000000
_cell_angle_gamma 90.000000
_cell_volume 2187.000000
_symmetry_space_group_name_H-M "C 2/M"
_symmetry_group_IT_number 12
_symmetry_cell_setting 'monoclinic'
loop_
_space_group_symop_operation_xyz
x,y,z
-x,y,-z
-x,-y,-z
x,-y,z
1/2+x,1/2+y,z
1/2-x,1/2+y,-z
1/2-x,1/2-y,-z
1/2+x,1/2-y,z
loop_
_atom_site_type_symbol
_atom_site_label
_atom_site_fract_x
_atom_site_fract_y
_atom_site_fract_z
Si Si1 0.583995 0.325890 0.699940
Si Si2 0.425068 0.174899 0.491172
Si Si3 0.666189 0.824911 0.095625
Si Si4 0.916597 0.824827 0.695402
Si Si5 0.831381 0.173241 0.102298
O O1 0.573842 0.500000 0.717878
O O2 0.754607 0.272155 0.596611
O O3 0.496672 0.243500 0.795862
O O4 0.517843 0.287449 0.684350
O O5 0.500000 0.216410 0.500000
O O6 0.509574 0.255060 0.396660
O O7 0.433166 0.000000 0.475318
O O8 0.763713 0.793535 0.087682
O O9 0.648047 0.000000 0.094996
O O10 0.750000 0.750000 0.000000
O O11 0.754244 0.757595 0.803296
O O12 0.900035 0.000000 0.695988
O O13 0.825361 0.000000 0.119327
O O14 0.000000 0.231022 0.000000
#
# Coordination Sequence:
#
# PCOD8116344 Si02
#       5
#     8   8   8   8   8
#     4   9  19  36  55  75 101 135 174 211 250 300
#     4  10  21  36  54  76 103 136 172 210 252 301
#     4  10  20  34  54  78 104 135 170 210 254 301
#     4  10  20  34  54  78 104 134 168 211 258 302
#     4   9  19  36  56  76 100 135 176 211 247 299
#
# _framework density 9.1449470000000002
#
# number of rings (size 3 to 8) (size 9 to 14) (size 15 to 20)
#    0.000    2.400    0.000    1.800    0.000    4.800 
#    0.000    8.000    0.000    0.000    0.000    0.000 
#    0.000    0.000    0.000    0.000    0.000    0.000 
#
# Total GULP energy -247886.280257 kJ/mol
# GULP energy per Si atom -12394.314013 kJ/mol
# Density = 0.912413 g / cm^3
# Si number density = 9.144947 Si / 1000 Ang^3
#
#
#
# Elastic Constant Matrix: (Units=GPa)
#
#
# Indices 1 2 3 4 5 6 
#
# 1 75.4964 37.7687 73.5121 0.0002 12.3905 -0.0006
# 2 37.7687 103.8924 80.9240 0.0000 15.5897 -0.0007
# 3 73.5121 80.9240 244.4759 -0.0014 18.6693 0.0001
# 4 0.0002 0.0000 -0.0014 47.2588 0.0001 9.8257
# 5 12.3905 15.5897 18.6693 0.0001 46.4125 0.0002
# 6 -0.0006 -0.0007 0.0001 9.8257 0.0002 27.1210
#
#
#
# Elastic Compliance Matrix: (Units=1/GPa)
#
#
# Indices 1 2 3 4 5 6 
#
# 1 0.019822 -0.003170 -0.004734 0.000000 -0.002323 0.000001
# 2 -0.003170 0.013816 -0.003436 0.000000 -0.002412 0.000000
# 3 -0.004734 -0.003436 0.006671 0.000000 -0.000266 0.000000
# 4 0.000000 0.000000 0.000000 0.022884 0.000000 -0.008291
# 5 -0.002323 -0.002412 -0.000266 0.000000 0.023083 0.000000
# 6 0.000001 0.000000 0.000000 -0.008291 0.000000 0.039875
#
#
# Mechanical properties :
#
#
# Convention : Reuss Voigt Hill
#
# Bulk Modulus (GPa) = 56.72140 89.80826 73.26483
# Shear Modulus (GPa) = 32.31896 39.60245 35.96071
#
# Velocity S-wave (km/s) = 4.20818 4.65829 4.43894
# Velocity P-wave (km/s) = 7.39537 8.83980 8.14965
#
# Compressibility (1/GPa) = 0.01763003
#
# Stress axis : x y z
#
# Youngs Moduli (GPa) = 50.44876 72.37958 149.89661
#
# Poissons Ratio (x) = 0.22948 0.70954
# Poissons Ratio (y) = 0.15995 0.51500
# Poissons Ratio (z) = 0.23880 0.24867
#
# Static dielectric constant tensor:
#      x y z
#    x 3.375420 0.000000 0.036020 
#    y 0.000000 3.470200 0.000000 
#    z 0.036020 0.000000 3.910710 
# 
# 
# High freq. dielectric constant tensor:
#      x y z
#    x 1.704920 0.000000 0.010710 
#    y 0.000000 1.716470 0.000000 
#    z 0.010710 0.000000 1.753290 
# 
# From -- ./inp_files/151707.got.cif
#   From: 2010.06.25/outbox.ucp.g09.slc.cvg/sg12_76_cif.got.tgz:151707.got - 2010.06.28 13:50:54.
