data_PCOD8116844
_publ_section_title
;
Structure prediction by ZEFSAII (Michael W. Deem and Ramdas Pophale) SiO2 
 PCOD8116844
Probable space group: P 2/C
;
_chemical_formula_sum "Si O2"
_cell_formula_units_Z 24
_cell_length_a 10.337456
_cell_length_b 15.652225
_cell_length_c 18.809253
_cell_angle_alpha 90.000000
_cell_angle_beta 155.472905
_cell_angle_gamma 90.000000
_cell_volume 1263.393501
_symmetry_space_group_name_H-M "P 2/C"
_symmetry_group_IT_number 13
_symmetry_cell_setting 'monoclinic'
loop_
_space_group_symop_operation_xyz
x,y,z
-x,y,1/2-z
-x,-y,-z
x,-y,1/2+z
loop_
_atom_site_type_symbol
_atom_site_label
_atom_site_fract_x
_atom_site_fract_y
_atom_site_fract_z
Si Si1 0.368291 0.414572 0.604875
Si Si2 0.368296 0.414564 0.263418
Si Si3 0.634251 0.241152 0.739112
Si Si4 0.365750 0.758856 0.604865
Si Si5 0.640800 0.909850 0.654013
Si Si6 0.640790 0.909844 0.486783
O O1 0.500000 0.413509 0.750000
O O2 0.499986 0.500006 0.631495
O O3 0.487117 0.326477 0.628979
O O4 0.999998 0.417721 0.420384
O O5 0.500000 0.413495 0.250000
O O6 0.487099 0.326466 0.358129
O O7 0.500000 0.223374 0.750000
O O8 0.557193 0.162596 0.650248
O O9 0.000002 0.254075 0.928503
O O10 0.500000 0.776641 0.750000
O O11 0.442797 0.837410 0.593048
O O12 0.601743 0.896905 0.550872
O O13 0.500010 0.000003 0.607982
O O14 0.000004 0.904925 0.857165
#
# Coordination Sequence:
#
# PCOD8116844 Si02
#       6
#     4   4   4   4   4   4
#     4  10  17  28  46  71 103 137 173 211 256 306
#     4  10  17  28  46  71 103 137 173 211 256 306
#     4  11  21  34  53  79 109 139 175 217 262 307
#     4  11  21  34  53  79 109 139 175 217 262 307
#     4  10  21  38  58  79 104 136 174 214 259 313
#     4  10  21  38  58  79 104 136 174 214 259 313
#
# _framework density 18.996455999999998
#
# number of rings (size 3 to 8) (size 9 to 14) (size 15 to 20)
#    0.000    1.667    0.000   10.000    0.000    2.667 
#    0.000    3.333    0.000    1.000    0.000    0.000 
#    0.000    0.000    0.000    0.000    0.000    0.000 
#
# Total GULP energy -297572.996205 kJ/mol
# GULP energy per Si atom -12398.874842 kJ/mol
# Density = 1.895322 g / cm^3
# Si number density = 18.996456 Si / 1000 Ang^3
#
#
#
# Elastic Constant Matrix: (Units=GPa)
#
#
# Indices 1 2 3 4 5 6 
#
# 1 40.7153 41.5622 34.0787 0.0000 21.9344 0.0000
# 2 41.5622 180.8299 60.5611 0.0000 11.3091 0.0000
# 3 34.0787 60.5611 145.6053 0.0000 40.5088 0.0000
# 4 0.0000 0.0000 0.0000 31.0808 0.0000 24.0759
# 5 21.9344 11.3091 40.5088 0.0000 32.8002 0.0000
# 6 0.0000 0.0000 0.0000 24.0759 0.0000 -9.3639
#
#
#
# Elastic Compliance Matrix: (Units=1/GPa)
#
#
# Indices 1 2 3 4 5 6 
#
# 1 0.051368 -0.010190 0.001211 0.000000 -0.032334 0.000000
# 2 -0.010190 0.008506 -0.003401 0.000000 0.008083 0.000000
# 3 0.001211 -0.003401 0.012033 0.000000 -0.014498 0.000000
# 4 0.000000 0.000000 0.000000 0.010755 0.000000 0.027652
# 5 -0.032334 0.008083 -0.014498 0.000000 0.067228 0.000000
# 6 0.000000 0.000000 0.000000 0.027652 0.000000 -0.035697
#
#
# Mechanical properties :
#
#
# Convention : Reuss Voigt Hill
#
# Bulk Modulus (GPa) = 21.21073 71.06161 46.13617
# Shear Modulus (GPa) = 32.32728 26.29997 29.31362
#
# Velocity S-wave (km/s) = 4.12971 3.72488 3.93251
# Velocity P-wave (km/s) = 5.82487 7.48256 6.70514
#
# Compressibility (1/GPa) = 0.04714594
#
# Stress axis : x y z
#
# Youngs Moduli (GPa) = 19.46735 117.56627 83.10809
#
# Poissons Ratio (x) = 1.19800 -0.10066
# Poissons Ratio (y) = 0.19837 0.28269
# Poissons Ratio (z) = -0.02358 0.39990
#
# Static dielectric constant tensor:
#      x y z
#    x 3.088920 0.000000 0.261630 
#    y 0.000000 4.613380 0.000000 
#    z 0.261630 0.000000 3.528260 
# 
# 
# High freq. dielectric constant tensor:
#      x y z
#    x 1.693940 0.000000 0.032600 
#    y 0.000000 1.769720 0.000000 
#    z 0.032600 0.000000 1.748680 
# 
# From -- ./inp_files/78714.got.cif
#   From: 2010.06.25/outbox.cif.g09.slc.cpg/sg13_40_cif.got.tgz:78714.got - 2010.06.28 04:50:58.
