data_PCOD8116461
_publ_section_title
;
Structure prediction by ZEFSAII (Michael W. Deem and Ramdas Pophale) SiO2 
 PCOD8116461
Probable space group: C 2/M
;
_chemical_formula_sum "Si O2"
_cell_formula_units_Z 32
_cell_length_a 18.000000
_cell_length_b 9.000000
_cell_length_c 30.000000
_cell_angle_alpha 90.000000
_cell_angle_beta 40.000000
_cell_angle_gamma 90.000000
_cell_volume 3123.947783
_symmetry_space_group_name_H-M "C 2/M"
_symmetry_group_IT_number 12
_symmetry_cell_setting 'monoclinic'
loop_
_space_group_symop_operation_xyz
x,y,z
-x,y,-z
-x,-y,-z
x,-y,z
1/2+x,1/2+y,z
1/2-x,1/2+y,-z
1/2-x,1/2-y,-z
1/2+x,1/2-y,z
loop_
_atom_site_type_symbol
_atom_site_label
_atom_site_fract_x
_atom_site_fract_y
_atom_site_fract_z
Si Si1 0.670434 0.677255 0.999407
Si Si2 0.313579 0.331975 0.263423
Si Si3 0.820482 0.673717 0.350833
Si Si4 0.058934 0.666123 0.356989
Si Si5 0.597609 0.827384 0.489878
Si Si6 0.756367 0.670436 0.123606
Si Si7 0.574654 0.825646 0.872209
Si Si8 0.964723 0.828775 0.717529
O O1 0.671501 0.500000 0.003498
O O2 0.718870 0.720918 0.928680
O O3 0.750000 0.750000 0.000000
O O4 0.542585 0.738126 0.065268
O O5 0.362918 0.500000 0.237519
O O6 0.355122 0.256384 0.289490
O O7 0.175618 0.334569 0.332192
O O8 0.359954 0.239086 0.200464
O O9 0.807657 0.500000 0.347892
O O10 0.708971 0.729162 0.428713
O O11 0.929900 0.713234 0.330632
O O12 0.040473 0.500000 0.345338
O O13 0.085603 0.791780 0.307989
O O14 0.950863 0.708049 0.438383
O O15 0.500000 0.781237 0.500000
O O16 0.630933 0.000000 0.469678
O O17 0.765619 0.500000 0.103044
O O18 0.847858 0.701733 0.120189
O O19 0.628891 0.704331 0.201135
O O20 0.550086 0.000000 0.875922
O O21 0.004543 0.000000 0.701316
#
# Coordination Sequence:
#
# PCOD8116461 Si02
#       8
#     8   8   8   8   8   8   8   8
#     4  12  27  45  67  97 133 173 215 263 317 375
#     4  11  22  40  66  96 129 168 213 263 317 380
#     4  12  26  41  61  93 130 169 216 267 321 381
#     4  10  21  39  66  95 127 164 211 265 319 382
#     4  10  20  40  65  91 124 167 213 264 325 383
#     4  10  23  44  69  96 129 169 212 261 317 379
#     4  11  23  43  69  99 132 168 212 263 317 378
#     4  11  24  43  66  93 129 170 213 263 322 380
#
# _framework density 10.243449
#
# number of rings (size 3 to 8) (size 9 to 14) (size 15 to 20)
#    0.000    1.125    2.500    3.750    1.750    5.250 
#    0.000    0.000    0.000    0.000    0.000    0.000 
#    0.000    0.000    0.000    0.000    0.000    0.000 
#
# Total GULP energy -396837.435821 kJ/mol
# GULP energy per Si atom -12401.169869 kJ/mol
# Density = 1.022013 g / cm^3
# Si number density = 10.243449 Si / 1000 Ang^3
#
#
#
# Elastic Constant Matrix: (Units=GPa)
#
#
# Indices 1 2 3 4 5 6 
#
# 1 36.2247 30.3409 29.9565 0.0007 -4.0883 0.0038
# 2 30.3409 136.0546 63.3057 0.0023 -0.1490 0.0045
# 3 29.9565 63.3057 133.8659 -0.0002 1.0145 -0.0003
# 4 0.0007 0.0023 -0.0002 42.5668 0.0001 4.0451
# 5 -4.0883 -0.1490 1.0145 0.0001 37.0827 0.0015
# 6 0.0038 0.0045 -0.0003 4.0451 0.0015 31.5356
#
#
#
# Elastic Compliance Matrix: (Units=1/GPa)
#
#
# Indices 1 2 3 4 5 6 
#
# 1 0.037629 -0.005710 -0.005753 0.000000 0.004283 -0.000004
# 2 -0.005710 0.010291 -0.003585 0.000000 -0.000490 -0.000001
# 3 -0.005753 -0.003585 0.010460 0.000000 -0.000935 0.000001
# 4 0.000000 0.000000 0.000000 0.023782 0.000000 -0.003051
# 5 0.004283 -0.000490 -0.000935 0.000000 0.027463 -0.000002
# 6 -0.000004 -0.000001 0.000001 -0.003051 -0.000002 0.032101
#
#
# Mechanical properties :
#
#
# Convention : Reuss Voigt Hill
#
# Bulk Modulus (GPa) = 35.35576 61.48348 48.41962
# Shear Modulus (GPa) = 27.58625 34.40650 30.99637
#
# Velocity S-wave (km/s) = 3.67349 4.10254 3.89393
# Velocity P-wave (km/s) = 5.94036 7.24689 6.62591
#
# Compressibility (1/GPa) = 0.02828393
#
# Stress axis : x y z
#
# Youngs Moduli (GPa) = 26.57550 97.17265 95.60212
#
# Poissons Ratio (x) = 0.55485 0.54997
# Poissons Ratio (y) = 0.15175 0.34275
# Poissons Ratio (z) = 0.15288 0.34838
#
# Static dielectric constant tensor:
#      x y z
#    x 3.661390 0.000000 -0.025560 
#    y 0.000000 3.790790 0.000000 
#    z -0.025560 0.000000 3.890620 
# 
# 
# High freq. dielectric constant tensor:
#      x y z
#    x 1.799590 0.000000 0.002060 
#    y 0.000000 1.808900 0.000000 
#    z 0.002060 0.000000 1.822060 
# 
# From -- ./inp_files/378088.got.cif
#   From: 2010.06.25/outbox.ucp.g09.slc.cvg/sg12_190_cif.got.tgz:378088.got - 2010.06.28 13:50:54.
