data_PCOD8116711
_publ_section_title
;
Structure prediction by ZEFSAII (Michael W. Deem and Ramdas Pophale) SiO2 
 PCOD8116711
Probable space group: P 2/C
;
_chemical_formula_sum "Si O2"
_cell_formula_units_Z 28
_cell_length_a 21.143801
_cell_length_b 11.500600
_cell_length_c 17.553625
_cell_angle_alpha 90.000000
_cell_angle_beta 19.529686
_cell_angle_gamma 90.000000
_cell_volume 1426.922996
_symmetry_space_group_name_H-M "P 2/C"
_symmetry_group_IT_number 13
_symmetry_cell_setting 'monoclinic'
loop_
_space_group_symop_operation_xyz
x,y,z
-x,y,1/2-z
-x,-y,-z
x,-y,1/2+z
loop_
_atom_site_type_symbol
_atom_site_label
_atom_site_fract_x
_atom_site_fract_y
_atom_site_fract_z
Si Si1 0.968815 0.127334 0.365232
Si Si2 0.322940 0.726704 0.120424
Si Si3 0.734610 0.805187 0.856911
Si Si4 0.382265 0.452970 0.205430
Si Si5 0.054072 0.381798 0.478206
Si Si6 0.338098 0.299381 0.784254
Si Si7 0.294474 0.027897 0.704386
O O1 0.852899 0.241431 0.468208
O O2 0.847335 0.055859 0.565018
O O3 0.000000 0.056308 0.250000
O O4 0.171213 0.167837 0.168676
O O5 0.315778 0.702013 0.218385
O O6 0.324271 0.866327 0.110100
O O7 0.139663 0.684154 0.281831
O O8 0.504867 0.654231 0.882206
O O9 0.824323 0.690775 0.719478
O O10 0.786984 0.915476 0.745003
O O11 0.511731 0.780294 0.116885
O O12 0.177017 0.404171 0.414242
O O13 0.357087 0.565366 0.289618
O O14 0.500000 0.500000 0.000000
O O15 0.000000 0.500000 0.500000
O O16 0.500000 0.000000 0.500000
#
# Coordination Sequence:
#
# PCOD8116711 Si02
#       7
#     4   4   4   4   4   4   4
#     4  11  24  38  53  80 117 148 191 230 290 360
#     4  10  18  28  45  77 112 134 175 224 276 325
#     4  12  20  34  59  79 114 150 185 241 296 329
#     4  10  16  27  46  75 113 135 166 215 274 319
#     4  12  17  26  48  79 112 140 172 223 281 327
#     4  10  18  33  51  79 113 139 179 230 282 334
#     4  11  20  37  56  81 115 143 189 244 288 334
#
# _framework density 19.622643
#
# number of rings (size 3 to 8) (size 9 to 14) (size 15 to 20)
#    0.000    1.143   11.429    0.429    0.000    0.571 
#    0.000    0.000    0.000    0.000    0.000    9.000 
#   12.857    0.000    0.000    0.000    0.000    0.000 
#
# Total GULP energy -346912.845207 kJ/mol
# GULP energy per Si atom -12389.744472 kJ/mol
# Density = 1.957798 g / cm^3
# Si number density = 19.622643 Si / 1000 Ang^3
#
#
#
# Elastic Constant Matrix: (Units=GPa)
#
#
# Indices 1 2 3 4 5 6 
#
# 1 71.8117 31.4889 49.1192 0.0000 -20.0351 0.0000
# 2 31.4889 118.2909 30.0147 0.0000 -8.6736 0.0000
# 3 49.1192 30.0147 85.1903 0.0000 -39.5982 0.0000
# 4 0.0000 0.0000 0.0000 30.5497 0.0000 -14.9274
# 5 -20.0351 -8.6736 -39.5982 0.0000 32.8018 0.0000
# 6 0.0000 0.0000 0.0000 -14.9274 0.0000 18.0826
#
#
#
# Elastic Compliance Matrix: (Units=1/GPa)
#
#
# Indices 1 2 3 4 5 6 
#
# 1 0.024207 -0.003011 -0.014569 0.000000 -0.003598 0.000000
# 2 -0.003011 0.009828 -0.003130 0.000000 -0.003018 0.000000
# 3 -0.014569 -0.003130 0.038099 0.000000 0.036266 0.000000
# 4 0.000000 0.000000 0.000000 0.054864 0.000000 0.045291
# 5 -0.003598 -0.003018 0.036266 0.000000 0.071271 0.000000
# 6 0.000000 0.000000 0.000000 0.045291 0.000000 0.092690
#
#
# Mechanical properties :
#
#
# Convention : Reuss Voigt Hill
#
# Bulk Modulus (GPa) = 32.55802 55.17095 43.86448
# Shear Modulus (GPa) = 14.59364 27.26481 20.92922
#
# Velocity S-wave (km/s) = 2.73007 3.73159 3.26940
# Velocity P-wave (km/s) = 5.15420 6.83691 6.05430
#
# Compressibility (1/GPa) = 0.03071440
#
# Stress axis : x y z
#
# Youngs Moduli (GPa) = 41.31061 101.74984 26.24767
#
# Poissons Ratio (x) = 0.30637 0.38240
# Poissons Ratio (y) = 0.12439 0.08214
# Poissons Ratio (z) = 0.60185 0.31843
#
# Static dielectric constant tensor:
#      x y z
#    x 3.414810 0.000000 -0.463740 
#    y 0.000000 4.325690 0.000000 
#    z -0.463740 0.000000 3.929910 
# 
# 
# High freq. dielectric constant tensor:
#      x y z
#    x 1.715090 0.000000 -0.056680 
#    y 0.000000 1.777830 0.000000 
#    z -0.056680 0.000000 1.756270 
# 
# From -- ./inp_files/70670.got.cif
#   From: 2010.06.25/outbox.cif.g09.slc.cpg/sg13_36_cif.got.tgz:70670.got - 2010.06.28 04:50:58.
