data_PCOD8116241
_publ_section_title
;
Structure prediction by ZEFSAII (Michael W. Deem and Ramdas Pophale) SiO2 
 PCOD8116241
Probable space group: C 2/M
;
_chemical_formula_sum "Si O2"
_cell_formula_units_Z 32
_cell_length_a 21.000000
_cell_length_b 9.000000
_cell_length_c 18.000000
_cell_angle_alpha 90.000000
_cell_angle_beta 90.000000
_cell_angle_gamma 90.000000
_cell_volume 3402.000000
_symmetry_space_group_name_H-M "C 2/M"
_symmetry_group_IT_number 12
_symmetry_cell_setting 'monoclinic'
loop_
_space_group_symop_operation_xyz
x,y,z
-x,y,-z
-x,-y,-z
x,-y,z
1/2+x,1/2+y,z
1/2-x,1/2+y,-z
1/2-x,1/2-y,-z
1/2+x,1/2-y,z
loop_
_atom_site_type_symbol
_atom_site_label
_atom_site_fract_x
_atom_site_fract_y
_atom_site_fract_z
Si Si1 0.939598 0.327626 0.712334
Si Si2 0.062439 0.325737 0.457769
Si Si3 0.378515 0.675891 0.089651
Si Si4 0.737364 0.169388 0.842660
Si Si5 0.809062 0.828146 0.536591
Si Si6 0.315778 0.666687 0.706604
Si Si7 0.990011 0.824044 0.844034
Si Si8 0.136540 0.176821 0.075713
O O1 0.948538 0.500000 0.726245
O O2 0.949496 0.282259 0.627257
O O3 0.869026 0.278393 0.737379
O O4 0.991892 0.240941 0.760745
O O5 0.074147 0.500000 0.468544
O O6 0.124248 0.242488 0.490036
O O7 0.000000 0.269655 0.500000
O O8 0.377445 0.500000 0.091243
O O9 0.324883 0.734023 0.144943
O O10 0.447681 0.735416 0.113626
O O11 0.363592 0.737459 0.007953
O O12 0.752097 0.182860 0.755112
O O13 0.798549 0.234493 0.886687
O O14 0.724069 0.000000 0.866717
O O15 0.750000 0.750000 0.500000
O O16 0.797647 0.798022 0.622974
O O17 0.809863 0.000000 0.515129
O O18 0.343996 0.500000 0.715213
O O19 0.926922 0.761102 0.884604
O O20 0.990264 0.000000 0.840763
O O21 0.134191 0.000000 0.079286
#
# Coordination Sequence:
#
# PCOD8116241 Si02
#       8
#     8   8   8   8   8   8   8   8
#     4  10  19  32  55  83 105 133 175 222 261 304
#     4   9  19  37  58  80 109 142 177 217 266 321
#     4  10  21  34  51  78 107 136 172 220 265 304
#     4  10  19  34  55  76 103 138 173 214 262 315
#     4  10  20  35  57  83 111 142 179 221 263 314
#     4   9  18  35  57  78 102 141 182 212 255 315
#     4  10  19  35  55  74 104 141 177 214 257 314
#     4   9  17  33  57  77  96 135 183 214 253 316
#
# _framework density 9.4062319999999993
#
# number of rings (size 3 to 8) (size 9 to 14) (size 15 to 20)
#    0.000    2.375    1.250    1.500    0.000    3.750 
#    2.250    0.625    0.000    1.500    0.000    0.000 
#    0.000    0.000    0.000    0.000    0.000    0.000 
#
# Total GULP energy -396764.068589 kJ/mol
# GULP energy per Si atom -12398.877143 kJ/mol
# Density = 0.938482 g / cm^3
# Si number density = 9.406232 Si / 1000 Ang^3
#
#
#
# Elastic Constant Matrix: (Units=GPa)
#
#
# Indices 1 2 3 4 5 6 
#
# 1 123.0172 39.8123 47.6568 0.0000 -9.0173 0.0000
# 2 39.8123 27.4276 28.2974 0.0000 3.5982 0.0000
# 3 47.6568 28.2974 67.7691 0.0000 -3.2714 0.0000
# 4 0.0000 0.0000 0.0000 23.9844 0.0000 0.2673
# 5 -9.0173 3.5982 -3.2714 0.0000 20.8876 0.0000
# 6 0.0000 0.0000 0.0000 0.2673 0.0000 30.3008
#
#
#
# Elastic Compliance Matrix: (Units=1/GPa)
#
#
# Indices 1 2 3 4 5 6 
#
# 1 0.018111 -0.027025 -0.000856 0.000000 0.012340 0.000000
# 2 -0.027025 0.109659 -0.028475 0.000000 -0.035017 0.000000
# 3 -0.000856 -0.028475 0.027676 0.000000 0.008870 0.000000
# 4 0.000000 0.000000 0.000000 0.041698 0.000000 -0.000368
# 5 0.012340 -0.035017 0.008870 0.000000 0.060624 0.000000
# 6 0.000000 0.000000 0.000000 -0.000368 0.000000 0.033006
#
#
# Mechanical properties :
#
#
# Convention : Reuss Voigt Hill
#
# Bulk Modulus (GPa) = 23.40013 49.97188 36.68600
# Shear Modulus (GPa) = 11.96947 21.86439 16.91693
#
# Velocity S-wave (km/s) = 2.52514 3.41285 3.00199
# Velocity P-wave (km/s) = 4.57902 6.49237 5.61775
#
# Compressibility (1/GPa) = 0.04273481
#
# Stress axis : x y z
#
# Youngs Moduli (GPa) = 55.21420 9.11921 36.13242
#
# Poissons Ratio (x) = 0.24644 0.03094
# Poissons Ratio (y) = 1.49215 1.02885
# Poissons Ratio (z) = 0.04727 0.25967
#
# Static dielectric constant tensor:
#      x y z
#    x 3.440860 0.000000 -0.014680 
#    y 0.000000 3.205630 0.000000 
#    z -0.014680 0.000000 3.713250 
# 
# 
# High freq. dielectric constant tensor:
#      x y z
#    x 1.724340 0.000000 0.001780 
#    y 0.000000 1.706950 0.000000 
#    z 0.001780 0.000000 1.726720 
# 
# From -- ./inp_files/281238.got.cif
#   From: 2010.06.25/outbox.ucp.g09.slc.cvg/sg12_141_cif.got.tgz:281238.got - 2010.06.28 13:50:54.
