data_PCOD8116341
_publ_section_title
;
Structure prediction by ZEFSAII (Michael W. Deem and Ramdas Pophale) SiO2 
 PCOD8116341
Probable space group: C 2/M
;
_chemical_formula_sum "Si O2"
_cell_formula_units_Z 24
_cell_length_a 18.000000
_cell_length_b 9.000000
_cell_length_c 30.000000
_cell_angle_alpha 90.000000
_cell_angle_beta 30.000000
_cell_angle_gamma 90.000000
_cell_volume 2430.000000
_symmetry_space_group_name_H-M "C 2/M"
_symmetry_group_IT_number 12
_symmetry_cell_setting 'monoclinic'
loop_
_space_group_symop_operation_xyz
x,y,z
-x,y,-z
-x,-y,-z
x,-y,z
1/2+x,1/2+y,z
1/2-x,1/2+y,-z
1/2-x,1/2-y,-z
1/2+x,1/2-y,z
loop_
_atom_site_type_symbol
_atom_site_label
_atom_site_fract_x
_atom_site_fract_y
_atom_site_fract_z
Si Si1 0.353537 0.174521 0.481394
Si Si2 0.773195 0.828444 0.362236
Si Si3 0.810344 0.324734 0.690200
Si Si4 0.613882 0.672696 0.980712
Si Si5 0.524519 0.823007 0.863290
Si Si6 0.590443 0.325825 0.166380
O O1 0.250000 0.250000 0.500000
O O2 0.308389 0.243945 0.552881
O O3 0.523302 0.210364 0.380536
O O4 0.323100 0.000000 0.496870
O O5 0.707415 0.761693 0.350813
O O6 0.950815 0.803543 0.272100
O O7 0.730892 0.000000 0.383776
O O8 0.772290 0.500000 0.712837
O O9 0.694185 0.234707 0.781100
O O10 0.625763 0.500000 0.988457
O O11 0.773569 0.735921 0.882267
O O12 0.500000 0.694621 0.000000
O O13 0.565823 0.774688 0.046622
O O14 0.447245 0.743433 0.861878
O O15 0.520103 0.000000 0.859998
O O16 0.627778 0.500000 0.141043
#
# Coordination Sequence:
#
# PCOD8116341 Si02
#       6
#     8   8   8   8   8   8
#     4  10  20  34  53  79 111 145 180 220 270 325
#     4   8  16  33  57  80 102 136 182 225 262 310
#     4   9  18  35  58  80 104 140 186 230 270 315
#     4  11  24  40  57  80 113 148 182 224 275 328
#     4  11  22  37  59  84 111 143 183 229 275 327
#     4  10  20  37  61  85 110 142 184 229 273 325
#
# _framework density 9.8765429999999999
#
# number of rings (size 3 to 8) (size 9 to 14) (size 15 to 20)
#    0.000    2.167    0.000    4.500    0.000    5.333 
#    0.000    7.500    0.000    5.000    0.000    0.000 
#    0.000    0.000    0.000    0.000    0.000    0.000 
#
# Total GULP energy -297570.032490 kJ/mol
# GULP energy per Si atom -12398.751354 kJ/mol
# Density = 0.985406 g / cm^3
# Si number density = 9.876543 Si / 1000 Ang^3
#
#
#
# Elastic Constant Matrix: (Units=GPa)
#
#
# Indices 1 2 3 4 5 6 
#
# 1 55.0536 26.6305 16.7495 0.0001 -27.6711 -0.0118
# 2 26.6305 88.7941 29.6246 0.0016 -16.4950 0.0001
# 3 16.7495 29.6246 66.4643 -0.0011 -22.6950 0.0016
# 4 0.0001 0.0016 -0.0011 28.6493 0.0005 -4.0411
# 5 -27.6711 -16.4950 -22.6950 0.0005 32.3793 0.0011
# 6 -0.0118 0.0001 0.0016 -4.0411 0.0011 27.1824
#
#
#
# Elastic Compliance Matrix: (Units=1/GPa)
#
#
# Indices 1 2 3 4 5 6 
#
# 1 0.034710 -0.006328 0.004077 0.000002 0.029297 0.000014
# 2 -0.006328 0.014679 -0.005575 -0.000001 -0.001838 -0.000003
# 3 0.004077 -0.005575 0.021985 0.000001 0.016054 0.000000
# 4 0.000002 -0.000001 0.000001 0.035653 0.000001 0.005300
# 5 0.029297 -0.001838 0.016054 0.000001 0.066237 0.000009
# 6 0.000014 -0.000003 0.000000 0.005300 0.000009 0.037577
#
#
# Mechanical properties :
#
#
# Convention : Reuss Voigt Hill
#
# Bulk Modulus (GPa) = 17.94655 39.59124 28.76889
# Shear Modulus (GPa) = 20.40272 26.79601 23.59937
#
# Velocity S-wave (km/s) = 3.21734 3.68713 3.46022
# Velocity P-wave (km/s) = 4.78612 6.18168 5.52811
#
# Compressibility (1/GPa) = 0.05572102
#
# Stress axis : x y z
#
# Youngs Moduli (GPa) = 28.81026 68.12665 45.48554
#
# Poissons Ratio (x) = 0.43109 -0.18545
# Poissons Ratio (y) = 0.18231 0.25360
# Poissons Ratio (z) = -0.11746 0.37984
#
# Static dielectric constant tensor:
#      x y z
#    x 3.455560 0.000000 -0.076680 
#    y 0.000000 3.511950 0.000000 
#    z -0.076680 0.000000 3.976530 
# 
# 
# High freq. dielectric constant tensor:
#      x y z
#    x 1.755860 0.000000 -0.011430 
#    y 0.000000 1.756110 0.000000 
#    z -0.011430 0.000000 1.785670 
# 
# From -- ./inp_files/274089.got.cif
#   From: 2010.06.25/outbox.ucp.g09.slc.cvg/sg12_138_cif.got.tgz:274089.got - 2010.06.28 13:50:54.
