data_PCOD8116140
_publ_section_title
;
Structure prediction by ZEFSAII (Michael W. Deem and Ramdas Pophale) SiO2 
 PCOD8116140
Probable space group: C 2/M
;
_chemical_formula_sum "Si O2"
_cell_formula_units_Z 56
_cell_length_a 19.206126
_cell_length_b 9.701674
_cell_length_c 28.320156
_cell_angle_alpha 90.000000
_cell_angle_beta 141.170921
_cell_angle_gamma 90.000000
_cell_volume 3308.637006
_symmetry_space_group_name_H-M "C 2/M"
_symmetry_group_IT_number 12
_symmetry_cell_setting 'monoclinic'
loop_
_space_group_symop_operation_xyz
x,y,z
-x,y,-z
-x,-y,-z
x,-y,z
1/2+x,1/2+y,z
1/2-x,1/2+y,-z
1/2-x,1/2-y,-z
1/2+x,1/2-y,z
loop_
_atom_site_type_symbol
_atom_site_label
_atom_site_fract_x
_atom_site_fract_y
_atom_site_fract_z
Si Si1 0.844082 0.340663 0.287273
Si Si2 0.393996 0.157368 0.043857
Si Si3 0.288668 0.840819 0.089397
Si Si4 0.037958 0.338255 0.743569
Si Si5 0.115207 0.660123 0.584312
Si Si6 0.858227 0.657246 0.806631
Si Si7 0.679575 0.840425 0.322146
O O1 0.810671 0.500000 0.265063
O O2 0.937352 0.301306 0.297865
O O3 0.893962 0.306317 0.364882
O O4 0.733551 0.254337 0.218290
O O5 0.357880 0.181586 0.078468
O O6 0.523625 0.195186 0.108117
O O7 0.372524 0.000000 0.017471
O O8 0.325564 0.254902 0.972443
O O9 0.363487 0.779635 0.171377
O O10 0.257025 0.000000 0.080613
O O11 0.034014 0.500000 0.751449
O O12 0.916540 0.281695 0.693885
O O13 0.142104 0.500000 0.589621
O O14 0.211122 0.750001 0.610673
O O15 0.000000 0.704121 0.500000
O O16 0.825692 0.500000 0.800406
O O17 0.864792 0.681196 0.754111
O O18 0.708787 0.000000 0.347612
#
# Coordination Sequence:
#
# PCOD8116140 Si02
#       7
#     8   8   8   8   8   8   8
#     4   9  18  31  49  69  90 120 155 186 222 272
#     4   9  16  27  43  65  90 117 151 190 232 269
#     4   9  16  27  44  65  89 117 150 191 232 265
#     4   9  16  30  49  69  92 119 153 192 230 265
#     4   9  18  33  50  70  97 123 146 179 225 272
#     4   9  16  29  47  66  90 120 153 191 231 267
#     4   9  16  29  51  72  89 116 155 191 221 262
#
# _framework density 16.925398000000001
#
# number of rings (size 3 to 8) (size 9 to 14) (size 15 to 20)
#    0.000    3.000    1.429    0.000    0.000    0.857 
#    0.000    3.571    0.000    4.286    0.000    0.000 
#    0.000    0.000    0.000    0.000    0.000    0.000 
#
# Total GULP energy -347162.563965 kJ/mol
# GULP energy per Si atom -12398.662999 kJ/mol
# Density = 1.688688 g / cm^3
# Si number density = 16.925398 Si / 1000 Ang^3
#
#
#
# Elastic Constant Matrix: (Units=GPa)
#
#
# Indices 1 2 3 4 5 6 
#
# 1 107.3339 45.3638 58.4319 0.0000 19.6684 0.0000
# 2 45.3638 61.0393 55.7904 0.0000 15.7032 0.0000
# 3 58.4319 55.7904 126.1473 0.0000 21.7258 0.0000
# 4 0.0000 0.0000 0.0000 27.5218 0.0000 7.7129
# 5 19.6684 15.7032 21.7258 0.0000 21.7207 0.0000
# 6 0.0000 0.0000 0.0000 7.7129 0.0000 20.5195
#
#
#
# Elastic Compliance Matrix: (Units=1/GPa)
#
#
# Indices 1 2 3 4 5 6 
#
# 1 0.014832 -0.007034 -0.002805 0.000000 -0.005539 0.000000
# 2 -0.007034 0.032491 -0.009862 0.000000 -0.007256 0.000000
# 3 -0.002805 -0.009862 0.014404 0.000000 -0.004738 0.000000
# 4 0.000000 0.000000 0.000000 0.040613 0.000000 -0.015266
# 5 -0.005539 -0.007256 -0.004738 0.000000 0.061040 0.000000
# 6 0.000000 0.000000 0.000000 -0.015266 0.000000 0.054472
#
#
# Mechanical properties :
#
#
# Convention : Reuss Voigt Hill
#
# Bulk Modulus (GPa) = 44.79267 68.18807 56.49037
# Shear Modulus (GPa) = 18.88969 22.94802 20.91886
#
# Velocity S-wave (km/s) = 3.34437 3.68616 3.51941
# Velocity P-wave (km/s) = 6.43702 7.64800 7.06849
#
# Compressibility (1/GPa) = 0.02232508
#
# Stress axis : x y z
#
# Youngs Moduli (GPa) = 67.42329 30.77808 69.42443
#
# Poissons Ratio (x) = 0.21648 0.19476
# Poissons Ratio (y) = 0.47422 0.68465
# Poissons Ratio (z) = 0.18915 0.30353
#
# Static dielectric constant tensor:
#      x y z
#    x 3.091110 0.000000 0.110000 
#    y 0.000000 3.079330 0.000000 
#    z 0.110000 0.000000 3.140500 
# 
# 
# High freq. dielectric constant tensor:
#      x y z
#    x 1.639380 0.000000 0.009610 
#    y 0.000000 1.636410 0.000000 
#    z 0.009610 0.000000 1.644650 
# 
# From -- ./inp_files/276094.got.cif
#   From: 2010.06.25/outbox.cif.g09.slc.cpg/sg12_139_cif.got.tgz:276094.got - 2010.06.28 00:19:55.
