data_PCOD8116399
_publ_section_title
;
Structure prediction by ZEFSAII (Michael W. Deem and Ramdas Pophale) SiO2 
 PCOD8116399
Probable space group: C 2/M
;
_chemical_formula_sum "Si O2"
_cell_formula_units_Z 32
_cell_length_a 18.000000
_cell_length_b 9.000000
_cell_length_c 30.000000
_cell_angle_alpha 90.000000
_cell_angle_beta 140.000000
_cell_angle_gamma 90.000000
_cell_volume 3123.947783
_symmetry_space_group_name_H-M "C 2/M"
_symmetry_group_IT_number 12
_symmetry_cell_setting 'monoclinic'
loop_
_space_group_symop_operation_xyz
x,y,z
-x,y,-z
-x,-y,-z
x,-y,z
1/2+x,1/2+y,z
1/2-x,1/2+y,-z
1/2-x,1/2-y,-z
1/2+x,1/2-y,z
loop_
_atom_site_type_symbol
_atom_site_label
_atom_site_fract_x
_atom_site_fract_y
_atom_site_fract_z
Si Si1 0.674403 0.823394 0.502664
Si Si2 0.008001 0.834025 0.216414
Si Si3 0.491244 0.830726 0.868685
Si Si4 0.738481 0.666258 0.867961
Si Si5 0.256041 0.676783 0.635418
Si Si6 0.085168 0.675496 0.632283
Si Si7 0.763715 0.169808 0.230157
Si Si8 0.582871 0.326188 0.997855
O O1 0.750000 0.750000 0.500000
O O2 0.720804 0.761303 0.571015
O O3 0.543754 0.768161 0.435677
O O4 0.683317 0.000000 0.503874
O O5 0.957945 0.738550 0.152611
O O6 0.116912 0.763766 0.292648
O O7 0.899859 0.837034 0.199395
O O8 0.041184 0.000000 0.214932
O O9 0.354246 0.813457 0.796682
O O10 0.529616 0.000000 0.891909
O O11 0.539771 0.744567 0.932882
O O12 0.787919 0.500000 0.898051
O O13 0.772703 0.730321 0.835345
O O14 0.789396 0.768824 0.930536
O O15 0.253499 0.500000 0.632841
O O16 0.163749 0.738241 0.628437
O O17 0.090720 0.500000 0.637028
O O18 0.132939 0.736968 0.700868
O O19 0.805744 0.000000 0.246127
O O20 0.587139 0.500000 0.992531
O O21 0.500000 0.277098 0.000000
#
# Coordination Sequence:
#
# PCOD8116399 Si02
#       8
#     8   8   8   8   8   8   8   8
#     4  10  22  38  58  87 119 153 191 235 289 340
#     4  10  21  38  61  87 114 151 195 239 287 341
#     4  11  22  38  61  86 117 153 190 239 292 344
#     4  10  22  39  59  85 116 152 194 237 292 352
#     4   9  18  36  61  83 111 151 195 236 275 334
#     4  10  20  36  60  86 112 151 198 240 281 333
#     4  10  21  36  58  87 116 151 192 236 290 345
#     4  11  23  38  60  87 115 151 195 241 290 342
#
# _framework density 10.243449
#
# number of rings (size 3 to 8) (size 9 to 14) (size 15 to 20)
#    0.000    1.875    2.500    1.125    1.750    4.500 
#    0.000    1.250    0.000    1.500    0.000    0.000 
#    0.000    0.000    0.000    0.000    0.000    0.000 
#
# Total GULP energy -396734.967224 kJ/mol
# GULP energy per Si atom -12397.967726 kJ/mol
# Density = 1.022013 g / cm^3
# Si number density = 10.243449 Si / 1000 Ang^3
#
#
#
# Elastic Constant Matrix: (Units=GPa)
#
#
# Indices 1 2 3 4 5 6 
#
# 1 52.7077 22.5157 39.5622 0.0000 4.9729 0.0000
# 2 22.5157 29.4885 37.4407 0.0000 1.2168 0.0000
# 3 39.5622 37.4407 149.6858 0.0000 -3.3760 0.0000
# 4 0.0000 0.0000 0.0000 30.5819 0.0000 0.2404
# 5 4.9729 1.2168 -3.3760 0.0000 29.3757 0.0000
# 6 0.0000 0.0000 0.0000 0.2404 0.0000 19.1255
#
#
#
# Elastic Compliance Matrix: (Units=1/GPa)
#
#
# Indices 1 2 3 4 5 6 
#
# 1 0.029746 -0.018176 -0.003421 0.000000 -0.004676 0.000000
# 2 -0.018176 0.061160 -0.010509 0.000000 -0.000664 0.000000
# 3 -0.003421 -0.010509 0.010263 0.000000 0.002194 0.000000
# 4 0.000000 0.000000 0.000000 0.032702 0.000000 -0.000411
# 5 -0.004676 -0.000664 0.002194 0.000000 0.035113 0.000000
# 6 0.000000 0.000000 0.000000 -0.000411 0.000000 0.052291
#
#
# Mechanical properties :
#
#
# Convention : Reuss Voigt Hill
#
# Bulk Modulus (GPa) = 27.05835 47.87991 37.46913
# Shear Modulus (GPa) = 16.78948 24.64083 20.71515
#
# Velocity S-wave (km/s) = 2.86584 3.47185 3.18329
# Velocity P-wave (km/s) = 4.91803 6.28437 5.64271
#
# Compressibility (1/GPa) = 0.03695717
#
# Stress axis : x y z
#
# Youngs Moduli (GPa) = 33.61810 16.35065 97.43816
#
# Poissons Ratio (x) = 0.29718 0.33335
# Poissons Ratio (y) = 0.61103 1.02397
# Poissons Ratio (z) = 0.11501 0.17183
#
# Static dielectric constant tensor:
#      x y z
#    x 3.602690 0.000000 0.031100 
#    y 0.000000 3.410580 0.000000 
#    z 0.031100 0.000000 3.801600 
# 
# 
# High freq. dielectric constant tensor:
#      x y z
#    x 1.789370 0.000000 -0.000170 
#    y 0.000000 1.769790 0.000000 
#    z -0.000170 0.000000 1.812180 
# 
# From -- ./inp_files/378523.got.cif
#   From: 2010.06.25/outbox.ucp.g09.slc.cvg/sg12_190_cif.got.tgz:378523.got - 2010.06.28 13:50:54.
