data_PCOD8116191
_publ_section_title
;
Structure prediction by ZEFSAII (Michael W. Deem and Ramdas Pophale) SiO2 
 PCOD8116191
Probable space group: C 2/M
;
_chemical_formula_sum "Si O2"
_cell_formula_units_Z 24
_cell_length_a 15.000000
_cell_length_b 24.000000
_cell_length_c 15.000000
_cell_angle_alpha 90.000000
_cell_angle_beta 30.000000
_cell_angle_gamma 90.000000
_cell_volume 2700.000000
_symmetry_space_group_name_H-M "C 2/M"
_symmetry_group_IT_number 12
_symmetry_cell_setting 'monoclinic'
loop_
_space_group_symop_operation_xyz
x,y,z
-x,y,-z
-x,-y,-z
x,-y,z
1/2+x,1/2+y,z
1/2-x,1/2+y,-z
1/2-x,1/2-y,-z
1/2+x,1/2-y,z
loop_
_atom_site_type_symbol
_atom_site_label
_atom_site_fract_x
_atom_site_fract_y
_atom_site_fract_z
Si Si1 0.357546 0.871168 0.849692
Si Si2 0.428530 0.823928 0.966724
Si Si3 0.227399 0.234119 0.675891
Si Si4 0.963985 0.878019 0.137514
Si Si5 0.894265 0.564791 0.503292
Si Si6 0.386613 0.758522 0.727424
O O1 0.410575 0.873265 0.909048
O O2 0.511918 0.902253 0.659573
O O3 0.348777 0.806113 0.831873
O O4 0.156793 0.895555 0.011626
O O5 0.582797 0.782653 0.798830
O O6 0.500000 0.847792 0.000000
O O7 0.230823 0.795939 0.145501
O O8 0.114819 0.178655 0.750102
O O9 0.396425 0.250386 0.465174
O O10 0.311141 0.220584 0.699058
O O11 0.815174 0.923212 0.296354
O O12 0.000000 0.873846 0.000000
O O13 0.915444 0.500000 0.462952
O O14 0.000000 0.582682 0.500000
#
# Coordination Sequence:
#
# PCOD8116191 Si02
#       6
#     8   8   8   8   8   8
#     4  12  22  35  58  81 112 152 188 225 279 331
#     4  10  22  37  51  81 116 151 192 230 261 319
#     4  10  18  31  51  77 116 149 180 221 265 321
#     4  12  20  33  56  83 114 146 180 224 272 334
#     4  11  24  40  58  84 114 143 180 229 288 345
#     4  10  18  30  51  79 111 148 185 219 264 326
#
# _framework density 8.8888890000000007
#
# number of rings (size 3 to 8) (size 9 to 14) (size 15 to 20)
#    0.000    1.167    6.667    1.000    0.000    3.000 
#    0.000    0.000    0.000    0.500    0.000    1.167 
#    0.000    0.000    0.000    0.000    0.000    0.000 
#
# Total GULP energy -297393.813663 kJ/mol
# GULP energy per Si atom -12391.408903 kJ/mol
# Density = 0.886866 g / cm^3
# Si number density = 8.888889 Si / 1000 Ang^3
#
#
#
# Elastic Constant Matrix: (Units=GPa)
#
#
# Indices 1 2 3 4 5 6 
#
# 1 93.8695 32.5221 44.5579 -0.0361 0.3033 0.0016
# 2 32.5221 45.9940 29.7654 -0.0473 7.5503 0.0114
# 3 44.5579 29.7654 165.9654 -0.1469 -12.9353 0.0432
# 4 -0.0361 -0.0473 -0.1469 25.3697 0.0456 0.8528
# 5 0.3033 7.5503 -12.9353 0.0456 32.9253 -0.0057
# 6 0.0016 0.0114 0.0432 0.8528 -0.0057 15.7113
#
#
#
# Elastic Compliance Matrix: (Units=1/GPa)
#
#
# Indices 1 2 3 4 5 6 
#
# 1 0.014938 -0.009281 -0.002260 -0.000012 0.001103 0.000012
# 2 -0.009281 0.032360 -0.004006 0.000041 -0.008909 -0.000017
# 3 -0.002260 -0.004006 0.007658 0.000027 0.003948 -0.000018
# 4 -0.000012 0.000041 0.000027 0.039489 -0.000054 -0.002144
# 5 0.001103 -0.008909 0.003948 -0.000054 0.033956 0.000011
# 6 0.000012 -0.000017 -0.000018 -0.002144 0.000011 0.063765
#
#
# Mechanical properties :
#
#
# Convention : Reuss Voigt Hill
#
# Bulk Modulus (GPa) = 41.90846 57.72441 49.81644
# Shear Modulus (GPa) = 21.62500 28.06684 24.84592
#
# Velocity S-wave (km/s) = 3.49149 3.97767 3.74248
# Velocity P-wave (km/s) = 6.31495 7.32368 6.83794
#
# Compressibility (1/GPa) = 0.02386153
#
# Stress axis : x y z
#
# Youngs Moduli (GPa) = 66.94439 30.90270 130.57608
#
# Poissons Ratio (x) = 0.28680 0.29510
# Poissons Ratio (y) = 0.62130 0.52312
# Poissons Ratio (z) = 0.15130 0.12380
#
# Static dielectric constant tensor:
#      x y z
#    x 3.441340 -0.000100 -0.195320 
#    y -0.000100 2.877420 0.000260 
#    z -0.195320 0.000260 3.921570 
# 
# 
# High freq. dielectric constant tensor:
#      x y z
#    x 1.684850 -0.000010 -0.013040 
#    y -0.000010 1.636250 0.000020 
#    z -0.013040 0.000020 1.735980 
# 
# From -- ./inp_files/218404.got.cif
#   From: 2010.06.25/outbox.ucp.g09.slc.cvg/sg12_110_cif.got.tgz:218404.got - 2010.06.28 13:50:54.
