data_PCOD8116833
_publ_section_title
;
Structure prediction by ZEFSAII (Michael W. Deem and Ramdas Pophale) SiO2 
 PCOD8116833
Probable space group: P 2/C
;
_chemical_formula_sum "Si O2"
_cell_formula_units_Z 24
_cell_length_a 10.569683
_cell_length_b 15.736478
_cell_length_c 19.307019
_cell_angle_alpha 90.000000
_cell_angle_beta 155.969232
_cell_angle_gamma 90.000000
_cell_volume 1307.740163
_symmetry_space_group_name_H-M "P 2/C"
_symmetry_group_IT_number 13
_symmetry_cell_setting 'monoclinic'
loop_
_space_group_symop_operation_xyz
x,y,z
-x,y,1/2-z
-x,-y,-z
x,-y,1/2+z
loop_
_atom_site_type_symbol
_atom_site_label
_atom_site_fract_x
_atom_site_fract_y
_atom_site_fract_z
Si Si1 0.632957 0.088329 0.488216
Si Si2 0.368628 0.585048 0.761553
Si Si3 0.368616 0.414957 0.607068
Si Si4 0.369140 0.758056 0.608085
Si Si5 0.369152 0.758052 0.261063
Si Si6 0.632934 0.911667 0.144728
O O1 0.512276 0.164674 0.379981
O O2 0.512066 0.103754 0.506031
O O3 0.000010 0.083415 0.669716
O O4 0.500015 0.999997 0.392185
O O5 0.500000 0.585443 0.750000
O O6 0.500014 0.500003 0.865402
O O7 0.495175 0.671804 0.859330
O O8 0.000006 0.583494 0.577496
O O9 0.500000 0.414564 0.750000
O O10 0.495169 0.328202 0.635842
O O11 0.500000 0.772952 0.750000
O O12 0.999995 0.751501 0.426680
O O13 0.500000 0.772946 0.250000
O O14 0.487744 0.835323 0.367715
#
# Coordination Sequence:
#
# PCOD8116833 Si02
#       6
#     4   4   4   4   4   4
#     4   9  19  35  53  71  93 125 162 198 237 283
#     4  10  17  27  44  67  96 127 159 193 233 280
#     4  10  17  27  44  67  96 127 159 193 233 280
#     4  10  19  31  48  72 100 126 157 197 239 281
#     4  10  19  31  48  72 100 126 157 197 239 281
#     4   9  19  35  53  71  93 125 162 198 237 283
#
# _framework density 18.352270000000001
#
# number of rings (size 3 to 8) (size 9 to 14) (size 15 to 20)
#    0.000    2.333    0.000    7.000    0.000    3.333 
#    0.000    3.333    0.000    1.000    0.000    0.000 
#    0.000    0.000    0.000    0.000    0.000    0.000 
#
# Total GULP energy -297496.361611 kJ/mol
# GULP energy per Si atom -12395.681734 kJ/mol
# Density = 1.831050 g / cm^3
# Si number density = 18.352270 Si / 1000 Ang^3
#
#
#
# Elastic Constant Matrix: (Units=GPa)
#
#
# Indices 1 2 3 4 5 6 
#
# 1 53.5484 67.5628 29.7521 0.0000 3.9405 0.0000
# 2 67.5628 227.6333 62.6195 0.0000 -2.9571 0.0000
# 3 29.7521 62.6195 85.1359 0.0000 14.9452 0.0000
# 4 0.0000 0.0000 0.0000 31.0480 0.0000 11.5153
# 5 3.9405 -2.9571 14.9452 0.0000 21.7720 0.0000
# 6 0.0000 0.0000 0.0000 11.5153 0.0000 11.7882
#
#
#
# Elastic Compliance Matrix: (Units=1/GPa)
#
#
# Indices 1 2 3 4 5 6 
#
# 1 0.031862 -0.008317 -0.004328 0.000000 -0.003925 0.000000
# 2 -0.008317 0.008005 -0.003907 0.000000 0.005275 0.000000
# 3 -0.004328 -0.003907 0.018292 0.000000 -0.012304 0.000000
# 4 0.000000 0.000000 0.000000 0.050507 0.000000 -0.049337
# 5 -0.003925 0.005275 -0.012304 0.000000 0.055803 0.000000
# 6 0.000000 0.000000 0.000000 -0.049337 0.000000 0.133026
#
#
# Mechanical properties :
#
#
# Convention : Reuss Voigt Hill
#
# Bulk Modulus (GPa) = 39.91336 76.24295 58.07816
# Shear Modulus (GPa) = 14.75135 26.68051 20.71593
#
# Velocity S-wave (km/s) = 2.83819 3.81701 3.36340
# Velocity P-wave (km/s) = 5.70404 7.81412 6.84093
#
# Compressibility (1/GPa) = 0.02505427
#
# Stress axis : x y z
#
# Youngs Moduli (GPa) = 31.38490 124.92187 54.66819
#
# Poissons Ratio (x) = 1.03901 0.23661
# Poissons Ratio (y) = 0.26104 0.21360
# Poissons Ratio (z) = 0.13584 0.48809
#
# Static dielectric constant tensor:
#      x y z
#    x 3.140600 0.000000 0.101430 
#    y 0.000000 4.517300 0.000000 
#    z 0.101430 0.000000 3.310160 
# 
# 
# High freq. dielectric constant tensor:
#      x y z
#    x 1.666280 0.000000 0.025480 
#    y 0.000000 1.741210 0.000000 
#    z 0.025480 0.000000 1.708880 
# 
# From -- ./inp_files/78721.got.cif
#   From: 2010.06.25/outbox.cif.g09.slc.cpg/sg13_40_cif.got.tgz:78721.got - 2010.06.28 04:50:58.
