data_PCOD8116415
_publ_section_title
;
Structure prediction by ZEFSAII (Michael W. Deem and Ramdas Pophale) SiO2 
 PCOD8116415
Probable space group: C 2/M
;
_chemical_formula_sum "Si O2"
_cell_formula_units_Z 24
_cell_length_a 18.000000
_cell_length_b 9.000000
_cell_length_c 30.000000
_cell_angle_alpha 90.000000
_cell_angle_beta 30.000000
_cell_angle_gamma 90.000000
_cell_volume 2430.000000
_symmetry_space_group_name_H-M "C 2/M"
_symmetry_group_IT_number 12
_symmetry_cell_setting 'monoclinic'
loop_
_space_group_symop_operation_xyz
x,y,z
-x,y,-z
-x,-y,-z
x,-y,z
1/2+x,1/2+y,z
1/2-x,1/2+y,-z
1/2-x,1/2-y,-z
1/2+x,1/2-y,z
loop_
_atom_site_type_symbol
_atom_site_label
_atom_site_fract_x
_atom_site_fract_y
_atom_site_fract_z
Si Si1 0.526769 0.325250 0.693507
Si Si2 0.101162 0.824377 0.816889
Si Si3 0.709841 0.671214 0.475485
Si Si4 0.372780 0.323747 0.862165
Si Si5 0.959756 0.324673 0.970986
Si Si6 0.103921 0.829730 0.333907
O O1 0.553395 0.500000 0.681418
O O2 0.689011 0.248211 0.614813
O O3 0.428195 0.266143 0.785508
O O4 0.445951 0.278696 0.689707
O O5 0.263685 0.772567 0.716693
O O6 0.977759 0.760963 0.846749
O O7 0.074897 0.756660 0.879151
O O8 0.095113 0.000000 0.822140
O O9 0.753724 0.500000 0.456309
O O10 0.750000 0.750000 0.500000
O O11 0.532570 0.689296 0.560196
O O12 0.376075 0.500000 0.860443
O O13 0.204988 0.267401 0.956095
O O14 0.976998 0.500000 0.955693
O O15 0.000000 0.277546 0.000000
O O16 0.157859 0.000000 0.304230
#
# Coordination Sequence:
#
# PCOD8116415 Si02
#       6
#     8   8   8   8   8   8
#     4   9  17  33  56  77 100 133 175 217 252 296
#     4  11  22  34  51  77 108 136 165 209 258 302
#     4   9  17  30  50  77 105 133 170 215 259 300
#     4   9  19  35  53  76 105 136 169 205 253 310
#     4  10  20  37  60  78  97 132 173 209 250 304
#     4   9  18  33  53  75 101 137 176 210 249 302
#
# _framework density 9.8765429999999999
#
# number of rings (size 3 to 8) (size 9 to 14) (size 15 to 20)
#    0.000    2.500    0.000    3.500    0.000    6.333 
#    0.000    4.167    0.000    5.000    0.000    0.000 
#    0.000    0.000    0.000    0.000    0.000    0.000 
#
# Total GULP energy -297530.917876 kJ/mol
# GULP energy per Si atom -12397.121578 kJ/mol
# Density = 0.985406 g / cm^3
# Si number density = 9.876543 Si / 1000 Ang^3
#
#
#
# Elastic Constant Matrix: (Units=GPa)
#
#
# Indices 1 2 3 4 5 6 
#
# 1 71.0143 20.9414 15.3112 -0.0001 -24.0365 -0.0016
# 2 20.9414 41.1807 22.4234 0.0003 -12.6158 -0.0025
# 3 15.3112 22.4234 80.8400 0.0016 -23.7135 -0.0001
# 4 -0.0001 0.0003 0.0016 34.7638 0.0001 -4.9266
# 5 -24.0365 -12.6158 -23.7135 0.0001 26.9550 -0.0007
# 6 -0.0016 -0.0025 -0.0001 -4.9266 -0.0007 18.9830
#
#
#
# Elastic Compliance Matrix: (Units=1/GPa)
#
#
# Indices 1 2 3 4 5 6 
#
# 1 0.021979 -0.007159 0.003490 0.000000 0.019319 0.000002
# 2 -0.007159 0.032509 -0.006835 0.000001 0.002819 0.000004
# 3 0.003490 -0.006835 0.018303 -0.000001 0.016015 0.000000
# 4 0.000000 0.000001 -0.000001 0.029864 0.000000 0.007750
# 5 0.019319 0.002819 0.016015 0.000000 0.069735 0.000005
# 6 0.000002 0.000004 0.000000 0.007750 0.000005 0.054690
#
#
# Mechanical properties :
#
#
# Convention : Reuss Voigt Hill
#
# Bulk Modulus (GPa) = 19.31105 34.48744 26.89925
# Shear Modulus (GPa) = 18.84320 25.09764 21.97042
#
# Velocity S-wave (km/s) = 3.09194 3.56837 3.33866
# Velocity P-wave (km/s) = 4.74807 5.87153 5.33943
#
# Compressibility (1/GPa) = 0.05178382
#
# Stress axis : x y z
#
# Youngs Moduli (GPa) = 45.49720 30.76098 54.63670
#
# Poissons Ratio (x) = 0.22021 -0.19068
# Poissons Ratio (y) = 0.32571 0.37342
# Poissons Ratio (z) = -0.15878 0.21024
#
# Static dielectric constant tensor:
#      x y z
#    x 3.502550 0.000000 -0.160590 
#    y 0.000000 3.424780 0.000000 
#    z -0.160590 0.000000 4.009890 
# 
# 
# High freq. dielectric constant tensor:
#      x y z
#    x 1.744930 0.000000 -0.011180 
#    y 0.000000 1.744520 0.000000 
#    z -0.011180 0.000000 1.783870 
# 
# From -- ./inp_files/274121.got.cif
#   From: 2010.06.25/outbox.ucp.g09.slc.cvg/sg12_138_cif.got.tgz:274121.got - 2010.06.28 13:50:54.
