data_PCOD8116996
_publ_section_title
;
Structure prediction by ZEFSAII (Michael W. Deem and Ramdas Pophale) SiO2 
 PCOD8116996
Probable space group: P 2/C
;
_chemical_formula_sum "Si O2"
_cell_formula_units_Z 18
_cell_length_a 7.365211
_cell_length_b 23.655825
_cell_length_c 5.142073
_cell_angle_alpha 90.000000
_cell_angle_beta 94.826721
_cell_angle_gamma 90.000000
_cell_volume 892.726990
_symmetry_space_group_name_H-M "P 2/C"
_symmetry_group_IT_number 13
_symmetry_cell_setting 'monoclinic'
loop_
_space_group_symop_operation_xyz
x,y,z
-x,y,1/2-z
-x,-y,-z
x,-y,1/2+z
loop_
_atom_site_type_symbol
_atom_site_label
_atom_site_fract_x
_atom_site_fract_y
_atom_site_fract_z
Si Si1 0.200155 0.476312 0.953339
Si Si2 0.711693 0.204996 0.286751
Si Si3 0.288563 0.133470 0.715901
Si Si4 0.000000 0.299652 0.250000
Si Si5 0.000000 0.038760 0.750000
Si Si6 0.000000 0.373627 0.750000
O O1 0.302898 0.485899 0.242121
O O2 0.176463 0.411639 0.853842
O O3 0.000000 0.500000 0.000000
O O4 0.500000 0.221014 0.250000
O O5 0.763453 0.177754 0.567470
O O6 0.822406 0.262488 0.281083
O O7 0.765969 0.161172 0.065785
O O8 0.500000 0.117083 0.750000
O O9 0.180399 0.076388 0.755074
O O10 0.051562 0.336579 0.507083
O O11 0.000000 0.000000 0.500000
#
# Coordination Sequence:
#
# PCOD8116996 Si02
#       6
#     4   4   4   2   2   2
#     4   8  13  24  39  58  95 130 163 206 237 292
#     4  10  21  37  56  75  99 137 176 205 241 296
#     4  10  21  39  58  74 100 139 175 201 238 299
#     4  12  20  30  50  76 106 126 160 216 260 298
#     4  12  24  36  56  86 112 130 160 210 258 292
#     4  10  18  26  42  74 104 130 162 208 264 300
#
# _framework density 20.162941
#
# number of rings (size 3 to 8) (size 9 to 14) (size 15 to 20)
#    0.000    2.222    0.000    6.667    0.000    0.889 
#    0.000    0.000    0.000    0.000    0.000    0.000 
#    0.000  160.000    0.000    0.000    0.000    0.000 
#
# Total GULP energy -223102.518570 kJ/mol
# GULP energy per Si atom -12394.584365 kJ/mol
# Density = 2.011705 g / cm^3
# Si number density = 20.162941 Si / 1000 Ang^3
#
#
#
# Elastic Constant Matrix: (Units=GPa)
#
#
# Indices 1 2 3 4 5 6 
#
# 1 64.5363 57.7547 39.5118 0.0000 -14.3215 0.0000
# 2 57.7547 138.4228 64.1901 0.0000 -17.0380 0.0000
# 3 39.5118 64.1901 169.8428 0.0000 -32.9243 0.0000
# 4 0.0000 0.0000 0.0000 41.7229 0.0000 -9.4864
# 5 -14.3215 -17.0380 -32.9243 0.0000 17.6219 0.0000
# 6 0.0000 0.0000 0.0000 -9.4864 0.0000 -0.5555
#
#
#
# Elastic Compliance Matrix: (Units=1/GPa)
#
#
# Indices 1 2 3 4 5 6 
#
# 1 0.026972 -0.009632 -0.000299 0.000000 0.012050 0.000000
# 2 -0.009632 0.012346 -0.002554 0.000000 -0.000662 0.000000
# 3 -0.000299 -0.002554 0.010029 0.000000 0.016026 0.000000
# 4 0.000000 0.000000 0.000000 0.004909 0.000000 -0.083825
# 5 0.012050 -0.000662 0.016026 0.000000 0.095843 0.000000
# 6 0.000000 0.000000 0.000000 -0.083825 0.000000 -0.368679
#
#
# Mechanical properties :
#
#
# Convention : Reuss Voigt Hill
#
# Bulk Modulus (GPa) = 41.01989 77.30169 59.16079
# Shear Modulus (GPa) = -26.95608 25.84756 -0.55426
#
# Velocity S-wave (km/s) = -3.66035 3.58429 -0.52487
# Velocity P-wave (km/s) = 1.58877 7.45327 5.38867
#
# Compressibility (1/GPa) = 0.02437842
#
# Stress axis : x y z
#
# Youngs Moduli (GPa) = 37.07586 81.00025 99.71010
#
# Poissons Ratio (x) = 0.78019 0.02976
# Poissons Ratio (y) = 0.35711 0.25461
# Poissons Ratio (z) = 0.01107 0.20684
#
# Static dielectric constant tensor:
#      x y z
#    x 3.642370 0.000000 0.495870 
#    y 0.000000 3.676380 0.000000 
#    z 0.495870 0.000000 7.960820 
# 
# 
# High freq. dielectric constant tensor:
#      x y z
#    x 1.758000 0.000000 -0.014600 
#    y 0.000000 1.781740 0.000000 
#    z -0.014600 0.000000 1.823410 
# 
# From -- ./inp_files/1864.got.cif
#   From: 2010.06.25/outbox.cif.g09.slc.cpg/sg13_1_cif.got.tgz:1864.got - 2010.06.28 04:50:58.
