data_PCOD8116059
_publ_section_title
;
Structure prediction by ZEFSAII (Michael W. Deem and Ramdas Pophale) SiO2 
 PCOD8116059
Probable space group: C 2/M
;
_chemical_formula_sum "Si O2"
_cell_formula_units_Z 48
_cell_length_a 33.195845
_cell_length_b 9.320617
_cell_length_c 12.703343
_cell_angle_alpha 90.000000
_cell_angle_beta 131.999011
_cell_angle_gamma 90.000000
_cell_volume 2920.966815
_symmetry_space_group_name_H-M "C 2/M"
_symmetry_group_IT_number 12
_symmetry_cell_setting 'monoclinic'
loop_
_space_group_symop_operation_xyz
x,y,z
-x,y,-z
-x,-y,-z
x,-y,z
1/2+x,1/2+y,z
1/2-x,1/2+y,-z
1/2-x,1/2-y,-z
1/2+x,1/2-y,z
loop_
_atom_site_type_symbol
_atom_site_label
_atom_site_fract_x
_atom_site_fract_y
_atom_site_fract_z
Si Si1 0.390067 0.160954 0.747974
Si Si2 0.317157 0.832091 0.025064
Si Si3 0.597624 0.829115 0.997743
Si Si4 0.879947 0.169091 0.535583
Si Si5 0.478665 0.839042 0.747915
Si Si6 0.193369 0.833486 0.787957
O O1 0.358254 0.261992 0.608019
O O2 0.453232 0.154866 0.821558
O O3 0.364897 0.000000 0.701697
O O4 0.386918 0.229177 0.859139
O O5 0.357396 0.774528 0.005302
O O6 0.331840 0.753776 0.159183
O O7 0.325331 0.000000 0.057814
O O8 0.256394 0.794678 0.882217
O O9 0.538807 0.771516 0.858148
O O10 0.594570 0.000000 0.999749
O O11 0.938918 0.237305 0.608476
O O12 0.837389 0.211611 0.371443
O O13 0.885894 0.000000 0.559385
O O14 0.479888 0.000000 0.701113
O O15 0.185460 0.000000 0.799763
#
# Coordination Sequence:
#
# PCOD8116059 Si02
#       6
#     8   8   8   8   8   8
#     4   8  15  27  46  69  92 118 146 179 219 261
#     4   9  18  31  52  71  83 111 152 191 224 261
#     4   9  15  28  48  71  93 112 145 188 226 259
#     4   9  17  29  45  64  90 124 152 175 213 266
#     4   8  15  27  46  69  91 118 146 179 220 261
#     4   9  18  34  49  64  89 118 149 185 226 264
#
# _framework density 16.432915000000001
#
# number of rings (size 3 to 8) (size 9 to 14) (size 15 to 20)
#    1.000    2.333    0.000    0.500    0.000    3.333 
#    0.000    5.000    0.000    5.000    0.000    0.000 
#    0.000    0.000    0.000    0.000    0.000    0.000 
#
# Total GULP energy -297350.444612 kJ/mol
# GULP energy per Si atom -12389.601859 kJ/mol
# Density = 1.639551 g / cm^3
# Si number density = 16.432915 Si / 1000 Ang^3
#
#
#
# Elastic Constant Matrix: (Units=GPa)
#
#
# Indices 1 2 3 4 5 6 
#
# 1 89.6517 25.1371 39.1156 0.0000 -3.3977 0.0000
# 2 25.1371 52.1891 46.3110 0.0000 -3.5061 0.0000
# 3 39.1156 46.3110 108.8072 0.0000 -2.8222 0.0000
# 4 0.0000 0.0000 0.0000 27.2291 0.0000 -2.4401
# 5 -3.3977 -3.5061 -2.8222 0.0000 7.7586 0.0000
# 6 0.0000 0.0000 0.0000 -2.4401 0.0000 16.1875
#
#
#
# Elastic Compliance Matrix: (Units=1/GPa)
#
#
# Indices 1 2 3 4 5 6 
#
# 1 0.013708 -0.003352 -0.003417 0.000000 0.003245 0.000000
# 2 -0.003352 0.032280 -0.012310 0.000000 0.008641 0.000000
# 3 -0.003417 -0.012310 0.015623 0.000000 -0.001376 0.000000
# 4 0.000000 0.000000 0.000000 0.037228 0.000000 0.005612
# 5 0.003245 0.008641 -0.001376 0.000000 0.133715 0.000000
# 6 0.000000 0.000000 0.000000 0.005612 0.000000 0.062622
#
#
# Mechanical properties :
#
#
# Convention : Reuss Voigt Hill
#
# Bulk Modulus (GPa) = 42.64015 52.41950 47.52982
# Shear Modulus (GPa) = 14.65629 19.57399 17.11514
#
# Velocity S-wave (km/s) = 2.98969 3.45504 3.23075
# Velocity P-wave (km/s) = 6.15808 6.91988 6.55007
#
# Compressibility (1/GPa) = 0.02345208
#
# Stress axis : x y z
#
# Youngs Moduli (GPa) = 72.94970 30.97939 64.01018
#
# Poissons Ratio (x) = 0.10386 0.21872
# Poissons Ratio (y) = 0.24456 0.78794
# Poissons Ratio (z) = 0.24926 0.38134
#
# Static dielectric constant tensor:
#      x y z
#    x 3.001340 0.000000 -0.015470 
#    y 0.000000 2.888490 0.000000 
#    z -0.015470 0.000000 3.016070 
# 
# 
# High freq. dielectric constant tensor:
#      x y z
#    x 1.611840 0.000000 -0.001890 
#    y 0.000000 1.613710 0.000000 
#    z -0.001890 0.000000 1.625270 
# 
# From -- ./inp_files/188117.got.cif
#   From: 2010.06.25/outbox.cif.g09.slc.cpg/sg12_95_cif.got.tgz:188117.got - 2010.06.28 00:19:55.
