data_PCOD8116893
_publ_section_title
;
Structure prediction by ZEFSAII (Michael W. Deem and Ramdas Pophale) SiO2 
 PCOD8116893
Probable space group: P 2/C
;
_chemical_formula_sum "Si O2"
_cell_formula_units_Z 32
_cell_length_a 11.477928
_cell_length_b 20.356171
_cell_length_c 8.958592
_cell_angle_alpha 90.000000
_cell_angle_beta 53.165938
_cell_angle_gamma 90.000000
_cell_volume 1675.301283
_symmetry_space_group_name_H-M "P 2/C"
_symmetry_group_IT_number 13
_symmetry_cell_setting 'monoclinic'
loop_
_space_group_symop_operation_xyz
x,y,z
-x,y,1/2-z
-x,-y,-z
x,-y,1/2+z
loop_
_atom_site_type_symbol
_atom_site_label
_atom_site_fract_x
_atom_site_fract_y
_atom_site_fract_z
Si Si1 0.745233 0.915178 0.261494
Si Si2 0.587511 0.917642 0.973005
Si Si3 0.648249 0.430535 0.549656
Si Si4 0.307652 0.029657 0.403343
Si Si5 0.853427 0.317494 0.447427
Si Si6 0.786823 0.483104 0.182192
Si Si7 0.032294 0.602992 0.385261
Si Si8 0.158634 0.834798 0.562499
O O1 0.575842 0.892249 0.372677
O O2 0.787560 0.926691 0.404434
O O3 0.783711 0.980051 0.131157
O O4 0.840195 0.857987 0.112087
O O5 0.606566 0.923197 0.778086
O O6 0.713079 0.870367 0.942147
O O7 0.591309 0.988784 0.054950
O O8 0.500000 0.423177 0.750000
O O9 0.719843 0.358964 0.485536
O O10 0.642865 0.459071 0.384828
O O11 0.747497 0.483419 0.557475
O O12 0.880778 0.339381 0.596819
O O13 0.810053 0.242129 0.461494
O O14 0.000000 0.335294 0.250000
O O15 0.872529 0.537407 0.212892
O O16 0.884686 0.418304 0.083373
O O17 0.000000 0.634406 0.250000
O O18 0.000000 0.851840 0.750000
#
# Coordination Sequence:
#
# PCOD8116893 Si02
#       8
#     4   4   4   4   4   4   4   4
#     4  10  17  31  55  79 106 136 171 216 259 312
#     4  10  17  31  55  80 106 135 173 215 262 308
#     4  11  21  33  53  82 115 136 162 211 269 314
#     4   9  16  29  55  86 106 131 172 215 261 316
#     4  10  21  38  56  71  96 141 189 216 244 304
#     4  10  19  31  52  85 109 132 165 205 263 313
#     4  10  18  32  58  79  99 132 178 216 244 305
#     4  10  22  37  49  71 103 138 181 222 255 300
#
# _framework density 19.101040999999999
#
# number of rings (size 3 to 8) (size 9 to 14) (size 15 to 20)
#    0.000    2.000    2.500    4.500    0.000    1.000 
#    0.000   13.125    0.000    0.000    0.000    0.000 
#    0.000    0.000    0.000    0.000    0.000    0.000 
#
# Total GULP energy -396453.844493 kJ/mol
# GULP energy per Si atom -12389.182640 kJ/mol
# Density = 1.905757 g / cm^3
# Si number density = 19.101041 Si / 1000 Ang^3
#
#
#
# Elastic Constant Matrix: (Units=GPa)
#
#
# Indices 1 2 3 4 5 6 
#
# 1 42.2086 28.0242 26.0394 0.0000 8.1436 0.0000
# 2 28.0242 74.3297 54.4944 0.0000 -4.6921 0.0000
# 3 26.0394 54.4944 138.1160 0.0000 8.2243 0.0000
# 4 0.0000 0.0000 0.0000 11.2783 0.0000 -13.7877
# 5 8.1436 -4.6921 8.2243 0.0000 38.7280 0.0000
# 6 0.0000 0.0000 0.0000 -13.7877 0.0000 -30.6769
#
#
#
# Elastic Compliance Matrix: (Units=1/GPa)
#
#
# Indices 1 2 3 4 5 6 
#
# 1 0.034458 -0.012872 -0.000905 0.000000 -0.008613 0.000000
# 2 -0.012872 0.024347 -0.007612 0.000000 0.007273 0.000000
# 3 -0.000905 -0.007612 0.010592 0.000000 -0.002981 0.000000
# 4 0.000000 0.000000 0.000000 0.057224 0.000000 -0.025719
# 5 -0.008613 0.007273 -0.002981 0.000000 0.029146 0.000000
# 6 0.000000 0.000000 0.000000 -0.025719 0.000000 -0.021038
#
#
# Mechanical properties :
#
#
# Convention : Reuss Voigt Hill
#
# Bulk Modulus (GPa) = 37.56811 52.41894 44.99352
# Shear Modulus (GPa) = 26.82693 13.60564 20.21628
#
# Velocity S-wave (km/s) = 3.75170 2.67179 3.25681
# Velocity P-wave (km/s) = 6.20305 6.08445 6.14403
#
# Compressibility (1/GPa) = 0.02661832
#
# Stress axis : x y z
#
# Youngs Moduli (GPa) = 29.02077 41.07334 94.41121
#
# Poissons Ratio (x) = 0.52869 0.08544
# Poissons Ratio (y) = 0.37355 0.71870
# Poissons Ratio (z) = 0.02626 0.31267
#
# Static dielectric constant tensor:
#      x y z
#    x 3.287580 0.000000 0.204100 
#    y 0.000000 3.223060 0.000000 
#    z 0.204100 0.000000 3.773350 
# 
# 
# High freq. dielectric constant tensor:
#      x y z
#    x 1.716240 0.000000 0.014590 
#    y 0.000000 1.708910 0.000000 
#    z 0.014590 0.000000 1.764080 
# 
# From -- ./inp_files/17290.got.cif
#   From: 2010.06.25/outbox.cif.g09.slc.cpg/sg13_9_cif.got.tgz:17290.got - 2010.06.28 04:50:58.
