data_PCOD8116913
_publ_section_title
;
Structure prediction by ZEFSAII (Michael W. Deem and Ramdas Pophale) SiO2 
 PCOD8116913
Probable space group: P 2/C
;
_chemical_formula_sum "Si O2"
_cell_formula_units_Z 30
_cell_length_a 14.199021
_cell_length_b 8.847866
_cell_length_c 23.831964
_cell_angle_alpha 90.000000
_cell_angle_beta 33.431295
_cell_angle_gamma 90.000000
_cell_volume 1649.523238
_symmetry_space_group_name_H-M "P 2/C"
_symmetry_group_IT_number 13
_symmetry_cell_setting 'monoclinic'
loop_
_space_group_symop_operation_xyz
x,y,z
-x,y,1/2-z
-x,-y,-z
x,-y,1/2+z
loop_
_atom_site_type_symbol
_atom_site_label
_atom_site_fract_x
_atom_site_fract_y
_atom_site_fract_z
Si Si1 0.442157 0.413157 0.396242
Si Si2 0.521934 0.149078 0.914093
Si Si3 0.771992 0.302284 0.503927
Si Si4 0.500000 0.591826 0.750000
Si Si5 0.069073 0.640108 0.777816
Si Si6 0.577343 0.196200 0.412261
Si Si7 0.765389 0.627653 0.245924
Si Si8 0.836438 0.395725 0.589064
O O1 0.275221 0.519403 0.479796
O O2 0.465815 0.318007 0.325372
O O3 0.434838 0.297186 0.451336
O O4 0.598886 0.526287 0.322509
O O5 0.706381 0.222390 0.808553
O O6 0.552129 0.972105 0.902984
O O7 0.381453 0.188608 0.936303
O O8 0.452532 0.215647 0.007030
O O9 0.824226 0.275592 0.543507
O O10 0.933673 0.271182 0.383879
O O11 0.664242 0.489280 0.676283
O O12 0.236237 0.744522 0.696354
O O13 0.098984 0.470844 0.786335
O O14 0.000000 0.623115 0.750000
O O15 0.846803 0.680787 0.145720
O O16 0.000000 0.500000 0.500000
#
# Coordination Sequence:
#
# PCOD8116913 Si02
#       8
#     4   4   4   2   4   4   4   4
#     4   8  17  31  53  76 100 135 176 223 261 323
#     4  10  21  37  52  74 107 149 184 222 271 339
#     4  10  19  33  57  82 106 135 184 231 277 330
#     4   8  16  30  48  80 106 134 176 218 270 326
#     4  11  20  32  54  84 108 140 180 235 278 328
#     4  10  21  36  53  72 110 151 180 219 281 337
#     4   9  19  33  54  80 106 136 182 225 274 322
#     4  10  17  32  55  84 112 139 176 232 290 327
#
# _framework density 18.187072000000001
#
# number of rings (size 3 to 8) (size 9 to 14) (size 15 to 20)
#    0.000    2.400    2.667    0.800    1.867    1.600 
#    0.000    3.333    0.000    0.800    0.000    0.000 
#    0.000    0.000    0.000    0.000    0.000    0.000 
#
# Total GULP energy -371707.687046 kJ/mol
# GULP energy per Si atom -12390.256235 kJ/mol
# Density = 1.814568 g / cm^3
# Si number density = 18.187072 Si / 1000 Ang^3
#
#
#
# Elastic Constant Matrix: (Units=GPa)
#
#
# Indices 1 2 3 4 5 6 
#
# 1 92.2103 33.7115 33.8480 0.0000 21.1439 0.0000
# 2 33.7115 53.4518 25.2601 0.0000 14.0273 0.0000
# 3 33.8480 25.2601 93.6242 0.0000 11.8700 0.0000
# 4 0.0000 0.0000 0.0000 19.0346 0.0000 1.3596
# 5 21.1439 14.0273 11.8700 0.0000 36.2626 0.0000
# 6 0.0000 0.0000 0.0000 1.3596 0.0000 14.3404
#
#
#
# Elastic Compliance Matrix: (Units=1/GPa)
#
#
# Indices 1 2 3 4 5 6 
#
# 1 0.015831 -0.007073 -0.003121 0.000000 -0.005473 0.000000
# 2 -0.007073 0.026274 -0.003929 0.000000 -0.004753 0.000000
# 3 -0.003121 -0.003929 0.012985 0.000000 -0.000911 0.000000
# 4 0.000000 0.000000 0.000000 0.052894 0.000000 -0.005015
# 5 -0.005473 -0.004753 -0.000911 0.000000 0.032905 0.000000
# 6 0.000000 0.000000 0.000000 -0.005015 0.000000 0.070209
#
#
# Mechanical properties :
#
#
# Convention : Reuss Voigt Hill
#
# Bulk Modulus (GPa) = 37.25375 47.21394 42.23384
# Shear Modulus (GPa) = 20.13759 23.69196 21.91478
#
# Velocity S-wave (km/s) = 3.33114 3.61318 3.47503
# Velocity P-wave (km/s) = 5.94335 6.58964 6.27482
#
# Compressibility (1/GPa) = 0.02684294
#
# Stress axis : x y z
#
# Youngs Moduli (GPa) = 63.16525 38.06110 77.01255
#
# Poissons Ratio (x) = 0.26922 0.24038
# Poissons Ratio (y) = 0.44679 0.30257
# Poissons Ratio (z) = 0.19715 0.14954
#
# Static dielectric constant tensor:
#      x y z
#    x 3.832600 0.000000 0.259030 
#    y 0.000000 2.982880 0.000000 
#    z 0.259030 0.000000 3.682410 
# 
# 
# High freq. dielectric constant tensor:
#      x y z
#    x 1.720770 0.000000 0.012350 
#    y 0.000000 1.647560 0.000000 
#    z 0.012350 0.000000 1.718450 
# 
# From -- ./inp_files/67976.got.cif
#   From: 2010.06.25/outbox.cif.g09.slc.cpg/sg13_34_cif.got.tgz:67976.got - 2010.06.28 04:50:58.
