data_PCOD8116361
_publ_section_title
;
Structure prediction by ZEFSAII (Michael W. Deem and Ramdas Pophale) SiO2 
 PCOD8116361
Probable space group: C 2/M
;
_chemical_formula_sum "Si O2"
_cell_formula_units_Z 32
_cell_length_a 18.000000
_cell_length_b 9.000000
_cell_length_c 30.000000
_cell_angle_alpha 90.000000
_cell_angle_beta 40.000000
_cell_angle_gamma 90.000000
_cell_volume 3123.947783
_symmetry_space_group_name_H-M "C 2/M"
_symmetry_group_IT_number 12
_symmetry_cell_setting 'monoclinic'
loop_
_space_group_symop_operation_xyz
x,y,z
-x,y,-z
-x,-y,-z
x,-y,z
1/2+x,1/2+y,z
1/2-x,1/2+y,-z
1/2-x,1/2-y,-z
1/2+x,1/2-y,z
loop_
_atom_site_type_symbol
_atom_site_label
_atom_site_fract_x
_atom_site_fract_y
_atom_site_fract_z
Si Si1 0.569097 0.828314 0.902526
Si Si2 0.461170 0.671651 0.725682
Si Si3 0.879231 0.175402 0.210799
Si Si4 0.905388 0.324169 0.838718
Si Si5 0.400816 0.670666 0.455576
Si Si6 0.329968 0.830830 0.401695
Si Si7 0.646619 0.330894 0.321700
Si Si8 0.823351 0.329035 0.052357
O O1 0.616972 0.721546 0.842486
O O2 0.635965 0.785003 0.916710
O O3 0.594199 0.000000 0.878645
O O4 0.431573 0.802953 0.969914
O O5 0.455493 0.500000 0.742044
O O6 0.395907 0.769688 0.792173
O O7 0.596350 0.722337 0.663907
O O8 0.399335 0.702691 0.707138
O O9 0.753583 0.227183 0.286894
O O10 0.983723 0.252364 0.188861
O O11 0.890534 0.000000 0.211192
O O12 0.916087 0.500000 0.837683
O O13 0.783498 0.270910 0.916105
O O14 0.390937 0.500000 0.440973
O O15 0.363069 0.792884 0.437125
O O16 0.310484 0.688304 0.538589
O O17 0.536326 0.697551 0.405550
O O18 0.365947 0.000000 0.374421
O O19 0.690275 0.500000 0.305214
O O20 0.784084 0.500000 0.069416
#
# Coordination Sequence:
#
# PCOD8116361 Si02
#       8
#     8   8   8   8   8   8   8   8
#     4   9  19  38  63  87 112 143 175 211 261 318
#     4  10  20  35  55  79 109 143 178 220 271 322
#     4  12  25  38  54  78 109 144 182 225 269 313
#     4  12  25  39  56  78 107 144 183 223 268 317
#     4   8  15  27  45  72 106 141 174 216 269 318
#     4   9  15  25  45  75 107 137 175 219 264 316
#     4   9  18  34  55  78 107 143 179 217 266 321
#     4   9  19  38  63  88 113 141 174 214 262 315
#
# _framework density 10.243449
#
# number of rings (size 3 to 8) (size 9 to 14) (size 15 to 20)
#    0.000    2.250    0.000    5.250    0.000    7.500 
#    0.000    1.250    0.000    0.750    0.000    5.250 
#    0.000    0.000    0.000    0.000    0.000    0.000 
#
# Total GULP energy -396614.770975 kJ/mol
# GULP energy per Si atom -12394.211593 kJ/mol
# Density = 1.022013 g / cm^3
# Si number density = 10.243449 Si / 1000 Ang^3
#
#
#
# Elastic Constant Matrix: (Units=GPa)
#
#
# Indices 1 2 3 4 5 6 
#
# 1 64.4109 36.7271 23.7664 0.0014 -34.8031 0.0066
# 2 36.7271 123.9576 34.4336 0.0024 -25.8586 0.0031
# 3 23.7664 34.4336 82.0202 0.0003 -40.8611 0.0010
# 4 0.0014 0.0024 0.0003 36.5089 0.0001 -6.5574
# 5 -34.8031 -25.8586 -40.8611 0.0001 36.5992 0.0018
# 6 0.0066 0.0031 0.0010 -6.5574 0.0018 30.4918
#
#
#
# Elastic Compliance Matrix: (Units=1/GPa)
#
#
# Indices 1 2 3 4 5 6 
#
# 1 0.043345 -0.005972 0.018881 -0.000004 0.058079 -0.000014
# 2 -0.005972 0.010361 -0.004059 0.000000 -0.002890 0.000000
# 3 0.018881 -0.004059 0.035919 -0.000002 0.055188 -0.000008
# 4 -0.000004 0.000000 -0.000002 0.028491 -0.000007 0.006127
# 5 0.058079 -0.002890 0.055188 -0.000007 0.142125 -0.000024
# 6 -0.000014 0.000000 -0.000008 0.006127 -0.000024 0.034113
#
#
# Mechanical properties :
#
#
# Convention : Reuss Voigt Hill
#
# Bulk Modulus (GPa) = 9.31743 51.13809 30.22776
# Shear Modulus (GPa) = 16.00356 32.41741 24.21048
#
# Velocity S-wave (km/s) = 2.79796 3.98219 3.44139
# Velocity P-wave (km/s) = 3.87246 6.79407 5.52971
#
# Compressibility (1/GPa) = 0.10732575
#
# Stress axis : x y z
#
# Youngs Moduli (GPa) = 23.07053 96.51240 27.84025
#
# Poissons Ratio (x) = 0.57636 -0.52565
# Poissons Ratio (y) = 0.13777 0.11301
# Poissons Ratio (z) = -0.43560 0.39177
#
# Static dielectric constant tensor:
#      x y z
#    x 3.420540 0.000000 -0.370600 
#    y 0.000000 3.689240 0.000000 
#    z -0.370600 0.000000 4.159990 
# 
# 
# High freq. dielectric constant tensor:
#      x y z
#    x 1.767850 0.000000 -0.033650 
#    y 0.000000 1.798360 0.000000 
#    z -0.033650 0.000000 1.817810 
# 
# From -- ./inp_files/378065.got.cif
#   From: 2010.06.25/outbox.ucp.g09.slc.cvg/sg12_190_cif.got.tgz:378065.got - 2010.06.28 13:50:54.
