data_PCOD8116966
_publ_section_title
;
Structure prediction by ZEFSAII (Michael W. Deem and Ramdas Pophale) SiO2 
 PCOD8116966
Probable space group: P 2/C
;
_chemical_formula_sum "Si O2"
_cell_formula_units_Z 32
_cell_length_a 11.972860
_cell_length_b 15.061086
_cell_length_c 13.787855
_cell_angle_alpha 90.000000
_cell_angle_beta 43.130176
_cell_angle_gamma 90.000000
_cell_volume 1699.769174
_symmetry_space_group_name_H-M "P 2/C"
_symmetry_group_IT_number 13
_symmetry_cell_setting 'monoclinic'
loop_
_space_group_symop_operation_xyz
x,y,z
-x,y,1/2-z
-x,-y,-z
x,-y,1/2+z
loop_
_atom_site_type_symbol
_atom_site_label
_atom_site_fract_x
_atom_site_fract_y
_atom_site_fract_z
Si Si1 0.342581 0.946109 0.416539
Si Si2 0.971793 0.603099 0.029117
Si Si3 0.432519 0.205261 0.009288
Si Si4 0.101816 0.279581 0.278459
Si Si5 0.645689 0.694854 0.224069
Si Si6 0.103160 0.836714 0.471662
Si Si7 0.936776 0.244079 0.898004
Si Si8 0.388667 0.857506 0.914254
O O1 0.500000 0.938815 0.250000
O O2 0.356959 0.874408 0.493381
O O3 0.180560 0.931467 0.450841
O O4 0.316762 0.043826 0.476536
O O5 0.951318 0.346307 0.925843
O O6 0.065029 0.644023 0.878665
O O7 0.775410 0.616428 0.161100
O O8 0.000000 0.500000 0.000000
O O9 0.572868 0.262718 0.868047
O O10 0.291182 0.273354 0.130998
O O11 0.508970 0.163904 0.056201
O O12 0.000000 0.306067 0.250000
O O13 0.044333 0.185470 0.361244
O O14 0.500000 0.657411 0.250000
O O15 0.744638 0.770084 0.102244
O O16 0.044932 0.822413 0.397666
O O17 0.000000 0.235628 0.750000
O O18 0.750006 0.214843 0.017906
O O19 0.500000 0.856641 0.750000
#
# Coordination Sequence:
#
# PCOD8116966 Si02
#       8
#     4   4   4   4   4   4   4   4
#     4  11  21  35  59  86 118 155 210 256 285 347
#     4  10  23  41  61  88 119 155 198 247 306 373
#     4  12  19  37  61  87 116 157 205 246 299 352
#     4  10  19  34  61  87 114 146 190 250 306 346
#     4  10  17  35  66  86 110 150 195 246 302 352
#     4  10  18  36  58  83 114 156 198 246 293 345
#     4  10  22  41  61  82 118 162 198 239 308 368
#     4  11  24  38  52  84 123 169 196 240 304 355
#
# _framework density 18.826086
#
# number of rings (size 3 to 8) (size 9 to 14) (size 15 to 20)
#    0.000    1.750    3.750    4.125    0.000    1.000 
#    2.250    2.500    0.000    0.000    0.000    0.000 
#    0.000    0.000    0.000    0.000    0.000    0.000 
#
# Total GULP energy -396611.585556 kJ/mol
# GULP energy per Si atom -12394.112049 kJ/mol
# Density = 1.878324 g / cm^3
# Si number density = 18.826086 Si / 1000 Ang^3
#
#
#
# Elastic Constant Matrix: (Units=GPa)
#
#
# Indices 1 2 3 4 5 6 
#
# 1 113.8222 44.9734 26.7557 0.0000 4.7992 0.0000
# 2 44.9734 93.5599 39.8355 0.0000 -5.0348 0.0000
# 3 26.7557 39.8355 97.9547 0.0000 -0.4034 0.0000
# 4 0.0000 0.0000 0.0000 17.3962 0.0000 7.4800
# 5 4.7992 -5.0348 -0.4034 0.0000 32.2919 0.0000
# 6 0.0000 0.0000 0.0000 7.4800 0.0000 -40.8513
#
#
#
# Elastic Compliance Matrix: (Units=1/GPa)
#
#
# Indices 1 2 3 4 5 6 
#
# 1 0.011119 -0.005055 -0.000992 0.000000 -0.002453 0.000000
# 2 -0.005055 0.015348 -0.004848 0.000000 0.003084 0.000000
# 3 -0.000992 -0.004848 0.012450 0.000000 -0.000453 0.000000
# 4 0.000000 0.000000 0.000000 0.053288 0.000000 0.009757
# 5 -0.002453 0.003084 -0.000453 0.000000 0.031807 0.000000
# 6 0.000000 0.000000 0.000000 0.009757 0.000000 -0.022692
#
#
# Mechanical properties :
#
#
# Convention : Reuss Voigt Hill
#
# Bulk Modulus (GPa) = 58.38511 58.71844 58.55178
# Shear Modulus (GPa) = 38.81404 14.68550 26.74977
#
# Velocity S-wave (km/s) = 4.54554 2.79599 3.77356
# Velocity P-wave (km/s) = 7.65699 6.45609 7.08204
#
# Compressibility (1/GPa) = 0.01712765
#
# Stress axis : x y z
#
# Youngs Moduli (GPa) = 89.93282 65.15341 80.32449
#
# Poissons Ratio (x) = 0.32934 0.07965
# Poissons Ratio (y) = 0.45459 0.38944
# Poissons Ratio (z) = 0.08918 0.31589
#
# Static dielectric constant tensor:
#      x y z
#    x 3.637840 0.000000 -0.035440 
#    y 0.000000 3.298290 0.000000 
#    z -0.035440 0.000000 3.654260 
# 
# 
# High freq. dielectric constant tensor:
#      x y z
#    x 1.743280 0.000000 0.001070 
#    y 0.000000 1.694270 0.000000 
#    z 0.001070 0.000000 1.744410 
# 
# From -- ./inp_files/51464.got.cif
#   From: 2010.06.25/outbox.cif.g09.slc.cpg/sg13_26_cif.got.tgz:51464.got - 2010.06.28 04:50:58.
