data_PCOD8116728
_publ_section_title
;
Structure prediction by ZEFSAII (Michael W. Deem and Ramdas Pophale) SiO2 
 PCOD8116728
Probable space group: P 2/C
;
_chemical_formula_sum "Si O2"
_cell_formula_units_Z 26
_cell_length_a 11.089487
_cell_length_b 24.734628
_cell_length_c 5.149820
_cell_angle_alpha 90.000000
_cell_angle_beta 93.498353
_cell_angle_gamma 90.000000
_cell_volume 1409.934213
_symmetry_space_group_name_H-M "P 2/C"
_symmetry_group_IT_number 13
_symmetry_cell_setting 'monoclinic'
loop_
_space_group_symop_operation_xyz
x,y,z
-x,y,1/2-z
-x,-y,-z
x,-y,1/2+z
loop_
_atom_site_type_symbol
_atom_site_label
_atom_site_fract_x
_atom_site_fract_y
_atom_site_fract_z
Si Si1 0.864597 0.761424 0.186879
Si Si2 0.571419 0.360469 0.014935
Si Si3 0.000000 0.963158 0.250000
Si Si4 0.721895 0.259280 0.161308
Si Si5 0.217014 0.880775 0.289830
Si Si6 0.364407 0.859641 0.808009
Si Si7 0.363811 0.523384 0.005195
O O1 0.780817 0.733656 0.388178
O O2 0.857560 0.825440 0.233087
O O3 0.000000 0.741731 0.250000
O O4 0.823501 0.742200 0.897452
O O5 0.500000 0.338676 0.750000
O O6 0.500000 0.385308 0.250000
O O7 0.639688 0.311756 0.168906
O O8 0.647616 0.412507 0.933378
O O9 0.121543 0.928372 0.249850
O O10 0.000000 0.000000 0.500000
O O11 0.641298 0.205406 0.179086
O O12 0.279885 0.885019 0.576675
O O13 0.319007 0.883960 0.076823
O O14 0.500000 0.876867 0.750000
O O15 0.295667 0.507384 0.731292
O O16 0.500000 0.500000 0.000000
#
# Coordination Sequence:
#
# PCOD8116728 Si02
#       7
#     4   4   2   4   4   4   4
#     4  10  19  37  56  74 108 138 179 225 267 338
#     4  12  20  30  47  68 111 145 167 222 258 320
#     4  12  24  40  64  92 118 134 184 256 294 314
#     4  10  22  31  49  83 105 142 183 216 277 320
#     4  10  21  37  60  86 109 150 185 223 287 321
#     4  10  20  36  57  81 117 152 191 215 253 356
#     4  10  16  29  43  64  89 139 182 204 262 311
#
# _framework density 18.440577000000001
#
# number of rings (size 3 to 8) (size 9 to 14) (size 15 to 20)
#    0.000    1.538    3.846    3.231    0.000    2.462 
#    0.000    0.000    0.000    9.231    0.000    0.000 
#    0.000   12.308    0.000    0.000    0.000    0.000 
#
# Total GULP energy -322247.752033 kJ/mol
# GULP energy per Si atom -12394.144309 kJ/mol
# Density = 1.839861 g / cm^3
# Si number density = 18.440577 Si / 1000 Ang^3
#
#
#
# Elastic Constant Matrix: (Units=GPa)
#
#
# Indices 1 2 3 4 5 6 
#
# 1 61.4617 33.8183 8.8609 0.0000 0.1025 0.0000
# 2 33.8183 101.7685 36.1105 0.0000 2.9521 0.0000
# 3 8.8609 36.1105 114.1680 0.0000 0.5953 0.0000
# 4 0.0000 0.0000 0.0000 27.7509 0.0000 5.0535
# 5 0.1025 2.9521 0.5953 0.0000 14.2318 0.0000
# 6 0.0000 0.0000 0.0000 5.0535 0.0000 10.9759
#
#
#
# Elastic Compliance Matrix: (Units=1/GPa)
#
#
# Indices 1 2 3 4 5 6 
#
# 1 0.019972 -0.006895 0.000624 0.000000 0.001260 0.000000
# 2 -0.006895 0.013515 -0.003726 0.000000 -0.002598 0.000000
# 3 0.000624 -0.003726 0.009887 0.000000 0.000355 0.000000
# 4 0.000000 0.000000 0.000000 0.039333 0.000000 -0.018110
# 5 0.001260 -0.002598 0.000355 0.000000 0.070780 0.000000
# 6 0.000000 0.000000 0.000000 -0.018110 0.000000 0.099447
#
#
# Mechanical properties :
#
#
# Convention : Reuss Voigt Hill
#
# Bulk Modulus (GPa) = 42.77027 48.33083 45.55055
# Shear Modulus (GPa) = 17.81128 23.83229 20.82179
#
# Velocity S-wave (km/s) = 3.11122 3.59887 3.36390
# Velocity P-wave (km/s) = 6.01250 6.59811 6.31210
#
# Compressibility (1/GPa) = 0.02338072
#
# Stress axis : x y z
#
# Youngs Moduli (GPa) = 50.07016 73.99261 101.14056
#
# Poissons Ratio (x) = 0.51017 -0.06312
# Poissons Ratio (y) = 0.34522 0.37685
# Poissons Ratio (z) = -0.03125 0.27569
#
# Static dielectric constant tensor:
#      x y z
#    x 3.030250 0.000000 0.276700 
#    y 0.000000 3.238110 0.000000 
#    z 0.276700 0.000000 10.633010 
# 
# 
# High freq. dielectric constant tensor:
#      x y z
#    x 1.671480 0.000000 -0.002800 
#    y 0.000000 1.703390 0.000000 
#    z -0.002800 0.000000 1.748710 
# 
# From -- ./inp_files/2572.got.cif
#   From: 2010.06.25/outbox.cif.g09.slc.cpg/sg13_2_cif.got.tgz:2572.got - 2010.06.28 04:50:58.
