data_PCOD8116937
_publ_section_title
;
Structure prediction by ZEFSAII (Michael W. Deem and Ramdas Pophale) SiO2 
 PCOD8116937
Probable space group: P 2/C
;
_chemical_formula_sum "Si O2"
_cell_formula_units_Z 32
_cell_length_a 11.880115
_cell_length_b 7.604128
_cell_length_c 17.912088
_cell_angle_alpha 90.000000
_cell_angle_beta 89.508855
_cell_angle_gamma 90.000000
_cell_volume 1618.081234
_symmetry_space_group_name_H-M "P 2/C"
_symmetry_group_IT_number 13
_symmetry_cell_setting 'monoclinic'
loop_
_space_group_symop_operation_xyz
x,y,z
-x,y,1/2-z
-x,-y,-z
x,-y,1/2+z
loop_
_atom_site_type_symbol
_atom_site_label
_atom_site_fract_x
_atom_site_fract_y
_atom_site_fract_z
Si Si1 0.316828 0.056261 0.008985
Si Si2 0.091454 0.949887 0.061438
Si Si3 0.288790 0.035959 0.349738
Si Si4 0.523187 0.275068 0.982708
Si Si5 0.091431 0.630941 0.967195
Si Si6 0.567664 0.283102 0.677102
Si Si7 0.674612 0.420575 0.097103
Si Si8 0.046532 0.873375 0.827279
O O1 0.207675 0.065018 0.063388
O O2 0.383683 0.875143 0.010160
O O3 0.262788 0.065277 0.926851
O O4 0.403169 0.217811 0.020426
O O5 0.126075 0.753732 0.037111
O O6 0.034578 0.967796 0.143394
O O7 0.000000 0.000000 0.000000
O O8 0.337680 0.231472 0.362828
O O9 0.170432 0.052684 0.307892
O O10 0.378268 0.910318 0.306833
O O11 0.514643 0.292952 0.893669
O O12 0.575939 0.437188 0.032513
O O13 0.206262 0.537111 0.941976
O O14 0.044180 0.729282 0.893565
O O15 0.000000 0.500000 0.000000
O O16 0.500000 0.340129 0.750000
O O17 0.661615 0.431802 0.660827
O O18 0.000000 0.794057 0.750000
#
# Coordination Sequence:
#
# PCOD8116937 Si02
#       8
#     4   4   4   4   4   4   4   4
#     4   9  15  32  60  87 106 147 200 246 288 351
#     4  10  17  33  59  86 111 146 207 243 290 372
#     4   9  19  39  59  79 116 159 190 245 309 358
#     4   9  18  34  58  82 113 148 195 250 292 338
#     4  10  21  37  62  88 118 161 206 256 315 375
#     4  11  24  36  56  87 118 157 202 238 305 380
#     4  10  20  41  61  84 120 155 202 257 302 356
#     4  10  21  37  58  88 120 154 201 251 313 372
#
# _framework density 19.776509999999998
#
# number of rings (size 3 to 8) (size 9 to 14) (size 15 to 20)
#    0.000    2.250    5.000    1.125    1.750    2.500 
#    0.000    5.625    0.000    0.000    0.000    0.000 
#    0.000    0.000    0.000    0.000    0.000    0.000 
#
# Total GULP energy -396437.718225 kJ/mol
# GULP energy per Si atom -12388.678695 kJ/mol
# Density = 1.973150 g / cm^3
# Si number density = 19.776510 Si / 1000 Ang^3
#
#
#
# Elastic Constant Matrix: (Units=GPa)
#
#
# Indices 1 2 3 4 5 6 
#
# 1 136.9452 43.7216 53.2213 0.0000 -6.6239 0.0000
# 2 43.7216 71.8658 34.6280 0.0000 -14.9671 0.0000
# 3 53.2213 34.6280 96.6031 0.0000 -4.9389 0.0000
# 4 0.0000 0.0000 0.0000 21.7201 0.0000 -9.6514
# 5 -6.6239 -14.9671 -4.9389 0.0000 29.7935 0.0000
# 6 0.0000 0.0000 0.0000 -9.6514 0.0000 27.8236
#
#
#
# Elastic Compliance Matrix: (Units=1/GPa)
#
#
# Indices 1 2 3 4 5 6 
#
# 1 0.010276 -0.004394 -0.004117 0.000000 -0.000605 0.000000
# 2 -0.004394 0.020550 -0.004506 0.000000 0.008600 0.000000
# 3 -0.004117 -0.004506 0.014193 0.000000 -0.000826 0.000000
# 4 0.000000 0.000000 0.000000 0.054430 0.000000 0.018881
# 5 -0.000605 0.008600 -0.000826 0.000000 0.037613 0.000000
# 6 0.000000 0.000000 0.000000 0.018881 0.000000 0.042490
#
#
# Mechanical properties :
#
#
# Convention : Reuss Voigt Hill
#
# Bulk Modulus (GPa) = 52.67353 63.17288 57.92321
# Shear Modulus (GPa) = 23.59448 27.45697 25.52573
#
# Velocity S-wave (km/s) = 3.45781 3.73012 3.59654
# Velocity P-wave (km/s) = 6.52948 7.11087 6.82637
#
# Compressibility (1/GPa) = 0.01898487
#
# Stress axis : x y z
#
# Youngs Moduli (GPa) = 97.31649 48.66145 70.45792
#
# Poissons Ratio (x) = 0.21381 0.29009
# Poissons Ratio (y) = 0.42758 0.31749
# Poissons Ratio (z) = 0.40067 0.21927
#
# Static dielectric constant tensor:
#      x y z
#    x 3.923960 0.000000 -0.049690 
#    y 0.000000 3.710020 0.000000 
#    z -0.049690 0.000000 3.392830 
# 
# 
# High freq. dielectric constant tensor:
#      x y z
#    x 1.786340 0.000000 0.001210 
#    y 0.000000 1.763610 0.000000 
#    z 0.001210 0.000000 1.734920 
# 
# From -- ./inp_files/66050.got.cif
#   From: 2010.06.25/outbox.cif.g09.slc.cpg/sg13_34_cif.got.tgz:66050.got - 2010.06.28 04:50:58.
