data_PCOD8116277
_publ_section_title
;
Structure prediction by ZEFSAII (Michael W. Deem and Ramdas Pophale) SiO2 
 PCOD8116277
Probable space group: C 2/M
;
_chemical_formula_sum "Si O2"
_cell_formula_units_Z 32
_cell_length_a 21.000000
_cell_length_b 18.000000
_cell_length_c 27.000000
_cell_angle_alpha 90.000000
_cell_angle_beta 160.000000
_cell_angle_gamma 90.000000
_cell_volume 3490.657583
_symmetry_space_group_name_H-M "C 2/M"
_symmetry_group_IT_number 12
_symmetry_cell_setting 'monoclinic'
loop_
_space_group_symop_operation_xyz
x,y,z
-x,y,-z
-x,-y,-z
x,-y,z
1/2+x,1/2+y,z
1/2-x,1/2+y,-z
1/2-x,1/2-y,-z
1/2+x,1/2-y,z
loop_
_atom_site_type_symbol
_atom_site_label
_atom_site_fract_x
_atom_site_fract_y
_atom_site_fract_z
Si Si1 0.491589 0.587264 0.635203
Si Si2 0.879167 0.327093 0.310047
Si Si3 0.029773 0.915471 0.079944
Si Si4 0.415554 0.303966 0.490054
Si Si5 0.304030 0.705123 0.970173
Si Si6 0.042860 0.774947 0.239547
Si Si7 0.312848 0.198856 0.891206
Si Si8 0.749870 0.088935 0.553943
O O1 0.535178 0.500000 0.657047
O O2 0.436430 0.628906 0.544371
O O3 0.675695 0.628113 0.791151
O O4 0.321781 0.594823 0.549997
O O5 0.728959 0.374074 0.232456
O O6 0.782075 0.275622 0.197467
O O7 0.969443 0.269859 0.413930
O O8 0.034815 0.382973 0.400184
O O9 0.858534 0.871204 0.980749
O O10 0.037539 0.000000 0.106899
O O11 0.000000 0.918077 0.000000
O O12 0.500000 0.333956 0.500000
O O13 0.200829 0.278673 0.332276
O O14 0.406566 0.697684 0.097102
O O15 0.375960 0.778020 0.992696
O O16 0.080986 0.722008 0.814178
O O17 0.124113 0.851663 0.322977
O O18 0.500000 0.175664 0.000000
O O19 0.764948 0.000000 0.581705
#
# Coordination Sequence:
#
# PCOD8116277 Si02
#       8
#     8   8   8   8   8   8   8   8
#     4  10  23  39  60  85 112 149 190 241 293 331
#     4  10  19  34  58  89 113 150 187 225 281 340
#     4  11  21  33  54  86 121 149 178 225 283 340
#     4  10  22  37  60  84 113 144 193 239 284 340
#     4  11  20  38  57  82 115 152 193 232 275 333
#     4  10  23  36  60  84 110 155 195 232 279 336
#     4  11  20  35  64  85 111 150 192 237 281 333
#     4  10  21  38  58  85 119 150 188 235 281 337
#
# _framework density 9.1673270000000002
#
# number of rings (size 3 to 8) (size 9 to 14) (size 15 to 20)
#    0.000    1.625    3.750    1.125    3.500    2.500 
#    0.000    0.625    0.000    4.875    0.000    0.000 
#    0.000    0.000    0.000    0.000    0.000    0.000 
#
# Total GULP energy -396484.633921 kJ/mol
# GULP energy per Si atom -12390.144810 kJ/mol
# Density = 0.914646 g / cm^3
# Si number density = 9.167327 Si / 1000 Ang^3
#
#
#
# Elastic Constant Matrix: (Units=GPa)
#
#
# Indices 1 2 3 4 5 6 
#
# 1 102.0094 45.3918 27.3421 0.0046 18.2985 -0.0059
# 2 45.3918 161.1989 45.8540 -0.0748 14.6372 0.0171
# 3 27.3421 45.8540 82.3537 -0.1375 22.3450 0.0047
# 4 0.0046 -0.0748 -0.1375 33.5223 -0.0033 11.0521
# 5 18.2985 14.6372 22.3450 -0.0033 38.4120 0.0099
# 6 -0.0059 0.0171 0.0047 11.0521 0.0099 31.1339
#
#
#
# Elastic Compliance Matrix: (Units=1/GPa)
#
#
# Indices 1 2 3 4 5 6 
#
# 1 0.012065 -0.002620 -0.001494 -0.000018 -0.003880 0.000012
# 2 -0.002620 0.007948 -0.003648 0.000005 0.000342 -0.000006
# 3 -0.001494 -0.003648 0.016743 0.000067 -0.007637 -0.000022
# 4 -0.000018 0.000005 0.000067 0.033785 -0.000027 -0.011993
# 5 -0.003880 0.000342 -0.007637 -0.000027 0.032194 0.000000
# 6 0.000012 -0.000006 -0.000022 -0.011993 0.000000 0.036377
#
#
# Mechanical properties :
#
#
# Convention : Reuss Voigt Hill
#
# Bulk Modulus (GPa) = 47.10127 64.74864 55.92496
# Shear Modulus (GPa) = 30.91865 35.74525 33.33195
#
# Velocity S-wave (km/s) = 4.11097 4.42022 4.26840
# Velocity P-wave (km/s) = 6.94831 7.83854 7.40681
#
# Compressibility (1/GPa) = 0.02123085
#
# Stress axis : x y z
#
# Youngs Moduli (GPa) = 82.88143 125.81694 59.72821
#
# Poissons Ratio (x) = 0.32966 0.08925
# Poissons Ratio (y) = 0.21716 0.21790
# Poissons Ratio (z) = 0.12384 0.45901
#
# Static dielectric constant tensor:
#      x y z
#    x 3.563120 -0.000090 0.249390 
#    y -0.000090 3.753440 -0.000300 
#    z 0.249390 -0.000300 3.571040 
# 
# 
# High freq. dielectric constant tensor:
#      x y z
#    x 1.724760 0.000000 0.018810 
#    y 0.000000 1.723360 -0.000030 
#    z 0.018810 -0.000030 1.719300 
# 
# From -- ./inp_files/366848.got.cif
#   From: 2010.06.25/outbox.ucp.g09.slc.cvg/sg12_184_cif.got.tgz:366848.got - 2010.06.28 13:50:54.
