data_PCOD8116726
_publ_section_title
;
Structure prediction by ZEFSAII (Michael W. Deem and Ramdas Pophale) SiO2 
 PCOD8116726
Probable space group: P 2/C
;
_chemical_formula_sum "Si O2"
_cell_formula_units_Z 28
_cell_length_a 17.067113
_cell_length_b 8.866951
_cell_length_c 17.476348
_cell_angle_alpha 90.000000
_cell_angle_beta 33.004393
_cell_angle_gamma 90.000000
_cell_volume 1440.605577
_symmetry_space_group_name_H-M "P 2/C"
_symmetry_group_IT_number 13
_symmetry_cell_setting 'monoclinic'
loop_
_space_group_symop_operation_xyz
x,y,z
-x,y,1/2-z
-x,-y,-z
x,-y,1/2+z
loop_
_atom_site_type_symbol
_atom_site_label
_atom_site_fract_x
_atom_site_fract_y
_atom_site_fract_z
Si Si1 0.606513 0.707339 0.902694
Si Si2 0.686690 0.592568 0.413345
Si Si3 0.717856 0.674724 0.554694
Si Si4 0.545051 0.187246 0.831598
Si Si5 0.500000 0.427194 0.750000
Si Si6 0.171621 0.670711 0.349631
Si Si7 0.147121 0.679374 0.904258
Si Si8 0.500000 0.067934 0.250000
O O1 0.684988 0.581698 0.890267
O O2 0.730471 0.772932 0.744103
O O3 0.480672 0.644234 0.950610
O O4 0.535010 0.827702 0.020352
O O5 0.761717 0.619385 0.434056
O O6 0.783608 0.687699 0.275571
O O7 0.631022 0.536754 0.663992
O O8 0.846101 0.708365 0.509504
O O9 0.632489 0.830111 0.616320
O O10 0.464605 0.321903 0.851723
O O11 0.714115 0.230827 0.696379
O O12 0.536165 0.030391 0.794964
O O13 0.176197 0.496574 0.368351
O O14 0.010131 0.733161 0.495096
#
# Coordination Sequence:
#
# PCOD8116726 Si02
#       8
#     4   4   4   4   2   4   4   2
#     4   9  16  30  52  81 103 134 178 221 264 311
#     4   9  17  29  53  79 104 135 178 222 265 307
#     4  11  19  33  50  81 106 141 171 223 260 314
#     4  10  18  35  54  79 104 136 176 226 255 308
#     4  10  16  28  56  76  96 134 170 218 272 288
#     4   9  19  34  53  83 109 136 174 220 267 317
#     4  10  19  32  55  82 111 136 172 219 270 321
#     4  10  24  32  54  82 110 132 188 216 266 304
#
# _framework density 19.436271000000001
#
# number of rings (size 3 to 8) (size 9 to 14) (size 15 to 20)
#    0.000    2.286    2.857    2.571    0.000    0.571 
#    0.000    7.143    0.000    5.143    0.000    0.000 
#    0.000    0.000    0.000    0.000    0.000    0.000 
#
# Total GULP energy -346924.475357 kJ/mol
# GULP energy per Si atom -12390.159834 kJ/mol
# Density = 1.939203 g / cm^3
# Si number density = 19.436271 Si / 1000 Ang^3
#
#
#
# Elastic Constant Matrix: (Units=GPa)
#
#
# Indices 1 2 3 4 5 6 
#
# 1 109.1165 21.5408 42.3096 0.0000 7.3416 0.0000
# 2 21.5408 55.0353 8.6291 0.0000 -0.4535 0.0000
# 3 42.3096 8.6291 98.4879 0.0000 -6.1903 0.0000
# 4 0.0000 0.0000 0.0000 11.5657 0.0000 2.4758
# 5 7.3416 -0.4535 -6.1903 0.0000 33.7240 0.0000
# 6 0.0000 0.0000 0.0000 2.4758 0.0000 18.8130
#
#
#
# Elastic Compliance Matrix: (Units=1/GPa)
#
#
# Indices 1 2 3 4 5 6 
#
# 1 0.012181 -0.003996 -0.005112 0.000000 -0.003644 0.000000
# 2 -0.003996 0.019734 0.000060 0.000000 0.001146 0.000000
# 3 -0.005112 0.000060 0.012559 0.000000 0.003419 0.000000
# 4 0.000000 0.000000 0.000000 0.088969 0.000000 -0.011708
# 5 -0.003644 0.001146 0.003419 0.000000 0.031089 0.000000
# 6 0.000000 0.000000 0.000000 -0.011708 0.000000 0.054696
#
#
# Mechanical properties :
#
#
# Convention : Reuss Voigt Hill
#
# Bulk Modulus (GPa) = 37.91029 45.28876 41.59953
# Shear Modulus (GPa) = 20.31568 25.49789 22.90678
#
# Velocity S-wave (km/s) = 3.23653 3.62591 3.43674
# Velocity P-wave (km/s) = 5.78914 6.39385 6.09899
#
# Compressibility (1/GPa) = 0.02637806
#
# Stress axis : x y z
#
# Youngs Moduli (GPa) = 82.09829 50.67320 79.62368
#
# Poissons Ratio (x) = 0.20249 0.40700
# Poissons Ratio (y) = 0.32807 -0.00475
# Poissons Ratio (z) = 0.41965 -0.00302
#
# Static dielectric constant tensor:
#      x y z
#    x 3.611700 0.000000 0.161590 
#    y 0.000000 3.144760 0.000000 
#    z 0.161590 0.000000 3.579160 
# 
# 
# High freq. dielectric constant tensor:
#      x y z
#    x 1.761560 0.000000 0.017740 
#    y 0.000000 1.717120 0.000000 
#    z 0.017740 0.000000 1.739910 
# 
# From -- ./inp_files/69672.got.cif
#   From: 2010.06.25/outbox.cif.g09.slc.cpg/sg13_35_cif.got.tgz:69672.got - 2010.06.28 04:50:58.
