data_PCOD8116580
_publ_section_title
;
Structure prediction by ZEFSAII (Michael W. Deem and Ramdas Pophale) SiO2 
 PCOD8116580
Probable space group: C 2/M
;
_chemical_formula_sum "Si O2"
_cell_formula_units_Z 32
_cell_length_a 18.000000
_cell_length_b 9.000000
_cell_length_c 30.000000
_cell_angle_alpha 90.000000
_cell_angle_beta 40.000000
_cell_angle_gamma 90.000000
_cell_volume 3123.947783
_symmetry_space_group_name_H-M "C 2/M"
_symmetry_group_IT_number 12
_symmetry_cell_setting 'monoclinic'
loop_
_space_group_symop_operation_xyz
x,y,z
-x,y,-z
-x,-y,-z
x,-y,z
1/2+x,1/2+y,z
1/2-x,1/2+y,-z
1/2-x,1/2-y,-z
1/2+x,1/2-y,z
loop_
_atom_site_type_symbol
_atom_site_label
_atom_site_fract_x
_atom_site_fract_y
_atom_site_fract_z
Si Si1 0.506608 0.325579 0.209449
Si Si2 0.716362 0.824387 0.561830
Si Si3 0.275971 0.168469 0.300623
Si Si4 0.872169 0.824771 0.937146
Si Si5 0.738259 0.666562 0.217582
Si Si6 0.635162 0.829573 0.431763
Si Si7 0.970267 0.328058 0.064183
Si Si8 0.969289 0.672234 0.714922
O O1 0.482818 0.500000 0.218469
O O2 0.388398 0.237278 0.271390
O O3 0.576900 0.272832 0.133839
O O4 0.570771 0.275789 0.224879
O O5 0.750000 0.750000 0.500000
O O6 0.803458 0.767865 0.559041
O O7 0.586382 0.779690 0.636093
O O8 0.727916 0.000000 0.550934
O O9 0.298134 0.177131 0.238064
O O10 0.166907 0.263321 0.368531
O O11 0.261210 0.000000 0.324224
O O12 0.956108 0.776774 0.937952
O O13 0.856003 0.000000 0.945683
O O14 0.750000 0.750000 0.000000
O O15 0.688164 0.500000 0.233301
O O16 0.834902 0.702130 0.135800
O O17 0.638376 0.790264 0.267400
O O18 0.500000 0.815082 0.500000
O O19 0.675887 0.000000 0.416636
O O20 0.001459 0.500000 0.059415
O O21 0.000000 0.284638 0.000000
O O22 0.972109 0.500000 0.727095
#
# Coordination Sequence:
#
# PCOD8116580 Si02
#       8
#     8   8   8   8   8   8   8   8
#     4  11  23  41  66  92 123 164 210 259 313 371
#     4  11  25  44  65  92 127 168 212 258 315 373
#     4  11  22  40  66  94 124 161 207 258 313 370
#     4  11  25  42  64  94 126 165 211 259 314 373
#     4  10  23  41  63  93 127 166 208 254 312 372
#     4  11  25  43  65  94 127 165 209 259 313 371
#     4  10  22  42  65  90 126 167 207 255 310 370
#     4  11  25  42  64  94 127 164 208 259 312 371
#
# _framework density 10.243449
#
# number of rings (size 3 to 8) (size 9 to 14) (size 15 to 20)
#    0.000    1.250    2.500    2.250    3.500    5.750 
#    0.000    0.000    0.000    0.000    0.000    0.000 
#    0.000    0.000    0.000    0.000    0.000    0.000 
#
# Total GULP energy -396834.349887 kJ/mol
# GULP energy per Si atom -12401.073434 kJ/mol
# Density = 1.022013 g / cm^3
# Si number density = 10.243449 Si / 1000 Ang^3
#
#
#
# Elastic Constant Matrix: (Units=GPa)
#
#
# Indices 1 2 3 4 5 6 
#
# 1 62.4552 35.0092 43.0030 0.0000 1.6914 -0.0012
# 2 35.0092 91.9520 64.8546 0.0001 0.0127 -0.0005
# 3 43.0030 64.8546 152.1342 0.0000 12.4834 0.0006
# 4 0.0000 0.0001 0.0000 36.8797 0.0001 0.5635
# 5 1.6914 0.0127 12.4834 0.0001 34.7962 0.0004
# 6 -0.0012 -0.0005 0.0006 0.5635 0.0004 36.4803
#
#
#
# Elastic Compliance Matrix: (Units=1/GPa)
#
#
# Indices 1 2 3 4 5 6 
#
# 1 0.021754 -0.005617 -0.003779 0.000000 0.000300 0.000001
# 2 -0.005617 0.017206 -0.005944 0.000000 0.002399 0.000000
# 3 -0.003779 -0.005944 0.010468 0.000000 -0.003570 0.000000
# 4 0.000000 0.000000 0.000000 0.027122 0.000000 -0.000419
# 5 0.000300 0.002399 -0.003570 0.000000 0.030004 0.000000
# 6 0.000001 0.000000 0.000000 -0.000419 0.000000 0.027419
#
#
# Mechanical properties :
#
#
# Convention : Reuss Voigt Hill
#
# Bulk Modulus (GPa) = 53.33982 65.80834 59.57408
# Shear Modulus (GPa) = 29.25653 32.54287 30.89970
#
# Velocity S-wave (km/s) = 3.78307 3.98989 3.88785
# Velocity P-wave (km/s) = 6.72121 7.30873 7.02112
#
# Compressibility (1/GPa) = 0.01874772
#
# Stress axis : x y z
#
# Youngs Moduli (GPa) = 45.96827 58.11983 95.52715
#
# Poissons Ratio (x) = 0.32646 0.36102
# Poissons Ratio (y) = 0.25820 0.56781
# Poissons Ratio (z) = 0.17373 0.34546
#
# Static dielectric constant tensor:
#      x y z
#    x 3.312170 -0.000250 0.216070 
#    y -0.000250 3.964430 0.000110 
#    z 0.216070 0.000110 3.975540 
# 
# 
# High freq. dielectric constant tensor:
#      x y z
#    x 1.795090 0.000000 0.007390 
#    y 0.000000 1.808050 0.000000 
#    z 0.007390 0.000000 1.819500 
# 
# From -- ./inp_files/378099.got.cif
#   From: 2010.06.25/outbox.ucp.g09.slc.cvg/sg12_190_cif.got.tgz:378099.got - 2010.06.28 13:50:54.
