data_PCOD8116872
_publ_section_title
;
Structure prediction by ZEFSAII (Michael W. Deem and Ramdas Pophale) SiO2 
 PCOD8116872
Probable space group: P 2/C
;
_chemical_formula_sum "Si O2"
_cell_formula_units_Z 32
_cell_length_a 12.428354
_cell_length_b 14.279494
_cell_length_c 10.314207
_cell_angle_alpha 90.000000
_cell_angle_beta 103.095588
_cell_angle_gamma 90.000000
_cell_volume 1782.864339
_symmetry_space_group_name_H-M "P 2/C"
_symmetry_group_IT_number 13
_symmetry_cell_setting 'monoclinic'
loop_
_space_group_symop_operation_xyz
x,y,z
-x,y,1/2-z
-x,-y,-z
x,-y,1/2+z
loop_
_atom_site_type_symbol
_atom_site_label
_atom_site_fract_x
_atom_site_fract_y
_atom_site_fract_z
Si Si1 0.924448 0.609598 0.108714
Si Si2 0.556368 0.035355 0.889438
Si Si3 0.198874 0.055670 0.519851
Si Si4 0.742650 0.731525 0.469416
Si Si5 0.062348 0.390314 0.396596
Si Si6 0.123169 0.079431 0.780999
Si Si7 0.506662 0.251389 0.891542
Si Si8 0.740248 0.736731 0.162443
O O1 0.906254 0.499109 0.095285
O O2 0.807165 0.661528 0.094553
O O3 0.000000 0.638578 0.250000
O O4 0.984875 0.642189 0.994222
O O5 0.500000 0.985615 0.750000
O O6 0.683359 0.006237 0.929444
O O7 0.539691 0.145095 0.873302
O O8 0.500000 0.000000 0.000000
O O9 0.213834 0.164500 0.488069
O O10 0.138272 0.041019 0.639917
O O11 0.132990 0.005642 0.385724
O O12 0.821254 0.661163 0.566076
O O13 0.618111 0.710351 0.492798
O O14 0.744539 0.711468 0.315487
O O15 0.000000 0.360340 0.250000
O O16 0.210423 0.159619 0.843109
O O17 0.000000 0.122175 0.750000
O O18 0.500000 0.302022 0.750000
O O19 0.387008 0.263549 0.927554
#
# Coordination Sequence:
#
# PCOD8116872 Si02
#       8
#     4   4   4   4   4   4   4   4
#     4  10  19  35  58  82 105 133 177 223 252 312
#     4  10  17  30  52  73  96 130 176 223 259 298
#     4  10  21  35  51  75 106 141 177 217 262 310
#     4   9  18  34  56  76 108 142 173 217 264 312
#     4  10  21  35  55  83 109 134 170 215 270 315
#     4  11  22  35  51  76 109 143 178 218 262 311
#     4   8  16  30  51  79  99 129 179 220 252 305
#     4  10  18  33  58  79 100 138 184 219 258 307
#
# _framework density 17.948647000000001
#
# number of rings (size 3 to 8) (size 9 to 14) (size 15 to 20)
#    0.000    2.250    1.250    4.500    1.750    0.500 
#    2.250    0.625    2.750    0.000    0.000    0.000 
#    0.000    0.000    0.000    0.000    0.000    0.000 
#
# Total GULP energy -396573.947473 kJ/mol
# GULP energy per Si atom -12392.935859 kJ/mol
# Density = 1.790779 g / cm^3
# Si number density = 17.948647 Si / 1000 Ang^3
#
#
#
# Elastic Constant Matrix: (Units=GPa)
#
#
# Indices 1 2 3 4 5 6 
#
# 1 160.4842 41.6903 54.0630 0.0000 12.9021 0.0000
# 2 41.6903 46.4513 31.3807 0.0000 7.5299 0.0000
# 3 54.0630 31.3807 94.3843 0.0000 2.7891 0.0000
# 4 0.0000 0.0000 0.0000 15.2583 0.0000 -2.5246
# 5 12.9021 7.5299 2.7891 0.0000 30.5217 0.0000
# 6 0.0000 0.0000 0.0000 -2.5246 0.0000 24.9945
#
#
#
# Elastic Compliance Matrix: (Units=1/GPa)
#
#
# Indices 1 2 3 4 5 6 
#
# 1 0.008909 -0.005477 -0.003219 0.000000 -0.002121 0.000000
# 2 -0.005477 0.032281 -0.007449 0.000000 -0.004968 0.000000
# 3 -0.003219 -0.007449 0.014861 0.000000 0.001840 0.000000
# 4 0.000000 0.000000 0.000000 0.066652 0.000000 0.006732
# 5 -0.002121 -0.004968 0.001840 0.000000 0.034717 0.000000
# 6 0.000000 0.000000 0.000000 0.006732 0.000000 0.040689
#
#
# Mechanical properties :
#
#
# Convention : Reuss Voigt Hill
#
# Bulk Modulus (GPa) = 42.08605 61.73196 51.90900
# Shear Modulus (GPa) = 20.98017 25.76728 23.37373
#
# Velocity S-wave (km/s) = 3.42263 3.79306 3.61259
# Velocity P-wave (km/s) = 6.25445 7.32471 6.81063
#
# Compressibility (1/GPa) = 0.02376084
#
# Stress axis : x y z
#
# Youngs Moduli (GPa) = 112.24599 30.97790 67.28986
#
# Poissons Ratio (x) = 0.16968 0.21663
# Poissons Ratio (y) = 0.61480 0.50121
# Poissons Ratio (z) = 0.36135 0.23074
#
# Static dielectric constant tensor:
#      x y z
#    x 3.594840 0.000000 0.116340 
#    y 0.000000 2.998020 0.000000 
#    z 0.116340 0.000000 3.252950 
# 
# 
# High freq. dielectric constant tensor:
#      x y z
#    x 1.711700 0.000000 0.007940 
#    y 0.000000 1.666320 0.000000 
#    z 0.007940 0.000000 1.678370 
# 
# From -- ./inp_files/34401.got.cif
#   From: 2010.06.25/outbox.cif.g09.slc.cpg/sg13_18_cif.got.tgz:34401.got - 2010.06.28 04:50:58.
