data_PCOD8116452
_publ_section_title
;
Structure prediction by ZEFSAII (Michael W. Deem and Ramdas Pophale) SiO2 
 PCOD8116452
Probable space group: C 2/M
;
_chemical_formula_sum "Si O2"
_cell_formula_units_Z 32
_cell_length_a 18.000000
_cell_length_b 9.000000
_cell_length_c 30.000000
_cell_angle_alpha 90.000000
_cell_angle_beta 40.000000
_cell_angle_gamma 90.000000
_cell_volume 3123.947783
_symmetry_space_group_name_H-M "C 2/M"
_symmetry_group_IT_number 12
_symmetry_cell_setting 'monoclinic'
loop_
_space_group_symop_operation_xyz
x,y,z
-x,y,-z
-x,-y,-z
x,-y,z
1/2+x,1/2+y,z
1/2-x,1/2+y,-z
1/2-x,1/2-y,-z
1/2+x,1/2-y,z
loop_
_atom_site_type_symbol
_atom_site_label
_atom_site_fract_x
_atom_site_fract_y
_atom_site_fract_z
Si Si1 0.024996 0.172825 0.273387
Si Si2 0.286089 0.173825 0.365978
Si Si3 0.044035 0.659977 0.349726
Si Si4 0.788281 0.162002 0.277409
Si Si5 0.825502 0.327363 0.503005
Si Si6 0.413818 0.323693 0.133367
Si Si7 0.669341 0.674179 0.001329
Si Si8 0.260132 0.825230 0.862167
O O1 0.055491 0.203628 0.310576
O O2 0.121626 0.233846 0.195597
O O3 0.911919 0.267712 0.318213
O O4 0.004901 0.000000 0.274039
O O5 0.262773 0.214712 0.325802
O O6 0.193764 0.253062 0.440326
O O7 0.275975 0.000000 0.378128
O O8 0.001917 0.500000 0.347739
O O9 0.169850 0.628743 0.308468
O O10 0.959037 0.699556 0.429443
O O11 0.877278 0.226852 0.199834
O O12 0.832894 0.000000 0.275647
O O13 0.791281 0.500000 0.521662
O O14 0.750000 0.250000 0.500000
O O15 0.413290 0.500000 0.129957
O O16 0.326811 0.263232 0.135589
O O17 0.540832 0.259812 0.065830
O O18 0.671472 0.500000 0.009532
O O19 0.708467 0.712443 0.933730
O O20 0.750000 0.750000 0.000000
O O21 0.285168 0.000000 0.844563
#
# Coordination Sequence:
#
# PCOD8116452 Si02
#       8
#     8   8   8   8   8   8   8   8
#     4  12  24  38  62  92 122 158 208 260 305 366
#     4  12  26  42  60  87 126 165 206 257 311 366
#     4  10  21  40  66  92 123 159 200 251 309 370
#     4  10  21  40  64  91 123 161 203 253 307 367
#     4  11  22  38  63  93 123 161 206 254 307 367
#     4   9  18  37  65  90 118 158 205 248 295 362
#     4  10  22  38  60  92 125 161 203 249 301 360
#     4  10  20  39  64  89 120 162 208 251 300 363
#
# _framework density 10.243449
#
# number of rings (size 3 to 8) (size 9 to 14) (size 15 to 20)
#    0.000    1.500    2.500    3.000    1.750    3.500 
#    0.000    3.125    0.000    1.500    0.000    0.000 
#    0.000    0.000    0.000    0.000    0.000    0.000 
#
# Total GULP energy -396683.567925 kJ/mol
# GULP energy per Si atom -12396.361498 kJ/mol
# Density = 1.022013 g / cm^3
# Si number density = 10.243449 Si / 1000 Ang^3
#
#
#
# Elastic Constant Matrix: (Units=GPa)
#
#
# Indices 1 2 3 4 5 6 
#
# 1 43.0624 21.9527 26.0296 0.0011 17.0460 0.0078
# 2 21.9527 96.9490 49.0860 0.0020 13.3247 0.0045
# 3 26.0296 49.0860 162.5410 -0.0002 12.2458 0.0000
# 4 0.0011 0.0020 -0.0002 26.2150 -0.0001 3.9238
# 5 17.0460 13.3247 12.2458 -0.0001 31.3205 0.0016
# 6 0.0078 0.0045 0.0000 3.9238 0.0016 26.6100
#
#
#
# Elastic Compliance Matrix: (Units=1/GPa)
#
#
# Indices 1 2 3 4 5 6 
#
# 1 0.032991 -0.003886 -0.002969 0.000000 -0.015141 -0.000008
# 2 -0.003886 0.013104 -0.003168 -0.000001 -0.002221 -0.000001
# 3 -0.002969 -0.003168 0.007584 0.000000 -0.000002 0.000001
# 4 0.000000 -0.000001 0.000000 0.039007 0.000001 -0.005752
# 5 -0.015141 -0.002221 -0.000002 0.000001 0.041114 0.000002
# 6 -0.000008 -0.000001 0.000001 -0.005752 0.000002 0.038428
#
#
# Mechanical properties :
#
#
# Convention : Reuss Voigt Hill
#
# Bulk Modulus (GPa) = 29.73161 55.18767 42.45964
# Shear Modulus (GPa) = 24.57174 30.52802 27.54988
#
# Velocity S-wave (km/s) = 3.46697 3.86440 3.67107
# Velocity P-wave (km/s) = 5.52906 6.84894 6.22409
#
# Compressibility (1/GPa) = 0.03363424
#
# Stress axis : x y z
#
# Youngs Moduli (GPa) = 30.31086 76.31426 131.84846
#
# Poissons Ratio (x) = 0.29657 0.39146
# Poissons Ratio (y) = 0.11779 0.41763
# Poissons Ratio (z) = 0.08999 0.24173
#
# Static dielectric constant tensor:
#      x y z
#    x 3.649640 0.000230 0.049410 
#    y 0.000230 2.493970 0.000180 
#    z 0.049410 0.000180 4.173480 
# 
# 
# High freq. dielectric constant tensor:
#      x y z
#    x 1.784490 0.000000 0.001350 
#    y 0.000000 1.781030 0.000000 
#    z 0.001350 0.000000 1.818980 
# 
# From -- ./inp_files/378049.got.cif
#   From: 2010.06.25/outbox.ucp.g09.slc.cvg/sg12_190_cif.got.tgz:378049.got - 2010.06.28 13:50:54.
