data_PCOD8116881
_publ_section_title
;
Structure prediction by ZEFSAII (Michael W. Deem and Ramdas Pophale) SiO2 
 PCOD8116881
Probable space group: P 2/C
;
_chemical_formula_sum "Si O2"
_cell_formula_units_Z 28
_cell_length_a 8.541489
_cell_length_b 8.639061
_cell_length_c 28.005999
_cell_angle_alpha 90.000000
_cell_angle_beta 140.922774
_cell_angle_gamma 90.000000
_cell_volume 1302.701362
_symmetry_space_group_name_H-M "P 2/C"
_symmetry_group_IT_number 13
_symmetry_cell_setting 'monoclinic'
loop_
_space_group_symop_operation_xyz
x,y,z
-x,y,1/2-z
-x,-y,-z
x,-y,1/2+z
loop_
_atom_site_type_symbol
_atom_site_label
_atom_site_fract_x
_atom_site_fract_y
_atom_site_fract_z
Si Si1 0.441726 0.316265 0.528223
Si Si2 0.888208 0.904279 0.654814
Si Si3 0.824486 0.436145 0.119783
Si Si4 0.234043 0.333418 0.702846
Si Si5 0.161104 0.867500 0.438312
Si Si6 0.601645 0.032397 0.922957
Si Si7 0.601968 0.970561 0.221135
O O1 0.220877 0.402354 0.447438
O O2 0.614801 0.450301 0.591809
O O3 0.595935 0.214653 0.526101
O O4 0.334910 0.207042 0.544764
O O5 0.820091 0.725391 0.646161
O O6 0.691742 0.007241 0.636999
O O7 0.884362 0.968166 0.599209
O O8 0.171417 0.917811 0.740401
O O9 0.088519 0.520210 0.189052
O O10 0.500000 0.398590 0.750000
O O11 0.284248 0.203026 0.754742
O O12 0.076314 0.246763 0.623024
O O13 0.221438 0.908402 0.508061
O O14 0.625456 0.014908 0.871013
O O15 0.500000 0.006797 0.250000
#
# Coordination Sequence:
#
# PCOD8116881 Si02
#       7
#     4   4   4   4   4   4   4
#     4   9  17  30  56  94 116 137 176 240 300 332
#     4  10  18  33  57  92 116 143 184 241 287 334
#     4  10  17  30  58  86 119 141 177 229 292 339
#     4   9  20  37  54  76 114 163 187 215 280 351
#     4   9  16  32  59  85 112 141 186 241 284 325
#     4  11  18  35  61  88 113 143 194 246 283 329
#     4  10  23  40  55  76 116 162 197 232 283 336
#
# _framework density 21.493797000000001
#
# number of rings (size 3 to 8) (size 9 to 14) (size 15 to 20)
#    0.000    2.286    2.857    2.143    0.000    0.571 
#    0.000    9.286    0.000    3.429    0.000    0.000 
#    0.000    0.000    0.000    0.000    0.000    0.000 
#
# Total GULP energy -346962.348756 kJ/mol
# GULP energy per Si atom -12391.512456 kJ/mol
# Density = 2.144488 g / cm^3
# Si number density = 21.493797 Si / 1000 Ang^3
#
#
#
# Elastic Constant Matrix: (Units=GPa)
#
#
# Indices 1 2 3 4 5 6 
#
# 1 21.8744 -5.2268 10.3269 0.0000 -6.9283 0.0000
# 2 -5.2268 90.3298 -2.6146 0.0000 0.0079 0.0000
# 3 10.3269 -2.6146 92.0619 0.0000 -14.5580 0.0000
# 4 0.0000 0.0000 0.0000 35.6569 0.0000 7.1117
# 5 -6.9283 0.0079 -14.5580 0.0000 37.7454 0.0000
# 6 0.0000 0.0000 0.0000 7.1117 0.0000 12.1699
#
#
#
# Elastic Compliance Matrix: (Units=1/GPa)
#
#
# Indices 1 2 3 4 5 6 
#
# 1 0.050894 0.002816 -0.004422 0.000000 0.007636 0.000000
# 2 0.002816 0.011236 0.000090 0.000000 0.000549 0.000000
# 3 -0.004422 0.000090 0.011962 0.000000 0.003802 0.000000
# 4 0.000000 0.000000 0.000000 0.031745 0.000000 -0.018551
# 5 0.007636 0.000549 0.003802 0.000000 0.029361 0.000000
# 6 0.000000 0.000000 0.000000 -0.018551 0.000000 0.093010
#
#
# Mechanical properties :
#
#
# Convention : Reuss Voigt Hill
#
# Bulk Modulus (GPa) = 14.07219 23.24857 18.66038
# Shear Modulus (GPa) = 19.61348 30.56649 25.08998
#
# Velocity S-wave (km/s) = 3.02407 3.77518 3.42030
# Velocity P-wave (km/s) = 4.33066 5.46283 4.92936
#
# Compressibility (1/GPa) = 0.07106213
#
# Stress axis : x y z
#
# Youngs Moduli (GPa) = 19.64853 88.99916 83.59799
#
# Poissons Ratio (x) = -0.25065 0.36963
# Poissons Ratio (y) = -0.05534 -0.00753
# Poissons Ratio (z) = 0.08688 -0.00802
#
# Static dielectric constant tensor:
#      x y z
#    x 3.297250 0.000000 0.155220 
#    y 0.000000 3.884540 0.000000 
#    z 0.155220 0.000000 4.186170 
# 
# 
# High freq. dielectric constant tensor:
#      x y z
#    x 1.782790 0.000000 0.014790 
#    y 0.000000 1.837120 0.000000 
#    z 0.014790 0.000000 1.856850 
# 
# From -- ./inp_files/95967.got.cif
#   From: 2010.06.25/outbox.cif.g09.slc.cpg/sg13_48_cif.got.tgz:95967.got - 2010.06.28 04:50:58.
