data_PCOD8116860
_publ_section_title
;
Structure prediction by ZEFSAII (Michael W. Deem and Ramdas Pophale) SiO2 
 PCOD8116860
Probable space group: P 2/C
;
_chemical_formula_sum "Si O2"
_cell_formula_units_Z 24
_cell_length_a 16.692594
_cell_length_b 14.406364
_cell_length_c 9.340653
_cell_angle_alpha 90.000000
_cell_angle_beta 148.241208
_cell_angle_gamma 90.000000
_cell_volume 1182.293937
_symmetry_space_group_name_H-M "P 2/C"
_symmetry_group_IT_number 13
_symmetry_cell_setting 'monoclinic'
loop_
_space_group_symop_operation_xyz
x,y,z
-x,y,1/2-z
-x,-y,-z
x,-y,1/2+z
loop_
_atom_site_type_symbol
_atom_site_label
_atom_site_fract_x
_atom_site_fract_y
_atom_site_fract_z
Si Si1 0.358205 0.293957 0.329925
Si Si2 0.699205 0.335602 0.948837
Si Si3 0.608540 0.534512 0.786132
Si Si4 0.667964 0.847599 0.948207
Si Si5 0.396015 0.956176 0.219903
Si Si6 0.169745 0.186484 0.525789
O O1 0.535713 0.307038 0.636107
O O2 0.268984 0.295361 0.344068
O O3 0.300766 0.375954 0.134889
O O4 0.319908 0.197965 0.191003
O O5 0.718477 0.447554 0.991255
O O6 0.823384 0.289883 0.032322
O O7 0.500000 0.566204 0.750000
O O8 0.500000 0.500000 0.500000
O O9 0.500000 0.826602 0.750000
O O10 0.701491 0.957694 0.990282
O O11 0.789573 0.806658 0.244864
O O12 0.500000 0.912488 0.250000
O O13 0.287525 0.877897 0.117989
O O14 0.500000 0.000000 0.500000
O O15 0.000000 0.146913 0.250000
#
# Coordination Sequence:
#
# PCOD8116860 Si02
#       6
#     4   4   4   4   4   4
#     4  10  19  32  61  94 118 156 209 267 292 354
#     4  10  20  34  56  87 126 160 203 249 315 353
#     4  10  17  29  51  96 127 148 202 270 308 338
#     4  11  21  38  62  91 117 162 209 252 301 360
#     4  11  22  41  67  93 119 158 212 254 299 364
#     4  12  27  42  61  92 131 164 199 255 321 371
#
# _framework density 20.299520999999999
#
# number of rings (size 3 to 8) (size 9 to 14) (size 15 to 20)
#    0.000    1.333    8.333    0.500    7.000    0.667 
#    0.000    0.833    0.000    4.000    0.000    0.000 
#    0.000    0.000    0.000    0.000    0.000    0.000 
#
# Total GULP energy -297489.604012 kJ/mol
# GULP energy per Si atom -12395.400167 kJ/mol
# Density = 2.025332 g / cm^3
# Si number density = 20.299521 Si / 1000 Ang^3
#
#
#
# Elastic Constant Matrix: (Units=GPa)
#
#
# Indices 1 2 3 4 5 6 
#
# 1 82.4194 26.3470 35.8955 0.0000 -22.9108 0.0000
# 2 26.3470 84.0196 11.0802 0.0000 -2.2231 0.0000
# 3 35.8955 11.0802 73.4514 0.0000 -9.9777 0.0000
# 4 0.0000 0.0000 0.0000 16.8052 0.0000 -14.7577
# 5 -22.9108 -2.2231 -9.9777 0.0000 32.3787 0.0000
# 6 0.0000 0.0000 0.0000 -14.7577 0.0000 32.6250
#
#
#
# Elastic Compliance Matrix: (Units=1/GPa)
#
#
# Indices 1 2 3 4 5 6 
#
# 1 0.020292 -0.005056 -0.007567 0.000000 0.011679 0.000000
# 2 -0.005056 0.013406 0.000091 0.000000 -0.002629 0.000000
# 3 -0.007567 0.000091 0.017296 0.000000 -0.000018 0.000000
# 4 0.000000 0.000000 0.000000 0.098719 0.000000 0.044655
# 5 0.011679 -0.002629 -0.000018 0.000000 0.038962 0.000000
# 6 0.000000 0.000000 0.000000 0.044655 0.000000 0.050851
#
#
# Mechanical properties :
#
#
# Convention : Reuss Voigt Hill
#
# Bulk Modulus (GPa) = 38.56539 42.94844 40.75691
# Shear Modulus (GPa) = 18.29939 27.46629 22.88284
#
# Velocity S-wave (km/s) = 3.00570 3.68238 3.36111
# Velocity P-wave (km/s) = 5.57540 6.26763 5.93162
#
# Compressibility (1/GPa) = 0.02592999
#
# Stress axis : x y z
#
# Youngs Moduli (GPa) = 49.28158 74.59426 57.81598
#
# Poissons Ratio (x) = 0.37716 0.43751
# Poissons Ratio (y) = 0.24917 -0.00529
# Poissons Ratio (z) = 0.37293 -0.00682
#
# Static dielectric constant tensor:
#      x y z
#    x 3.782350 0.000000 -0.489780 
#    y 0.000000 5.178000 0.000000 
#    z -0.489780 0.000000 3.374720 
# 
# 
# High freq. dielectric constant tensor:
#      x y z
#    x 1.785180 0.000000 -0.052220 
#    y 0.000000 1.807010 0.000000 
#    z -0.052220 0.000000 1.743900 
# 
# From -- ./inp_files/19480.got.cif
#   From: 2010.06.25/outbox.cif.g09.slc.cpg/sg13_10_cif.got.tgz:19480.got - 2010.06.28 04:50:58.
