data_PCOD8116466
_publ_section_title
;
Structure prediction by ZEFSAII (Michael W. Deem and Ramdas Pophale) SiO2 
 PCOD8116466
Probable space group: C 2/M
;
_chemical_formula_sum "Si O2"
_cell_formula_units_Z 28
_cell_length_a 24.000000
_cell_length_b 18.000000
_cell_length_c 21.000000
_cell_angle_alpha 90.000000
_cell_angle_beta 20.000000
_cell_angle_gamma 90.000000
_cell_volume 3102.806740
_symmetry_space_group_name_H-M "C 2/M"
_symmetry_group_IT_number 12
_symmetry_cell_setting 'monoclinic'
loop_
_space_group_symop_operation_xyz
x,y,z
-x,y,-z
-x,-y,-z
x,-y,z
1/2+x,1/2+y,z
1/2-x,1/2+y,-z
1/2-x,1/2-y,-z
1/2+x,1/2-y,z
loop_
_atom_site_type_symbol
_atom_site_label
_atom_site_fract_x
_atom_site_fract_y
_atom_site_fract_z
Si Si1 0.413260 0.911183 0.402792
Si Si2 0.319283 0.801836 0.193513
Si Si3 0.593358 0.586462 0.661176
Si Si4 0.339184 0.586069 0.557969
Si Si5 0.743852 0.338646 0.009367
Si Si6 0.144252 0.176260 0.253868
Si Si7 0.445598 0.183824 0.489244
O O1 0.245662 0.887800 0.543981
O O2 0.400007 0.882552 0.489870
O O3 0.430105 0.000000 0.383590
O O4 0.583008 0.875915 0.194854
O O5 0.316349 0.871346 0.246007
O O6 0.269343 0.830432 0.177279
O O7 0.212941 0.733440 0.331628
O O8 0.500000 0.770098 0.000000
O O9 0.554660 0.500000 0.715669
O O10 0.656544 0.599913 0.522071
O O11 0.417675 0.630505 0.856752
O O12 0.331579 0.500000 0.583219
O O13 0.489187 0.624163 0.434493
O O14 0.724975 0.357302 0.103997
O O15 0.750000 0.250000 0.000000
O O16 0.087682 0.262924 0.307477
O O17 0.500000 0.151274 0.500000
#
# Coordination Sequence:
#
# PCOD8116466 Si02
#       7
#     8   8   8   8   8   8   8
#     4  11  23  39  62  88 115 154 195 238 293 348
#     4  10  21  33  54  81 112 144 187 239 283 331
#     4   9  21  39  56  83 124 153 186 241 286 337
#     4   9  18  35  53  73 109 154 187 223 281 340
#     4  11  21  36  61  90 116 149 192 233 290 352
#     4   9  19  36  53  79 112 147 183 232 283 340
#     4   9  19  40  58  78 113 146 188 235 286 341
#
# _framework density 9.0240880000000008
#
# number of rings (size 3 to 8) (size 9 to 14) (size 15 to 20)
#    0.000    2.286    1.429    1.714    2.000    4.000 
#    0.000    0.000    0.000    0.429    0.000    0.000 
#    0.000    0.000    0.000    0.000    0.000    0.000 
#
# Total GULP energy -346919.338518 kJ/mol
# GULP energy per Si atom -12389.976376 kJ/mol
# Density = 0.900355 g / cm^3
# Si number density = 9.024088 Si / 1000 Ang^3
#
#
#
# Elastic Constant Matrix: (Units=GPa)
#
#
# Indices 1 2 3 4 5 6 
#
# 1 127.9795 43.1904 54.4774 -0.0178 -18.3659 0.0193
# 2 43.1904 101.3377 39.5954 -0.0723 -10.4113 0.0537
# 3 54.4774 39.5954 108.3789 -0.0309 -23.7413 0.0354
# 4 -0.0178 -0.0723 -0.0309 24.4712 0.0237 0.4407
# 5 -18.3659 -10.4113 -23.7413 0.0237 32.1952 -0.0041
# 6 0.0193 0.0537 0.0354 0.4407 -0.0041 34.5727
#
#
#
# Elastic Compliance Matrix: (Units=1/GPa)
#
#
# Indices 1 2 3 4 5 6 
#
# 1 0.010749 -0.002834 -0.003847 -0.000008 0.002379 0.000003
# 2 -0.002834 0.012273 -0.003034 0.000031 0.000115 -0.000015
# 3 -0.003847 -0.003034 0.013803 -0.000001 0.007003 -0.000006
# 4 -0.000008 0.000031 -0.000001 0.040874 -0.000026 -0.000521
# 5 0.002379 0.000115 0.007003 -0.000026 0.037619 -0.000004
# 6 0.000003 -0.000015 -0.000006 -0.000521 -0.000004 0.028931
#
#
# Mechanical properties :
#
#
# Convention : Reuss Voigt Hill
#
# Bulk Modulus (GPa) = 57.48568 68.02472 62.75520
# Shear Modulus (GPa) = 29.50253 31.61002 30.55627
#
# Velocity S-wave (km/s) = 4.04747 4.18954 4.11912
# Velocity P-wave (km/s) = 7.33233 7.82148 7.58085
#
# Compressibility (1/GPa) = 0.01739564
#
# Stress axis : x y z
#
# Youngs Moduli (GPa) = 93.03300 81.47833 72.44781
#
# Poissons Ratio (x) = 0.23090 0.27868
# Poissons Ratio (y) = 0.26364 0.21983
# Poissons Ratio (z) = 0.35786 0.24723
#
# Static dielectric constant tensor:
#      x y z
#    x 3.561080 -0.000160 -0.092140 
#    y -0.000160 3.356310 0.000180 
#    z -0.092140 0.000180 3.578010 
# 
# 
# High freq. dielectric constant tensor:
#      x y z
#    x 1.713090 -0.000010 -0.006770 
#    y -0.000010 1.695960 0.000010 
#    z -0.006770 0.000010 1.705470 
# 
# From -- ./inp_files/325993.got.cif
#   From: 2010.06.25/outbox.ucp.g09.slc.cvg/sg12_163_cif.got.tgz:325993.got - 2010.06.28 13:50:54.
