data_PCOD8116618
_publ_section_title
;
Structure prediction by ZEFSAII (Michael W. Deem and Ramdas Pophale) SiO2 
 PCOD8116618
Probable space group: C 2/M
;
_chemical_formula_sum "Si O2"
_cell_formula_units_Z 20
_cell_length_a 21.000000
_cell_length_b 9.000000
_cell_length_c 30.000000
_cell_angle_alpha 90.000000
_cell_angle_beta 160.000000
_cell_angle_gamma 90.000000
_cell_volume 1939.254213
_symmetry_space_group_name_H-M "C 2/M"
_symmetry_group_IT_number 12
_symmetry_cell_setting 'monoclinic'
loop_
_space_group_symop_operation_xyz
x,y,z
-x,y,-z
-x,-y,-z
x,-y,z
1/2+x,1/2+y,z
1/2-x,1/2+y,-z
1/2-x,1/2-y,-z
1/2+x,1/2-y,z
loop_
_atom_site_type_symbol
_atom_site_label
_atom_site_fract_x
_atom_site_fract_y
_atom_site_fract_z
Si Si1 0.348584 0.776901 0.135082
Si Si2 0.872117 0.500000 0.517525
Si Si3 0.567159 0.500000 0.758758
Si Si4 0.994095 0.837942 0.848880
Si Si5 0.487265 0.500000 0.379710
Si Si6 0.581644 0.242948 0.601809
Si Si7 0.570829 0.000000 0.340591
O O1 0.320441 0.628086 0.143187
O O2 0.460469 0.775373 0.161447
O O3 0.469954 0.863219 0.251315
O O4 0.140852 0.831855 0.986554
O O5 0.650911 0.500000 0.373864
O O6 0.956677 0.500000 0.623584
O O7 0.935673 0.636016 0.529476
O O8 0.595692 0.500000 0.724470
O O9 0.787734 0.820893 0.732052
O O10 0.009649 0.000000 0.837058
O O11 0.399462 0.368547 0.349610
O O12 0.710883 0.500000 0.526751
O O13 0.500000 0.292382 0.500000
#
# Coordination Sequence:
#
# PCOD8116618 Si02
#       7
#     8   4   4   8   4   8   4
#     4  11  23  40  68  91 122 166 205 255 308 359
#     4  11  23  39  67  94 124 166 208 247 304 377
#     4  11  22  42  65  91 126 164 210 253 301 366
#     4  11  23  42  64  94 124 159 212 254 304 374
#     4  11  25  41  61  96 128 160 208 255 306 367
#     4  12  24  41  66  93 128 162 201 258 314 360
#     4  11  22  42  63  93 128 164 206 253 303 364
#
# _framework density 10.313243
#
# number of rings (size 3 to 8) (size 9 to 14) (size 15 to 20)
#    0.000    0.800    3.000    5.400    0.000    4.800 
#    0.000    6.000    0.000    0.000    0.000    0.000 
#    0.000    0.000    0.000    0.000    0.000    0.000 
#
# Total GULP energy -247766.126961 kJ/mol
# GULP energy per Si atom -12388.306348 kJ/mol
# Density = 1.028977 g / cm^3
# Si number density = 10.313243 Si / 1000 Ang^3
#
#
#
# Elastic Constant Matrix: (Units=GPa)
#
#
# Indices 1 2 3 4 5 6 
#
# 1 131.2214 24.5457 33.0042 -0.0026 -15.6796 -0.0011
# 2 24.5457 78.2927 -1.8611 0.0034 1.9408 -0.0090
# 3 33.0042 -1.8611 90.7836 0.0205 0.1208 -0.0044
# 4 -0.0026 0.0034 0.0205 34.9875 -0.0064 -3.8451
# 5 -15.6796 1.9408 0.1208 -0.0064 29.3813 0.0016
# 6 -0.0011 -0.0090 -0.0044 -3.8451 0.0016 39.5302
#
#
#
# Elastic Compliance Matrix: (Units=1/GPa)
#
#
# Indices 1 2 3 4 5 6 
#
# 1 0.009806 -0.003296 -0.003640 0.000004 0.005466 -0.000001
# 2 -0.003296 0.013908 0.001487 -0.000003 -0.002684 0.000003
# 3 -0.003640 0.001487 0.012372 -0.000008 -0.002091 0.000001
# 4 0.000004 -0.000003 -0.000008 0.028890 0.000009 0.002810
# 5 0.005466 -0.002684 -0.002091 0.000009 0.037138 -0.000001
# 6 -0.000001 0.000003 0.000001 0.002810 -0.000001 0.025570
#
#
# Mechanical properties :
#
#
# Convention : Reuss Voigt Hill
#
# Bulk Modulus (GPa) = 39.70224 45.74170 42.72197
# Shear Modulus (GPa) = 34.01868 37.08705 35.55287
#
# Velocity S-wave (km/s) = 4.06553 4.24492 4.15619
# Velocity P-wave (km/s) = 6.42869 6.80074 6.61733
#
# Compressibility (1/GPa) = 0.02518750
#
# Stress axis : x y z
#
# Youngs Moduli (GPa) = 101.98006 71.90165 80.82963
#
# Poissons Ratio (x) = 0.23701 0.29420
# Poissons Ratio (y) = 0.33615 -0.12020
# Poissons Ratio (z) = 0.37118 -0.10692
#
# Static dielectric constant tensor:
#      x y z
#    x 3.955640 0.000000 -0.210290 
#    y 0.000000 3.054690 -0.000050 
#    z -0.210290 -0.000050 3.829450 
# 
# 
# High freq. dielectric constant tensor:
#      x y z
#    x 1.818320 0.000000 -0.018220 
#    y 0.000000 1.801490 0.000000 
#    z -0.018220 0.000000 1.819490 
# 
# From -- ./inp_files/380924.got.cif
#   From: 2010.06.25/outbox.ucp.g09.slc.cvg/sg12_191_cif.got.tgz:380924.got - 2010.06.28 13:50:54.
