data_PCOD8116935
_publ_section_title
;
Structure prediction by ZEFSAII (Michael W. Deem and Ramdas Pophale) SiO2 
 PCOD8116935
Probable space group: P 2/C
;
_chemical_formula_sum "Si O2"
_cell_formula_units_Z 24
_cell_length_a 9.099549
_cell_length_b 9.237635
_cell_length_c 19.604733
_cell_angle_alpha 90.000000
_cell_angle_beta 42.007181
_cell_angle_gamma 90.000000
_cell_volume 1102.841087
_symmetry_space_group_name_H-M "P 2/C"
_symmetry_group_IT_number 13
_symmetry_cell_setting 'monoclinic'
loop_
_space_group_symop_operation_xyz
x,y,z
-x,y,1/2-z
-x,-y,-z
x,-y,1/2+z
loop_
_atom_site_type_symbol
_atom_site_label
_atom_site_fract_x
_atom_site_fract_y
_atom_site_fract_z
Si Si1 0.189478 0.397514 0.408974
Si Si2 0.675753 0.543137 0.781534
Si Si3 0.422419 0.092581 0.962667
Si Si4 0.547575 0.659569 0.957779
Si Si5 0.823901 0.218731 0.752316
Si Si6 0.844102 0.167992 0.972147
O O1 0.185891 0.387081 0.328039
O O2 0.418380 0.468641 0.352965
O O3 0.149995 0.238835 0.454691
O O4 0.000000 0.500000 0.500000
O O5 0.702824 0.649708 0.837449
O O6 0.762340 0.386394 0.771385
O O7 0.612538 0.120169 0.841575
O O8 0.232363 0.998761 0.991704
O O9 0.334951 0.246659 0.022972
O O10 0.500000 0.000000 0.000000
O O11 0.316825 0.737440 0.020647
O O12 0.500000 0.500000 0.000000
O O13 0.000000 0.189002 0.750000
O O14 0.918279 0.170847 0.646117
#
# Coordination Sequence:
#
# PCOD8116935 Si02
#       6
#     4   4   4   4   4   4
#     4  10  20  39  66  92 124 169 223 275 324 378
#     4  10  21  34  63 101 124 168 217 278 318 389
#     4  10  20  34  59  89 133 170 199 262 330 397
#     4  10  17  33  58  93 129 160 207 269 323 382
#     4  12  19  35  66  93 131 171 216 262 346 392
#     4  10  21  36  63  90 125 172 211 267 327 394
#
# _framework density 21.761975
#
# number of rings (size 3 to 8) (size 9 to 14) (size 15 to 20)
#    0.000    1.667    6.667    0.000    0.000    0.000 
#    0.000    0.000   47.667   13.000    0.000    0.000 
#    0.000    0.000    0.000    0.000    0.000    0.000 
#
# Total GULP energy -297513.103109 kJ/mol
# GULP energy per Si atom -12396.379296 kJ/mol
# Density = 2.171244 g / cm^3
# Si number density = 21.761975 Si / 1000 Ang^3
#
#
#
# Elastic Constant Matrix: (Units=GPa)
#
#
# Indices 1 2 3 4 5 6 
#
# 1 24.4137 30.6669 35.6381 0.0000 12.5616 0.0000
# 2 30.6669 149.4123 70.9451 0.0000 11.7936 0.0000
# 3 35.6381 70.9451 197.8238 0.0000 23.2965 0.0000
# 4 0.0000 0.0000 0.0000 40.0943 0.0000 3.1212
# 5 12.5616 11.7936 23.2965 0.0000 26.0232 0.0000
# 6 0.0000 0.0000 0.0000 3.1212 0.0000 32.4044
#
#
#
# Elastic Compliance Matrix: (Units=1/GPa)
#
#
# Indices 1 2 3 4 5 6 
#
# 1 0.078478 -0.010584 -0.007206 0.000000 -0.026635 0.000000
# 2 -0.010584 0.009527 -0.001792 0.000000 0.002396 0.000000
# 3 -0.007206 -0.001792 0.007255 0.000000 -0.002205 0.000000
# 4 0.000000 0.000000 0.000000 0.025130 0.000000 -0.002420
# 5 -0.026635 0.002396 -0.002205 0.000000 0.052172 0.000000
# 6 0.000000 0.000000 0.000000 -0.002420 0.000000 0.031093
#
#
# Mechanical properties :
#
#
# Convention : Reuss Voigt Hill
#
# Bulk Modulus (GPa) = 17.82604 71.79445 44.81025
# Shear Modulus (GPa) = 19.11911 35.33104 27.22508
#
# Velocity S-wave (km/s) = 2.96726 4.03367 3.54084
# Velocity P-wave (km/s) = 4.46639 7.39975 6.11167
#
# Compressibility (1/GPa) = 0.05609770
#
# Stress axis : x y z
#
# Youngs Moduli (GPa) = 12.74236 104.96402 137.82743
#
# Poissons Ratio (x) = 1.11093 0.99313
# Poissons Ratio (y) = 0.13486 0.24700
# Poissons Ratio (z) = 0.09182 0.18811
#
# Static dielectric constant tensor:
#      x y z
#    x 4.050080 0.000000 0.420400 
#    y 0.000000 4.460000 0.000000 
#    z 0.420400 0.000000 4.503770 
# 
# 
# High freq. dielectric constant tensor:
#      x y z
#    x 1.822380 0.000000 0.018990 
#    y 0.000000 1.849390 0.000000 
#    z 0.018990 0.000000 1.871210 
# 
# From -- ./inp_files/86278.got.cif
#   From: 2010.06.25/outbox.cif.g09.slc.cpg/sg13_44_cif.got.tgz:86278.got - 2010.06.28 04:50:58.
