data_PCOD8116753
_publ_section_title
;
Structure prediction by ZEFSAII (Michael W. Deem and Ramdas Pophale) SiO2 
 PCOD8116753
Probable space group: P 2/C
;
_chemical_formula_sum "Si O2"
_cell_formula_units_Z 20
_cell_length_a 24.989415
_cell_length_b 8.487738
_cell_length_c 5.202162
_cell_angle_alpha 90.000000
_cell_angle_beta 71.663188
_cell_angle_gamma 90.000000
_cell_volume 1047.370721
_symmetry_space_group_name_H-M "P 2/C"
_symmetry_group_IT_number 13
_symmetry_cell_setting 'monoclinic'
loop_
_space_group_symop_operation_xyz
x,y,z
-x,y,1/2-z
-x,-y,-z
x,-y,1/2+z
loop_
_atom_site_type_symbol
_atom_site_label
_atom_site_fract_x
_atom_site_fract_y
_atom_site_fract_z
Si Si1 0.730188 0.901864 0.152713
Si Si2 0.064661 0.598573 0.668284
Si Si3 0.138220 0.903641 0.552580
Si Si4 0.653212 0.397376 0.751687
Si Si5 0.524725 0.323866 0.962687
O O1 0.698961 0.736896 0.220432
O O2 0.712512 0.010397 0.418809
O O3 0.796078 0.862157 0.060580
O O4 0.078100 0.471187 0.427958
O O5 0.104073 0.745859 0.558413
O O6 0.000000 0.654359 0.750000
O O7 0.121578 0.024374 0.352325
O O8 0.661795 0.474000 0.460291
O O9 0.591785 0.320554 0.864728
O O10 0.500000 0.234717 0.750000
O O11 0.500000 0.234673 0.250000
O O12 0.500000 0.500000 0.000000
#
# Coordination Sequence:
#
# PCOD8116753 Si02
#       5
#     4   4   4   4   4
#     4  10  23  41  55  77 117 151 175 225 289 326
#     4  10  21  36  56  85 119 148 177 230 289 320
#     4  10  21  38  59  79 107 152 194 224 265 327
#     4  12  21  33  59  88 101 137 190 227 263 325
#     4  10  16  30  49  78 105 131 163 226 268 309
#
# _framework density 19.095435999999999
#
# number of rings (size 3 to 8) (size 9 to 14) (size 15 to 20)
#    0.000    1.600    4.000    2.400    0.000    2.400 
#    0.000    0.000    0.000    3.600    0.000    0.000 
#    0.000    0.000    0.000    0.000    0.000    0.000 
#
# Total GULP energy -248037.591179 kJ/mol
# GULP energy per Si atom -12401.879559 kJ/mol
# Density = 1.905197 g / cm^3
# Si number density = 19.095436 Si / 1000 Ang^3
#
#
#
# Elastic Constant Matrix: (Units=GPa)
#
#
# Indices 1 2 3 4 5 6 
#
# 1 76.5574 41.9602 40.9111 0.0000 4.2272 0.0000
# 2 41.9602 62.0164 23.8346 0.0000 -15.7464 0.0000
# 3 40.9111 23.8346 104.6809 0.0000 19.8667 0.0000
# 4 0.0000 0.0000 0.0000 -8.9080 0.0000 47.9850
# 5 4.2272 -15.7464 19.8667 0.0000 30.3867 0.0000
# 6 0.0000 0.0000 0.0000 47.9850 0.0000 -110.7741
#
#
#
# Elastic Compliance Matrix: (Units=1/GPa)
#
#
# Indices 1 2 3 4 5 6 
#
# 1 0.026110 -0.019003 -0.003789 0.000000 -0.011002 0.000000
# 2 -0.019003 0.038130 -0.006287 0.000000 0.026513 0.000000
# 3 -0.003789 -0.006287 0.014823 0.000000 -0.012422 0.000000
# 4 0.000000 0.000000 0.000000 0.084189 0.000000 0.036469
# 5 -0.011002 0.026513 -0.012422 0.000000 0.056300 0.000000
# 6 0.000000 0.000000 0.000000 0.036469 0.000000 0.006770
#
#
# Mechanical properties :
#
#
# Convention : Reuss Voigt Hill
#
# Bulk Modulus (GPa) = 47.83714 50.74072 49.28893
# Shear Modulus (GPa) = 17.15570 -8.75582 4.19994
#
# Velocity S-wave (km/s) = 3.00062 -2.14365 1.48466
# Velocity P-wave (km/s) = 6.09187 4.52801 5.36720
#
# Compressibility (1/GPa) = 0.02090426
#
# Stress axis : x y z
#
# Youngs Moduli (GPa) = 38.29959 26.22591 67.46423
#
# Poissons Ratio (x) = 0.49837 0.25565
# Poissons Ratio (y) = 0.72781 0.42413
# Poissons Ratio (z) = 0.14513 0.16488
#
# Static dielectric constant tensor:
#      x y z
#    x 3.343150 0.000000 -0.228410 
#    y 0.000000 3.039810 0.000000 
#    z -0.228410 0.000000 3.236530 
# 
# 
# High freq. dielectric constant tensor:
#      x y z
#    x 1.753420 0.000000 0.013340 
#    y 0.000000 1.710930 0.000000 
#    z 0.013340 0.000000 1.767910 
# 
# From -- ./inp_files/7772.got.cif
#   From: 2010.06.25/outbox.cif.g09.slc.cpg/sg13_4_cif.got.tgz:7772.got - 2010.06.28 04:50:58.
