data_PCOD8116596
_publ_section_title
;
Structure prediction by ZEFSAII (Michael W. Deem and Ramdas Pophale) SiO2 
 PCOD8116596
Probable space group: C 2/M
;
_chemical_formula_sum "Si O2"
_cell_formula_units_Z 32
_cell_length_a 21.000000
_cell_length_b 24.000000
_cell_length_c 18.000000
_cell_angle_alpha 90.000000
_cell_angle_beta 160.000000
_cell_angle_gamma 90.000000
_cell_volume 3102.806740
_symmetry_space_group_name_H-M "C 2/M"
_symmetry_group_IT_number 12
_symmetry_cell_setting 'monoclinic'
loop_
_space_group_symop_operation_xyz
x,y,z
-x,y,-z
-x,-y,-z
x,-y,z
1/2+x,1/2+y,z
1/2-x,1/2+y,-z
1/2-x,1/2-y,-z
1/2+x,1/2-y,z
loop_
_atom_site_type_symbol
_atom_site_label
_atom_site_fract_x
_atom_site_fract_y
_atom_site_fract_z
Si Si1 0.416273 0.243212 0.325575
Si Si2 0.420090 0.358275 0.274289
Si Si3 0.580901 0.937320 0.920619
Si Si4 0.541154 0.936605 0.378422
Si Si5 0.300799 0.641925 0.974113
Si Si6 0.269913 0.744074 0.609964
Si Si7 0.589369 0.372459 0.179557
Si Si8 0.139121 0.356191 0.222292
O O1 0.500000 0.231463 0.500000
O O2 0.337845 0.306315 0.232240
O O3 0.253000 0.200219 0.125485
O O4 0.570176 0.240401 0.429851
O O5 0.635294 0.367592 0.538179
O O6 0.287191 0.410349 0.146714
O O7 0.396333 0.347050 0.159284
O O8 0.468566 0.935868 0.720671
O O9 0.437137 0.908145 0.816771
O O10 0.614330 0.000000 0.984460
O O11 0.379594 0.896222 0.227362
O O12 0.731907 0.912087 0.620881
O O13 0.517567 0.000000 0.382265
O O14 0.440555 0.605852 0.076333
O O15 0.250000 0.750000 0.500000
O O16 0.376778 0.689660 0.753310
O O17 0.385690 0.797731 0.763085
O O18 0.500000 0.372055 0.000000
O O19 0.000000 0.351891 0.000000
#
# Coordination Sequence:
#
# PCOD8116596 Si02
#       8
#     8   8   8   8   8   8   8   8
#     4  11  23  39  66  98 137 169 210 271 342 387
#     4  10  24  41  64  96 126 170 219 261 319 397
#     4  10  23  43  69  91 123 172 219 270 322 385
#     4  10  23  45  66  91 128 171 223 274 321 391
#     4  11  23  41  67  94 128 173 219 267 324 397
#     4  11  23  41  66  97 134 177 221 266 328 405
#     4  12  24  39  65  96 134 170 216 271 336 394
#     4  11  25  41  64  96 135 169 212 271 333 387
#
# _framework density 10.313243
#
# number of rings (size 3 to 8) (size 9 to 14) (size 15 to 20)
#    0.000    1.250    1.250    4.500    7.000    1.500 
#    0.000    3.750    0.000    0.000    0.000    0.000 
#    0.000    0.000    0.000    0.000    0.000    0.000 
#
# Total GULP energy -396532.791245 kJ/mol
# GULP energy per Si atom -12391.649726 kJ/mol
# Density = 1.028977 g / cm^3
# Si number density = 10.313243 Si / 1000 Ang^3
#
#
#
# Elastic Constant Matrix: (Units=GPa)
#
#
# Indices 1 2 3 4 5 6 
#
# 1 48.8093 22.2691 25.2407 0.0002 3.0536 0.0003
# 2 22.2691 135.4407 51.8716 0.0000 -1.4648 0.0001
# 3 25.2407 51.8716 152.6221 0.0008 -14.7296 0.0004
# 4 0.0002 0.0000 0.0008 23.6842 0.0003 -5.1293
# 5 3.0536 -1.4648 -14.7296 0.0003 30.7243 0.0001
# 6 0.0003 0.0001 0.0004 -5.1293 0.0001 16.9125
#
#
#
# Elastic Compliance Matrix: (Units=1/GPa)
#
#
# Indices 1 2 3 4 5 6 
#
# 1 0.023719 -0.002632 -0.003426 0.000000 -0.004125 0.000000
# 2 -0.002632 0.008811 -0.002615 0.000000 -0.000572 0.000000
# 3 -0.003426 -0.002615 0.008418 0.000000 0.004251 0.000000
# 4 0.000000 0.000000 0.000000 0.045190 -0.000001 0.013706
# 5 -0.004125 -0.000572 0.004251 -0.000001 0.034968 0.000000
# 6 0.000000 0.000000 0.000000 0.013706 0.000000 0.063285
#
#
# Mechanical properties :
#
#
# Convention : Reuss Voigt Hill
#
# Bulk Modulus (GPa) = 42.36972 59.51497 50.94234
# Shear Modulus (GPa) = 23.85446 30.09690 26.97568
#
# Velocity S-wave (km/s) = 3.40442 3.82401 3.62030
# Velocity P-wave (km/s) = 6.00329 6.95800 6.49820
#
# Compressibility (1/GPa) = 0.02360176
#
# Stress axis : x y z
#
# Youngs Moduli (GPa) = 42.16078 113.49141 118.79808
#
# Poissons Ratio (x) = 0.29874 0.40702
# Poissons Ratio (y) = 0.11098 0.31060
# Poissons Ratio (z) = 0.14445 0.29673
#
# Static dielectric constant tensor:
#      x y z
#    x 3.837570 0.000000 -0.072390 
#    y 0.000000 4.029290 0.000000 
#    z -0.072390 0.000000 4.135630 
# 
# 
# High freq. dielectric constant tensor:
#      x y z
#    x 1.808400 0.000000 -0.006540 
#    y 0.000000 1.810900 0.000000 
#    z -0.006540 0.000000 1.838950 
# 
# From -- ./inp_files/286463.got.cif
#   From: 2010.06.25/outbox.ucp.g09.slc.cvg/sg12_144_cif.got.tgz:286463.got - 2010.06.28 13:50:54.
