data_PCOD8116962
_publ_section_title
;
Structure prediction by ZEFSAII (Michael W. Deem and Ramdas Pophale) SiO2 
 PCOD8116962
Probable space group: P 2/C
;
_chemical_formula_sum "Si O2"
_cell_formula_units_Z 28
_cell_length_a 13.430989
_cell_length_b 9.661123
_cell_length_c 13.329475
_cell_angle_alpha 90.000000
_cell_angle_beta 127.527911
_cell_angle_gamma 90.000000
_cell_volume 1371.680248
_symmetry_space_group_name_H-M "P 2/C"
_symmetry_group_IT_number 13
_symmetry_cell_setting 'monoclinic'
loop_
_space_group_symop_operation_xyz
x,y,z
-x,y,1/2-z
-x,-y,-z
x,-y,1/2+z
loop_
_atom_site_type_symbol
_atom_site_label
_atom_site_fract_x
_atom_site_fract_y
_atom_site_fract_z
Si Si1 0.384990 0.400219 0.243405
Si Si2 0.845122 0.507368 0.513878
Si Si3 0.244558 0.864602 0.171813
Si Si4 0.987670 0.294674 0.956124
Si Si5 0.212605 0.168620 0.216538
Si Si6 0.258126 0.245247 0.454568
Si Si7 0.529915 0.680311 0.152000
O O1 0.500000 0.337921 0.250000
O O2 0.322179 0.279863 0.268344
O O3 0.426559 0.522935 0.346254
O O4 0.292495 0.461990 0.103313
O O5 0.904418 0.589324 0.457854
O O6 0.823103 0.610256 0.594309
O O7 0.934044 0.371343 0.586147
O O8 0.112526 0.819057 0.143523
O O9 0.358070 0.789344 0.300160
O O10 0.257720 0.027840 0.193100
O O11 0.243105 0.832157 0.051803
O O12 0.082240 0.220954 0.091133
O O13 0.199598 0.152504 0.329393
O O14 0.404239 0.274279 0.516960
O O15 0.500000 0.680961 0.250000
#
# Coordination Sequence:
#
# PCOD8116962 Si02
#       7
#     4   4   4   4   4   4   4
#     4  10  17  35  58  85 112 145 191 241 290 339
#     4   9  16  32  60  84 103 148 193 237 282 340
#     4  10  20  38  59  79 118 161 189 233 286 347
#     4   9  18  34  59  81 111 149 195 234 289 336
#     4  11  24  33  57  91 116 150 195 238 286 350
#     4  10  20  37  60  83 117 154 193 236 298 343
#     4   9  16  34  60  78 109 157 185 227 295 344
#
# _framework density 20.412921999999998
#
# number of rings (size 3 to 8) (size 9 to 14) (size 15 to 20)
#    0.000    2.286    5.714    0.429    0.000    5.143 
#    0.000    0.000    3.143    3.429    0.000    0.000 
#    0.000    0.000    0.000    0.000    0.000    0.000 
#
# Total GULP energy -346931.700095 kJ/mol
# GULP energy per Si atom -12390.417861 kJ/mol
# Density = 2.036646 g / cm^3
# Si number density = 20.412922 Si / 1000 Ang^3
#
#
#
# Elastic Constant Matrix: (Units=GPa)
#
#
# Indices 1 2 3 4 5 6 
#
# 1 82.9224 42.3760 41.7297 0.0000 26.5126 0.0000
# 2 42.3760 113.9930 41.5844 0.0000 6.3306 0.0000
# 3 41.7297 41.5844 54.8302 0.0000 12.9029 0.0000
# 4 0.0000 0.0000 0.0000 4.8225 0.0000 -10.3295
# 5 26.5126 6.3306 12.9029 0.0000 29.7015 0.0000
# 6 0.0000 0.0000 0.0000 -10.3295 0.0000 11.8394
#
#
#
# Elastic Compliance Matrix: (Units=1/GPa)
#
#
# Indices 1 2 3 4 5 6 
#
# 1 0.025848 -0.004063 -0.012659 0.000000 -0.016708 0.000000
# 2 -0.004063 0.012833 -0.007630 0.000000 0.004206 0.000000
# 3 -0.012659 -0.007630 0.034104 0.000000 -0.001889 0.000000
# 4 0.000000 0.000000 0.000000 -0.238681 0.000000 -0.208242
# 5 -0.016708 0.004206 -0.001889 0.000000 0.048506 0.000000
# 6 0.000000 0.000000 0.000000 -0.208242 0.000000 -0.097221
#
#
# Mechanical properties :
#
#
# Convention : Reuss Voigt Hill
#
# Bulk Modulus (GPa) = 41.52769 55.90287 48.71528
# Shear Modulus (GPa) = -31.66992 17.67637 -6.99678
#
# Velocity S-wave (km/s) = -3.94314 2.94588 -1.85339
# Velocity P-wave (km/s) = 0.58576 6.24631 4.39735
#
# Compressibility (1/GPa) = 0.02408032
#
# Stress axis : x y z
#
# Youngs Moduli (GPa) = 38.68724 77.92552 29.32188
#
# Poissons Ratio (x) = 0.31661 0.37119
# Poissons Ratio (y) = 0.15719 0.22373
# Poissons Ratio (z) = 0.48975 0.59459
#
# Static dielectric constant tensor:
#      x y z
#    x 3.958250 0.000000 0.574030 
#    y 0.000000 3.962410 0.000000 
#    z 0.574030 0.000000 3.504120 
# 
# 
# High freq. dielectric constant tensor:
#      x y z
#    x 1.795200 0.000000 0.038680 
#    y 0.000000 1.789760 0.000000 
#    z 0.038680 0.000000 1.770520 
# 
# From -- ./inp_files/53106.got.cif
#   From: 2010.06.25/outbox.cif.g09.slc.cpg/sg13_27_cif.got.tgz:53106.got - 2010.06.28 04:50:58.
