data_PCOD8116431
_publ_section_title
;
Structure prediction by ZEFSAII (Michael W. Deem and Ramdas Pophale) SiO2 
 PCOD8116431
Probable space group: C 2/M
;
_chemical_formula_sum "Si O2"
_cell_formula_units_Z 32
_cell_length_a 30.000000
_cell_length_b 9.000000
_cell_length_c 18.000000
_cell_angle_alpha 90.000000
_cell_angle_beta 40.000000
_cell_angle_gamma 90.000000
_cell_volume 3123.947783
_symmetry_space_group_name_H-M "C 2/M"
_symmetry_group_IT_number 12
_symmetry_cell_setting 'monoclinic'
loop_
_space_group_symop_operation_xyz
x,y,z
-x,y,-z
-x,-y,-z
x,-y,z
1/2+x,1/2+y,z
1/2-x,1/2+y,-z
1/2-x,1/2-y,-z
1/2+x,1/2-y,z
loop_
_atom_site_type_symbol
_atom_site_label
_atom_site_fract_x
_atom_site_fract_y
_atom_site_fract_z
Si Si1 0.835613 0.674695 0.057268
Si Si2 0.699729 0.833845 0.187061
Si Si3 0.609334 0.175316 0.170199
Si Si4 0.305145 0.334264 0.330762
Si Si5 0.431850 0.836138 0.542040
Si Si6 0.173997 0.834546 0.522965
Si Si7 0.036368 0.829617 0.632849
Si Si8 0.420013 0.176429 0.093297
O O1 0.827075 0.500000 0.073631
O O2 0.758729 0.741381 0.153874
O O3 0.884843 0.732005 0.061227
O O4 0.872932 0.726263 0.934935
O O5 0.670258 0.762848 0.147130
O O6 0.633969 0.835580 0.322643
O O7 0.728630 0.000000 0.136495
O O8 0.532740 0.233845 0.282241
O O9 0.606683 0.000000 0.184912
O O10 0.307914 0.500000 0.293012
O O11 0.230717 0.261540 0.404131
O O12 0.306316 0.338896 0.417066
O O13 0.371915 0.241884 0.219329
O O14 0.500000 0.796086 0.500000
O O15 0.422142 0.704575 0.495553
O O16 0.439646 0.000000 0.494984
O O17 0.093804 0.778181 0.620561
O O18 0.177025 0.000000 0.484446
O O19 0.014889 0.000000 0.669240
O O20 0.419096 0.000000 0.100939
O O21 0.500000 0.233404 0.000000
#
# Coordination Sequence:
#
# PCOD8116431 Si02
#       8
#     8   8   8   8   8   8   8   8
#     4  10  23  40  61  87 115 152 198 243 290 345
#     4  10  21  38  61  86 117 154 194 243 292 341
#     4  10  21  40  61  84 116 156 200 241 287 346
#     4  10  21  39  63  88 114 150 195 239 289 346
#     4  10  20  38  58  81 117 157 192 231 281 341
#     4   9  21  40  59  86 121 151 186 238 293 346
#     4  11  23  36  57  88 119 152 190 240 292 341
#     4  10  23  42  61  86 120 156 193 239 293 348
#
# _framework density 10.243449
#
# number of rings (size 3 to 8) (size 9 to 14) (size 15 to 20)
#    0.000    2.000    1.250    1.125    3.500    4.000 
#    0.000    0.000    0.000    0.000    0.000    0.000 
#    0.000    0.000    0.000    0.000    0.000    0.000 
#
# Total GULP energy -396556.795839 kJ/mol
# GULP energy per Si atom -12392.399870 kJ/mol
# Density = 1.022013 g / cm^3
# Si number density = 10.243449 Si / 1000 Ang^3
#
#
#
# Elastic Constant Matrix: (Units=GPa)
#
#
# Indices 1 2 3 4 5 6 
#
# 1 121.8013 27.4585 38.4057 0.0005 -35.8523 -0.0049
# 2 27.4585 18.7242 27.5316 -0.0134 -8.1234 -0.0006
# 3 38.4057 27.5316 72.7033 0.0014 -19.3360 -0.0011
# 4 0.0005 -0.0134 0.0014 41.5856 0.0020 -12.1380
# 5 -35.8523 -8.1234 -19.3360 0.0020 32.0964 -0.0011
# 6 -0.0049 -0.0006 -0.0011 -12.1380 -0.0011 28.1136
#
#
#
# Elastic Compliance Matrix: (Units=1/GPa)
#
#
# Indices 1 2 3 4 5 6 
#
# 1 0.016870 -0.024776 0.004543 -0.000009 0.015309 -0.000001
# 2 -0.024776 0.157239 -0.051480 0.000060 -0.018892 0.000023
# 3 0.004543 -0.051480 0.034216 -0.000021 0.012658 -0.000007
# 4 -0.000009 0.000060 -0.000021 0.027514 -0.000009 0.011879
# 5 0.015309 -0.018892 0.012658 -0.000009 0.051101 0.000001
# 6 -0.000001 0.000023 -0.000007 0.011879 0.000001 0.040699
#
#
# Mechanical properties :
#
#
# Convention : Reuss Voigt Hill
#
# Bulk Modulus (GPa) = 15.40904 44.44670 29.92787
# Shear Modulus (GPa) = 10.14821 28.34801 19.24811
#
# Velocity S-wave (km/s) = 2.22806 3.72387 3.06850
# Velocity P-wave (km/s) = 3.76255 6.34286 5.21482
#
# Compressibility (1/GPa) = 0.06489696
#
# Stress axis : x y z
#
# Youngs Moduli (GPa) = 59.27855 6.35975 29.22601
#
# Poissons Ratio (x) = 0.15757 -0.13276
# Poissons Ratio (y) = 1.46868 1.50457
# Poissons Ratio (z) = -0.26927 0.32740
#
# Static dielectric constant tensor:
#      x y z
#    x 4.003960 -0.000010 -0.133660 
#    y -0.000010 3.848690 0.000030 
#    z -0.133660 0.000030 3.612480 
# 
# 
# High freq. dielectric constant tensor:
#      x y z
#    x 1.813580 0.000000 -0.016920 
#    y 0.000000 1.784240 0.000000 
#    z -0.016920 0.000000 1.797450 
# 
# From -- ./inp_files/295528.got.cif
#   From: 2010.06.25/outbox.ucp.g09.slc.cvg/sg12_148_cif.got.tgz:295528.got - 2010.06.28 13:50:54.
