data_PCOD8116836
_publ_section_title
;
Structure prediction by ZEFSAII (Michael W. Deem and Ramdas Pophale) SiO2 
 PCOD8116836
Probable space group: P 2/C
;
_chemical_formula_sum "Si O2"
_cell_formula_units_Z 22
_cell_length_a 14.861848
_cell_length_b 13.290349
_cell_length_c 10.738702
_cell_angle_alpha 90.000000
_cell_angle_beta 150.921338
_cell_angle_gamma 90.000000
_cell_volume 1030.875318
_symmetry_space_group_name_H-M "P 2/C"
_symmetry_group_IT_number 13
_symmetry_cell_setting 'monoclinic'
loop_
_space_group_symop_operation_xyz
x,y,z
-x,y,1/2-z
-x,-y,-z
x,-y,1/2+z
loop_
_atom_site_type_symbol
_atom_site_label
_atom_site_fract_x
_atom_site_fract_y
_atom_site_fract_z
Si Si1 0.180540 0.777770 0.554386
Si Si2 0.109904 0.209327 0.608144
Si Si3 0.807744 0.558456 0.278882
Si Si4 0.297116 0.065643 0.026902
Si Si5 0.222326 0.435606 0.029995
Si Si6 0.000000 0.912250 0.750000
O O1 0.305254 0.874026 0.668877
O O2 0.289431 0.673664 0.661091
O O3 0.104090 0.789492 0.602221
O O4 0.000000 0.780237 0.250000
O O5 0.174836 0.323601 0.676805
O O6 0.248974 0.146685 0.862737
O O7 0.116689 0.158527 0.481996
O O8 0.704355 0.514561 0.276975
O O9 0.698719 0.542224 0.014636
O O10 0.000000 0.500000 0.500000
O O11 0.142902 0.979197 0.843336
O O12 0.500000 0.018443 0.250000
O O13 0.000000 0.436549 0.750000
#
# Coordination Sequence:
#
# PCOD8116836 Si02
#       6
#     4   4   4   4   4   2
#     4   9  15  34  57  80 114 152 198 239 283 355
#     4  11  21  38  59  93 125 154 205 253 302 363
#     4  10  17  27  54  90 121 154 198 241 298 367
#     4  11  23  42  65  84 116 166 207 251 305 365
#     4   9  15  26  48  84 118 148 195 239 285 359
#     4  12  26  38  60  92 126 150 204 266 302 358
#
# _framework density 21.341087000000002
#
# number of rings (size 3 to 8) (size 9 to 14) (size 15 to 20)
#    0.000    1.818   10.000    0.545    3.818    0.727 
#    0.000    0.000    0.000    1.091    0.000    1.273 
#    0.000    0.000    0.000    0.000    0.000    0.000 
#
# Total GULP energy -272580.625680 kJ/mol
# GULP energy per Si atom -12390.028440 kJ/mol
# Density = 2.129251 g / cm^3
# Si number density = 21.341087 Si / 1000 Ang^3
#
#
#
# Elastic Constant Matrix: (Units=GPa)
#
#
# Indices 1 2 3 4 5 6 
#
# 1 83.6559 52.4986 21.8972 0.0000 -19.5870 0.0000
# 2 52.4986 116.1771 26.2222 0.0000 -13.7698 0.0000
# 3 21.8972 26.2222 45.5611 0.0000 7.5975 0.0000
# 4 0.0000 0.0000 0.0000 4.3302 0.0000 -16.4620
# 5 -19.5870 -13.7698 7.5975 0.0000 21.8066 0.0000
# 6 0.0000 0.0000 0.0000 -16.4620 0.0000 33.0288
#
#
#
# Elastic Compliance Matrix: (Units=1/GPa)
#
#
# Indices 1 2 3 4 5 6 
#
# 1 0.023569 -0.005367 -0.011894 0.000000 0.021925 0.000000
# 2 -0.005367 0.012979 -0.005789 0.000000 0.005392 0.000000
# 3 -0.011894 -0.005789 0.035448 0.000000 -0.026689 0.000000
# 4 0.000000 0.000000 0.000000 -0.258088 0.000000 -0.128634
# 5 0.021925 0.005392 -0.026689 0.000000 0.078254 0.000000
# 6 0.000000 0.000000 0.000000 -0.128634 0.000000 -0.033836
#
#
# Mechanical properties :
#
#
# Convention : Reuss Voigt Hill
#
# Bulk Modulus (GPa) = 38.61993 49.62556 44.12275
# Shear Modulus (GPa) = -57.50886 21.48488 -18.01199
#
# Velocity S-wave (km/s) = -5.19673 3.17636 -2.90833
# Velocity P-wave (km/s) = 4.22755 6.06270 3.07280
#
# Compressibility (1/GPa) = 0.02589337
#
# Stress axis : x y z
#
# Youngs Moduli (GPa) = 42.42936 77.05032 28.21057
#
# Poissons Ratio (x) = 0.41353 0.33555
# Poissons Ratio (y) = 0.22772 0.16332
# Poissons Ratio (z) = 0.50467 0.44607
#
# Static dielectric constant tensor:
#      x y z
#    x 4.834650 0.000000 -0.251330 
#    y 0.000000 4.010340 0.000000 
#    z -0.251330 0.000000 3.368830 
# 
# 
# High freq. dielectric constant tensor:
#      x y z
#    x 1.841240 0.000000 -0.011980 
#    y 0.000000 1.842500 0.000000 
#    z -0.011980 0.000000 1.775390 
# 
# From -- ./inp_files/37262.got.cif
#   From: 2010.06.25/outbox.cif.g09.slc.cpg/sg13_19_cif.got.tgz:37262.got - 2010.06.28 04:50:58.
