data_PCOD8116663
_publ_section_title
;
Structure prediction by ZEFSAII (Michael W. Deem and Ramdas Pophale) SiO2 
 PCOD8116663
Probable space group: P 2/C
;
_chemical_formula_sum "Si O2"
_cell_formula_units_Z 20
_cell_length_a 8.911654
_cell_length_b 21.479812
_cell_length_c 5.365069
_cell_angle_alpha 90.000000
_cell_angle_beta 59.852992
_cell_angle_gamma 90.000000
_cell_volume 888.074675
_symmetry_space_group_name_H-M "P 2/C"
_symmetry_group_IT_number 13
_symmetry_cell_setting 'monoclinic'
loop_
_space_group_symop_operation_xyz
x,y,z
-x,y,1/2-z
-x,-y,-z
x,-y,1/2+z
loop_
_atom_site_type_symbol
_atom_site_label
_atom_site_fract_x
_atom_site_fract_y
_atom_site_fract_z
Si Si1 0.802343 0.025482 0.656667
Si Si2 0.000000 0.381176 0.250000
Si Si3 0.500000 0.635493 0.750000
Si Si4 0.718213 0.460366 0.305737
Si Si5 0.890592 0.162488 0.590427
Si Si6 0.818680 0.705232 0.254859
O O1 0.780984 0.099727 0.650637
O O2 0.708965 0.996874 0.489343
O O3 0.000000 0.000000 0.500000
O O4 0.903592 0.425118 0.128534
O O5 0.848185 0.339375 0.494872
O O6 0.437176 0.590157 0.579326
O O7 0.658933 0.679442 0.543406
O O8 0.703204 0.493351 0.585017
O O9 0.770856 0.224139 0.713908
O O10 0.000000 0.153504 0.750000
O O11 0.000000 0.172713 0.250000
O O12 0.000000 0.706597 0.250000
#
# Coordination Sequence:
#
# PCOD8116663 Si02
#       6
#     4   2   2   4   4   4
#     4  10  15  25  46  82 123 162 209 267 318 375
#     4  12  24  46  72 102 138 176 222 282 344 418
#     4  12  26  50  74  98 136 178 230 280 342 412
#     4  12  27  47  72 104 135 174 221 283 344 416
#     4  11  19  33  55  87 130 166 218 272 321 387
#     4  11  25  45  66  99 133 180 223 281 336 401
#
# _framework density 22.520630000000001
#
# number of rings (size 3 to 8) (size 9 to 14) (size 15 to 20)
#    0.000    0.800    7.000    2.400    0.000    2.400 
#    0.000    0.000    0.000    0.000    0.000    1.400 
#    0.000    0.000    0.000    0.000    0.000    0.000 
#
# Total GULP energy -247860.900133 kJ/mol
# GULP energy per Si atom -12393.045007 kJ/mol
# Density = 2.246937 g / cm^3
# Si number density = 22.520630 Si / 1000 Ang^3
#
#
#
# Elastic Constant Matrix: (Units=GPa)
#
#
# Indices 1 2 3 4 5 6 
#
# 1 79.2642 59.2841 47.4522 0.0000 6.6626 0.0000
# 2 59.2841 194.6433 46.9275 0.0000 -2.3966 0.0000
# 3 47.4522 46.9275 105.5624 0.0000 19.8393 0.0000
# 4 0.0000 0.0000 0.0000 24.6210 0.0000 9.8793
# 5 6.6626 -2.3966 19.8393 0.0000 42.6701 0.0000
# 6 0.0000 0.0000 0.0000 9.8793 0.0000 12.9104
#
#
#
# Elastic Compliance Matrix: (Units=1/GPa)
#
#
# Indices 1 2 3 4 5 6 
#
# 1 0.020186 -0.004443 -0.007078 0.000000 -0.000111 0.000000
# 2 -0.004443 0.006841 -0.001366 0.000000 0.001713 0.000000
# 3 -0.007078 -0.001366 0.014320 0.000000 -0.005630 0.000000
# 4 0.000000 0.000000 0.000000 0.058612 0.000000 -0.044851
# 5 -0.000111 0.001713 -0.005630 0.000000 0.026167 0.000000
# 6 0.000000 0.000000 0.000000 -0.044851 0.000000 0.111778
#
#
# Mechanical properties :
#
#
# Convention : Reuss Voigt Hill
#
# Bulk Modulus (GPa) = 64.21353 76.31080 70.26217
# Shear Modulus (GPa) = 18.59641 31.09404 24.84523
#
# Velocity S-wave (km/s) = 2.87670 3.71980 3.32508
# Velocity P-wave (km/s) = 6.29357 7.23931 6.78294
#
# Compressibility (1/GPa) = 0.01557304
#
# Stress axis : x y z
#
# Youngs Moduli (GPa) = 49.54021 146.17143 69.83245
#
# Poissons Ratio (x) = 0.64944 0.49427
# Poissons Ratio (y) = 0.22011 0.09539
# Poissons Ratio (z) = 0.35064 0.19967
#
# Static dielectric constant tensor:
#      x y z
#    x 4.115850 0.000000 0.509480 
#    y 0.000000 4.657720 0.000000 
#    z 0.509480 0.000000 4.200500 
# 
# 
# High freq. dielectric constant tensor:
#      x y z
#    x 1.858030 0.000000 0.034020 
#    y 0.000000 1.911980 0.000000 
#    z 0.034020 0.000000 1.881490 
# 
# From -- ./inp_files/1982.got.cif
#   From: 2010.06.25/outbox.cif.g09.slc.cpg/sg13_1_cif.got.tgz:1982.got - 2010.06.28 04:50:58.
