data_PCOD8116615
_publ_section_title
;
Structure prediction by ZEFSAII (Michael W. Deem and Ramdas Pophale) SiO2 
 PCOD8116615
Probable space group: C 2/M
;
_chemical_formula_sum "Si O2"
_cell_formula_units_Z 32
_cell_length_a 9.000000
_cell_length_b 18.000000
_cell_length_c 30.000000
_cell_angle_alpha 90.000000
_cell_angle_beta 40.000000
_cell_angle_gamma 90.000000
_cell_volume 3123.947783
_symmetry_space_group_name_H-M "C 2/M"
_symmetry_group_IT_number 12
_symmetry_cell_setting 'monoclinic'
loop_
_space_group_symop_operation_xyz
x,y,z
-x,y,-z
-x,-y,-z
x,-y,z
1/2+x,1/2+y,z
1/2-x,1/2+y,-z
1/2-x,1/2-y,-z
1/2+x,1/2-y,z
loop_
_atom_site_type_symbol
_atom_site_label
_atom_site_fract_x
_atom_site_fract_y
_atom_site_fract_z
Si Si1 0.245242 0.414052 0.056676
Si Si2 0.354333 0.682844 0.169655
Si Si3 0.166959 0.917663 0.317142
Si Si4 0.792062 0.325503 0.015468
Si Si5 0.077108 0.582409 0.290224
Si Si6 0.778068 0.584107 0.532439
Si Si7 0.251781 0.415792 0.560860
Si Si8 0.966466 0.668603 0.190233
O O1 0.274431 0.500000 0.046839
O O2 0.096502 0.396355 0.134213
O O3 0.500000 0.376033 0.000000
O O4 0.124852 0.386753 0.039021
O O5 0.561904 0.646026 0.093970
O O6 0.297440 0.632051 0.226017
O O7 0.434213 0.763857 0.164791
O O8 0.122554 0.694913 0.195175
O O9 0.405576 0.924179 0.288401
O O10 0.217401 0.862505 0.264288
O O11 0.966863 0.881898 0.395067
O O12 0.098977 0.000000 0.315351
O O13 0.750000 0.250000 0.000000
O O14 0.000000 0.310789 0.000000
O O15 0.166019 0.500000 0.283485
O O16 0.936843 0.621685 0.363344
O O17 0.772177 0.500000 0.551726
O O18 0.843778 0.584717 0.466115
O O19 0.000000 0.628551 0.500000
O O20 0.500000 0.374279 0.500000
O O21 0.294525 0.500000 0.570224
#
# Coordination Sequence:
#
# PCOD8116615 Si02
#       8
#     8   8   8   8   8   8   8   8
#     4  11  23  40  63  92 118 147 193 243 293 347
#     4  11  23  38  61  84 113 154 191 233 285 343
#     4   9  17  32  55  81 109 142 185 234 281 331
#     4  12  23  40  65  88 118 156 200 239 286 345
#     4   9  18  33  56  85 110 141 190 239 282 333
#     4   9  16  27  46  76 109 141 177 223 282 338
#     4   9  14  26  50  77 105 138 183 231 275 328
#     4  11  22  39  60  84 113 152 193 233 282 345
#
# _framework density 10.243449
#
# number of rings (size 3 to 8) (size 9 to 14) (size 15 to 20)
#    0.000    1.875    3.750    1.500    0.000    1.250 
#    2.250    0.000    0.000    1.500    0.000    0.000 
#    0.000    0.000    0.000    0.000    0.000    0.000 
#
# Total GULP energy -396464.112757 kJ/mol
# GULP energy per Si atom -12389.503524 kJ/mol
# Density = 1.022013 g / cm^3
# Si number density = 10.243449 Si / 1000 Ang^3
#
#
#
# Elastic Constant Matrix: (Units=GPa)
#
#
# Indices 1 2 3 4 5 6 
#
# 1 60.0189 20.0967 20.7930 -0.0043 -1.4505 0.0015
# 2 20.0967 44.2251 28.3996 -0.0066 3.4667 0.0046
# 3 20.7930 28.3996 145.7418 0.0057 10.5165 -0.0003
# 4 -0.0043 -0.0066 0.0057 12.6636 0.0019 0.8628
# 5 -1.4505 3.4667 10.5165 0.0019 21.3101 0.0025
# 6 0.0015 0.0046 -0.0003 0.8628 0.0025 6.0877
#
#
#
# Elastic Compliance Matrix: (Units=1/GPa)
#
#
# Indices 1 2 3 4 5 6 
#
# 1 0.020085 -0.008456 -0.001468 0.000003 0.003467 0.000000
# 2 -0.008456 0.029471 -0.004302 0.000016 -0.003247 -0.000021
# 3 -0.001468 -0.004302 0.008156 -0.000006 -0.003425 0.000006
# 4 0.000003 0.000016 -0.000006 0.079736 -0.000005 -0.011300
# 5 0.003467 -0.003247 -0.003425 -0.000005 0.049381 -0.000018
# 6 0.000000 -0.000021 0.000006 -0.011300 -0.000018 0.165866
#
#
# Mechanical properties :
#
#
# Convention : Reuss Voigt Hill
#
# Bulk Modulus (GPa) = 34.17587 43.17383 38.67485
# Shear Modulus (GPa) = 12.79092 20.05872 16.42482
#
# Velocity S-wave (km/s) = 2.50140 3.13245 2.83454
# Velocity P-wave (km/s) = 5.00607 5.84830 5.44350
#
# Compressibility (1/GPa) = 0.02926041
#
# Stress axis : x y z
#
# Youngs Moduli (GPa) = 49.78779 33.93115 122.60369
#
# Poissons Ratio (x) = 0.28693 0.17998
# Poissons Ratio (y) = 0.42102 0.52746
# Poissons Ratio (z) = 0.07309 0.14598
#
# Static dielectric constant tensor:
#      x y z
#    x 1.060020 -0.001580 -0.318720 
#    y -0.001580 3.526140 -0.000190 
#    z -0.318720 -0.000190 4.092700 
# 
# 
# High freq. dielectric constant tensor:
#      x y z
#    x 1.767340 0.000000 0.006800 
#    y 0.000000 1.744100 0.000000 
#    z 0.006800 0.000000 1.819950 
# 
# From -- ./inp_files/372920.got.cif
#   From: 2010.06.25/outbox.ucp.g09.slc.cvg/sg12_187_cif.got.tgz:372920.got - 2010.06.28 13:50:54.
