data_PCOD8116192
_publ_section_title
;
Structure prediction by ZEFSAII (Michael W. Deem and Ramdas Pophale) SiO2 
 PCOD8116192
Probable space group: C 2/M
;
_chemical_formula_sum "Si O2"
_cell_formula_units_Z 32
_cell_length_a 18.000000
_cell_length_b 9.000000
_cell_length_c 30.000000
_cell_angle_alpha 90.000000
_cell_angle_beta 40.000000
_cell_angle_gamma 90.000000
_cell_volume 3123.947783
_symmetry_space_group_name_H-M "C 2/M"
_symmetry_group_IT_number 12
_symmetry_cell_setting 'monoclinic'
loop_
_space_group_symop_operation_xyz
x,y,z
-x,y,-z
-x,-y,-z
x,-y,z
1/2+x,1/2+y,z
1/2-x,1/2+y,-z
1/2-x,1/2-y,-z
1/2+x,1/2-y,z
loop_
_atom_site_type_symbol
_atom_site_label
_atom_site_fract_x
_atom_site_fract_y
_atom_site_fract_z
Si Si1 0.465179 0.669580 0.647771
Si Si2 0.680061 0.330210 0.494115
Si Si3 0.673873 0.830500 0.999487
Si Si4 0.354249 0.674538 0.851306
Si Si5 0.992270 0.666712 0.718433
Si Si6 0.260369 0.167503 0.362651
Si Si7 0.485913 0.174030 0.149320
Si Si8 0.245749 0.826633 0.723411
O O1 0.424062 0.500000 0.672635
O O2 0.543778 0.684301 0.567487
O O3 0.535881 0.727204 0.658218
O O4 0.359015 0.783463 0.698558
O O5 0.722429 0.500000 0.475109
O O6 0.750000 0.250000 0.500000
O O7 0.705734 0.266342 0.433267
O O8 0.720896 0.788186 0.928162
O O9 0.706178 0.000000 0.991569
O O10 0.750000 0.750000 0.000000
O O11 0.539381 0.802750 0.074308
O O12 0.374211 0.500000 0.833647
O O13 0.380205 0.763046 0.794064
O O14 0.442060 0.730087 0.848727
O O15 0.962346 0.500000 0.716178
O O16 0.100703 0.663904 0.701922
O O17 0.223283 0.278049 0.340954
O O18 0.213113 0.000000 0.375186
O O19 0.356593 0.233207 0.207484
O O20 0.488214 0.000000 0.161700
O O21 0.218226 0.000000 0.738636
#
# Coordination Sequence:
#
# PCOD8116192 Si02
#       8
#     8   8   8   8   8   8   8   8
#     4  11  24  41  61  84 113 149 189 233 285 341
#     4  10  21  38  62  87 112 145 184 231 282 335
#     4   8  16  28  46  75 110 145 182 228 278 328
#     4  10  18  30  51  82 115 146 187 233 277 328
#     4  11  21  35  58  85 116 151 188 231 281 333
#     4  10  21  38  60  85 115 149 185 229 281 335
#     4  10  18  32  53  78 111 150 188 230 283 332
#     4  12  25  39  57  83 116 152 192 235 281 336
#
# _framework density 10.243449
#
# number of rings (size 3 to 8) (size 9 to 14) (size 15 to 20)
#    0.000    1.750    2.500    2.625    0.000    3.000 
#    0.000    2.500    0.000    0.750    0.000    5.250 
#    0.000    0.000    0.000    0.000    0.000    0.000 
#
# Total GULP energy -396510.414684 kJ/mol
# GULP energy per Si atom -12390.950459 kJ/mol
# Density = 1.022013 g / cm^3
# Si number density = 10.243449 Si / 1000 Ang^3
#
#
#
# Elastic Constant Matrix: (Units=GPa)
#
#
# Indices 1 2 3 4 5 6 
#
# 1 21.1921 12.3017 6.1329 0.0008 -4.8271 0.0048
# 2 12.3017 77.8562 41.3188 0.0022 5.8367 0.0055
# 3 6.1329 41.3188 125.7562 -0.0005 7.8082 -0.0008
# 4 0.0008 0.0022 -0.0005 27.8834 0.0000 4.2402
# 5 -4.8271 5.8367 7.8082 0.0000 19.4096 0.0007
# 6 0.0048 0.0055 -0.0008 4.2402 0.0007 26.1070
#
#
#
# Elastic Compliance Matrix: (Units=1/GPa)
#
#
# Indices 1 2 3 4 5 6 
#
# 1 0.057157 -0.010035 -0.000574 0.000001 0.017463 -0.000009
# 2 -0.010035 0.017457 -0.004887 -0.000001 -0.005779 -0.000002
# 3 -0.000574 -0.004887 0.009747 0.000000 -0.002594 0.000001
# 4 0.000001 -0.000001 0.000000 0.036772 0.000000 -0.005972
# 5 0.017463 -0.005779 -0.002594 0.000000 0.058645 -0.000004
# 6 -0.000009 -0.000002 0.000001 -0.005972 -0.000004 0.039274
#
#
# Mechanical properties :
#
#
# Convention : Reuss Voigt Hill
#
# Bulk Modulus (GPa) = 18.73860 38.25681 28.49771
# Shear Modulus (GPa) = 18.66822 25.68340 22.17581
#
# Velocity S-wave (km/s) = 3.02193 3.54453 3.29361
# Velocity P-wave (km/s) = 4.61980 5.95533 5.32956
#
# Compressibility (1/GPa) = 0.05336578
#
# Stress axis : x y z
#
# Youngs Moduli (GPa) = 17.49576 57.28391 102.59751
#
# Poissons Ratio (x) = 0.57487 0.05894
# Poissons Ratio (y) = 0.17558 0.50144
# Poissons Ratio (z) = 0.01005 0.27997
#
# Static dielectric constant tensor:
#      x y z
#    x 3.133320 0.000000 0.083950 
#    y 0.000000 3.676060 0.000000 
#    z 0.083950 0.000000 4.414060 
# 
# 
# High freq. dielectric constant tensor:
#      x y z
#    x 1.743860 0.000000 0.007360 
#    y 0.000000 1.802530 0.000000 
#    z 0.007360 0.000000 1.825730 
# 
# From -- ./inp_files/378093.got.cif
#   From: 2010.06.25/outbox.ucp.g09.slc.cvg/sg12_190_cif.got.tgz:378093.got - 2010.06.28 13:50:54.
