data_PCOD8116303
_publ_section_title
;
Structure prediction by ZEFSAII (Michael W. Deem and Ramdas Pophale) SiO2 
 PCOD8116303
Probable space group: C 2/M
;
_chemical_formula_sum "Si O2"
_cell_formula_units_Z 32
_cell_length_a 18.000000
_cell_length_b 9.000000
_cell_length_c 30.000000
_cell_angle_alpha 90.000000
_cell_angle_beta 40.000000
_cell_angle_gamma 90.000000
_cell_volume 3123.947783
_symmetry_space_group_name_H-M "C 2/M"
_symmetry_group_IT_number 12
_symmetry_cell_setting 'monoclinic'
loop_
_space_group_symop_operation_xyz
x,y,z
-x,y,-z
-x,-y,-z
x,-y,z
1/2+x,1/2+y,z
1/2-x,1/2+y,-z
1/2-x,1/2-y,-z
1/2+x,1/2-y,z
loop_
_atom_site_type_symbol
_atom_site_label
_atom_site_fract_x
_atom_site_fract_y
_atom_site_fract_z
Si Si1 0.388542 0.323364 0.217932
Si Si2 0.923275 0.675721 0.807101
Si Si3 0.753264 0.166841 0.586427
Si Si4 0.540234 0.323574 0.911221
Si Si5 0.332051 0.332933 0.644862
Si Si6 0.669642 0.675675 0.937607
Si Si7 0.462263 0.326281 0.319100
Si Si8 0.072840 0.176752 0.565251
O O1 0.395807 0.500000 0.217010
O O2 0.479102 0.256174 0.210304
O O3 0.421672 0.259217 0.153865
O O4 0.261800 0.270932 0.288818
O O5 0.941558 0.500000 0.798945
O O6 0.801318 0.725644 0.884175
O O7 0.931611 0.737229 0.752268
O O8 0.838955 0.159746 0.588488
O O9 0.655166 0.276874 0.651443
O O10 0.818721 0.237611 0.513249
O O11 0.705569 0.000000 0.598058
O O12 0.546895 0.500000 0.905936
O O13 0.623898 0.260301 0.911470
O O14 0.409514 0.271091 0.984458
O O15 0.315832 0.500000 0.671849
O O16 0.454017 0.260869 0.600784
O O17 0.661611 0.500000 0.937503
O O18 0.488459 0.500000 0.304812
O O19 0.428579 0.266882 0.383554
O O20 0.076394 0.000000 0.560140
#
# Coordination Sequence:
#
# PCOD8116303 Si02
#       8
#     8   8   8   8   8   8   8   8
#     4  11  22  35  55  82 114 145 178 224 277 321
#     4  11  22  36  56  80 108 146 188 225 265 322
#     4  10  19  36  60  80 105 143 187 225 266 326
#     4   8  16  33  56  83 111 141 176 222 271 315
#     4  10  20  36  57  80 109 145 184 222 265 324
#     4   8  16  33  57  82 109 141 182 222 262 316
#     4  11  22  36  54  79 114 146 178 226 278 322
#     4   9  20  36  56  82 107 142 185 226 274 323
#
# _framework density 10.243449
#
# number of rings (size 3 to 8) (size 9 to 14) (size 15 to 20)
#    0.000    2.250    1.250    2.625    1.750    2.000 
#    0.000    1.875    0.000    3.750    0.000    7.000 
#    0.000    0.000    0.000    0.000    0.000    0.000 
#
# Total GULP energy -396476.915372 kJ/mol
# GULP energy per Si atom -12389.903605 kJ/mol
# Density = 1.022013 g / cm^3
# Si number density = 10.243449 Si / 1000 Ang^3
#
#
#
# Elastic Constant Matrix: (Units=GPa)
#
#
# Indices 1 2 3 4 5 6 
#
# 1 -1.5582 -7.3023 -39.1012 0.0008 15.5895 0.0029
# 2 -7.3023 40.3395 -10.2477 0.0010 7.7987 0.0027
# 3 -39.1012 -10.2477 -1.2070 -0.0010 38.1116 -0.0022
# 4 0.0008 0.0010 -0.0010 18.6651 0.0001 8.8656
# 5 15.5895 7.7987 38.1116 0.0001 26.8747 0.0011
# 6 0.0029 0.0027 -0.0022 8.8656 0.0011 4.4524
#
#
#
# Elastic Compliance Matrix: (Units=1/GPa)
#
#
# Indices 1 2 3 4 5 6 
#
# 1 0.018447 -0.004693 -0.018626 0.000170 0.017075 -0.000362
# 2 -0.004693 0.022796 -0.003591 0.000088 0.001201 -0.000189
# 3 -0.018626 -0.003591 0.003920 -0.000107 0.006288 0.000228
# 4 0.000170 0.000088 -0.000107 0.988144 0.000107 -1.967596
# 5 0.017075 0.001201 0.006288 0.000107 0.018040 -0.000226
# 6 -0.000362 -0.000189 0.000228 -1.967596 -0.000226 4.142484
#
#
# Mechanical properties :
#
#
# Convention : Reuss Voigt Hill
#
# Bulk Modulus (GPa) = -115.49945 -8.41425 -61.95685
# Shear Modulus (GPa) = 0.95333 16.28014 8.61673
#
# Velocity S-wave (km/s) = 0.68290 2.82203 2.05307
# Velocity P-wave (km/s) = 7.47515 2.54999 4.96867
#
# Compressibility (1/GPa) = -0.00865805
#
# Stress axis : x y z
#
# Youngs Moduli (GPa) = 54.20823 43.86817 255.10918
#
# Poissons Ratio (x) = 0.20588 4.75160
# Poissons Ratio (y) = 0.25441 0.91622
# Poissons Ratio (z) = 1.00967 0.15755
#
# Static dielectric constant tensor:
#      x y z
#    x 3.619350 0.000000 0.130280 
#    y 0.000000 3.325280 0.000000 
#    z 0.130280 0.000000 4.161310 
# 
# 
# High freq. dielectric constant tensor:
#      x y z
#    x 1.785440 0.000000 0.006900 
#    y 0.000000 1.756820 0.000000 
#    z 0.006900 0.000000 1.820020 
# 
# From -- ./inp_files/346076.got.cif
#   From: 2010.06.25/outbox.ucp.g09.slc.cvg/sg12_174_cif.got.tgz:346076.got - 2010.06.28 13:50:54.
