data_PCOD8116037
_publ_section_title
;
Structure prediction by ZEFSAII (Michael W. Deem and Ramdas Pophale) SiO2 
 PCOD8116037
Probable space group: C 2/M
;
_chemical_formula_sum "Si O2"
_cell_formula_units_Z 64
_cell_length_a 24.625847
_cell_length_b 9.503373
_cell_length_c 23.094991
_cell_angle_alpha 90.000000
_cell_angle_beta 46.400234
_cell_angle_gamma 90.000000
_cell_volume 3914.083482
_symmetry_space_group_name_H-M "C 2/M"
_symmetry_group_IT_number 12
_symmetry_cell_setting 'monoclinic'
loop_
_space_group_symop_operation_xyz
x,y,z
-x,y,-z
-x,-y,-z
x,-y,z
1/2+x,1/2+y,z
1/2-x,1/2+y,-z
1/2-x,1/2-y,-z
1/2+x,1/2-y,z
loop_
_atom_site_type_symbol
_atom_site_label
_atom_site_fract_x
_atom_site_fract_y
_atom_site_fract_z
Si Si1 0.407657 0.165532 0.814344
Si Si2 0.083907 0.660089 0.440095
Si Si3 0.720383 0.663246 0.157455
Si Si4 0.209967 0.164086 0.294911
Si Si5 0.189754 0.340761 0.013065
Si Si6 0.425702 0.164905 0.323275
Si Si7 0.789114 0.336129 0.351741
Si Si8 0.664693 0.161069 0.500460
O O1 0.348482 0.245442 0.816870
O O2 0.490873 0.229945 0.743526
O O3 0.403594 0.000000 0.801985
O O4 0.389751 0.190151 0.896756
O O5 0.087721 0.500000 0.414573
O O6 0.132879 0.754088 0.361254
O O7 0.110448 0.672567 0.485974
O O8 0.000000 0.718911 0.500000
O O9 0.695979 0.500000 0.171677
O O10 0.739634 0.705091 0.209378
O O11 0.798993 0.689572 0.064069
O O12 0.271313 0.209170 0.298500
O O13 0.192245 0.000000 0.313103
O O14 0.212304 0.500000 0.009126
O O15 0.250000 0.250000 0.000000
O O16 0.376117 0.197884 0.302235
O O17 0.381479 0.224601 0.411493
O O18 0.436321 0.000000 0.323684
O O19 0.771742 0.500000 0.374110
O O20 0.738587 0.252961 0.435176
O O21 0.689483 0.000000 0.493720
#
# Coordination Sequence:
#
# PCOD8116037 Si02
#       8
#     8   8   8   8   8   8   8   8
#     4   9  17  28  45  68  88 110 139 173 214 257
#     4   9  18  29  42  60  85 114 139 172 215 251
#     4   9  17  29  44  64  90 115 139 171 209 253
#     4   9  18  30  44  61  83 114 146 172 204 249
#     4   8  14  26  43  62  86 112 137 167 207 252
#     4   9  17  28  45  65  85 108 139 180 215 248
#     4   9  17  31  46  60  81 112 147 178 208 244
#     4   9  17  29  43  61  83 109 142 177 213 249
#
# _framework density 16.351209000000001
#
# number of rings (size 3 to 8) (size 9 to 14) (size 15 to 20)
#    0.000    3.125    0.000    0.375    1.750    0.750 
#    0.000    1.250    0.000    0.750    0.000    5.250 
#    0.000    0.000    0.000   24.625    0.000   19.250 
#
# Total GULP energy -396433.346603 kJ/mol
# GULP energy per Si atom -12388.542081 kJ/mol
# Density = 1.631399 g / cm^3
# Si number density = 16.351209 Si / 1000 Ang^3
#
#
#
# Elastic Constant Matrix: (Units=GPa)
#
#
# Indices 1 2 3 4 5 6 
#
# 1 62.4488 17.3505 55.4466 0.0001 2.0964 0.0001
# 2 17.3505 29.7312 28.6889 0.0005 2.1847 0.0002
# 3 55.4466 28.6889 128.3446 0.0002 14.9935 -0.0001
# 4 0.0001 0.0005 0.0002 19.3877 -0.0001 -0.5255
# 5 2.0964 2.1847 14.9935 -0.0001 22.5502 0.0001
# 6 0.0001 0.0002 -0.0001 -0.5255 0.0001 16.5255
#
#
#
# Elastic Compliance Matrix: (Units=1/GPa)
#
#
# Indices 1 2 3 4 5 6 
#
# 1 0.027309 -0.005532 -0.011197 0.000000 0.005442 0.000000
# 2 -0.005532 0.044126 -0.007626 -0.000001 0.001310 -0.000001
# 3 -0.011197 -0.007626 0.015315 0.000000 -0.008403 0.000000
# 4 0.000000 -0.000001 0.000000 0.051624 0.000000 0.001641
# 5 0.005442 0.001310 -0.008403 0.000000 0.049300 0.000000
# 6 0.000000 -0.000001 0.000000 0.001641 0.000000 0.060565
#
#
# Mechanical properties :
#
#
# Convention : Reuss Voigt Hill
#
# Bulk Modulus (GPa) = 26.28909 47.05519 36.67214
# Shear Modulus (GPa) = 16.14833 19.62860 17.88846
#
# Velocity S-wave (km/s) = 3.14601 3.46849 3.31118
# Velocity P-wave (km/s) = 5.41379 6.69932 6.09057
#
# Compressibility (1/GPa) = 0.03803859
#
# Stress axis : x y z
#
# Youngs Moduli (GPa) = 36.61802 22.66231 65.29476
#
# Poissons Ratio (x) = 0.12538 0.73110
# Poissons Ratio (y) = 0.20259 0.49797
# Poissons Ratio (z) = 0.41001 0.17283
#
# Static dielectric constant tensor:
#      x y z
#    x 2.973980 0.000000 0.137180 
#    y 0.000000 3.035050 0.000000 
#    z 0.137180 0.000000 3.671040 
# 
# 
# High freq. dielectric constant tensor:
#      x y z
#    x 1.610190 0.000000 0.010830 
#    y 0.000000 1.616170 0.000000 
#    z 0.010830 0.000000 1.631740 
# 
# From -- ./inp_files/327483.got.cif
#   From: 2010.06.25/outbox.cif.g09.slc.cpg/sg12_164_cif.got.tgz:327483.got - 2010.06.28 00:19:55.
