data_PCOD8116581
_publ_section_title
;
Structure prediction by ZEFSAII (Michael W. Deem and Ramdas Pophale) SiO2 
 PCOD8116581
Probable space group: C 2/M
;
_chemical_formula_sum "Si O2"
_cell_formula_units_Z 32
_cell_length_a 30.000000
_cell_length_b 9.000000
_cell_length_c 18.000000
_cell_angle_alpha 90.000000
_cell_angle_beta 40.000000
_cell_angle_gamma 90.000000
_cell_volume 3123.947783
_symmetry_space_group_name_H-M "C 2/M"
_symmetry_group_IT_number 12
_symmetry_cell_setting 'monoclinic'
loop_
_space_group_symop_operation_xyz
x,y,z
-x,y,-z
-x,-y,-z
x,-y,z
1/2+x,1/2+y,z
1/2-x,1/2+y,-z
1/2-x,1/2-y,-z
1/2+x,1/2-y,z
loop_
_atom_site_type_symbol
_atom_site_label
_atom_site_fract_x
_atom_site_fract_y
_atom_site_fract_z
Si Si1 0.918362 0.671583 0.504636
Si Si2 0.339013 0.168994 0.758492
Si Si3 0.409234 0.826791 0.257411
Si Si4 0.808318 0.827016 0.287829
Si Si5 0.554260 0.676275 0.283515
Si Si6 0.190516 0.828740 0.887138
Si Si7 0.059319 0.327844 0.120858
Si Si8 0.670073 0.677650 0.506847
O O1 0.920476 0.500000 0.474008
O O2 0.888646 0.681338 0.624571
O O3 0.868663 0.769322 0.517281
O O4 0.995240 0.740390 0.406394
O O5 0.370175 0.276038 0.782075
O O6 0.260504 0.219602 0.840649
O O7 0.338487 0.000000 0.788568
O O8 0.380108 0.755470 0.218274
O O9 0.492398 0.806365 0.153389
O O10 0.373830 0.734762 0.368093
O O11 0.389339 0.000000 0.288703
O O12 0.794961 0.806880 0.218037
O O13 0.746451 0.748829 0.412154
O O14 0.811585 0.000000 0.305927
O O15 0.544921 0.500000 0.301466
O O16 0.547883 0.725758 0.206854
O O17 0.171722 0.000000 0.928664
O O18 0.127822 0.723206 0.990471
O O19 0.067197 0.500000 0.134255
O O20 0.675429 0.500000 0.501199
#
# Coordination Sequence:
#
# PCOD8116581 Si02
#       8
#     8   8   8   8   8   8   8   8
#     4  11  21  39  65  93 128 168 205 249 311 377
#     4  10  22  42  66  92 126 168 206 250 312 376
#     4  11  24  42  64  92 127 167 209 257 311 375
#     4  11  23  42  66  94 128 166 206 255 314 375
#     4  12  25  40  63  96 129 163 208 259 310 370
#     4  10  23  44  67  91 122 163 212 261 311 369
#     4  11  25  44  66  89 122 167 212 261 315 368
#     4  12  23  37  63  96 129 166 205 255 311 371
#
# _framework density 10.243449
#
# number of rings (size 3 to 8) (size 9 to 14) (size 15 to 20)
#    0.000    1.000    2.500    4.500    0.000    6.500 
#    0.000    2.500    0.000    0.000    0.000    0.000 
#    0.000    0.000    0.000    0.000    0.000    0.000 
#
# Total GULP energy -396949.851068 kJ/mol
# GULP energy per Si atom -12404.682846 kJ/mol
# Density = 1.022013 g / cm^3
# Si number density = 10.243449 Si / 1000 Ang^3
#
#
#
# Elastic Constant Matrix: (Units=GPa)
#
#
# Indices 1 2 3 4 5 6 
#
# 1 114.5898 47.1078 18.6042 -0.0052 -28.7479 0.0048
# 2 47.1078 154.0390 40.5195 0.0269 -17.9312 -0.0111
# 3 18.6042 40.5195 85.1192 0.0292 -30.4414 -0.0232
# 4 -0.0052 0.0269 0.0292 37.5047 -0.0230 -3.7118
# 5 -28.7479 -17.9312 -30.4414 -0.0230 30.7121 0.0085
# 6 0.0048 -0.0111 -0.0232 -3.7118 0.0085 40.9809
#
#
#
# Elastic Compliance Matrix: (Units=1/GPa)
#
#
# Indices 1 2 3 4 5 6 
#
# 1 0.012975 -0.003329 0.003714 0.000010 0.013883 -0.000002
# 2 -0.003329 0.008308 -0.004039 -0.000005 -0.002268 0.000000
# 3 0.003714 -0.004039 0.020540 0.000001 0.021477 0.000006
# 4 0.000010 -0.000005 0.000001 0.026905 0.000027 0.002437
# 5 0.013883 -0.002268 0.021477 0.000027 0.065519 -0.000001
# 6 -0.000002 0.000000 0.000006 0.002437 -0.000001 0.024622
#
#
# Mechanical properties :
#
#
# Convention : Reuss Voigt Hill
#
# Bulk Modulus (GPa) = 28.97238 62.91234 45.94236
# Shear Modulus (GPa) = 28.14020 38.34063 33.24041
#
# Velocity S-wave (km/s) = 3.71019 4.33074 4.03242
# Velocity P-wave (km/s) = 5.70321 7.46876 6.64488
#
# Compressibility (1/GPa) = 0.03451563
#
# Stress axis : x y z
#
# Youngs Moduli (GPa) = 77.07018 120.36330 48.68567
#
# Poissons Ratio (x) = 0.40067 -0.18080
# Poissons Ratio (y) = 0.25655 0.19662
# Poissons Ratio (z) = -0.28621 0.48609
#
# Static dielectric constant tensor:
#      x y z
#    x 4.070510 -0.000030 -0.252030 
#    y -0.000030 3.965520 0.000040 
#    z -0.252030 0.000040 3.661280 
# 
# 
# High freq. dielectric constant tensor:
#      x y z
#    x 1.819700 0.000000 -0.014230 
#    y 0.000000 1.816720 0.000000 
#    z -0.014230 0.000000 1.795740 
# 
# From -- ./inp_files/295643.got.cif
#   From: 2010.06.25/outbox.ucp.g09.slc.cvg/sg12_148_cif.got.tgz:295643.got - 2010.06.28 13:50:54.
