data_PCOD8116281
_publ_section_title
;
Structure prediction by ZEFSAII (Michael W. Deem and Ramdas Pophale) SiO2 
 PCOD8116281
Probable space group: C 2/M
;
_chemical_formula_sum "Si O2"
_cell_formula_units_Z 32
_cell_length_a 30.000000
_cell_length_b 9.000000
_cell_length_c 24.000000
_cell_angle_alpha 90.000000
_cell_angle_beta 30.000000
_cell_angle_gamma 90.000000
_cell_volume 3240.000000
_symmetry_space_group_name_H-M "C 2/M"
_symmetry_group_IT_number 12
_symmetry_cell_setting 'monoclinic'
loop_
_space_group_symop_operation_xyz
x,y,z
-x,y,-z
-x,-y,-z
x,-y,z
1/2+x,1/2+y,z
1/2-x,1/2+y,-z
1/2-x,1/2-y,-z
1/2+x,1/2-y,z
loop_
_atom_site_type_symbol
_atom_site_label
_atom_site_fract_x
_atom_site_fract_y
_atom_site_fract_z
Si Si1 0.462557 0.834185 0.978867
Si Si2 0.778078 0.325229 0.615977
Si Si3 0.594968 0.325198 0.755307
Si Si4 0.265003 0.173484 0.224361
Si Si5 0.968993 0.177475 0.384631
Si Si6 0.510786 0.175024 0.223791
Si Si7 0.145484 0.826293 0.253906
Si Si8 0.712150 0.174460 0.987067
O O1 0.522940 0.718419 0.880137
O O2 0.471825 0.000000 0.942137
O O3 0.500000 0.836784 0.000000
O O4 0.357734 0.789035 0.092005
O O5 0.796854 0.500000 0.594937
O O6 0.697463 0.284552 0.660539
O O7 0.742023 0.277233 0.714830
O O8 0.870962 0.243074 0.502415
O O9 0.586261 0.500000 0.753768
O O10 0.569825 0.234494 0.727099
O O11 0.176854 0.209923 0.282823
O O12 0.265771 0.000000 0.241124
O O13 0.006130 0.237151 0.286437
O O14 0.044773 0.230400 0.348146
O O15 0.959874 0.000000 0.393389
O O16 0.606992 0.210492 0.091280
O O17 0.497680 0.000000 0.248736
O O18 0.144210 0.000000 0.244827
O O19 0.225576 0.760127 0.129426
O O20 0.724020 0.000000 0.980931
O O21 0.750000 0.250000 0.000000
#
# Coordination Sequence:
#
# PCOD8116281 Si02
#       8
#     8   8   8   8   8   8   8   8
#     4  10  19  34  61  93 123 155 193 239 293 355
#     4  11  25  43  60  84 118 155 201 253 300 348
#     4  11  24  40  61  87 121 160 198 244 298 357
#     4  10  20  38  63  89 120 158 196 238 293 355
#     4  11  23  41  64  86 115 157 203 248 296 353
#     4  11  23  39  63  92 123 156 195 245 298 352
#     4   9  19  36  60  89 120 154 195 237 285 350
#     4  10  19  35  60  90 124 157 190 235 290 350
#
# _framework density 9.8765429999999999
#
# number of rings (size 3 to 8) (size 9 to 14) (size 15 to 20)
#    0.000    1.625    2.500    2.250    0.000    5.750 
#    0.000    4.375    0.000    0.000    0.000    0.000 
#    0.000    0.000    0.000    0.000    0.000    0.000 
#
# Total GULP energy -396660.580389 kJ/mol
# GULP energy per Si atom -12395.643137 kJ/mol
# Density = 0.985406 g / cm^3
# Si number density = 9.876543 Si / 1000 Ang^3
#
#
#
# Elastic Constant Matrix: (Units=GPa)
#
#
# Indices 1 2 3 4 5 6 
#
# 1 122.8649 38.3352 36.0779 -0.0041 -38.6417 0.0015
# 2 38.3352 79.0942 38.6486 0.0046 -15.5861 -0.0041
# 3 36.0779 38.6486 108.3458 0.0094 -36.2724 -0.0049
# 4 -0.0041 0.0046 0.0094 36.7677 0.0020 -0.5791
# 5 -38.6417 -15.5861 -36.2724 0.0020 40.7802 -0.0037
# 6 0.0015 -0.0041 -0.0049 -0.5791 -0.0037 29.5660
#
#
#
# Elastic Compliance Matrix: (Units=1/GPa)
#
#
# Indices 1 2 3 4 5 6 
#
# 1 0.012808 -0.004530 0.001188 0.000001 0.011462 0.000000
# 2 -0.004530 0.016972 -0.005427 -0.000001 -0.002633 0.000001
# 3 0.001188 -0.005427 0.014885 -0.000004 0.012291 0.000003
# 4 0.000001 -0.000001 -0.000004 0.027206 -0.000004 0.000533
# 5 0.011462 -0.002633 0.012291 -0.000004 0.045309 0.000007
# 6 0.000000 0.000001 0.000003 0.000533 0.000007 0.033833
#
#
# Mechanical properties :
#
#
# Convention : Reuss Voigt Hill
#
# Bulk Modulus (GPa) = 36.86304 59.60314 48.23309
# Shear Modulus (GPa) = 28.15418 34.57233 31.36325
#
# Velocity S-wave (km/s) = 3.77942 4.18811 3.98900
# Velocity P-wave (km/s) = 6.14392 7.32302 6.75923
#
# Compressibility (1/GPa) = 0.02712744
#
# Stress axis : x y z
#
# Youngs Moduli (GPa) = 78.07345 58.92140 67.18231
#
# Poissons Ratio (x) = 0.26690 -0.07983
# Poissons Ratio (y) = 0.35366 0.36461
# Poissons Ratio (z) = -0.09277 0.31978
#
# Static dielectric constant tensor:
#      x y z
#    x 3.851640 -0.000030 -0.344840 
#    y -0.000030 3.559140 0.000040 
#    z -0.344840 0.000040 3.841520 
# 
# 
# High freq. dielectric constant tensor:
#      x y z
#    x 1.789800 0.000000 -0.023140 
#    y 0.000000 1.760870 0.000000 
#    z -0.023140 0.000000 1.780200 
# 
# From -- ./inp_files/353411.got.cif
#   From: 2010.06.25/outbox.ucp.g09.slc.cvg/sg12_177_cif.got.tgz:353411.got - 2010.06.28 13:50:54.
