data_PCOD8116754
_publ_section_title
;
Structure prediction by ZEFSAII (Michael W. Deem and Ramdas Pophale) SiO2 
 PCOD8116754
Probable space group: P 2/C
;
_chemical_formula_sum "Si O2"
_cell_formula_units_Z 28
_cell_length_a 9.655853
_cell_length_b 32.856496
_cell_length_c 5.163422
_cell_angle_alpha 90.000000
_cell_angle_beta 62.162625
_cell_angle_gamma 90.000000
_cell_volume 1448.563784
_symmetry_space_group_name_H-M "P 2/C"
_symmetry_group_IT_number 13
_symmetry_cell_setting 'monoclinic'
loop_
_space_group_symop_operation_xyz
x,y,z
-x,y,1/2-z
-x,-y,-z
x,-y,1/2+z
loop_
_atom_site_type_symbol
_atom_site_label
_atom_site_fract_x
_atom_site_fract_y
_atom_site_fract_z
Si Si1 0.101540 0.906783 0.909212
Si Si2 0.599403 0.758650 0.919505
Si Si3 0.684692 0.977018 0.621497
Si Si4 0.103080 0.609678 0.915652
Si Si5 0.600832 0.665837 0.919593
Si Si6 0.101459 0.186349 0.405060
Si Si7 0.825311 0.482143 0.131411
O O1 0.254876 0.933898 0.824294
O O2 0.157216 0.860328 0.829284
O O3 0.000000 0.920858 0.750000
O O4 0.000000 0.912698 0.250000
O O5 0.500000 0.760691 0.750000
O O6 0.650633 0.712366 0.931858
O O7 0.748098 0.785795 0.730217
O O8 0.500000 0.775806 0.250000
O O9 0.500000 0.973758 0.750000
O O10 0.744482 0.989964 0.283727
O O11 0.239773 0.641437 0.747792
O O12 0.177422 0.565918 0.912910
O O13 0.000000 0.606389 0.750000
O O14 0.000000 0.624418 0.250000
O O15 0.500000 0.660984 0.750000
O O16 0.500000 0.649062 0.250000
O O17 0.000000 0.199651 0.250000
O O18 0.000000 0.193802 0.750000
O O19 0.736534 0.495522 0.471219
O O20 0.000000 0.500000 0.000000
#
# Coordination Sequence:
#
# PCOD8116754 Si02
#       7
#     4   4   4   4   4   4   4
#     4  10  21  36  54  80 110 142 180 221 280 336
#     4  10  21  39  61  82 109 151 191 217 270 344
#     4  10  21  36  53  76 107 143 184 231 273 313
#     4  12  21  33  59  89 104 141 195 232 265 323
#     4  10  23  41  56  79 120 153 174 224 287 335
#     4  10  21  37  58  85 117 144 177 238 285 320
#     4  10  16  30  49  78 106 136 171 233 273 304
#
# _framework density 19.329491999999998
#
# number of rings (size 3 to 8) (size 9 to 14) (size 15 to 20)
#    0.000    1.714    2.857    2.571    0.000    3.429 
#    0.000    2.143    0.000    2.571    0.000    0.000 
#    0.000    0.000    0.000    0.000    0.000    0.000 
#
# Total GULP energy -347123.522037 kJ/mol
# GULP energy per Si atom -12397.268644 kJ/mol
# Density = 1.928550 g / cm^3
# Si number density = 19.329492 Si / 1000 Ang^3
#
#
#
# Elastic Constant Matrix: (Units=GPa)
#
#
# Indices 1 2 3 4 5 6 
#
# 1 73.0957 51.5328 48.8692 0.0000 10.2790 0.0000
# 2 51.5328 98.6801 42.1525 0.0000 -13.9502 0.0000
# 3 48.8692 42.1525 129.8017 0.0000 21.0105 0.0000
# 4 0.0000 0.0000 0.0000 11.5257 0.0000 19.7671
# 5 10.2790 -13.9502 21.0105 0.0000 35.1547 0.0000
# 6 0.0000 0.0000 0.0000 19.7671 0.0000 -0.5592
#
#
#
# Elastic Compliance Matrix: (Units=1/GPa)
#
#
# Indices 1 2 3 4 5 6 
#
# 1 0.028469 -0.014837 -0.003985 0.000000 -0.011830 0.000000
# 2 -0.014837 0.021738 -0.003954 0.000000 0.015328 0.000000
# 3 -0.003985 -0.003954 0.011684 0.000000 -0.007387 0.000000
# 4 0.000000 0.000000 0.000000 0.001408 0.000000 0.049768
# 5 -0.011830 0.015328 -0.007387 0.000000 0.042402 0.000000
# 6 0.000000 0.000000 0.000000 0.049768 0.000000 -0.029019
#
#
# Mechanical properties :
#
#
# Convention : Reuss Voigt Hill
#
# Bulk Modulus (GPa) = 61.20674 65.18738 63.19706
# Shear Modulus (GPa) = 39.15992 19.82577 29.49285
#
# Velocity S-wave (km/s) = 4.50590 3.20609 3.91038
# Velocity P-wave (km/s) = 7.66841 6.89223 7.29066
#
# Compressibility (1/GPa) = 0.01633807
#
# Stress axis : x y z
#
# Youngs Moduli (GPa) = 35.12615 46.00236 85.58500
#
# Poissons Ratio (x) = 0.68254 0.34106
# Poissons Ratio (y) = 0.52117 0.33843
# Poissons Ratio (z) = 0.13998 0.18191
#
# Static dielectric constant tensor:
#      x y z
#    x 3.096550 0.000000 0.246990 
#    y 0.000000 3.662310 0.000000 
#    z 0.246990 0.000000 3.765740 
# 
# 
# High freq. dielectric constant tensor:
#      x y z
#    x 1.743460 0.000000 0.029100 
#    y 0.000000 1.751560 0.000000 
#    z 0.029100 0.000000 1.767210 
# 
# From -- ./inp_files/2678.got.cif
#   From: 2010.06.25/outbox.cif.g09.slc.cpg/sg13_2_cif.got.tgz:2678.got - 2010.06.28 04:50:58.
