data_PCOD8116705
_publ_section_title
;
Structure prediction by ZEFSAII (Michael W. Deem and Ramdas Pophale) SiO2 
 PCOD8116705
Probable space group: P 2/C
;
_chemical_formula_sum "Si O2"
_cell_formula_units_Z 28
_cell_length_a 10.183968
_cell_length_b 16.599370
_cell_length_c 8.853294
_cell_angle_alpha 90.000000
_cell_angle_beta 109.179928
_cell_angle_gamma 90.000000
_cell_volume 1413.551324
_symmetry_space_group_name_H-M "P 2/C"
_symmetry_group_IT_number 13
_symmetry_cell_setting 'monoclinic'
loop_
_space_group_symop_operation_xyz
x,y,z
-x,y,1/2-z
-x,-y,-z
x,-y,1/2+z
loop_
_atom_site_type_symbol
_atom_site_label
_atom_site_fract_x
_atom_site_fract_y
_atom_site_fract_z
Si Si1 0.368699 0.770659 0.500607
Si Si2 0.720656 0.499363 0.842938
Si Si3 0.850785 0.095978 0.630839
Si Si4 0.249845 0.388961 0.397032
Si Si5 0.579022 0.400723 0.546700
Si Si6 0.144581 0.067771 0.222577
Si Si7 0.681667 0.220582 0.169902
O O1 0.265626 0.835877 0.388446
O O2 0.350500 0.686797 0.405857
O O3 0.331365 0.756155 0.660502
O O4 0.530004 0.795121 0.541387
O O5 0.812042 0.556977 0.765777
O O6 0.605481 0.450576 0.706622
O O7 0.808302 0.430644 0.970338
O O8 0.646971 0.558232 0.929495
O O9 0.868834 0.071857 0.462826
O O10 0.000000 0.126361 0.750000
O O11 0.796760 0.019438 0.706489
O O12 0.416356 0.397377 0.453836
O O13 0.225522 0.292606 0.373046
O O14 0.242845 0.136481 0.325555
O O15 0.000000 0.080779 0.250000
#
# Coordination Sequence:
#
# PCOD8116705 Si02
#       7
#     4   4   4   4   4   4   4
#     4   9  18  32  51  77 109 138 166 207 260 308
#     4  10  17  24  42  66  99 138 171 208 247 292
#     4  10  20  37  59  79 100 132 173 211 251 305
#     4  10  16  26  41  67 101 135 170 205 249 297
#     4  10  16  26  41  67 101 135 170 205 249 297
#     4  10  20  37  59  79 100 132 173 211 251 305
#     4   9  18  32  51  77 109 138 166 207 260 308
#
# _framework density 19.808266
#
# number of rings (size 3 to 8) (size 9 to 14) (size 15 to 20)
#    0.000    2.286    1.429    5.143    0.000    0.571 
#    5.143    0.000    0.000    0.000    0.000    6.000 
#    0.000    0.000    0.000    0.000    0.000    0.000 
#
# Total GULP energy -346894.930695 kJ/mol
# GULP energy per Si atom -12389.104668 kJ/mol
# Density = 1.976318 g / cm^3
# Si number density = 19.808266 Si / 1000 Ang^3
#
#
#
# Elastic Constant Matrix: (Units=GPa)
#
#
# Indices 1 2 3 4 5 6 
#
# 1 28.3252 49.5189 21.7539 0.0000 5.8985 0.0000
# 2 49.5189 163.7952 55.5720 0.0000 20.0445 0.0000
# 3 21.7539 55.5720 93.7903 0.0000 1.0927 0.0000
# 4 0.0000 0.0000 0.0000 17.7636 0.0000 -10.3798
# 5 5.8985 20.0445 1.0927 0.0000 18.5714 0.0000
# 6 0.0000 0.0000 0.0000 -10.3798 0.0000 -2.1617
#
#
#
# Elastic Compliance Matrix: (Units=1/GPa)
#
#
# Indices 1 2 3 4 5 6 
#
# 1 0.076780 -0.021334 -0.005156 0.000000 -0.001057 0.000000
# 2 -0.021334 0.014970 -0.003815 0.000000 -0.009157 0.000000
# 3 -0.005156 -0.003815 0.014061 0.000000 0.004928 0.000000
# 4 0.000000 0.000000 0.000000 0.014792 0.000000 -0.071026
# 5 -0.001057 -0.009157 0.004928 0.000000 0.063775 0.000000
# 6 0.000000 0.000000 0.000000 -0.071026 0.000000 -0.121551
#
#
# Mechanical properties :
#
#
# Convention : Reuss Voigt Hill
#
# Bulk Modulus (GPa) = 22.12289 59.95559 41.03924
# Shear Modulus (GPa) = 36.10021 17.43904 26.76962
#
# Velocity S-wave (km/s) = 4.27369 2.97036 3.68018
# Velocity P-wave (km/s) = 5.96199 6.48828 6.23069
#
# Compressibility (1/GPa) = 0.04520204
#
# Stress axis : x y z
#
# Youngs Moduli (GPa) = 13.02422 66.80153 71.11938
#
# Poissons Ratio (x) = 1.42513 0.36667
# Poissons Ratio (y) = 0.27786 0.27131
# Poissons Ratio (z) = 0.06715 0.25484
#
# Static dielectric constant tensor:
#      x y z
#    x 3.136220 0.000000 -0.117060 
#    y 0.000000 4.255500 0.000000 
#    z -0.117060 0.000000 3.921790 
# 
# 
# High freq. dielectric constant tensor:
#      x y z
#    x 1.719600 0.000000 -0.011940 
#    y 0.000000 1.791770 0.000000 
#    z -0.011940 0.000000 1.773750 
# 
# From -- ./inp_files/16568.got.cif
#   From: 2010.06.25/outbox.cif.g09.slc.cpg/sg13_9_cif.got.tgz:16568.got - 2010.06.28 04:50:58.
