data_PCOD8116856
_publ_section_title
;
Structure prediction by ZEFSAII (Michael W. Deem and Ramdas Pophale) SiO2 
 PCOD8116856
Probable space group: P 2/C
;
_chemical_formula_sum "Si O2"
_cell_formula_units_Z 32
_cell_length_a 22.358706
_cell_length_b 9.070687
_cell_length_c 27.131688
_cell_angle_alpha 90.000000
_cell_angle_beta 19.429505
_cell_angle_gamma 90.000000
_cell_volume 1830.404280
_symmetry_space_group_name_H-M "P 2/C"
_symmetry_group_IT_number 13
_symmetry_cell_setting 'monoclinic'
loop_
_space_group_symop_operation_xyz
x,y,z
-x,y,1/2-z
-x,-y,-z
x,-y,1/2+z
loop_
_atom_site_type_symbol
_atom_site_label
_atom_site_fract_x
_atom_site_fract_y
_atom_site_fract_z
Si Si1 0.899812 0.378735 0.130161
Si Si2 0.351411 0.287488 0.975013
Si Si3 0.863734 0.302917 0.262533
Si Si4 0.123463 0.463055 0.609380
Si Si5 0.287061 0.789665 0.916602
Si Si6 0.807937 0.121548 0.486779
Si Si7 0.718873 0.307503 0.646285
Si Si8 0.171987 0.386867 0.420109
O O1 0.787516 0.338032 0.266881
O O2 0.965239 0.551269 0.080820
O O3 0.778598 0.351704 0.175752
O O4 0.081053 0.275408 0.987506
O O5 0.248529 0.159251 0.025273
O O6 0.564211 0.258566 0.804614
O O7 0.300693 0.284070 0.072158
O O8 0.292248 0.444385 0.998597
O O9 0.003894 0.433935 0.166605
O O10 0.979160 0.151990 0.172716
O O11 0.197997 0.320929 0.524343
O O12 0.000000 0.407084 0.750000
O O13 0.500000 0.772037 0.750000
O O14 0.231565 0.952666 0.973645
O O15 0.202481 0.759361 0.928240
O O16 0.693675 0.223572 0.613857
O O17 0.701178 0.485871 0.653997
#
# Coordination Sequence:
#
# PCOD8116856 Si02
#       8
#     4   4   4   4   4   4   4   4
#     4   8  16  32  54  70  94 126 165 199 244 284
#     4  10  17  29  50  72  95 127 164 201 235 283
#     4   9  17  33  50  69  93 130 168 193 233 295
#     4   9  18  29  44  67  97 125 155 194 244 294
#     4  12  21  30  48  76 100 126 157 203 249 286
#     4  10  20  31  44  70 103 130 160 194 240 296
#     4   9  16  30  49  70  93 125 163 203 237 278
#     4   9  17  32  55  69  98 126 161 200 250 284
#
# _framework density 17.482476999999999
#
# number of rings (size 3 to 8) (size 9 to 14) (size 15 to 20)
#    0.750    1.750    1.250    3.750    0.000    1.000 
#    0.000    3.125    0.000    0.000    0.000    4.375 
#    0.000    0.000    0.000    0.000    0.000    0.000 
#
# Total GULP energy -396450.627002 kJ/mol
# GULP energy per Si atom -12389.082094 kJ/mol
# Density = 1.744269 g / cm^3
# Si number density = 17.482477 Si / 1000 Ang^3
#
#
#
# Elastic Constant Matrix: (Units=GPa)
#
#
# Indices 1 2 3 4 5 6 
#
# 1 99.5195 45.8794 26.9631 0.0000 33.5855 0.0000
# 2 45.8794 84.4445 29.2941 0.0000 14.5583 0.0000
# 3 26.9631 29.2941 81.5366 0.0000 27.9578 0.0000
# 4 0.0000 0.0000 0.0000 18.1248 0.0000 5.8672
# 5 33.5855 14.5583 27.9578 0.0000 27.1197 0.0000
# 6 0.0000 0.0000 0.0000 5.8672 0.0000 10.4722
#
#
#
# Elastic Compliance Matrix: (Units=1/GPa)
#
#
# Indices 1 2 3 4 5 6 
#
# 1 0.022470 -0.009242 0.005770 0.000000 -0.028814 0.000000
# 2 -0.009242 0.017546 -0.006098 0.000000 0.008313 0.000000
# 3 0.005770 -0.006098 0.021461 0.000000 -0.025996 0.000000
# 4 0.000000 0.000000 0.000000 0.067396 0.000000 -0.037759
# 5 -0.028814 0.008313 -0.025996 0.000000 0.094894 0.000000
# 6 0.000000 0.000000 0.000000 -0.037759 0.000000 0.116646
#
#
# Mechanical properties :
#
#
# Convention : Reuss Voigt Hill
#
# Bulk Modulus (GPa) = 23.62054 52.19709 37.90882
# Shear Modulus (GPa) = 13.38097 22.03427 17.70762
#
# Velocity S-wave (km/s) = 2.76958 3.55401 3.18603
# Velocity P-wave (km/s) = 4.87521 6.83834 5.93846
#
# Compressibility (1/GPa) = 0.04233603
#
# Stress axis : x y z
#
# Youngs Moduli (GPa) = 44.50438 56.99436 46.59612
#
# Poissons Ratio (x) = 0.52674 -0.26885
# Poissons Ratio (y) = 0.41131 0.28414
# Poissons Ratio (z) = -0.25678 0.34755
#
# Static dielectric constant tensor:
#      x y z
#    x 3.148220 0.000000 0.228810 
#    y 0.000000 2.981020 0.000000 
#    z 0.228810 0.000000 3.146750 
# 
# 
# High freq. dielectric constant tensor:
#      x y z
#    x 1.663060 0.000000 0.023870 
#    y 0.000000 1.643260 0.000000 
#    z 0.023870 0.000000 1.663140 
# 
# From -- ./inp_files/93819.got.cif
#   From: 2010.06.25/outbox.cif.g09.slc.cpg/sg13_47_cif.got.tgz:93819.got - 2010.06.28 04:50:58.
