data_PCOD8116174
_publ_section_title
;
Structure prediction by ZEFSAII (Michael W. Deem and Ramdas Pophale) SiO2 
 PCOD8116174
Probable space group: C 2/M
;
_chemical_formula_sum "Si O2"
_cell_formula_units_Z 24
_cell_length_a 21.000000
_cell_length_b 18.000000
_cell_length_c 21.000000
_cell_angle_alpha 90.000000
_cell_angle_beta 20.000000
_cell_angle_gamma 90.000000
_cell_volume 2714.955898
_symmetry_space_group_name_H-M "C 2/M"
_symmetry_group_IT_number 12
_symmetry_cell_setting 'monoclinic'
loop_
_space_group_symop_operation_xyz
x,y,z
-x,y,-z
-x,-y,-z
x,-y,z
1/2+x,1/2+y,z
1/2-x,1/2+y,-z
1/2-x,1/2-y,-z
1/2+x,1/2-y,z
loop_
_atom_site_type_symbol
_atom_site_label
_atom_site_fract_x
_atom_site_fract_y
_atom_site_fract_z
Si Si1 0.804067 0.664626 0.450941
Si Si2 0.868484 0.588034 0.263943
Si Si3 0.708589 0.197585 0.098865
Si Si4 0.778541 0.417866 0.213834
Si Si5 0.771915 0.154794 0.862242
Si Si6 0.464762 0.412108 0.802636
O O1 0.750000 0.750000 0.500000
O O2 0.769828 0.629133 0.414129
O O3 0.675107 0.615086 0.618372
O O4 0.011133 0.657247 0.281782
O O5 0.888146 0.500000 0.257519
O O6 0.737997 0.604870 0.325017
O O7 0.071481 0.622613 0.066848
O O8 0.726344 0.254740 0.140808
O O9 0.750000 0.250000 0.000000
O O10 0.848458 0.127982 0.968073
O O11 0.702757 0.500000 0.270829
O O12 0.674662 0.365868 0.260500
O O13 0.000000 0.416030 0.000000
O O14 0.910518 0.118905 0.783605
O O15 0.440602 0.500000 0.829904
#
# Coordination Sequence:
#
# PCOD8116174 Si02
#       6
#     8   8   8   8   8   8
#     4  12  20  33  47  68  98 131 169 204 246 287
#     4  10  18  29  47  71 100 132 164 200 239 284
#     4  10  19  33  49  68  95 134 165 203 247 289
#     4   8  15  26  44  70  98 130 165 195 230 282
#     4  10  16  30  49  68  96 135 164 198 238 289
#     4  11  21  31  49  73  96 128 167 205 247 294
#
# _framework density 8.8399230000000006
#
# number of rings (size 3 to 8) (size 9 to 14) (size 15 to 20)
#    0.000    1.833    6.667    3.000    0.000    0.667 
#    0.000    0.833    0.000    3.000    0.000    0.000 
#    0.000   18.000    0.000   40.333    0.000    0.000 
#
# Total GULP energy -297318.684339 kJ/mol
# GULP energy per Si atom -12388.278514 kJ/mol
# Density = 0.881980 g / cm^3
# Si number density = 8.839923 Si / 1000 Ang^3
#
#
#
# Elastic Constant Matrix: (Units=GPa)
#
#
# Indices 1 2 3 4 5 6 
#
# 1 67.1117 53.1103 23.2101 0.0411 2.3364 -0.0116
# 2 53.1103 151.6623 51.6410 -0.0290 2.9415 -0.0095
# 3 23.2101 51.6410 82.2597 -0.0365 -3.1030 -0.0103
# 4 0.0411 -0.0290 -0.0365 18.5679 -0.0563 -2.4151
# 5 2.3364 2.9415 -3.1030 -0.0563 4.4236 0.0151
# 6 -0.0116 -0.0095 -0.0103 -2.4151 0.0151 29.9929
#
#
#
# Elastic Compliance Matrix: (Units=1/GPa)
#
#
# Indices 1 2 3 4 5 6 
#
# 1 0.021071 -0.006467 -0.002202 -0.000086 -0.008374 0.000003
# 2 -0.006467 0.010780 -0.005223 -0.000001 -0.007417 0.000003
# 3 -0.002202 -0.005223 0.016673 0.000079 0.016332 0.000001
# 4 -0.000086 -0.000001 0.000079 0.054429 0.000780 0.004382
# 5 -0.008374 -0.007417 0.016332 0.000780 0.246881 -0.000062
# 6 0.000003 0.000003 0.000001 0.004382 -0.000062 0.033694
#
#
# Mechanical properties :
#
#
# Convention : Reuss Voigt Hill
#
# Bulk Modulus (GPa) = 48.21171 61.88405 55.04788
# Shear Modulus (GPa) = 11.95530 22.13505 17.04518
#
# Velocity S-wave (km/s) = 2.60323 3.54219 3.10837
# Velocity P-wave (km/s) = 6.03028 7.19778 6.63974
#
# Compressibility (1/GPa) = 0.02074185
#
# Stress axis : x y z
#
# Youngs Moduli (GPa) = 47.45818 92.76065 59.97812
#
# Poissons Ratio (x) = 0.59987 0.13205
# Poissons Ratio (y) = 0.30690 0.31326
# Poissons Ratio (z) = 0.10448 0.48448
#
# Static dielectric constant tensor:
#      x y z
#    x 3.465610 0.000020 0.035400 
#    y 0.000020 3.602970 0.000450 
#    z 0.035400 0.000450 3.362070 
# 
# 
# High freq. dielectric constant tensor:
#      x y z
#    x 1.633190 0.000000 -0.011040 
#    y 0.000000 1.675620 0.000020 
#    z -0.011040 0.000020 1.688410 
# 
# From -- ./inp_files/322544.got.cif
#   From: 2010.06.25/outbox.ucp.g09.slc.cvg/sg12_162_cif.got.tgz:322544.got - 2010.06.28 13:50:54.
