data_PCOD8116762
_publ_section_title
;
Structure prediction by ZEFSAII (Michael W. Deem and Ramdas Pophale) SiO2 
 PCOD8116762
Probable space group: P 2/C
;
_chemical_formula_sum "Si O2"
_cell_formula_units_Z 24
_cell_length_a 20.713148
_cell_length_b 13.091872
_cell_length_c 5.234808
_cell_angle_alpha 90.000000
_cell_angle_beta 117.192983
_cell_angle_gamma 90.000000
_cell_volume 1262.644430
_symmetry_space_group_name_H-M "P 2/C"
_symmetry_group_IT_number 13
_symmetry_cell_setting 'monoclinic'
loop_
_space_group_symop_operation_xyz
x,y,z
-x,y,1/2-z
-x,-y,-z
x,-y,1/2+z
loop_
_atom_site_type_symbol
_atom_site_label
_atom_site_fract_x
_atom_site_fract_y
_atom_site_fract_z
Si Si1 0.410827 0.547324 0.462399
Si Si2 0.249515 0.460628 0.225105
Si Si3 0.842819 0.931240 0.949646
Si Si4 0.625251 0.774411 0.064734
Si Si5 0.000000 0.933118 0.250000
Si Si6 0.717139 0.231050 0.220795
Si Si7 0.500000 0.068496 0.250000
O O1 0.449514 0.506421 0.788953
O O2 0.327077 0.513058 0.303441
O O3 0.417805 0.669482 0.458283
O O4 0.207692 0.518627 0.381436
O O5 0.254527 0.342328 0.305374
O O6 0.783957 0.844088 0.869161
O O7 0.832887 0.989545 0.663837
O O8 0.922390 0.874187 0.107167
O O9 0.665212 0.808244 0.398628
O O10 0.679131 0.759602 0.925713
O O11 0.571115 0.862618 0.883766
O O12 0.000000 0.000000 0.500000
O O13 0.500000 0.000000 0.500000
#
# Coordination Sequence:
#
# PCOD8116762 Si02
#       7
#     4   4   4   4   2   4   2
#     4  10  16  32  56  80 107 129 164 220 272 327
#     4  10  16  30  51  79 113 135 161 212 272 330
#     4  10  21  35  52  83 114 143 184 221 267 315
#     4  12  23  39  61  79 106 143 186 224 267 327
#     4   8  16  34  54  70 110 152 172 218 272 316
#     4  12  21  33  61  87 108 137 182 229 268 312
#     4  12  30  50  58  72 106 154 188 214 280 334
#
# _framework density 19.007725000000001
#
# number of rings (size 3 to 8) (size 9 to 14) (size 15 to 20)
#    0.000    1.333    6.667    2.000    0.000    4.000 
#    0.000    0.833    0.000    0.000    0.000    1.167 
#    0.000    0.000    0.000    0.000    0.000    0.000 
#
# Total GULP energy -297439.521969 kJ/mol
# GULP energy per Si atom -12393.313415 kJ/mol
# Density = 1.896446 g / cm^3
# Si number density = 19.007725 Si / 1000 Ang^3
#
#
#
# Elastic Constant Matrix: (Units=GPa)
#
#
# Indices 1 2 3 4 5 6 
#
# 1 49.1322 25.0447 46.3472 0.0000 -7.9434 0.0000
# 2 25.0447 99.4094 34.8441 0.0000 11.3094 0.0000
# 3 46.3472 34.8441 125.9104 0.0000 -24.6651 0.0000
# 4 0.0000 0.0000 0.0000 18.4902 0.0000 -18.9316
# 5 -7.9434 11.3094 -24.6651 0.0000 39.0574 0.0000
# 6 0.0000 0.0000 0.0000 -18.9316 0.0000 -1.4698
#
#
#
# Elastic Compliance Matrix: (Units=1/GPa)
#
#
# Indices 1 2 3 4 5 6 
#
# 1 0.032948 -0.004775 -0.010525 0.000000 0.001437 0.000000
# 2 -0.004775 0.013167 -0.003222 0.000000 -0.006819 0.000000
# 3 -0.010525 -0.003222 0.014232 0.000000 0.007780 0.000000
# 4 0.000000 0.000000 0.000000 0.003812 0.000000 -0.049099
# 5 0.001437 -0.006819 0.007780 0.000000 0.032783 0.000000
# 6 0.000000 0.000000 0.000000 -0.049099 0.000000 -0.047954
#
#
# Mechanical properties :
#
#
# Convention : Reuss Voigt Hill
#
# Bulk Modulus (GPa) = 42.91231 54.10265 48.50748
# Shear Modulus (GPa) = 53.30416 22.42997 37.86706
#
# Velocity S-wave (km/s) = 5.30135 3.43890 4.46824
# Velocity P-wave (km/s) = 7.75227 6.65533 7.22465
#
# Compressibility (1/GPa) = 0.02330334
#
# Stress axis : x y z
#
# Youngs Moduli (GPa) = 30.35072 75.94479 70.26345
#
# Poissons Ratio (x) = 0.36264 0.73954
# Poissons Ratio (y) = 0.14493 0.22639
# Poissons Ratio (z) = 0.31945 0.24469
#
# Static dielectric constant tensor:
#      x y z
#    x 3.655320 0.000000 -0.449160 
#    y 0.000000 3.399990 0.000000 
#    z -0.449160 0.000000 4.375110 
# 
# 
# High freq. dielectric constant tensor:
#      x y z
#    x 1.720160 0.000000 -0.032390 
#    y 0.000000 1.721440 0.000000 
#    z -0.032390 0.000000 1.767570 
# 
# From -- ./inp_files/6014.got.cif
#   From: 2010.06.25/outbox.cif.g09.slc.cpg/sg13_4_cif.got.tgz:6014.got - 2010.06.28 04:50:58.
