data_PCOD8116785
_publ_section_title
;
Structure prediction by ZEFSAII (Michael W. Deem and Ramdas Pophale) SiO2 
 PCOD8116785
Probable space group: P 2/C
;
_chemical_formula_sum "Si O2"
_cell_formula_units_Z 30
_cell_length_a 5.232576
_cell_length_b 19.882675
_cell_length_c 14.163227
_cell_angle_alpha 90.000000
_cell_angle_beta 76.037724
_cell_angle_gamma 90.000000
_cell_volume 1429.973162
_symmetry_space_group_name_H-M "P 2/C"
_symmetry_group_IT_number 13
_symmetry_cell_setting 'monoclinic'
loop_
_space_group_symop_operation_xyz
x,y,z
-x,y,1/2-z
-x,-y,-z
x,-y,1/2+z
loop_
_atom_site_type_symbol
_atom_site_label
_atom_site_fract_x
_atom_site_fract_y
_atom_site_fract_z
Si Si1 0.913325 0.996552 0.662137
Si Si2 0.369099 0.833502 0.958778
Si Si3 0.481387 0.315952 0.456731
Si Si4 0.431095 0.443111 0.583243
Si Si5 0.181937 0.910829 0.491680
Si Si6 0.057613 0.648582 0.848651
Si Si7 0.084667 0.496076 0.883318
Si Si8 0.500000 0.885812 0.750000
O O1 0.766179 0.051882 0.612351
O O2 0.000000 0.034558 0.750000
O O3 0.749401 0.933460 0.715449
O O4 0.147548 0.966653 0.576725
O O5 0.402923 0.758492 0.996524
O O6 0.539901 0.876578 0.015957
O O7 0.504583 0.838401 0.842553
O O8 0.066746 0.859154 0.988164
O O9 0.385740 0.370031 0.541707
O O10 0.795037 0.329219 0.427274
O O11 0.323803 0.322573 0.371484
O O12 0.500000 0.500000 0.500000
O O13 0.652178 0.449754 0.645282
O O14 0.149445 0.460807 0.655200
O O15 0.000000 0.677711 0.750000
O O16 0.117177 0.569690 0.837958
O O17 0.000000 0.500000 0.000000
#
# Coordination Sequence:
#
# PCOD8116785 Si02
#       8
#     4   4   4   4   4   4   4   2
#     4  10  20  37  65  90 111 157 192 240 295 341
#     4  11  24  39  52  86 125 159 190 238 288 361
#     4  12  22  37  54  77 114 161 184 221 289 345
#     4  10  16  31  56  74  95 134 195 236 252 309
#     4  10  23  39  59  85 127 143 200 246 279 348
#     4  12  23  33  50  81 112 145 186 234 284 346
#     4  10  16  32  51  72 101 127 181 241 269 294
#     4  10  22  36  60  84 122 158 192 220 296 368
#
# _framework density 20.979414999999999
#
# number of rings (size 3 to 8) (size 9 to 14) (size 15 to 20)
#    0.000    1.333    6.667    1.200    3.733    1.600 
#    0.000    0.000    0.000    0.000    0.000    5.600 
#    0.000    0.000    0.000    0.000    0.000    0.000 
#
# Total GULP energy -371670.273369 kJ/mol
# GULP energy per Si atom -12389.009112 kJ/mol
# Density = 2.093167 g / cm^3
# Si number density = 20.979415 Si / 1000 Ang^3
#
#
#
# Elastic Constant Matrix: (Units=GPa)
#
#
# Indices 1 2 3 4 5 6 
#
# 1 128.8314 12.3576 9.5338 0.0000 16.8826 0.0000
# 2 12.3576 92.6430 14.2797 0.0000 14.8826 0.0000
# 3 9.5338 14.2797 41.7477 0.0000 12.6064 0.0000
# 4 0.0000 0.0000 0.0000 16.2643 0.0000 3.4315
# 5 16.8826 14.8826 12.6064 0.0000 26.2116 0.0000
# 6 0.0000 0.0000 0.0000 3.4315 0.0000 8.5563
#
#
#
# Elastic Compliance Matrix: (Units=1/GPa)
#
#
# Indices 1 2 3 4 5 6 
#
# 1 0.008487 -0.000255 -0.000285 0.000000 -0.005184 0.000000
# 2 -0.000255 0.012089 -0.002403 0.000000 -0.005544 0.000000
# 3 -0.000285 -0.002403 0.028514 0.000000 -0.012166 0.000000
# 4 0.000000 0.000000 0.000000 0.067168 0.000000 -0.026937
# 5 -0.005184 -0.005544 -0.012166 0.000000 0.050489 0.000000
# 6 0.000000 0.000000 0.000000 -0.026937 0.000000 0.127676
#
#
# Mechanical properties :
#
#
# Convention : Reuss Voigt Hill
#
# Bulk Modulus (GPa) = 23.14624 37.28494 30.21559
# Shear Modulus (GPa) = 15.88763 25.34318 20.61540
#
# Velocity S-wave (km/s) = 2.75489 3.47940 3.13812
# Velocity P-wave (km/s) = 4.60174 5.82687 5.25016
#
# Compressibility (1/GPa) = 0.04320356
#
# Stress axis : x y z
#
# Youngs Moduli (GPa) = 117.82656 82.71895 35.07045
#
# Poissons Ratio (x) = 0.02112 0.01001
# Poissons Ratio (y) = 0.03008 0.08426
# Poissons Ratio (z) = 0.03363 0.19874
#
# Static dielectric constant tensor:
#      x y z
#    x 4.166230 0.000000 0.076690 
#    y 0.000000 3.697800 0.000000 
#    z 0.076690 0.000000 3.731390 
# 
# 
# High freq. dielectric constant tensor:
#      x y z
#    x 1.846050 0.000000 0.009320 
#    y 0.000000 1.800800 0.000000 
#    z 0.009320 0.000000 1.786120 
# 
# From -- ./inp_files/44423.got.cif
#   From: 2010.06.25/outbox.cif.g09.slc.cpg/sg13_23_cif.got.tgz:44423.got - 2010.06.28 04:50:58.
