data_PCOD8116977
_publ_section_title
;
Structure prediction by ZEFSAII (Michael W. Deem and Ramdas Pophale) SiO2 
 PCOD8116977
Probable space group: P 2/C
;
_chemical_formula_sum "Si O2"
_cell_formula_units_Z 28
_cell_length_a 12.497084
_cell_length_b 13.204004
_cell_length_c 9.021039
_cell_angle_alpha 90.000000
_cell_angle_beta 111.743479
_cell_angle_gamma 90.000000
_cell_volume 1382.666010
_symmetry_space_group_name_H-M "P 2/C"
_symmetry_group_IT_number 13
_symmetry_cell_setting 'monoclinic'
loop_
_space_group_symop_operation_xyz
x,y,z
-x,y,1/2-z
-x,-y,-z
x,-y,1/2+z
loop_
_atom_site_type_symbol
_atom_site_label
_atom_site_fract_x
_atom_site_fract_y
_atom_site_fract_z
Si Si1 0.581559 0.957691 0.418453
Si Si2 0.421180 0.231891 0.427366
Si Si3 0.750410 0.449308 0.691004
Si Si4 0.061083 0.412295 0.127014
Si Si5 0.110210 0.279048 0.891447
Si Si6 0.611550 0.430413 0.897202
Si Si7 0.660402 0.172640 0.425901
O O1 0.500000 0.915253 0.250000
O O2 0.644881 0.857399 0.513940
O O3 0.500000 0.000000 0.500000
O O4 0.662058 0.050308 0.402745
O O5 0.410573 0.337035 0.506067
O O6 0.557852 0.206107 0.484073
O O7 0.360212 0.234012 0.236623
O O8 0.809106 0.554924 0.766821
O O9 0.849521 0.379342 0.674261
O O10 0.702067 0.398302 0.816164
O O11 0.652734 0.473923 0.517590
O O12 0.000000 0.386271 0.250000
O O13 0.070022 0.309522 0.036125
O O14 0.000000 0.500000 0.000000
O O15 0.000000 0.231362 0.750000
O O16 0.215111 0.199795 0.944505
O O17 0.500000 0.468012 0.750000
#
# Coordination Sequence:
#
# PCOD8116977 Si02
#       7
#     4   4   4   4   4   4   4
#     4  10  17  36  66  96 120 157 199 245 308 367
#     4  10  21  40  66  96 128 163 205 250 311 389
#     4  12  23  40  59  84 121 168 209 260 307 362
#     4  12  20  39  63  81 109 154 223 272 296 353
#     4  12  24  40  63  88 121 167 214 259 313 363
#     4  12  25  39  55  90 129 168 205 249 318 380
#     4  10  21  39  64  96 129 159 201 265 315 367
#
# _framework density 20.250733
#
# number of rings (size 3 to 8) (size 9 to 14) (size 15 to 20)
#    0.000    0.857    7.143    2.571    0.000    1.143 
#    0.000    0.000    0.000    0.857    0.000    0.000 
#    0.000    0.000    0.000    0.000    0.000    0.000 
#
# Total GULP energy -347076.468645 kJ/mol
# GULP energy per Si atom -12395.588166 kJ/mol
# Density = 2.020464 g / cm^3
# Si number density = 20.250733 Si / 1000 Ang^3
#
#
#
# Elastic Constant Matrix: (Units=GPa)
#
#
# Indices 1 2 3 4 5 6 
#
# 1 91.3550 27.0790 49.3506 0.0000 -1.2861 0.0000
# 2 27.0790 51.6191 30.2765 0.0000 4.4992 0.0000
# 3 49.3506 30.2765 118.2102 0.0000 5.5069 0.0000
# 4 0.0000 0.0000 0.0000 24.6781 0.0000 -8.4252
# 5 -1.2861 4.4992 5.5069 0.0000 50.0535 0.0000
# 6 0.0000 0.0000 0.0000 -8.4252 0.0000 20.5307
#
#
#
# Elastic Compliance Matrix: (Units=1/GPa)
#
#
# Indices 1 2 3 4 5 6 
#
# 1 0.015250 -0.005120 -0.005121 0.000000 0.001415 0.000000
# 2 -0.005120 0.024616 -0.004079 0.000000 -0.001895 0.000000
# 3 -0.005121 -0.004079 0.011691 0.000000 -0.001051 0.000000
# 4 0.000000 0.000000 0.000000 0.047124 0.000000 0.019338
# 5 0.001415 -0.001895 -0.001051 0.000000 0.020301 0.000000
# 6 0.000000 0.000000 0.000000 0.019338 0.000000 0.056643
#
#
# Mechanical properties :
#
#
# Convention : Reuss Voigt Hill
#
# Bulk Modulus (GPa) = 43.63494 52.73295 48.18394
# Shear Modulus (GPa) = 23.59541 29.35102 26.47321
#
# Velocity S-wave (km/s) = 3.41715 3.81120 3.61954
# Velocity P-wave (km/s) = 6.09617 6.74267 6.42755
#
# Compressibility (1/GPa) = 0.02291742
#
# Stress axis : x y z
#
# Youngs Moduli (GPa) = 65.57189 40.62366 85.53335
#
# Poissons Ratio (x) = 0.20798 0.43805
# Poissons Ratio (y) = 0.33571 0.34890
# Poissons Ratio (z) = 0.33582 0.16571
#
# Static dielectric constant tensor:
#      x y z
#    x 3.695760 0.000000 -0.166410 
#    y 0.000000 4.836410 0.000000 
#    z -0.166410 0.000000 4.029370 
# 
# 
# High freq. dielectric constant tensor:
#      x y z
#    x 1.774100 0.000000 -0.015540 
#    y 0.000000 1.761450 0.000000 
#    z -0.015540 0.000000 1.811760 
# 
# From -- ./inp_files/16858.got.cif
#   From: 2010.06.25/outbox.cif.g09.slc.cpg/sg13_9_cif.got.tgz:16858.got - 2010.06.28 04:50:58.
