data_PCOD8116133
_publ_section_title
;
Structure prediction by ZEFSAII (Michael W. Deem and Ramdas Pophale) SiO2 
 PCOD8116133
Probable space group: C 2/M
;
_chemical_formula_sum "Si O2"
_cell_formula_units_Z 64
_cell_length_a 23.289710
_cell_length_b 10.029166
_cell_length_c 21.932659
_cell_angle_alpha 90.000000
_cell_angle_beta 46.085700
_cell_angle_gamma 90.000000
_cell_volume 3690.461214
_symmetry_space_group_name_H-M "C 2/M"
_symmetry_group_IT_number 12
_symmetry_cell_setting 'monoclinic'
loop_
_space_group_symop_operation_xyz
x,y,z
-x,y,-z
-x,-y,-z
x,-y,z
1/2+x,1/2+y,z
1/2-x,1/2+y,-z
1/2-x,1/2-y,-z
1/2+x,1/2-y,z
loop_
_atom_site_type_symbol
_atom_site_label
_atom_site_fract_x
_atom_site_fract_y
_atom_site_fract_z
Si Si1 0.730911 0.844432 0.604227
Si Si2 0.137360 0.152005 0.586885
Si Si3 0.964142 0.154754 0.744730
Si Si4 0.230235 0.645218 0.738450
Si Si5 0.302051 0.660138 0.806260
Si Si6 0.167811 0.851527 0.937106
Si Si7 0.570349 0.778292 0.907550
Si Si8 0.973305 0.848298 0.872822
O O1 0.818425 0.827257 0.510112
O O2 0.668020 0.756642 0.613769
O O3 0.732038 0.780914 0.671739
O O4 0.703653 0.000000 0.623024
O O5 0.043450 0.179865 0.646373
O O6 0.150861 0.000000 0.600660
O O7 0.888196 0.212637 0.764402
O O8 0.974025 0.218728 0.804919
O O9 0.946361 0.000000 0.767375
O O10 0.263689 0.500000 0.698332
O O11 0.289927 0.708173 0.744707
O O12 0.142402 0.627223 0.833367
O O13 0.289351 0.500000 0.822122
O O14 0.235274 0.738545 0.893989
O O15 0.109181 0.835821 0.921785
O O16 0.205368 0.000000 0.905283
O O17 0.116260 0.837176 0.036249
O O18 0.535725 0.724061 0.870195
O O19 0.500000 0.849246 0.000000
O O20 0.002383 0.000000 0.847358
#
# Coordination Sequence:
#
# PCOD8116133 Si02
#       8
#     8   8   8   8   8   8   8   8
#     4   9  17  30  48  70  94 116 139 174 222 267
#     4   9  17  30  49  71  92 114 142 177 217 263
#     4   9  17  29  45  64  87 116 150 183 215 256
#     4   9  17  29  44  62  88 120 149 178 216 260
#     4   9  18  32  46  60  85 121 153 181 214 252
#     4   9  17  29  45  65  88 114 146 184 222 259
#     4   9  16  26  42  64  89 115 145 181 220 261
#     4   9  16  26  42  64  88 113 143 183 226 261
#
# _framework density 17.342006000000001
#
# number of rings (size 3 to 8) (size 9 to 14) (size 15 to 20)
#    0.000    3.000    0.000    1.125    0.000    2.250 
#    0.000    5.625    0.000    5.250    0.000    0.000 
#    0.000    8.000    0.000    0.000    0.000    0.000 
#
# Total GULP energy -396420.419269 kJ/mol
# GULP energy per Si atom -12388.138102 kJ/mol
# Density = 1.730253 g / cm^3
# Si number density = 17.342006 Si / 1000 Ang^3
#
#
#
# Elastic Constant Matrix: (Units=GPa)
#
#
# Indices 1 2 3 4 5 6 
#
# 1 113.9007 19.8965 58.4639 0.0000 -7.1073 0.0000
# 2 19.8965 45.1684 18.5889 0.0002 -4.5961 -0.0003
# 3 58.4639 18.5889 96.7081 0.0000 2.3879 0.0000
# 4 0.0000 0.0002 0.0000 18.1836 0.0000 -3.0243
# 5 -7.1073 -4.5961 2.3879 0.0000 26.1275 0.0000
# 6 0.0000 -0.0003 0.0000 -3.0243 0.0000 14.0729
#
#
#
# Elastic Compliance Matrix: (Units=1/GPa)
#
#
# Indices 1 2 3 4 5 6 
#
# 1 0.013415 -0.002312 -0.007763 0.000000 0.003952 0.000000
# 2 -0.002312 0.025020 -0.003512 0.000000 0.004093 0.000000
# 3 -0.007763 -0.003512 0.015812 0.000000 -0.004175 0.000000
# 4 0.000000 0.000000 0.000000 0.057033 0.000000 0.012257
# 5 0.003952 0.004093 -0.004175 0.000000 0.040450 0.000000
# 6 0.000000 0.000000 0.000000 0.012257 0.000000 0.073693
#
#
# Mechanical properties :
#
#
# Convention : Reuss Voigt Hill
#
# Bulk Modulus (GPa) = 36.93976 49.96398 43.45187
# Shear Modulus (GPa) = 19.11159 22.26532 20.68846
#
# Velocity S-wave (km/s) = 3.32330 3.58704 3.45768
# Velocity P-wave (km/s) = 6.00606 6.78449 6.40711
#
# Compressibility (1/GPa) = 0.02707110
#
# Stress axis : x y z
#
# Youngs Moduli (GPa) = 74.54546 39.96809 63.24483
#
# Poissons Ratio (x) = 0.09242 0.49096
# Poissons Ratio (y) = 0.17237 0.22215
# Poissons Ratio (z) = 0.57868 0.14039
#
# Static dielectric constant tensor:
#      x y z
#    x 3.286140 0.000000 0.091470 
#    y 0.000000 2.963560 0.000000 
#    z 0.091470 0.000000 3.354280 
# 
# 
# High freq. dielectric constant tensor:
#      x y z
#    x 1.661550 0.000000 0.004230 
#    y 0.000000 1.636490 0.000000 
#    z 0.004230 0.000000 1.671820 
# 
# From -- ./inp_files/282874.got.cif
#   From: 2010.06.25/outbox.cif.g09.slc.cpg/sg12_142_cif.got.tgz:282874.got - 2010.06.28 00:19:55.
