data_PCOD8116882
_publ_section_title
;
Structure prediction by ZEFSAII (Michael W. Deem and Ramdas Pophale) SiO2 
 PCOD8116882
Probable space group: P 2/C
;
_chemical_formula_sum "Si O2"
_cell_formula_units_Z 32
_cell_length_a 12.151267
_cell_length_b 15.805584
_cell_length_c 9.442173
_cell_angle_alpha 90.000000
_cell_angle_beta 86.412077
_cell_angle_gamma 90.000000
_cell_volume 1809.889191
_symmetry_space_group_name_H-M "P 2/C"
_symmetry_group_IT_number 13
_symmetry_cell_setting 'monoclinic'
loop_
_space_group_symop_operation_xyz
x,y,z
-x,y,1/2-z
-x,-y,-z
x,-y,1/2+z
loop_
_atom_site_type_symbol
_atom_site_label
_atom_site_fract_x
_atom_site_fract_y
_atom_site_fract_z
Si Si1 0.156010 0.165430 0.468951
Si Si2 0.372231 0.092248 0.785339
Si Si3 0.110376 0.448097 0.143225
Si Si4 0.909171 0.129012 0.482960
Si Si5 0.731512 0.002753 0.961812
Si Si6 0.113585 0.402257 0.815269
Si Si7 0.808827 0.779297 0.231391
Si Si8 0.869937 0.271082 0.282478
O O1 0.148167 0.219218 0.612138
O O2 0.190816 0.234139 0.349732
O O3 0.038280 0.123248 0.436977
O O4 0.247638 0.092617 0.463849
O O5 0.500000 0.106103 0.750000
O O6 0.315612 0.184213 0.770859
O O7 0.321417 0.021145 0.685795
O O8 0.352397 0.055934 0.944210
O O9 0.173766 0.531692 0.199465
O O10 0.178645 0.363609 0.177833
O O11 0.000000 0.454355 0.250000
O O12 0.091995 0.445450 0.973208
O O13 0.850644 0.042861 0.436047
O O14 0.887598 0.151401 0.648368
O O15 0.848113 0.207108 0.411486
O O16 0.186008 0.316922 0.827049
O O17 0.000000 0.372711 0.750000
O O18 0.000000 0.282270 0.250000
#
# Coordination Sequence:
#
# PCOD8116882 Si02
#       8
#     4   4   4   4   4   4   4   4
#     4  10  19  29  45  71 104 138 163 199 235 291
#     4  10  21  38  54  72  95 124 168 221 261 294
#     4  10  20  30  45  71 100 141 171 191 237 279
#     4  10  17  31  45  69 105 136 161 201 232 296
#     4  10  20  32  52  76  96 128 171 199 254 301
#     4  11  20  31  48  72 106 134 166 200 235 291
#     4  10  21  31  49  71  96 132 173 200 250 299
#     4   9  18  28  42  62  98 138 168 188 232 272
#
# _framework density 17.680638999999999
#
# number of rings (size 3 to 8) (size 9 to 14) (size 15 to 20)
#    0.000    2.000    1.250    4.125    5.250    0.000 
#    0.000    3.750    0.000    0.000    0.000    0.875 
#    0.000    0.000    0.000    0.000    0.000    0.000 
#
# Total GULP energy -396504.734055 kJ/mol
# GULP energy per Si atom -12390.772939 kJ/mol
# Density = 1.764040 g / cm^3
# Si number density = 17.680639 Si / 1000 Ang^3
#
#
#
# Elastic Constant Matrix: (Units=GPa)
#
#
# Indices 1 2 3 4 5 6 
#
# 1 40.5968 16.2542 15.8797 0.0000 -3.0894 0.0000
# 2 16.2542 103.5978 28.6504 0.0000 4.3787 0.0000
# 3 15.8797 28.6504 87.3141 0.0000 4.3022 0.0000
# 4 0.0000 0.0000 0.0000 33.3385 0.0000 1.3084
# 5 -3.0894 4.3787 4.3022 0.0000 13.8350 0.0000
# 6 0.0000 0.0000 0.0000 1.3084 0.0000 11.2423
#
#
#
# Elastic Compliance Matrix: (Units=1/GPa)
#
#
# Indices 1 2 3 4 5 6 
#
# 1 0.028492 -0.003620 -0.004432 0.000000 0.008886 0.000000
# 2 -0.003620 0.011149 -0.002830 0.000000 -0.003457 0.000000
# 3 -0.004432 -0.002830 0.013397 0.000000 -0.004260 0.000000
# 4 0.000000 0.000000 0.000000 0.030133 0.000000 -0.003507
# 5 0.008886 -0.003457 -0.004260 0.000000 0.076684 0.000000
# 6 0.000000 0.000000 0.000000 -0.003507 0.000000 0.089358
#
#
# Mechanical properties :
#
#
# Convention : Reuss Voigt Hill
#
# Bulk Modulus (GPa) = 31.97430 39.23082 35.60256
# Shear Modulus (GPa) = 17.76825 23.06480 20.41653
#
# Velocity S-wave (km/s) = 3.17354 3.61574 3.40183
# Velocity P-wave (km/s) = 5.61713 6.29827 5.96742
#
# Compressibility (1/GPa) = 0.03127512
#
# Stress axis : x y z
#
# Youngs Moduli (GPa) = 35.09805 89.69074 74.64193
#
# Poissons Ratio (x) = 0.32470 0.33079
# Poissons Ratio (y) = 0.12706 0.21122
# Poissons Ratio (z) = 0.15554 0.25380
#
# Static dielectric constant tensor:
#      x y z
#    x 2.715990 0.000000 0.032150 
#    y 0.000000 3.691160 0.000000 
#    z 0.032150 0.000000 3.487470 
# 
# 
# High freq. dielectric constant tensor:
#      x y z
#    x 1.604340 0.000000 0.005110 
#    y 0.000000 1.696270 0.000000 
#    z 0.005110 0.000000 1.704730 
# 
# From -- ./inp_files/17082.got.cif
#   From: 2010.06.25/outbox.cif.g09.slc.cpg/sg13_9_cif.got.tgz:17082.got - 2010.06.28 04:50:58.
