data_PCOD8116998
_publ_section_title
;
Structure prediction by ZEFSAII (Michael W. Deem and Ramdas Pophale) SiO2 
 PCOD8116998
Probable space group: P 2/C
;
_chemical_formula_sum "Si O2"
_cell_formula_units_Z 32
_cell_length_a 16.166930
_cell_length_b 18.710090
_cell_length_c 23.169329
_cell_angle_alpha 90.000000
_cell_angle_beta 17.535903
_cell_angle_gamma 90.000000
_cell_volume 2111.644819
_symmetry_space_group_name_H-M "P 2/C"
_symmetry_group_IT_number 13
_symmetry_cell_setting 'monoclinic'
loop_
_space_group_symop_operation_xyz
x,y,z
-x,y,1/2-z
-x,-y,-z
x,-y,1/2+z
loop_
_atom_site_type_symbol
_atom_site_label
_atom_site_fract_x
_atom_site_fract_y
_atom_site_fract_z
Si Si1 0.810538 0.506516 0.041475
Si Si2 0.189462 0.993484 0.458525
Si Si3 0.827346 0.099969 0.419707
Si Si4 0.824145 0.250000 0.602020
Si Si5 0.807957 0.100207 0.655070
Si Si6 0.807957 0.600207 0.155070
Si Si7 0.172654 0.599969 0.580292
Si Si8 0.172597 0.250000 0.029134
O O1 0.500000 0.477129 0.250000
O O2 0.847838 0.565434 0.065976
O O3 0.885028 0.543220 0.931681
O O4 0.014078 0.439983 0.915046
O O5 0.500000 0.022871 0.250000
O O6 0.985921 0.060016 0.584954
O O7 0.114970 0.956780 0.568320
O O8 0.152163 0.934565 0.434024
O O9 0.507634 0.099430 0.615483
O O10 0.929740 0.178914 0.370122
O O11 0.000000 0.074396 0.250000
O O12 0.918492 0.181033 0.575587
O O13 0.918493 0.318968 0.575585
O O14 0.499147 0.250000 0.809472
O O15 0.952985 0.249999 0.451995
O O16 0.492367 0.599431 0.384517
O O17 0.070262 0.678914 0.629876
O O18 0.000000 0.574397 0.750000
#
# Coordination Sequence:
#
# PCOD8116998 Si02
#       8
#     4   4   4   4   4   4   4   4
#     4   9  17  30  45  63  86 113 146 180 208 245
#     4   9  17  30  45  63  86 113 146 180 208 245
#     4  10  18  27  43  67  93 115 135 169 216 262
#     4   9  14  26  47  64  82 111 142 178 216 245
#     4   9  17  29  46  64  85 113 145 178 212 248
#     4   9  17  29  46  64  85 113 145 178 212 248
#     4  10  18  27  43  67  93 115 135 169 216 262
#     4   9  15  26  42  66  91 107 136 176 215 259
#
# _framework density 15.154064
#
# number of rings (size 3 to 8) (size 9 to 14) (size 15 to 20)
#    0.000    2.750    2.500    0.375    0.000    1.000 
#    0.000    0.625    0.000    0.000    0.000    0.875 
#    0.000    0.000    0.000    0.000    0.000    0.000 
#
# Total GULP energy -396759.571800 kJ/mol
# GULP energy per Si atom -12398.736619 kJ/mol
# Density = 1.511957 g / cm^3
# Si number density = 15.154064 Si / 1000 Ang^3
#
#
#
# Elastic Constant Matrix: (Units=GPa)
#
#
# Indices 1 2 3 4 5 6 
#
# 1 83.6601 58.2737 50.2433 0.0000 6.6089 0.0000
# 2 58.2737 117.8504 47.4295 0.0000 -7.2793 0.0000
# 3 50.2433 47.4295 68.8255 0.0000 13.4666 0.0000
# 4 0.0000 0.0000 0.0000 17.3111 0.0000 -4.9660
# 5 6.6089 -7.2793 13.4666 0.0000 25.4882 0.0000
# 6 0.0000 0.0000 0.0000 -4.9660 0.0000 19.1951
#
#
#
# Elastic Compliance Matrix: (Units=1/GPa)
#
#
# Indices 1 2 3 4 5 6 
#
# 1 0.024803 -0.007226 -0.012787 0.000000 -0.001739 0.000000
# 2 -0.007226 0.015772 -0.007631 0.000000 0.010410 0.000000
# 3 -0.012787 -0.007631 0.032233 0.000000 -0.015894 0.000000
# 4 0.000000 0.000000 0.000000 0.062397 0.000000 0.016143
# 5 -0.001739 0.010410 -0.015894 0.000000 0.051055 0.000000
# 6 0.000000 0.000000 0.000000 0.016143 0.000000 0.056273
#
#
# Mechanical properties :
#
#
# Convention : Reuss Voigt Hill
#
# Bulk Modulus (GPa) = 57.07517 64.69212 60.88365
# Shear Modulus (GPa) = 16.46574 20.02485 18.24529
#
# Velocity S-wave (km/s) = 3.29987 3.63907 3.47362
# Velocity P-wave (km/s) = 7.22938 7.77428 7.50678
#
# Compressibility (1/GPa) = 0.01752075
#
# Stress axis : x y z
#
# Youngs Moduli (GPa) = 40.31815 63.40155 31.02439
#
# Poissons Ratio (x) = 0.45812 0.39670
# Poissons Ratio (y) = 0.29132 0.23676
# Poissons Ratio (z) = 0.51553 0.48384
#
# Static dielectric constant tensor:
#      x y z
#    x 2.793530 0.000000 -0.004380 
#    y 0.000000 3.047490 0.000000 
#    z -0.004380 0.000000 2.680730 
# 
# 
# High freq. dielectric constant tensor:
#      x y z
#    x 1.563120 0.000000 0.011330 
#    y 0.000000 1.583250 0.000000 
#    z 0.011330 0.000000 1.555450 
# 
# From -- ./inp_files/30745.got.cif
#   From: 2010.06.25/outbox.cif.g09.slc.cpg/sg13_16_cif.got.tgz:30745.got - 2010.06.28 04:50:58.
