data_PCOD8116261
_publ_section_title
;
Structure prediction by ZEFSAII (Michael W. Deem and Ramdas Pophale) SiO2 
 PCOD8116261
Probable space group: C 2/M
;
_chemical_formula_sum "Si O2"
_cell_formula_units_Z 32
_cell_length_a 18.000000
_cell_length_b 9.000000
_cell_length_c 30.000000
_cell_angle_alpha 90.000000
_cell_angle_beta 40.000000
_cell_angle_gamma 90.000000
_cell_volume 3123.947783
_symmetry_space_group_name_H-M "C 2/M"
_symmetry_group_IT_number 12
_symmetry_cell_setting 'monoclinic'
loop_
_space_group_symop_operation_xyz
x,y,z
-x,y,-z
-x,-y,-z
x,-y,z
1/2+x,1/2+y,z
1/2-x,1/2+y,-z
1/2-x,1/2-y,-z
1/2+x,1/2-y,z
loop_
_atom_site_type_symbol
_atom_site_label
_atom_site_fract_x
_atom_site_fract_y
_atom_site_fract_z
Si Si1 0.429792 0.670958 0.642602
Si Si2 0.588079 0.322338 0.496015
Si Si3 0.579068 0.676405 0.002779
Si Si4 0.336279 0.823987 0.866925
Si Si5 0.936015 0.826614 0.735631
Si Si6 0.340625 0.169118 0.355805
Si Si7 0.504342 0.325778 0.133905
Si Si8 0.183490 0.664486 0.733968
O O1 0.460092 0.500000 0.636364
O O2 0.541245 0.739188 0.565636
O O3 0.388993 0.730782 0.709532
O O4 0.318331 0.696322 0.662851
O O5 0.500000 0.258043 0.500000
O O6 0.585420 0.500000 0.495515
O O7 0.716519 0.265745 0.427034
O O8 0.574992 0.500000 0.003022
O O9 0.531449 0.732576 0.072017
O O10 0.500000 0.744422 0.000000
O O11 0.708150 0.734626 0.936113
O O12 0.371996 0.768165 0.802090
O O13 0.415848 0.761090 0.868746
O O14 0.344520 0.000000 0.863634
O O15 0.070245 0.787559 0.666211
O O16 0.918926 0.000000 0.754286
O O17 0.371376 0.171039 0.289419
O O18 0.356906 0.000000 0.366196
O O19 0.525578 0.500000 0.129083
O O20 0.372840 0.284776 0.206925
O O21 0.166243 0.500000 0.762931
#
# Coordination Sequence:
#
# PCOD8116261 Si02
#       8
#     8   8   8   8   8   8   8   8
#     4   9  19  34  53  81 115 150 189 237 285 328
#     4   9  15  29  55  83 107 141 191 238 279 330
#     4   9  21  40  60  86 117 148 184 227 278 332
#     4  11  22  39  63  83 110 151 192 233 273 331
#     4  11  23  37  54  81 120 153 183 231 288 337
#     4  10  19  33  58  85 109 143 192 237 275 333
#     4  11  22  37  61  88 115 149 187 229 279 333
#     4  10  19  34  57  84 113 147 191 236 275 326
#
# _framework density 10.243449
#
# number of rings (size 3 to 8) (size 9 to 14) (size 15 to 20)
#    0.000    2.000    2.500    1.500    1.750    0.500 
#    0.000    2.500    0.000    4.875    0.000    0.000 
#    0.000    0.000    0.000    0.000    0.000    0.000 
#
# Total GULP energy -396513.081319 kJ/mol
# GULP energy per Si atom -12391.033791 kJ/mol
# Density = 1.022013 g / cm^3
# Si number density = 10.243449 Si / 1000 Ang^3
#
#
#
# Elastic Constant Matrix: (Units=GPa)
#
#
# Indices 1 2 3 4 5 6 
#
# 1 37.6038 15.8442 28.6197 -0.0006 17.9875 -0.0002
# 2 15.8442 47.8871 28.1934 -0.0014 2.7483 -0.0013
# 3 28.6197 28.1934 141.9951 -0.0004 12.2062 -0.0003
# 4 -0.0006 -0.0014 -0.0004 16.3222 0.0001 -4.5564
# 5 17.9875 2.7483 12.2062 0.0001 27.8095 0.0003
# 6 -0.0002 -0.0013 -0.0003 -4.5564 0.0003 5.3909
#
#
#
# Elastic Compliance Matrix: (Units=1/GPa)
#
#
# Indices 1 2 3 4 5 6 
#
# 1 0.048843 -0.011520 -0.005133 0.000001 -0.028201 0.000001
# 2 -0.011520 0.026366 -0.003460 0.000004 0.006364 0.000009
# 3 -0.005133 -0.003460 0.008781 0.000000 -0.000192 -0.000001
# 4 0.000001 0.000004 0.000000 0.080186 -0.000002 0.067773
# 5 -0.028201 0.006364 -0.000192 -0.000002 0.053655 -0.000004
# 6 0.000001 0.000009 -0.000001 0.067773 -0.000004 0.242779
#
#
# Mechanical properties :
#
#
# Convention : Reuss Voigt Hill
#
# Bulk Modulus (GPa) = 22.85014 41.42230 32.13622
# Shear Modulus (GPa) = 9.70076 20.22643 14.96359
#
# Velocity S-wave (km/s) = 2.17839 3.14552 2.70552
# Velocity P-wave (km/s) = 4.18389 5.78405 5.04778
#
# Compressibility (1/GPa) = 0.04376340
#
# Stress axis : x y z
#
# Youngs Moduli (GPa) = 20.47359 37.92767 113.88735
#
# Poissons Ratio (x) = 0.43693 0.58459
# Poissons Ratio (y) = 0.23586 0.39407
# Poissons Ratio (z) = 0.10509 0.13124
#
# Static dielectric constant tensor:
#      x y z
#    x 3.732660 0.000000 0.096970 
#    y 0.000000 3.271790 0.000000 
#    z 0.096970 0.000000 4.045850 
# 
# 
# High freq. dielectric constant tensor:
#      x y z
#    x 1.789630 0.000000 0.003210 
#    y 0.000000 1.752580 0.000000 
#    z 0.003210 0.000000 1.819200 
# 
# From -- ./inp_files/378096.got.cif
#   From: 2010.06.25/outbox.ucp.g09.slc.cvg/sg12_190_cif.got.tgz:378096.got - 2010.06.28 13:50:54.
