data_PCOD8116741
_publ_section_title
;
Structure prediction by ZEFSAII (Michael W. Deem and Ramdas Pophale) SiO2 
 PCOD8116741
Probable space group: P 2/C
;
_chemical_formula_sum "Si O2"
_cell_formula_units_Z 20
_cell_length_a 24.597651
_cell_length_b 7.060875
_cell_length_c 5.299735
_cell_angle_alpha 90.000000
_cell_angle_beta 71.720455
_cell_angle_gamma 90.000000
_cell_volume 874.014103
_symmetry_space_group_name_H-M "P 2/C"
_symmetry_group_IT_number 13
_symmetry_cell_setting 'monoclinic'
loop_
_space_group_symop_operation_xyz
x,y,z
-x,y,1/2-z
-x,-y,-z
x,-y,1/2+z
loop_
_atom_site_type_symbol
_atom_site_label
_atom_site_fract_x
_atom_site_fract_y
_atom_site_fract_z
Si Si1 0.346942 0.377685 0.707664
Si Si2 0.179842 0.789680 0.960652
Si Si3 0.475713 0.713385 0.035388
Si Si4 0.771610 0.787013 0.110486
Si Si5 0.936658 0.620880 0.318979
O O1 0.341244 0.476012 0.444921
O O2 0.407429 0.273216 0.637476
O O3 0.297280 0.219780 0.803012
O O4 0.201253 0.683890 0.674708
O O5 0.204453 0.000722 0.908738
O O6 0.206652 0.683286 0.165592
O O7 0.110761 0.785276 0.077196
O O8 0.500000 0.817347 0.250000
O O9 0.500000 0.817302 0.750000
O O10 0.500000 0.500000 0.000000
O O11 0.928741 0.467058 0.552323
O O12 0.000000 0.712762 0.250000
#
# Coordination Sequence:
#
# PCOD8116741 Si02
#       5
#     4   4   4   4   4
#     4  12  21  32  53  85 117 143 194 244 281 337
#     4  10  21  42  57  77 120 157 189 230 278 347
#     4  10  16  30  48  73 113 142 174 234 293 339
#     4  10  23  37  55  81 112 164 195 225 286 330
#     4  10  21  37  63  94 117 144 183 236 293 340
#
# _framework density 22.882926000000001
#
# number of rings (size 3 to 8) (size 9 to 14) (size 15 to 20)
#    0.000    1.600    4.000    2.400    0.000    4.800 
#    0.000    4.000    0.000    0.000    0.000   16.800 
#    0.000    0.000    0.000    0.000    0.000    0.000 
#
# Total GULP energy -247828.375095 kJ/mol
# GULP energy per Si atom -12391.418755 kJ/mol
# Density = 2.283084 g / cm^3
# Si number density = 22.882926 Si / 1000 Ang^3
#
#
#
# Elastic Constant Matrix: (Units=GPa)
#
#
# Indices 1 2 3 4 5 6 
#
# 1 193.5567 28.9069 71.4736 0.0000 -34.5296 0.0000
# 2 28.9069 40.0818 0.9676 0.0000 -17.1906 0.0000
# 3 71.4736 0.9676 210.2367 0.0000 16.9187 0.0000
# 4 0.0000 0.0000 0.0000 -5.8561 0.0000 -12.5685
# 5 -34.5296 -17.1906 16.9187 0.0000 61.9185 0.0000
# 6 0.0000 0.0000 0.0000 -12.5685 0.0000 22.2000
#
#
#
# Elastic Compliance Matrix: (Units=1/GPa)
#
#
# Indices 1 2 3 4 5 6 
#
# 1 0.007454 -0.003624 -0.002833 0.000000 0.003925 0.000000
# 2 -0.003624 0.030209 0.000594 0.000000 0.006204 0.000000
# 3 -0.002833 0.000594 0.005962 0.000000 -0.003044 0.000000
# 4 0.000000 0.000000 0.000000 -0.077090 0.000000 -0.043645
# 5 0.003925 0.006204 -0.003044 0.000000 0.020893 0.000000
# 6 0.000000 0.000000 0.000000 -0.043645 0.000000 0.020336
#
#
# Mechanical properties :
#
#
# Convention : Reuss Voigt Hill
#
# Bulk Modulus (GPa) = 31.35001 71.84127 51.59564
# Shear Modulus (GPa) = 165.98155 38.48760 102.23458
#
# Velocity S-wave (km/s) = 8.52599 4.10559 6.69135
# Velocity P-wave (km/s) = 10.51919 7.34423 9.07169
#
# Compressibility (1/GPa) = 0.03189792
#
# Stress axis : x y z
#
# Youngs Moduli (GPa) = 134.15380 33.10258 167.72797
#
# Poissons Ratio (x) = 0.11997 0.47523
# Poissons Ratio (y) = 0.48620 -0.09960
# Poissons Ratio (z) = 0.38010 -0.01966
#
# Static dielectric constant tensor:
#      x y z
#    x 5.176960 0.000000 1.865300 
#    y 0.000000 3.411010 0.000000 
#    z 1.865300 0.000000 9.008770 
# 
# 
# High freq. dielectric constant tensor:
#      x y z
#    x 1.920690 0.000000 0.010570 
#    y 0.000000 1.842260 0.000000 
#    z 0.010570 0.000000 1.948680 
# 
# From -- ./inp_files/6709.got.cif
#   From: 2010.06.25/outbox.cif.g09.slc.cpg/sg13_4_cif.got.tgz:6709.got - 2010.06.28 04:50:58.
