data_PCOD8116197
_publ_section_title
;
Structure prediction by ZEFSAII (Michael W. Deem and Ramdas Pophale) SiO2 
 PCOD8116197
Probable space group: C 2/M
;
_chemical_formula_sum "Si O2"
_cell_formula_units_Z 26
_cell_length_a 24.000000
_cell_length_b 12.000000
_cell_length_c 30.000000
_cell_angle_alpha 90.000000
_cell_angle_beta 20.000000
_cell_angle_gamma 90.000000
_cell_volume 2955.054038
_symmetry_space_group_name_H-M "C 2/M"
_symmetry_group_IT_number 12
_symmetry_cell_setting 'monoclinic'
loop_
_space_group_symop_operation_xyz
x,y,z
-x,y,-z
-x,-y,-z
x,-y,z
1/2+x,1/2+y,z
1/2-x,1/2+y,-z
1/2-x,1/2-y,-z
1/2+x,1/2-y,z
loop_
_atom_site_type_symbol
_atom_site_label
_atom_site_fract_x
_atom_site_fract_y
_atom_site_fract_z
Si Si1 0.180566 0.629562 0.708224
Si Si2 0.535635 0.127761 0.909789
Si Si3 0.217044 0.754413 0.595469
Si Si4 0.244096 0.200261 0.181461
Si Si5 0.564038 0.376849 0.633312
Si Si6 0.965945 0.629819 0.613282
Si Si7 0.000000 0.759147 0.500000
O O1 0.169954 0.500000 0.704469
O O2 0.063624 0.659769 0.837424
O O3 0.125103 0.701885 0.707246
O O4 0.365116 0.659581 0.581274
O O5 0.703011 0.141143 0.812010
O O6 0.476406 0.000000 0.959015
O O7 0.401025 0.211938 0.031190
O O8 0.311224 0.657127 0.499017
O O9 0.079366 0.802730 0.666337
O O10 0.347730 0.848033 0.512030
O O11 0.160333 0.318543 0.255787
O O12 0.116797 0.124962 0.250397
O O13 0.609015 0.500000 0.614540
O O14 0.931228 0.500000 0.637728
O O15 0.929807 0.680817 0.591816
#
# Coordination Sequence:
#
# PCOD8116197 Si02
#       7
#     8   8   8   8   8   8   4
#     4  10  19  32  52  77 106 133 163 211 262 303
#     4  10  19  33  53  78 106 133 164 212 264 302
#     4   9  20  32  48  76 106 131 169 212 251 306
#     4  10  19  33  52  76 101 131 176 211 245 304
#     4  10  18  32  52  74 100 135 171 209 252 301
#     4  10  19  32  50  71 101 139 168 206 253 298
#     4  10  18  32  48  76 104 128 168 204 254 312
#
# _framework density 8.7984849999999994
#
# number of rings (size 3 to 8) (size 9 to 14) (size 15 to 20)
#    0.000    2.154    1.538    3.231    0.000    0.000 
#    0.000    3.077    0.000    0.000    0.000    0.000 
#    0.000    0.000    0.000    0.000    0.000    0.000 
#
# Total GULP energy -322344.880094 kJ/mol
# GULP energy per Si atom -12397.880004 kJ/mol
# Density = 0.877846 g / cm^3
# Si number density = 8.798485 Si / 1000 Ang^3
#
#
#
# Elastic Constant Matrix: (Units=GPa)
#
#
# Indices 1 2 3 4 5 6 
#
# 1 116.5002 30.6261 42.8983 0.0062 13.7909 0.0014
# 2 30.6261 70.8576 36.8592 0.0258 11.4431 -0.0017
# 3 42.8983 36.8592 66.7287 0.0005 12.7551 -0.0042
# 4 0.0062 0.0258 0.0005 12.6017 -0.0012 5.6490
# 5 13.7909 11.4431 12.7551 -0.0012 30.0941 -0.0009
# 6 0.0014 -0.0017 -0.0042 5.6490 -0.0009 18.5622
#
#
#
# Elastic Compliance Matrix: (Units=1/GPa)
#
#
# Indices 1 2 3 4 5 6 
#
# 1 0.011486 -0.001393 -0.006213 -0.000002 -0.002101 -0.000002
# 2 -0.001393 0.020250 -0.009728 -0.000047 -0.002938 0.000014
# 3 -0.006213 -0.009728 0.025139 0.000022 -0.004109 -0.000002
# 4 -0.000002 -0.000047 0.000022 0.091890 0.000012 -0.027965
# 5 -0.002101 -0.002938 -0.004109 0.000012 0.037050 -0.000003
# 6 -0.000002 0.000014 -0.000002 -0.027965 -0.000003 0.062383
#
#
# Mechanical properties :
#
#
# Convention : Reuss Voigt Hill
#
# Bulk Modulus (GPa) = 45.03224 52.76153 48.89689
# Shear Modulus (GPa) = 17.22526 21.83181 19.52854
#
# Velocity S-wave (km/s) = 3.13209 3.52612 3.33493
# Velocity P-wave (km/s) = 6.22306 6.82835 6.53272
#
# Compressibility (1/GPa) = 0.02220631
#
# Stress axis : x y z
#
# Youngs Moduli (GPa) = 87.05877 49.38261 39.77841
#
# Poissons Ratio (x) = 0.06881 0.24715
# Poissons Ratio (y) = 0.12131 0.38697
# Poissons Ratio (z) = 0.54091 0.48040
#
# Static dielectric constant tensor:
#      x y z
#    x 3.483660 0.000000 0.110860 
#    y 0.000000 3.024690 0.000060 
#    z 0.110860 0.000060 3.066270 
# 
# 
# High freq. dielectric constant tensor:
#      x y z
#    x 1.690300 0.000000 0.010210 
#    y 0.000000 1.663170 0.000010 
#    z 0.010210 0.000010 1.655600 
# 
# From -- ./inp_files/382853.got.cif
#   From: 2010.06.25/outbox.ucp.g09.slc.cvg/sg12_192_cif.got.tgz:382853.got - 2010.06.28 13:50:54.
