data_PCOD8116720
_publ_section_title
;
Structure prediction by ZEFSAII (Michael W. Deem and Ramdas Pophale) SiO2 
 PCOD8116720
Probable space group: P 2/C
;
_chemical_formula_sum "Si O2"
_cell_formula_units_Z 32
_cell_length_a 20.441234
_cell_length_b 8.599683
_cell_length_c 18.211028
_cell_angle_alpha 90.000000
_cell_angle_beta 145.388821
_cell_angle_gamma 90.000000
_cell_volume 1818.342402
_symmetry_space_group_name_H-M "P 2/C"
_symmetry_group_IT_number 13
_symmetry_cell_setting 'monoclinic'
loop_
_space_group_symop_operation_xyz
x,y,z
-x,y,1/2-z
-x,-y,-z
x,-y,1/2+z
loop_
_atom_site_type_symbol
_atom_site_label
_atom_site_fract_x
_atom_site_fract_y
_atom_site_fract_z
Si Si1 0.565911 0.901565 0.468653
Si Si2 0.421401 0.306772 0.384321
Si Si3 0.744627 0.308183 0.068667
Si Si4 0.840169 0.901545 0.547307
Si Si5 0.327426 0.967890 0.719824
Si Si6 0.751346 0.115009 0.706674
Si Si7 0.086661 0.076099 0.229335
Si Si8 0.337261 0.562610 0.412525
O O1 0.530601 0.822622 0.513825
O O2 0.621856 0.775977 0.466274
O O3 0.454446 0.964713 0.324574
O O4 0.654486 0.041321 0.564505
O O5 0.343859 0.434354 0.353863
O O6 0.532541 0.382899 0.447872
O O7 0.339712 0.215809 0.250809
O O8 0.788814 0.269638 0.025843
O O9 0.838227 0.234727 0.212822
O O10 0.723160 0.488704 0.070127
O O11 0.744311 0.009052 0.420775
O O12 0.880741 0.989129 0.659037
O O13 0.951316 0.882075 0.597178
O O14 0.262035 0.065447 0.721732
O O15 0.744185 0.300547 0.692037
O O16 0.877005 0.054388 0.796229
#
# Coordination Sequence:
#
# PCOD8116720 Si02
#       8
#     4   4   4   4   4   4   4   4
#     4   9  15  29  47  79 105 132 173 206 249 314
#     4   9  17  27  47  79 113 137 159 199 261 328
#     4   8  17  31  53  73  98 139 177 206 256 321
#     4   9  19  35  57  70  98 136 184 233 257 295
#     4  11  18  29  53  83 106 133 173 224 264 299
#     4  10  17  30  54  79 104 133 178 218 252 317
#     4   8  18  38  55  70  92 136 193 223 253 308
#     4  10  16  28  52  79 106 143 162 197 265 329
#
# _framework density 17.598445999999999
#
# number of rings (size 3 to 8) (size 9 to 14) (size 15 to 20)
#    0.750    2.000    2.500    1.500    0.000    1.000 
#    0.000    0.000    8.250    3.000    0.000    0.000 
#    0.000    0.000    0.000    0.000    0.000    0.000 
#
# Total GULP energy -396441.404355 kJ/mol
# GULP energy per Si atom -12388.793886 kJ/mol
# Density = 1.755839 g / cm^3
# Si number density = 17.598446 Si / 1000 Ang^3
#
#
#
# Elastic Constant Matrix: (Units=GPa)
#
#
# Indices 1 2 3 4 5 6 
#
# 1 77.0995 33.2738 20.8658 0.0000 21.3453 0.0000
# 2 33.2738 103.9934 18.3320 0.0000 4.7244 0.0000
# 3 20.8658 18.3320 61.2309 0.0000 6.4972 0.0000
# 4 0.0000 0.0000 0.0000 11.4510 0.0000 1.9675
# 5 21.3453 4.7244 6.4972 0.0000 22.6227 0.0000
# 6 0.0000 0.0000 0.0000 1.9675 0.0000 26.8936
#
#
#
# Elastic Compliance Matrix: (Units=1/GPa)
#
#
# Indices 1 2 3 4 5 6 
#
# 1 0.021216 -0.005318 -0.003745 0.000000 -0.017831 0.000000
# 2 -0.005318 0.011521 -0.001974 0.000000 0.003179 0.000000
# 3 -0.003745 -0.001974 0.018339 0.000000 -0.001321 0.000000
# 4 0.000000 0.000000 0.000000 0.088440 0.000000 -0.006470
# 5 -0.017831 0.003179 -0.001321 0.000000 0.060743 0.000000
# 6 0.000000 0.000000 0.000000 -0.006470 0.000000 0.037657
#
#
# Mechanical properties :
#
#
# Convention : Reuss Voigt Hill
#
# Bulk Modulus (GPa) = 34.48219 43.02967 38.75593
# Shear Modulus (GPa) = 18.54196 23.51695 21.02945
#
# Velocity S-wave (km/s) = 3.24946 3.65952 3.46057
# Velocity P-wave (km/s) = 5.80647 6.50846 6.16746
#
# Compressibility (1/GPa) = 0.02900048
#
# Stress axis : x y z
#
# Youngs Moduli (GPa) = 47.13510 86.79696 54.52782
#
# Poissons Ratio (x) = 0.46157 0.20423
# Poissons Ratio (y) = 0.25066 0.10766
# Poissons Ratio (z) = 0.17654 0.17138
#
# Static dielectric constant tensor:
#      x y z
#    x 3.327570 0.000000 0.256990 
#    y 0.000000 3.208150 0.000000 
#    z 0.256990 0.000000 2.869900 
# 
# 
# High freq. dielectric constant tensor:
#      x y z
#    x 1.677210 0.000000 0.025120 
#    y 0.000000 1.659160 0.000000 
#    z 0.025120 0.000000 1.639510 
# 
# From -- ./inp_files/82089.got.cif
#   From: 2010.06.25/outbox.cif.g09.slc.cpg/sg13_42_cif.got.tgz:82089.got - 2010.06.28 04:50:58.
