data_PCOD8116985
_publ_section_title
;
Structure prediction by ZEFSAII (Michael W. Deem and Ramdas Pophale) SiO2 
 PCOD8116985
Probable space group: P 2/C
;
_chemical_formula_sum "Si O2"
_cell_formula_units_Z 26
_cell_length_a 15.733579
_cell_length_b 8.635993
_cell_length_c 14.535440
_cell_angle_alpha 90.000000
_cell_angle_beta 37.063862
_cell_angle_gamma 90.000000
_cell_volume 1190.344438
_symmetry_space_group_name_H-M "P 2/C"
_symmetry_group_IT_number 13
_symmetry_cell_setting 'monoclinic'
loop_
_space_group_symop_operation_xyz
x,y,z
-x,y,1/2-z
-x,-y,-z
x,-y,1/2+z
loop_
_atom_site_type_symbol
_atom_site_label
_atom_site_fract_x
_atom_site_fract_y
_atom_site_fract_z
Si Si1 0.500000 0.532461 0.250000
Si Si2 0.939806 0.337283 0.520863
Si Si3 0.220183 0.720763 0.514857
Si Si4 0.204991 0.809667 0.729038
Si Si5 0.700572 0.151623 0.827161
Si Si6 0.441984 0.274898 0.156478
Si Si7 0.375971 0.966631 0.293380
O O1 0.369734 0.636983 0.390384
O O2 0.452958 0.434904 0.200960
O O3 0.883312 0.367074 0.465687
O O4 0.819941 0.275187 0.694399
O O5 0.000000 0.500000 0.500000
O O6 0.067816 0.213805 0.411217
O O7 0.163447 0.733682 0.667137
O O8 0.234241 0.896097 0.460365
O O9 0.338286 0.716853 0.657974
O O10 0.232120 0.992386 0.693507
O O11 0.600653 0.108483 0.827352
O O12 0.600308 0.224051 0.991518
O O13 0.372671 0.151787 0.287649
O O14 0.500000 0.906938 0.250000
#
# Coordination Sequence:
#
# PCOD8116985 Si02
#       7
#     2   4   4   4   4   4   4
#     4  12  26  36  62 100 132 162 216 268 336 386
#     4  11  25  45  66  91 136 174 215 264 326 391
#     4  11  24  40  66  95 129 173 214 262 327 392
#     4  11  23  43  69  93 128 169 221 263 322 391
#     4  10  23  39  69  97 123 173 216 265 326 377
#     4  11  23  39  65 100 128 162 210 278 325 378
#     4  10  17  37  62  93 129 158 204 264 317 376
#
# _framework density 21.842416
#
# number of rings (size 3 to 8) (size 9 to 14) (size 15 to 20)
#    0.000    1.231    1.538    5.538    4.308    0.615 
#    0.000    0.000    3.385    0.000    0.000    0.000 
#    0.000    0.000    0.000    0.000    0.000    0.000 
#
# Total GULP energy -322315.607601 kJ/mol
# GULP energy per Si atom -12396.754139 kJ/mol
# Density = 2.179270 g / cm^3
# Si number density = 21.842416 Si / 1000 Ang^3
#
#
#
# Elastic Constant Matrix: (Units=GPa)
#
#
# Indices 1 2 3 4 5 6 
#
# 1 118.5837 39.5816 23.9593 0.0000 3.8058 0.0000
# 2 39.5816 89.0689 36.4564 0.0000 0.1227 0.0000
# 3 23.9593 36.4564 88.9255 0.0000 -2.3019 0.0000
# 4 0.0000 0.0000 0.0000 25.3090 0.0000 -5.1524
# 5 3.8058 0.1227 -2.3019 0.0000 29.1365 0.0000
# 6 0.0000 0.0000 0.0000 -5.1524 0.0000 26.5559
#
#
#
# Elastic Compliance Matrix: (Units=1/GPa)
#
#
# Indices 1 2 3 4 5 6 
#
# 1 0.010037 -0.004010 -0.001096 0.000000 -0.001381 0.000000
# 2 -0.004010 0.015100 -0.005109 0.000000 0.000057 0.000000
# 3 -0.001096 -0.005109 0.013667 0.000000 0.001244 0.000000
# 4 0.000000 0.000000 0.000000 0.041136 0.000000 0.007981
# 5 -0.001381 0.000057 0.001244 0.000000 0.034600 0.000000
# 6 0.000000 0.000000 0.000000 0.007981 0.000000 0.039205
#
#
# Mechanical properties :
#
#
# Convention : Reuss Voigt Hill
#
# Bulk Modulus (GPa) = 54.42131 55.17475 54.79803
# Shear Modulus (GPa) = 27.73155 29.30566 28.51861
#
# Velocity S-wave (km/s) = 3.56704 3.66688 3.61730
# Velocity P-wave (km/s) = 6.47569 6.57596 6.52601
#
# Compressibility (1/GPa) = 0.01837515
#
# Stress axis : x y z
#
# Youngs Moduli (GPa) = 99.63052 66.22440 73.16722
#
# Poissons Ratio (x) = 0.26555 0.08020
# Poissons Ratio (y) = 0.39950 0.37379
# Poissons Ratio (z) = 0.10921 0.33832
#
# Static dielectric constant tensor:
#      x y z
#    x 4.118720 0.000000 -0.017710 
#    y 0.000000 3.863770 0.000000 
#    z -0.017710 0.000000 3.945480 
# 
# 
# High freq. dielectric constant tensor:
#      x y z
#    x 1.866250 0.000000 0.000180 
#    y 0.000000 1.851890 0.000000 
#    z 0.000180 0.000000 1.850690 
# 
# From -- ./inp_files/53293.got.cif
#   From: 2010.06.25/outbox.cif.g09.slc.cpg/sg13_27_cif.got.tgz:53293.got - 2010.06.28 04:50:58.
