data_PCOD8116585
_publ_section_title
;
Structure prediction by ZEFSAII (Michael W. Deem and Ramdas Pophale) SiO2 
 PCOD8116585
Probable space group: C 2/M
;
_chemical_formula_sum "Si O2"
_cell_formula_units_Z 28
_cell_length_a 30.000000
_cell_length_b 9.000000
_cell_length_c 21.000000
_cell_angle_alpha 90.000000
_cell_angle_beta 150.000000
_cell_angle_gamma 90.000000
_cell_volume 2835.000000
_symmetry_space_group_name_H-M "C 2/M"
_symmetry_group_IT_number 12
_symmetry_cell_setting 'monoclinic'
loop_
_space_group_symop_operation_xyz
x,y,z
-x,y,-z
-x,-y,-z
x,-y,z
1/2+x,1/2+y,z
1/2-x,1/2+y,-z
1/2-x,1/2-y,-z
1/2+x,1/2-y,z
loop_
_atom_site_type_symbol
_atom_site_label
_atom_site_fract_x
_atom_site_fract_y
_atom_site_fract_z
Si Si1 0.843684 0.828813 0.606651
Si Si2 0.862073 0.832757 0.959475
Si Si3 0.543804 0.176733 0.150011
Si Si4 0.776275 0.676448 0.100814
Si Si5 0.369371 0.669923 0.493987
Si Si6 0.476207 0.824363 0.397363
Si Si7 0.814338 0.168687 0.760752
O O1 0.750000 0.750000 0.500000
O O2 0.907212 0.727833 0.726661
O O3 0.888225 0.824329 0.592300
O O4 0.836798 0.000000 0.621367
O O5 0.798990 0.775851 0.939793
O O6 0.803474 0.835609 0.823291
O O7 0.897141 0.000000 0.018491
O O8 0.942765 0.725555 0.039448
O O9 0.594058 0.251527 0.150985
O O10 0.547016 0.000000 0.143918
O O11 0.774823 0.500000 0.089607
O O12 0.875438 0.724555 0.249963
O O13 0.750000 0.750000 0.000000
O O14 0.363164 0.500000 0.461930
O O15 0.449838 0.749837 0.556509
O O16 0.273257 0.746220 0.369907
O O17 0.500000 0.777891 0.500000
O O18 0.485869 0.000000 0.401817
O O19 0.815091 0.000000 0.734861
#
# Coordination Sequence:
#
# PCOD8116585 Si02
#       7
#     8   8   8   8   8   8   8
#     4  11  23  40  61  88 125 166 207 253 309 372
#     4  10  23  43  65  89 121 165 211 254 308 375
#     4  12  25  39  60  92 128 164 207 256 309 370
#     4  10  23  43  66  93 126 163 211 266 319 377
#     4  11  24  39  62  95 128 161 204 260 317 370
#     4  10  22  43  69  95 125 166 217 265 316 384
#     4  11  22  40  66  92 124 166 209 253 308 375
#
# _framework density 9.8765429999999999
#
# number of rings (size 3 to 8) (size 9 to 14) (size 15 to 20)
#    0.000    1.286    1.429    3.857    2.000    8.286 
#    0.000    1.429    0.000    0.000    0.000    0.000 
#    0.000    0.000    0.000    0.000    0.000    0.000 
#
# Total GULP energy -346976.380509 kJ/mol
# GULP energy per Si atom -12392.013590 kJ/mol
# Density = 0.985406 g / cm^3
# Si number density = 9.876543 Si / 1000 Ang^3
#
#
#
# Elastic Constant Matrix: (Units=GPa)
#
#
# Indices 1 2 3 4 5 6 
#
# 1 184.8739 51.9160 52.0401 0.0000 11.9766 0.0000
# 2 51.9160 120.3263 29.9802 0.0000 11.2551 0.0000
# 3 52.0401 29.9802 103.8730 0.0000 8.7584 0.0000
# 4 0.0000 0.0000 0.0000 35.4756 0.0000 4.4223
# 5 11.9766 11.2551 8.7584 0.0000 47.3418 0.0000
# 6 0.0000 0.0000 0.0000 4.4223 0.0000 41.9391
#
#
#
# Elastic Compliance Matrix: (Units=1/GPa)
#
#
# Indices 1 2 3 4 5 6 
#
# 1 0.006843 -0.002206 -0.002733 0.000000 -0.000701 0.000000
# 2 -0.002206 0.009799 -0.001598 0.000000 -0.001476 0.000000
# 3 -0.002733 -0.001598 0.011547 0.000000 -0.001065 0.000000
# 4 0.000000 0.000000 0.000000 0.028564 0.000000 -0.003012
# 5 -0.000701 -0.001476 -0.001065 0.000000 0.021848 0.000000
# 6 0.000000 0.000000 0.000000 -0.003012 0.000000 0.024162
#
#
# Mechanical properties :
#
#
# Convention : Reuss Voigt Hill
#
# Bulk Modulus (GPa) = 66.15927 75.21618 70.68772
# Shear Modulus (GPa) = 41.36469 43.29375 42.32922
#
# Velocity S-wave (km/s) = 4.58108 4.68669 4.63419
# Velocity P-wave (km/s) = 7.84523 8.21265 8.03104
#
# Compressibility (1/GPa) = 0.01511504
#
# Stress axis : x y z
#
# Youngs Moduli (GPa) = 146.12964 102.05205 86.60022
#
# Poissons Ratio (x) = 0.22514 0.23664
# Poissons Ratio (y) = 0.32238 0.13843
# Poissons Ratio (z) = 0.39931 0.16313
#
# Static dielectric constant tensor:
#      x y z
#    x 4.067720 0.000000 -0.052070 
#    y 0.000000 3.791450 0.000000 
#    z -0.052070 0.000000 3.750990 
# 
# 
# High freq. dielectric constant tensor:
#      x y z
#    x 1.805560 0.000000 0.003110 
#    y 0.000000 1.782070 0.000000 
#    z 0.003110 0.000000 1.786730 
# 
# From -- ./inp_files/329664.got.cif
#   From: 2010.06.25/outbox.ucp.g09.slc.cvg/sg12_165_cif.got.tgz:329664.got - 2010.06.28 13:50:54.
