data_PCOD8116165
_publ_section_title
;
Structure prediction by ZEFSAII (Michael W. Deem and Ramdas Pophale) SiO2 
 PCOD8116165
Probable space group: C 2/M
;
_chemical_formula_sum "Si O2"
_cell_formula_units_Z 48
_cell_length_a 18.939231
_cell_length_b 9.391215
_cell_length_c 17.572751
_cell_angle_alpha 90.000000
_cell_angle_beta 58.753393
_cell_angle_gamma 90.000000
_cell_volume 2672.149994
_symmetry_space_group_name_H-M "C 2/M"
_symmetry_group_IT_number 12
_symmetry_cell_setting 'monoclinic'
loop_
_space_group_symop_operation_xyz
x,y,z
-x,y,-z
-x,-y,-z
x,-y,z
1/2+x,1/2+y,z
1/2-x,1/2+y,-z
1/2-x,1/2-y,-z
1/2+x,1/2-y,z
loop_
_atom_site_type_symbol
_atom_site_label
_atom_site_fract_x
_atom_site_fract_y
_atom_site_fract_z
Si Si1 0.668082 0.835218 0.526959
Si Si2 0.316445 0.834867 0.011130
Si Si3 0.104401 0.834386 0.689348
Si Si4 0.930614 0.165208 0.855634
Si Si5 0.804455 0.838112 0.795421
Si Si6 0.777091 0.661658 0.664321
O O1 0.750000 0.750000 0.500000
O O2 0.595841 0.758840 0.616304
O O3 0.656745 0.823652 0.441949
O O4 0.676012 0.000000 0.547052
O O5 0.404481 0.759721 0.944091
O O6 0.319312 0.000000 0.984956
O O7 0.250000 0.750000 0.000000
O O8 0.286866 0.820892 0.115413
O O9 0.186014 0.785814 0.689548
O O10 0.026066 0.803336 0.786044
O O11 0.109838 0.000000 0.662970
O O12 0.875881 0.212166 0.813638
O O13 0.914507 0.000000 0.883752
O O14 0.811562 0.749765 0.714971
O O15 0.820767 0.000000 0.763253
O O16 0.770225 0.500000 0.695659
#
# Coordination Sequence:
#
# PCOD8116165 Si02
#       6
#     8   8   8   8   8   8
#     4   9  17  30  48  70  94 123 160 194 229 278
#     4   9  17  30  48  70  94 123 160 194 229 278
#     4   9  18  33  51  71  95 123 158 197 234 276
#     4   9  18  33  51  71  95 123 158 197 234 276
#     4   9  18  31  48  70  94 122 156 193 233 278
#     4   9  18  31  48  70  94 122 156 193 233 278
#
# _framework density 17.963063999999999
#
# number of rings (size 3 to 8) (size 9 to 14) (size 15 to 20)
#    0.000    3.000    0.000    3.000    0.000    7.333 
#    0.000    1.667    0.000   10.000    0.000    0.000 
#    0.000    0.000    0.000    0.000    0.000    0.000 
#
# Total GULP energy -297407.043527 kJ/mol
# GULP energy per Si atom -12391.960147 kJ/mol
# Density = 1.792218 g / cm^3
# Si number density = 17.963064 Si / 1000 Ang^3
#
#
#
# Elastic Constant Matrix: (Units=GPa)
#
#
# Indices 1 2 3 4 5 6 
#
# 1 19.7002 -1.0761 -7.7043 0.0000 -0.6293 0.0000
# 2 -1.0761 67.5988 16.9391 0.0000 3.7832 -0.0001
# 3 -7.7043 16.9391 26.1780 0.0000 0.4706 0.0000
# 4 0.0000 0.0000 0.0000 40.9888 0.0000 0.5496
# 5 -0.6293 3.7832 0.4706 0.0000 25.9677 0.0000
# 6 0.0000 -0.0001 0.0000 0.5496 0.0000 21.6947
#
#
#
# Elastic Compliance Matrix: (Units=1/GPa)
#
#
# Indices 1 2 3 4 5 6 
#
# 1 0.058335 -0.004128 0.019810 0.000000 0.001656 0.000000
# 2 -0.004128 0.018095 -0.012878 0.000000 -0.002503 0.000000
# 3 0.019810 -0.012878 0.052338 0.000000 0.001408 0.000000
# 4 0.000000 0.000000 0.000000 0.024405 0.000000 -0.000618
# 5 0.001656 -0.002503 0.001408 0.000000 0.038889 0.000000
# 6 0.000000 0.000000 0.000000 -0.000618 0.000000 0.046110
#
#
# Mechanical properties :
#
#
# Convention : Reuss Voigt Hill
#
# Bulk Modulus (GPa) = 7.44191 14.42162 10.93177
# Shear Modulus (GPa) = 18.02731 24.75145 21.38938
#
# Velocity S-wave (km/s) = 3.17136 3.71605 3.45446
# Velocity P-wave (km/s) = 4.19070 5.14372 4.69147
#
# Compressibility (1/GPa) = 0.13437409
#
# Stress axis : x y z
#
# Youngs Moduli (GPa) = 17.14230 55.26495 19.10656
#
# Poissons Ratio (x) = 0.22813 -0.37849
# Poissons Ratio (y) = 0.07076 0.24606
# Poissons Ratio (z) = -0.33958 0.71173
#
# Static dielectric constant tensor:
#      x y z
#    x 2.944840 0.000000 -0.258530 
#    y 0.000000 3.516970 0.000000 
#    z -0.258530 0.000000 3.924590 
# 
# 
# High freq. dielectric constant tensor:
#      x y z
#    x 1.644720 0.000000 -0.010540 
#    y 0.000000 1.701620 0.000000 
#    z -0.010540 0.000000 1.705250 
# 
# From -- ./inp_files/273686.got.cif
#   From: 2010.06.25/outbox.cif.g09.slc.cpg/sg12_137_cif.got.tgz:273686.got - 2010.06.28 00:19:55.
