data_PCOD8116036
_publ_section_title
;
Structure prediction by ZEFSAII (Michael W. Deem and Ramdas Pophale) SiO2 
 PCOD8116036
Probable space group: C 2/M
;
_chemical_formula_sum "Si O2"
_cell_formula_units_Z 56
_cell_length_a 23.336328
_cell_length_b 9.741977
_cell_length_c 27.472032
_cell_angle_alpha 90.000000
_cell_angle_beta 32.713495
_cell_angle_gamma 90.000000
_cell_volume 3375.333506
_symmetry_space_group_name_H-M "C 2/M"
_symmetry_group_IT_number 12
_symmetry_cell_setting 'monoclinic'
loop_
_space_group_symop_operation_xyz
x,y,z
-x,y,-z
-x,-y,-z
x,-y,z
1/2+x,1/2+y,z
1/2-x,1/2+y,-z
1/2-x,1/2-y,-z
1/2+x,1/2-y,z
loop_
_atom_site_type_symbol
_atom_site_label
_atom_site_fract_x
_atom_site_fract_y
_atom_site_fract_z
Si Si1 0.826560 0.661784 0.912211
Si Si2 0.334651 0.848972 0.796516
Si Si3 0.841475 0.158453 0.705923
Si Si4 0.261960 0.662896 0.660403
Si Si5 0.413794 0.846975 0.378915
Si Si6 0.090966 0.158249 0.531108
Si Si7 0.435433 0.162868 0.257118
O O1 0.815449 0.500000 0.931817
O O2 0.795625 0.692569 0.878298
O O3 0.945940 0.716553 0.837839
O O4 0.750000 0.750000 0.000000
O O5 0.293356 0.740381 0.786212
O O6 0.460467 0.853305 0.706178
O O7 0.290363 0.000000 0.814668
O O8 0.787613 0.220338 0.695670
O O9 0.966816 0.178873 0.610815
O O10 0.812202 0.000000 0.734962
O O11 0.268430 0.500000 0.657917
O O12 0.349227 0.714825 0.559364
O O13 0.144712 0.712895 0.727831
O O14 0.366759 0.743518 0.452642
O O15 0.388576 0.788280 0.342913
O O16 0.366387 0.000000 0.420825
O O17 0.119402 0.000000 0.520970
O O18 0.441683 0.000000 0.255939
#
# Coordination Sequence:
#
# PCOD8116036 Si02
#       7
#     8   8   8   8   8   8   8
#     4   9  17  30  50  72  88 104 131 169 212 258
#     4   8  15  28  44  62  85 111 136 166 209 255
#     4   9  16  26  42  63  85 112 149 183 204 231
#     4   9  16  26  41  60  85 117 147 176 209 243
#     4   8  14  26  42  58  80 111 144 175 207 249
#     4   9  16  25  39  61  86 112 145 183 215 237
#     4   8  15  28  44  62  85 113 141 168 208 259
#
# _framework density 16.590954
#
# number of rings (size 3 to 8) (size 9 to 14) (size 15 to 20)
#    0.000    3.429    0.000    2.143    0.000    2.857 
#    0.000    2.857    0.000    6.857    0.000    6.000 
#    0.000    0.000    0.000    0.000    0.000    0.000 
#
# Total GULP energy -347010.797851 kJ/mol
# GULP energy per Si atom -12393.242780 kJ/mol
# Density = 1.655319 g / cm^3
# Si number density = 16.590954 Si / 1000 Ang^3
#
#
#
# Elastic Constant Matrix: (Units=GPa)
#
#
# Indices 1 2 3 4 5 6 
#
# 1 92.1508 35.8175 49.1090 0.0000 16.8125 0.0009
# 2 35.8175 54.7607 46.9767 0.0000 13.4064 0.0014
# 3 49.1090 46.9767 97.2341 -0.0002 21.3934 0.0005
# 4 0.0000 0.0000 -0.0002 25.3091 -0.0001 8.5533
# 5 16.8125 13.4064 21.3934 -0.0001 20.6248 -0.0004
# 6 0.0009 0.0014 0.0005 8.5533 -0.0004 17.2199
#
#
#
# Elastic Compliance Matrix: (Units=1/GPa)
#
#
# Indices 1 2 3 4 5 6 
#
# 1 0.016318 -0.005668 -0.004388 0.000000 -0.005065 0.000000
# 2 -0.005668 0.033743 -0.012478 0.000001 -0.004370 -0.000003
# 3 -0.004388 -0.012478 0.020677 0.000000 -0.009759 0.000000
# 4 0.000000 0.000001 0.000000 0.047482 -0.000001 -0.023585
# 5 -0.005065 -0.004370 -0.009759 -0.000001 0.065577 0.000003
# 6 0.000000 -0.000003 0.000000 -0.023585 0.000003 0.069787
#
#
# Mechanical properties :
#
#
# Convention : Reuss Voigt Hill
#
# Bulk Modulus (GPa) = 38.95950 56.43911 47.69930
# Shear Modulus (GPa) = 16.27556 20.11359 18.19457
#
# Velocity S-wave (km/s) = 3.13547 3.48562 3.31517
# Velocity P-wave (km/s) = 6.05323 7.09163 6.59291
#
# Compressibility (1/GPa) = 0.02566768
#
# Stress axis : x y z
#
# Youngs Moduli (GPa) = 61.28285 29.63594 48.36397
#
# Poissons Ratio (x) = 0.16799 0.21224
# Poissons Ratio (y) = 0.34737 0.60348
# Poissons Ratio (z) = 0.26894 0.36980
#
# Static dielectric constant tensor:
#      x y z
#    x 3.349560 0.000000 0.226550 
#    y 0.000000 3.025070 0.000000 
#    z 0.226550 0.000000 2.979120 
# 
# 
# High freq. dielectric constant tensor:
#      x y z
#    x 1.635520 0.000000 0.016270 
#    y 0.000000 1.608170 0.000000 
#    z 0.016270 0.000000 1.617450 
# 
# From -- ./inp_files/287015.got.cif
#   From: 2010.06.25/outbox.cif.g09.slc.cpg/sg12_144_cif.got.tgz:287015.got - 2010.06.28 00:19:55.
