data_PCOD8116793
_publ_section_title
;
Structure prediction by ZEFSAII (Michael W. Deem and Ramdas Pophale) SiO2 
 PCOD8116793
Probable space group: P 2/C
;
_chemical_formula_sum "Si O2"
_cell_formula_units_Z 26
_cell_length_a 5.182063
_cell_length_b 13.725490
_cell_length_c 19.521370
_cell_angle_alpha 90.000000
_cell_angle_beta 64.730352
_cell_angle_gamma 90.000000
_cell_volume 1255.618200
_symmetry_space_group_name_H-M "P 2/C"
_symmetry_group_IT_number 13
_symmetry_cell_setting 'monoclinic'
loop_
_space_group_symop_operation_xyz
x,y,z
-x,y,1/2-z
-x,-y,-z
x,-y,1/2+z
loop_
_atom_site_type_symbol
_atom_site_label
_atom_site_fract_x
_atom_site_fract_y
_atom_site_fract_z
Si Si1 0.500000 0.315458 0.750000
Si Si2 0.002044 0.658385 0.110727
Si Si3 0.839849 0.520586 0.837515
Si Si4 0.215436 0.173696 0.676106
Si Si5 0.446133 0.892179 0.480614
Si Si6 0.339279 0.644254 0.837102
Si Si7 0.123643 0.222724 0.474558
O O1 0.354420 0.250963 0.709636
O O2 0.710042 0.382749 0.679923
O O3 0.226958 0.574169 0.106430
O O4 0.046845 0.765216 0.137916
O O5 0.990982 0.682761 0.030662
O O6 0.536996 0.570304 0.857355
O O7 0.000000 0.486355 0.750000
O O8 0.036014 0.596153 0.855890
O O9 0.442772 0.107105 0.610950
O O10 0.000000 0.111191 0.750000
O O11 0.620260 0.820114 0.509349
O O12 0.115900 0.858461 0.516148
O O13 0.500000 0.000000 0.500000
O O14 0.500000 0.678389 0.750000
O O15 0.268557 0.740742 0.888469
#
# Coordination Sequence:
#
# PCOD8116793 Si02
#       7
#     2   4   4   4   4   4   4
#     4  10  16  32  54  82 120 154 194 232 312 362
#     4  10  21  31  57  86 122 158 198 242 305 353
#     4  10  21  35  56  87 119 160 209 251 284 339
#     4   9  19  34  55  87 120 157 186 240 302 371
#     4  11  23  42  65  90 117 152 197 250 310 368
#     4  10  23  40  59  83 120 167 210 248 285 338
#     4  11  23  42  62  87 120 158 198 249 308 367
#
# _framework density 20.706932999999999
#
# number of rings (size 3 to 8) (size 9 to 14) (size 15 to 20)
#    0.000    1.846    1.538    2.769    5.385    1.231 
#    0.000    1.538    0.000    0.000    0.000    0.000 
#    0.000    0.000    0.000    0.000    0.000    0.000 
#
# Total GULP energy -322146.986243 kJ/mol
# GULP energy per Si atom -12390.268702 kJ/mol
# Density = 2.065980 g / cm^3
# Si number density = 20.706933 Si / 1000 Ang^3
#
#
#
# Elastic Constant Matrix: (Units=GPa)
#
#
# Indices 1 2 3 4 5 6 
#
# 1 77.6397 1.7074 20.7920 0.0000 3.9019 0.0000
# 2 1.7074 61.8792 46.7837 0.0000 1.5741 0.0000
# 3 20.7920 46.7837 116.8244 0.0000 -0.5982 0.0000
# 4 0.0000 0.0000 0.0000 30.6162 0.0000 12.1295
# 5 3.9019 1.5741 -0.5982 0.0000 24.9507 0.0000
# 6 0.0000 0.0000 0.0000 12.1295 0.0000 28.1816
#
#
#
# Elastic Compliance Matrix: (Units=1/GPa)
#
#
# Indices 1 2 3 4 5 6 
#
# 1 0.013853 0.002226 -0.003369 0.000000 -0.002388 0.000000
# 2 0.002226 0.023607 -0.009860 0.000000 -0.002074 0.000000
# 3 -0.003369 -0.009860 0.013116 0.000000 0.001463 0.000000
# 4 0.000000 0.000000 0.000000 0.039377 0.000000 -0.016948
# 5 -0.002388 -0.002074 0.001463 0.000000 0.040618 0.000000
# 6 0.000000 0.000000 0.000000 -0.016948 0.000000 0.042779
#
#
# Mechanical properties :
#
#
# Convention : Reuss Voigt Hill
#
# Bulk Modulus (GPa) = 35.00393 43.87884 39.44138
# Shear Modulus (GPa) = 24.40456 29.22037 26.81247
#
# Velocity S-wave (km/s) = 3.43675 3.76059 3.60231
# Velocity P-wave (km/s) = 5.71747 6.33186 6.03249
#
# Compressibility (1/GPa) = 0.02856822
#
# Stress axis : x y z
#
# Youngs Moduli (GPa) = 72.18493 42.36078 76.24477
#
# Poissons Ratio (x) = -0.09428 0.25688
# Poissons Ratio (y) = -0.16066 0.75180
# Poissons Ratio (z) = 0.24320 0.41769
#
# Static dielectric constant tensor:
#      x y z
#    x 3.943740 0.000000 -0.219550 
#    y 0.000000 3.360750 0.000000 
#    z -0.219550 0.000000 4.244280 
# 
# 
# High freq. dielectric constant tensor:
#      x y z
#    x 1.824280 0.000000 0.005000 
#    y 0.000000 1.765850 0.000000 
#    z 0.005000 0.000000 1.814730 
# 
# From -- ./inp_files/73389.got.cif
#   From: 2010.06.25/outbox.cif.g09.slc.cpg/sg13_37_cif.got.tgz:73389.got - 2010.06.28 04:50:58.
