data_PCOD8116154
_publ_section_title
;
Structure prediction by ZEFSAII (Michael W. Deem and Ramdas Pophale) SiO2 
 PCOD8116154
Probable space group: C 2/M
;
_chemical_formula_sum "Si O2"
_cell_formula_units_Z 56
_cell_length_a 12.538529
_cell_length_b 13.924894
_cell_length_c 23.096806
_cell_angle_alpha 90.000000
_cell_angle_beta 137.705967
_cell_angle_gamma 90.000000
_cell_volume 2713.712538
_symmetry_space_group_name_H-M "C 2/M"
_symmetry_group_IT_number 12
_symmetry_cell_setting 'monoclinic'
loop_
_space_group_symop_operation_xyz
x,y,z
-x,y,-z
-x,-y,-z
x,-y,z
1/2+x,1/2+y,z
1/2-x,1/2+y,-z
1/2-x,1/2-y,-z
1/2+x,1/2-y,z
loop_
_atom_site_type_symbol
_atom_site_label
_atom_site_fract_x
_atom_site_fract_y
_atom_site_fract_z
Si Si1 0.822189 0.611235 0.064484
Si Si2 0.988404 0.228135 0.063060
Si Si3 0.335574 0.102555 0.403074
Si Si4 0.391566 0.701293 0.399229
Si Si5 0.164579 0.112908 0.447739
Si Si6 0.796587 0.389153 0.189260
Si Si7 0.868936 0.613318 0.634818
O O1 0.835715 0.500000 0.050452
O O2 0.956794 0.673428 0.085513
O O3 0.845774 0.622208 0.142241
O O4 0.648770 0.651009 0.978194
O O5 0.152222 0.179654 0.149540
O O6 0.000000 0.253383 0.000000
O O7 0.500000 0.082248 0.500000
O O8 0.348965 0.188881 0.362577
O O9 0.210142 0.139266 0.400744
O O10 0.283369 0.000000 0.353258
O O11 0.500000 0.703484 0.500000
O O12 0.487021 0.651413 0.385995
O O13 0.230688 0.644932 0.348681
O O14 0.292687 0.157530 0.544958
O O15 0.163416 0.000000 0.456803
O O16 0.750074 0.500000 0.183039
O O17 0.948835 0.354561 0.287199
O O18 0.860780 0.500000 0.629277
#
# Coordination Sequence:
#
# PCOD8116154 Si02
#       7
#     8   8   8   8   8   8   8
#     4   9  17  30  50  74  97 123 155 189 223 264
#     4   9  17  30  49  73  98 124 154 187 224 268
#     4   9  18  31  46  65  89 116 150 193 237 281
#     4   9  17  28  46  67  88 114 152 194 234 273
#     4   9  17  31  49  67  89 118 153 193 238 282
#     4   9  17  31  49  69  95 124 155 189 227 272
#     4   9  17  29  47  71  94 118 152 195 236 275
#
# _framework density 20.635936999999998
#
# number of rings (size 3 to 8) (size 9 to 14) (size 15 to 20)
#    0.000    3.000    0.000    0.857    0.000    8.857 
#    0.000    5.714    0.000    3.429    0.000    0.000 
#    0.000    0.000    0.000    0.000    0.000    0.000 
#
# Total GULP energy -347038.664174 kJ/mol
# GULP energy per Si atom -12394.238006 kJ/mol
# Density = 2.058897 g / cm^3
# Si number density = 20.635937 Si / 1000 Ang^3
#
#
#
# Elastic Constant Matrix: (Units=GPa)
#
#
# Indices 1 2 3 4 5 6 
#
# 1 95.7797 52.3727 26.5188 0.0000 26.8262 0.0000
# 2 52.3727 73.4433 40.7198 0.0000 14.6564 0.0000
# 3 26.5188 40.7198 65.5028 0.0000 21.8605 0.0000
# 4 0.0000 0.0000 0.0000 23.0438 0.0000 6.0064
# 5 26.8262 14.6564 21.8605 0.0000 23.9729 0.0000
# 6 0.0000 0.0000 0.0000 6.0064 0.0000 39.2569
#
#
#
# Elastic Compliance Matrix: (Units=1/GPa)
#
#
# Indices 1 2 3 4 5 6 
#
# 1 0.024654 -0.017819 0.009584 0.000000 -0.025434 0.000000
# 2 -0.017819 0.033686 -0.019418 0.000000 0.017052 0.000000
# 3 0.009584 -0.019418 0.033169 0.000000 -0.029100 0.000000
# 4 0.000000 0.000000 0.000000 0.045198 0.000000 -0.006915
# 5 -0.025434 0.017052 -0.029100 0.000000 0.086286 0.000000
# 6 0.000000 0.000000 0.000000 -0.006915 0.000000 0.026531
#
#
# Mechanical properties :
#
#
# Convention : Reuss Voigt Hill
#
# Bulk Modulus (GPa) = 27.62129 52.66093 40.14111
# Shear Modulus (GPa) = 15.77796 24.92899 20.35348
#
# Velocity S-wave (km/s) = 2.76812 3.47945 3.14397
# Velocity P-wave (km/s) = 4.86114 6.45884 5.71609
#
# Compressibility (1/GPa) = 0.03620395
#
# Stress axis : x y z
#
# Youngs Moduli (GPa) = 40.56073 29.68593 30.14879
#
# Poissons Ratio (x) = 0.52899 -0.28896
# Poissons Ratio (y) = 0.72277 0.58542
# Poissons Ratio (z) = -0.38875 0.57643
#
# Static dielectric constant tensor:
#      x y z
#    x 3.847440 0.000000 0.215690 
#    y 0.000000 3.942510 0.000000 
#    z 0.215690 0.000000 3.440770 
# 
# 
# High freq. dielectric constant tensor:
#      x y z
#    x 1.807980 0.000000 0.023110 
#    y 0.000000 1.820470 0.000000 
#    z 0.023110 0.000000 1.757220 
# 
# From -- ./inp_files/358231.got.cif
#   From: 2010.06.25/outbox.cif.g09.slc.cpg/sg12_180_cif.got.tgz:358231.got - 2010.06.28 00:19:55.
