data_PCOD8116641
_publ_section_title
;
Structure prediction by ZEFSAII (Michael W. Deem and Ramdas Pophale) SiO2 
 PCOD8116641
Probable space group: P 2/C
;
_chemical_formula_sum "Si O2"
_cell_formula_units_Z 20
_cell_length_a 8.627311
_cell_length_b 24.231280
_cell_length_c 5.222592
_cell_angle_alpha 90.000000
_cell_angle_beta 118.049014
_cell_angle_gamma 90.000000
_cell_volume 963.551854
_symmetry_space_group_name_H-M "P 2/C"
_symmetry_group_IT_number 13
_symmetry_cell_setting 'monoclinic'
loop_
_space_group_symop_operation_xyz
x,y,z
-x,y,1/2-z
-x,-y,-z
x,-y,1/2+z
loop_
_atom_site_type_symbol
_atom_site_label
_atom_site_fract_x
_atom_site_fract_y
_atom_site_fract_z
Si Si1 0.791683 0.030761 0.602025
Si Si2 0.112105 0.357199 0.584839
Si Si3 0.882802 0.235622 0.911378
Si Si4 0.609273 0.857100 0.085589
Si Si5 0.201364 0.476532 0.661187
O O1 0.731764 0.093074 0.590891
O O2 0.000000 0.029947 0.750000
O O3 0.717814 0.006850 0.277128
O O4 0.202624 0.297121 0.620350
O O5 0.233582 0.410652 0.712272
O O6 0.000000 0.351621 0.750000
O O7 0.000000 0.371599 0.250000
O O8 0.722375 0.194213 0.768959
O O9 0.000000 0.230628 0.750000
O O10 0.000000 0.220763 0.250000
O O11 0.500000 0.875938 0.250000
O O12 0.500000 0.838774 0.750000
O O13 0.298092 0.496509 0.479651
O O14 0.000000 0.500000 0.500000
#
# Coordination Sequence:
#
# PCOD8116641 Si02
#       5
#     4   4   4   4   4
#     4  10  22  40  63  90 118 150 185 228 284 345
#     4  10  16  26  42  67  97 139 174 214 274 336
#     4  10  22  38  58  79 111 153 194 237 280 343
#     4  12  25  40  61  87 119 153 194 239 283 332
#     4  10  14  20  35  60  98 133 154 209 278 343
#
# _framework density 20.756536000000001
#
# number of rings (size 3 to 8) (size 9 to 14) (size 15 to 20)
#    0.000    1.600    4.000    3.000    0.000    4.800 
#    0.000    0.000    0.000    0.000    0.000    0.000 
#    0.000    4.800    0.000    0.000    0.000    0.000 
#
# Total GULP energy -247823.545021 kJ/mol
# GULP energy per Si atom -12391.177251 kJ/mol
# Density = 2.070929 g / cm^3
# Si number density = 20.756536 Si / 1000 Ang^3
#
#
#
# Elastic Constant Matrix: (Units=GPa)
#
#
# Indices 1 2 3 4 5 6 
#
# 1 36.4828 21.1594 35.6216 0.0000 -28.5766 0.0000
# 2 21.1594 165.0951 46.3052 0.0000 -3.7460 0.0000
# 3 35.6216 46.3052 143.9395 0.0000 -41.6961 0.0000
# 4 0.0000 0.0000 0.0000 15.2026 0.0000 -15.3277
# 5 -28.5766 -3.7460 -41.6961 0.0000 28.3552 0.0000
# 6 0.0000 0.0000 0.0000 -15.3277 0.0000 9.2688
#
#
#
# Elastic Compliance Matrix: (Units=1/GPa)
#
#
# Indices 1 2 3 4 5 6 
#
# 1 0.234438 -0.033341 0.034622 0.000000 0.282775 0.000000
# 2 -0.033341 0.011664 -0.008342 0.000000 -0.044327 0.000000
# 3 0.034622 -0.008342 0.018903 0.000000 0.061588 0.000000
# 4 0.000000 0.000000 0.000000 -0.098575 0.000000 -0.163012
# 5 0.282775 -0.044327 0.061588 0.000000 0.404958 0.000000
# 6 0.000000 0.000000 0.000000 -0.163012 0.000000 -0.161681
#
#
# Mechanical properties :
#
#
# Convention : Reuss Voigt Hill
#
# Bulk Modulus (GPa) = 3.98592 61.29886 32.64239
# Shear Modulus (GPa) = 9.85306 26.72740 18.29023
#
# Velocity S-wave (km/s) = 2.18112 3.59229 2.97169
# Velocity P-wave (km/s) = 2.87533 6.84124 5.24738
#
# Compressibility (1/GPa) = 0.25088281
#
# Stress axis : x y z
#
# Youngs Moduli (GPa) = 4.26553 85.73233 52.90044
#
# Poissons Ratio (x) = 2.85842 -1.83151
# Poissons Ratio (y) = 0.14222 0.44129
# Poissons Ratio (z) = -0.14768 0.71517
#
# Static dielectric constant tensor:
#      x y z
#    x 3.515910 0.000000 -0.667230 
#    y 0.000000 4.135250 0.000000 
#    z -0.667230 0.000000 4.426040 
# 
# 
# High freq. dielectric constant tensor:
#      x y z
#    x 1.773620 0.000000 -0.046810 
#    y 0.000000 1.832710 0.000000 
#    z -0.046810 0.000000 1.824500 
# 
# From -- ./inp_files/2217.got.cif
#   From: 2010.06.25/outbox.cif.g09.slc.cpg/sg13_2_cif.got.tgz:2217.got - 2010.06.28 04:50:58.
