data_PCOD8116439
_publ_section_title
;
Structure prediction by ZEFSAII (Michael W. Deem and Ramdas Pophale) SiO2 
 PCOD8116439
Probable space group: C 2/M
;
_chemical_formula_sum "Si O2"
_cell_formula_units_Z 28
_cell_length_a 30.000000
_cell_length_b 9.000000
_cell_length_c 21.000000
_cell_angle_alpha 90.000000
_cell_angle_beta 30.000000
_cell_angle_gamma 90.000000
_cell_volume 2835.000000
_symmetry_space_group_name_H-M "C 2/M"
_symmetry_group_IT_number 12
_symmetry_cell_setting 'monoclinic'
loop_
_space_group_symop_operation_xyz
x,y,z
-x,y,-z
-x,-y,-z
x,-y,z
1/2+x,1/2+y,z
1/2-x,1/2+y,-z
1/2-x,1/2-y,-z
1/2+x,1/2-y,z
loop_
_atom_site_type_symbol
_atom_site_label
_atom_site_fract_x
_atom_site_fract_y
_atom_site_fract_z
Si Si1 0.772617 0.826034 0.296882
Si Si2 0.014665 0.670889 0.173373
Si Si3 0.923685 0.330560 0.046403
Si Si4 0.124486 0.833229 0.406916
Si Si5 0.832193 0.177032 0.363528
Si Si6 0.346405 0.174428 0.888126
Si Si7 0.915151 0.168706 0.683598
O O1 0.838147 0.772734 0.160417
O O2 0.675702 0.762548 0.397171
O O3 0.816507 0.772600 0.309450
O O4 0.761459 0.000000 0.311383
O O5 0.990702 0.500000 0.219012
O O6 0.089183 0.729289 0.132504
O O7 0.922701 0.764347 0.285380
O O8 0.052972 0.686875 0.055710
O O9 0.900319 0.500000 0.092965
O O10 0.000000 0.272034 0.000000
O O11 0.134951 0.781433 0.319932
O O12 0.020571 0.827738 0.548378
O O13 0.161483 0.000000 0.367715
O O14 0.750000 0.250000 0.500000
O O15 0.831233 0.000000 0.371567
O O16 0.394457 0.212171 0.763107
O O17 0.331194 0.000000 0.914634
O O18 0.250000 0.250000 0.000000
O O19 0.884591 0.000000 0.738867
#
# Coordination Sequence:
#
# PCOD8116439 Si02
#       7
#     8   8   8   8   8   8   8
#     4  11  24  38  58  92 126 154 193 248 302 354
#     4  10  23  43  64  89 121 160 207 254 301 359
#     4  10  20  38  64  87 113 155 199 240 292 355
#     4   9  20  39  64  89 118 157 198 246 299 359
#     4  11  25  42  62  90 127 165 203 249 301 362
#     4  11  25  42  62  89 124 162 203 256 308 361
#     4   9  20  41  64  88 117 154 205 252 297 359
#
# _framework density 9.8765429999999999
#
# number of rings (size 3 to 8) (size 9 to 14) (size 15 to 20)
#    0.000    1.857    1.429    2.143    4.000    4.857 
#    0.000    1.429    0.000    0.000    0.000    0.000 
#    0.000    0.000    0.000    0.000    0.000    0.000 
#
# Total GULP energy -346997.467240 kJ/mol
# GULP energy per Si atom -12392.766687 kJ/mol
# Density = 0.985406 g / cm^3
# Si number density = 9.876543 Si / 1000 Ang^3
#
#
#
# Elastic Constant Matrix: (Units=GPa)
#
#
# Indices 1 2 3 4 5 6 
#
# 1 184.2023 57.5239 53.7712 -0.0040 -20.9053 0.0025
# 2 57.5239 72.8111 38.6499 -0.0006 -7.5127 0.0003
# 3 53.7712 38.6499 74.0706 0.0002 -8.1189 0.0033
# 4 -0.0040 -0.0006 0.0002 30.9789 0.0026 -5.1934
# 5 -20.9053 -7.5127 -8.1189 0.0026 38.1973 -0.0017
# 6 0.0025 0.0003 0.0033 -5.1934 -0.0017 41.2798
#
#
#
# Elastic Compliance Matrix: (Units=1/GPa)
#
#
# Indices 1 2 3 4 5 6 
#
# 1 0.008065 -0.004336 -0.003278 0.000001 0.002864 0.000000
# 2 -0.004336 0.021431 -0.008020 0.000000 0.000137 0.000001
# 3 -0.003278 -0.008020 0.020166 -0.000001 0.000915 -0.000001
# 4 0.000001 0.000000 -0.000001 0.032976 -0.000002 0.004149
# 5 0.002864 0.000137 0.000915 -0.000002 0.027969 0.000001
# 6 0.000000 0.000001 -0.000001 0.004149 0.000001 0.024747
#
#
# Mechanical properties :
#
#
# Convention : Reuss Voigt Hill
#
# Bulk Modulus (GPa) = 54.36785 70.10822 62.23803
# Shear Modulus (GPa) = 28.94317 34.16714 31.55516
#
# Velocity S-wave (km/s) = 3.83201 4.16349 4.00118
# Velocity P-wave (km/s) = 6.86750 7.66043 7.27478
#
# Compressibility (1/GPa) = 0.01839322
#
# Stress axis : x y z
#
# Youngs Moduli (GPa) = 123.99411 46.66111 49.58951
#
# Poissons Ratio (x) = 0.20232 0.16257
# Poissons Ratio (y) = 0.53763 0.39771
# Poissons Ratio (z) = 0.40648 0.37422
#
# Static dielectric constant tensor:
#      x y z
#    x 4.317460 -0.000020 0.015040 
#    y -0.000020 3.777090 0.000070 
#    z 0.015040 0.000070 3.576280 
# 
# 
# High freq. dielectric constant tensor:
#      x y z
#    x 1.805550 0.000000 -0.010550 
#    y 0.000000 1.763050 0.000000 
#    z -0.010550 0.000000 1.766480 
# 
# From -- ./inp_files/329452.got.cif
#   From: 2010.06.25/outbox.ucp.g09.slc.cvg/sg12_165_cif.got.tgz:329452.got - 2010.06.28 13:50:54.
