data_PCOD8116274
_publ_section_title
;
Structure prediction by ZEFSAII (Michael W. Deem and Ramdas Pophale) SiO2 
 PCOD8116274
Probable space group: C 2/M
;
_chemical_formula_sum "Si O2"
_cell_formula_units_Z 32
_cell_length_a 24.000000
_cell_length_b 9.000000
_cell_length_c 30.000000
_cell_angle_alpha 90.000000
_cell_angle_beta 30.000000
_cell_angle_gamma 90.000000
_cell_volume 3240.000000
_symmetry_space_group_name_H-M "C 2/M"
_symmetry_group_IT_number 12
_symmetry_cell_setting 'monoclinic'
loop_
_space_group_symop_operation_xyz
x,y,z
-x,y,-z
-x,-y,-z
x,-y,z
1/2+x,1/2+y,z
1/2-x,1/2+y,-z
1/2-x,1/2-y,-z
1/2+x,1/2-y,z
loop_
_atom_site_type_symbol
_atom_site_label
_atom_site_fract_x
_atom_site_fract_y
_atom_site_fract_z
Si Si1 0.974508 0.666125 0.340039
Si Si2 0.295700 0.163514 0.854492
Si Si3 0.285874 0.672058 0.625402
Si Si4 0.345939 0.326228 0.904931
Si Si5 0.466684 0.177108 0.441419
Si Si6 0.381955 0.329054 0.092033
Si Si7 0.279913 0.823529 0.720130
Si Si8 0.561018 0.173407 0.732134
O O1 0.926854 0.500000 0.371335
O O2 0.109512 0.666477 0.249534
O O3 0.928714 0.735551 0.418207
O O4 0.940172 0.744198 0.317285
O O5 0.313867 0.296489 0.876124
O O6 0.178143 0.187352 0.913371
O O7 0.299645 0.000000 0.875401
O O8 0.309850 0.500000 0.618027
O O9 0.396260 0.745066 0.528599
O O10 0.244732 0.752954 0.698009
O O11 0.185372 0.698263 0.661394
O O12 0.350538 0.500000 0.912476
O O13 0.469556 0.255919 0.826809
O O14 0.250000 0.250000 0.000000
O O15 0.594004 0.227183 0.358346
O O16 0.453722 0.000000 0.454848
O O17 0.402277 0.500000 0.091184
O O18 0.307243 0.256976 0.183097
O O19 0.500000 0.248735 0.000000
O O20 0.271560 0.000000 0.723850
O O21 0.526922 0.000000 0.754694
#
# Coordination Sequence:
#
# PCOD8116274 Si02
#       8
#     8   8   8   8   8   8   8   8
#     4   8  14  30  57  79 100 139 183 228 281 331
#     4   9  16  32  55  79 110 144 179 229 284 330
#     4  11  24  38  53  80 117 154 186 232 295 343
#     4  11  22  36  57  84 111 145 188 229 275 334
#     4  10  19  34  58  83 106 145 197 240 281 338
#     4   9  17  31  56  88 113 139 184 234 279 329
#     4  10  20  36  57  82 112 150 195 237 275 333
#     4   9  20  39  58  78 111 149 185 230 287 342
#
# _framework density 9.8765429999999999
#
# number of rings (size 3 to 8) (size 9 to 14) (size 15 to 20)
#    0.000    2.375    1.250    2.625    0.000    4.500 
#    0.000    4.375    0.000    0.750    0.000    0.000 
#    0.000    0.000    0.000    0.000    0.000    0.000 
#
# Total GULP energy -396462.347532 kJ/mol
# GULP energy per Si atom -12389.448360 kJ/mol
# Density = 0.985406 g / cm^3
# Si number density = 9.876543 Si / 1000 Ang^3
#
#
#
# Elastic Constant Matrix: (Units=GPa)
#
#
# Indices 1 2 3 4 5 6 
#
# 1 62.1461 15.0981 41.2077 0.0863 -4.1594 -0.0215
# 2 15.0981 49.9744 32.1043 0.0576 -0.5280 -0.0076
# 3 41.2077 32.1043 133.4232 0.0359 0.2470 -0.0023
# 4 0.0863 0.0576 0.0359 17.9392 -0.0112 -1.9444
# 5 -4.1594 -0.5280 0.2470 -0.0112 28.6119 0.0001
# 6 -0.0215 -0.0076 -0.0023 -1.9444 0.0001 20.0355
#
#
#
# Elastic Compliance Matrix: (Units=1/GPa)
#
#
# Indices 1 2 3 4 5 6 
#
# 1 0.020757 -0.002504 -0.005814 -0.000077 0.003021 0.000013
# 2 -0.002504 0.023978 -0.004996 -0.000055 0.000122 0.000001
# 3 -0.005814 -0.004996 0.010495 0.000022 -0.001028 -0.000005
# 4 -0.000077 -0.000055 0.000022 0.056337 0.000010 0.005467
# 5 0.003021 0.000122 -0.001028 0.000010 0.035401 0.000004
# 6 0.000013 0.000001 -0.000005 0.005467 0.000004 0.050442
#
#
# Mechanical properties :
#
#
# Convention : Reuss Voigt Hill
#
# Bulk Modulus (GPa) = 34.96403 46.92930 40.94667
# Shear Modulus (GPa) = 21.40679 23.79292 22.59985
#
# Velocity S-wave (km/s) = 3.29556 3.47438 3.38615
# Velocity P-wave (km/s) = 5.67626 6.31701 6.00519
#
# Compressibility (1/GPa) = 0.02860082
#
# Stress axis : x y z
#
# Youngs Moduli (GPa) = 48.17705 41.70517 95.28667
#
# Poissons Ratio (x) = 0.10443 0.55397
# Poissons Ratio (y) = 0.12064 0.47609
# Poissons Ratio (z) = 0.28009 0.20837
#
# Static dielectric constant tensor:
#      x y z
#    x 3.545700 0.000140 0.125800 
#    y 0.000140 3.273050 0.000110 
#    z 0.125800 0.000110 3.821060 
# 
# 
# High freq. dielectric constant tensor:
#      x y z
#    x 1.762340 -0.000010 0.004420 
#    y -0.000010 1.726100 0.000000 
#    z 0.004420 0.000000 1.779080 
# 
# From -- ./inp_files/382338.got.cif
#   From: 2010.06.25/outbox.ucp.g09.slc.cvg/sg12_192_cif.got.tgz:382338.got - 2010.06.28 13:50:54.
