data_PCOD8116771
_publ_section_title
;
Structure prediction by ZEFSAII (Michael W. Deem and Ramdas Pophale) SiO2 
 PCOD8116771
Probable space group: P 2/C
;
_chemical_formula_sum "Si O2"
_cell_formula_units_Z 24
_cell_length_a 14.965556
_cell_length_b 10.004398
_cell_length_c 14.459448
_cell_angle_alpha 90.000000
_cell_angle_beta 143.065899
_cell_angle_gamma 90.000000
_cell_volume 1300.872986
_symmetry_space_group_name_H-M "P 2/C"
_symmetry_group_IT_number 13
_symmetry_cell_setting 'monoclinic'
loop_
_space_group_symop_operation_xyz
x,y,z
-x,y,1/2-z
-x,-y,-z
x,-y,1/2+z
loop_
_atom_site_type_symbol
_atom_site_label
_atom_site_fract_x
_atom_site_fract_y
_atom_site_fract_z
Si Si1 0.319983 0.612609 0.601077
Si Si2 0.833110 0.405622 0.145459
Si Si3 0.290826 0.473503 0.272620
Si Si4 0.635568 0.879880 0.929487
Si Si5 0.548476 0.720819 0.036891
Si Si6 0.618908 0.826458 0.429109
O O1 0.500000 0.605512 0.750000
O O2 0.263079 0.532669 0.465429
O O3 0.238731 0.551555 0.623993
O O4 0.265726 0.767047 0.541386
O O5 0.828829 0.413086 0.253900
O O6 0.000000 0.411923 0.250000
O O7 0.755103 0.276209 0.037249
O O8 0.316614 0.632792 0.308045
O O9 0.441149 0.388582 0.403575
O O10 0.500000 0.908398 0.750000
O O11 0.702100 0.028733 0.995584
O O12 0.597533 0.823472 0.998983
O O13 0.470748 0.810697 0.049973
O O14 0.500000 0.798339 0.250000
#
# Coordination Sequence:
#
# PCOD8116771 Si02
#       6
#     4   4   4   4   4   4
#     4  11  18  35  60  82 109 135 174 233 273 314
#     4  11  23  37  53  77 111 150 184 218 265 318
#     4  10  18  30  56  82 110 137 180 220 272 317
#     4  10  18  31  53  86 110 133 171 224 275 318
#     4  10  16  30  53  87 107 134 171 227 276 315
#     4  10  21  34  54  81 109 140 177 224 267 321
#
# _framework density 18.449149999999999
#
# number of rings (size 3 to 8) (size 9 to 14) (size 15 to 20)
#    0.000    1.667    5.000    4.000    0.000    0.667 
#    0.000    0.833    0.000    1.000    0.000    0.000 
#    0.000    0.000    0.000    0.000    0.000    0.000 
#
# Total GULP energy -297357.147569 kJ/mol
# GULP energy per Si atom -12389.881149 kJ/mol
# Density = 1.840716 g / cm^3
# Si number density = 18.449150 Si / 1000 Ang^3
#
#
#
# Elastic Constant Matrix: (Units=GPa)
#
#
# Indices 1 2 3 4 5 6 
#
# 1 87.6142 19.0606 28.4064 0.0000 -8.0510 0.0000
# 2 19.0606 131.3826 23.8818 0.0000 3.7745 0.0000
# 3 28.4064 23.8818 33.7007 0.0000 -3.6536 0.0000
# 4 0.0000 0.0000 0.0000 10.8998 0.0000 -16.2518
# 5 -8.0510 3.7745 -3.6536 0.0000 32.2596 0.0000
# 6 0.0000 0.0000 0.0000 -16.2518 0.0000 23.6911
#
#
#
# Elastic Compliance Matrix: (Units=1/GPa)
#
#
# Indices 1 2 3 4 5 6 
#
# 1 0.015900 0.000011 -0.013141 0.000000 0.002479 0.000000
# 2 0.000011 0.008835 -0.006461 0.000000 -0.001763 0.000000
# 3 -0.013141 -0.006461 0.045614 0.000000 0.002642 0.000000
# 4 0.000000 0.000000 0.000000 -4.021078 0.000000 -2.758404
# 5 0.002479 -0.001763 0.002642 0.000000 0.032123 0.000000
# 6 0.000000 0.000000 0.000000 -2.758404 0.000000 -1.850016
#
#
# Mechanical properties :
#
#
# Convention : Reuss Voigt Hill
#
# Bulk Modulus (GPa) = 32.08531 43.93280 38.00905
# Shear Modulus (GPa) = -0.87427 25.46002 12.29288
#
# Velocity S-wave (km/s) = -0.68914 3.71888 2.58410
# Velocity P-wave (km/s) = 4.09826 6.50421 5.43601
#
# Compressibility (1/GPa) = 0.03116692
#
# Stress axis : x y z
#
# Youngs Moduli (GPa) = 62.89476 113.18793 21.92301
#
# Poissons Ratio (x) = -0.00122 0.28808
# Poissons Ratio (y) = -0.00068 0.14164
# Poissons Ratio (z) = 0.82648 0.73130
#
# Static dielectric constant tensor:
#      x y z
#    x 3.410860 0.000000 -0.497150 
#    y 0.000000 3.727850 0.000000 
#    z -0.497150 0.000000 3.146460 
# 
# 
# High freq. dielectric constant tensor:
#      x y z
#    x 1.709450 0.000000 -0.045870 
#    y 0.000000 1.727930 0.000000 
#    z -0.045870 0.000000 1.675160 
# 
# From -- ./inp_files/53219.got.cif
#   From: 2010.06.25/outbox.cif.g09.slc.cpg/sg13_27_cif.got.tgz:53219.got - 2010.06.28 04:50:58.
