data_PCOD8116644
_publ_section_title
;
Structure prediction by ZEFSAII (Michael W. Deem and Ramdas Pophale) SiO2 
 PCOD8116644
Probable space group: P 2/C
;
_chemical_formula_sum "Si O2"
_cell_formula_units_Z 26
_cell_length_a 31.506226
_cell_length_b 7.959495
_cell_length_c 5.294437
_cell_angle_alpha 90.000000
_cell_angle_beta 104.699528
_cell_angle_gamma 90.000000
_cell_volume 1284.249280
_symmetry_space_group_name_H-M "P 2/C"
_symmetry_group_IT_number 13
_symmetry_cell_setting 'monoclinic'
loop_
_space_group_symop_operation_xyz
x,y,z
-x,y,1/2-z
-x,-y,-z
x,-y,1/2+z
loop_
_atom_site_type_symbol
_atom_site_label
_atom_site_fract_x
_atom_site_fract_y
_atom_site_fract_z
Si Si1 0.791889 0.104513 0.724835
Si Si2 0.500000 0.113758 0.750000
Si Si3 0.626720 0.666088 0.944411
Si Si4 0.981656 0.808327 0.472306
Si Si5 0.271102 0.595673 0.400015
Si Si6 0.409452 0.298297 0.610123
Si Si7 0.886241 0.897590 0.282843
O O1 0.751506 0.225486 0.612718
O O2 0.839553 0.196203 0.760514
O O3 0.788317 0.960202 0.506849
O O4 0.459270 0.239908 0.688958
O O5 0.500000 0.000000 0.500000
O O6 0.595702 0.500531 0.900307
O O7 0.614469 0.774542 0.677558
O O8 0.676864 0.613394 0.014790
O O9 0.615451 0.773467 0.178264
O O10 0.929073 0.786114 0.397254
O O11 0.000000 0.716510 0.250000
O O12 0.000000 0.000000 0.500000
O O13 0.000000 0.716539 0.750000
O O14 0.255529 0.488386 0.616597
O O15 0.888176 0.046613 0.493298
#
# Coordination Sequence:
#
# PCOD8116644 Si02
#       7
#     4   2   4   4   4   4   4
#     4  10  23  38  54  84 123 160 184 235 319 368
#     4  12  26  42  56  84 132 162 180 218 282 364
#     4  10  19  37  65  87 103 135 194 256 269 306
#     4  10  14  20  36  63  89 134 180 224 273 329
#     4  12  21  40  67  89 118 151 209 259 285 346
#     4  10  20  38  61  87 110 143 189 226 281 310
#     4  10  16  27  42  63 105 146 174 223 285 361
#
# _framework density 20.245293
#
# number of rings (size 3 to 8) (size 9 to 14) (size 15 to 20)
#    0.000    1.538    6.154    1.846    0.000    2.462 
#    0.000    4.615    0.000    0.000    0.000    0.000 
#    0.000    3.692    0.000    0.000    0.000    0.000 
#
# Total GULP energy -322127.871196 kJ/mol
# GULP energy per Si atom -12389.533508 kJ/mol
# Density = 2.019921 g / cm^3
# Si number density = 20.245293 Si / 1000 Ang^3
#
#
#
# Elastic Constant Matrix: (Units=GPa)
#
#
# Indices 1 2 3 4 5 6 
#
# 1 97.3176 49.2069 53.0238 0.0000 8.4113 0.0000
# 2 49.2069 33.1311 14.0951 0.0000 6.6343 0.0000
# 3 53.0238 14.0951 176.3524 0.0000 -25.4930 0.0000
# 4 0.0000 0.0000 0.0000 13.5886 0.0000 -3.2294
# 5 8.4113 6.6343 -25.4930 0.0000 34.5536 0.0000
# 6 0.0000 0.0000 0.0000 -3.2294 0.0000 3.4018
#
#
#
# Elastic Compliance Matrix: (Units=1/GPa)
#
#
# Indices 1 2 3 4 5 6 
#
# 1 0.056628 -0.077473 -0.011951 0.000000 -0.007727 0.000000
# 2 -0.077473 0.139810 0.012274 0.000000 0.001071 0.000000
# 3 -0.011951 0.012274 0.009361 0.000000 0.007459 0.000000
# 4 0.000000 0.000000 0.000000 0.095032 0.000000 0.090216
# 5 -0.007727 0.001071 0.007459 0.000000 0.036119 0.000000
# 6 0.000000 0.000000 0.000000 0.090216 0.000000 0.379604
#
#
# Mechanical properties :
#
#
# Convention : Reuss Voigt Hill
#
# Bulk Modulus (GPa) = 19.41765 59.93918 39.67842
# Shear Modulus (GPa) = 5.63050 23.00715 14.31883
#
# Velocity S-wave (km/s) = 1.66948 3.37474 2.66233
# Velocity P-wave (km/s) = 3.65079 6.69746 5.39371
#
# Compressibility (1/GPa) = 0.05149953
#
# Stress axis : x y z
#
# Youngs Moduli (GPa) = 17.65920 7.15254 106.82532
#
# Poissons Ratio (x) = 0.55413 1.27669
# Poissons Ratio (y) = 1.36810 -1.31117
# Poissons Ratio (z) = 0.21105 -0.08779
#
# Static dielectric constant tensor:
#      x y z
#    x 3.950240 0.000000 -0.332070 
#    y 0.000000 2.896150 0.000000 
#    z -0.332070 0.000000 5.186720 
# 
# 
# High freq. dielectric constant tensor:
#      x y z
#    x 1.805340 0.000000 -0.008110 
#    y 0.000000 1.705810 0.000000 
#    z -0.008110 0.000000 1.836350 
# 
# From -- ./inp_files/7801.got.cif
#   From: 2010.06.25/outbox.cif.g09.slc.cpg/sg13_4_cif.got.tgz:7801.got - 2010.06.28 04:50:58.
