data_PCOD8116650
_publ_section_title
;
Structure prediction by ZEFSAII (Michael W. Deem and Ramdas Pophale) SiO2 
 PCOD8116650
Probable space group: P 2/C
;
_chemical_formula_sum "Si O2"
_cell_formula_units_Z 28
_cell_length_a 7.391919
_cell_length_b 33.177336
_cell_length_c 5.407095
_cell_angle_alpha 90.000000
_cell_angle_beta 123.970837
_cell_angle_gamma 90.000000
_cell_volume 1099.729673
_symmetry_space_group_name_H-M "P 2/C"
_symmetry_group_IT_number 13
_symmetry_cell_setting 'monoclinic'
loop_
_space_group_symop_operation_xyz
x,y,z
-x,y,1/2-z
-x,-y,-z
x,-y,1/2+z
loop_
_atom_site_type_symbol
_atom_site_label
_atom_site_fract_x
_atom_site_fract_y
_atom_site_fract_z
Si Si1 0.637012 0.689174 0.604793
Si Si2 0.753991 0.223973 0.198570
Si Si3 0.744729 0.808708 0.192575
Si Si4 0.244158 0.983595 0.410138
Si Si5 0.241462 0.516347 0.704779
Si Si6 0.630921 0.897101 0.100561
Si Si7 0.636511 0.397996 0.104203
O O1 0.500000 0.688348 0.750000
O O2 0.791069 0.727908 0.750035
O O3 0.760779 0.645565 0.679536
O O4 0.500000 0.695621 0.250000
O O5 0.860899 0.202412 0.520753
O O6 0.501941 0.208919 0.999722
O O7 0.864930 0.211549 0.021451
O O8 0.766102 0.856576 0.251731
O O9 0.222850 0.936389 0.333765
O O10 0.000000 0.001590 0.250000
O O11 0.358946 0.991371 0.768851
O O12 0.357642 0.508524 0.522548
O O13 0.209085 0.563357 0.748487
O O14 0.000000 0.500000 0.500000
O O15 0.500000 0.906489 0.250000
O O16 0.500000 0.888467 0.750000
O O17 0.500000 0.396893 0.250000
O O18 0.500000 0.404343 0.750000
#
# Coordination Sequence:
#
# PCOD8116650 Si02
#       7
#     4   4   4   4   4   4   4
#     4  10  16  25  41  64  98 136 163 194 245 305
#     4  10  14  25  41  61 102 142 157 184 253 306
#     4  10  16  25  41  69 103 134 159 198 249 303
#     4  10  23  42  57  71 101 145 181 214 267 330
#     4  10  21  37  55  72  98 137 178 209 260 322
#     4  12  21  32  53  83 110 130 173 227 268 301
#     4  10  21  32  48  78 108 131 166 224 266 298
#
# _framework density 25.460804
#
# number of rings (size 3 to 8) (size 9 to 14) (size 15 to 20)
#    0.000    1.714    5.714    1.714    0.000    3.429 
#    0.000    0.000    0.000    0.000    0.000    0.000 
#   12.857    0.000    0.000    0.000    0.000    0.000 
#
# Total GULP energy -346988.496882 kJ/mol
# GULP energy per Si atom -12392.446317 kJ/mol
# Density = 2.540285 g / cm^3
# Si number density = 25.460804 Si / 1000 Ang^3
#
#
#
# Elastic Constant Matrix: (Units=GPa)
#
#
# Indices 1 2 3 4 5 6 
#
# 1 101.5169 31.7900 65.3169 0.0000 -46.9850 0.0000
# 2 31.7900 267.0463 60.0136 0.0000 -22.5021 0.0000
# 3 65.3169 60.0136 200.2260 0.0000 -55.6985 0.0000
# 4 0.0000 0.0000 0.0000 43.5292 0.0000 -14.0534
# 5 -46.9850 -22.5021 -55.6985 0.0000 48.5910 0.0000
# 6 0.0000 0.0000 0.0000 -14.0534 0.0000 21.3399
#
#
#
# Elastic Compliance Matrix: (Units=1/GPa)
#
#
# Indices 1 2 3 4 5 6 
#
# 1 0.018210 -0.000525 -0.001398 0.000000 0.015762 0.000000
# 2 -0.000525 0.004047 -0.000971 0.000000 0.000253 0.000000
# 3 -0.001398 -0.000971 0.007694 0.000000 0.007017 0.000000
# 4 0.000000 0.000000 0.000000 0.029176 0.000000 0.019214
# 5 0.015762 0.000253 0.007017 0.000000 0.043982 0.000000
# 6 0.000000 0.000000 0.000000 0.019214 0.000000 0.059514
#
#
# Mechanical properties :
#
#
# Convention : Reuss Voigt Hill
#
# Bulk Modulus (GPa) = 41.38990 98.11446 69.75218
# Shear Modulus (GPa) = 28.33412 50.13660 39.23536
#
# Velocity S-wave (km/s) = 3.33956 4.44234 3.92983
# Velocity P-wave (km/s) = 5.58228 8.05802 6.93158
#
# Compressibility (1/GPa) = 0.02416048
#
# Stress axis : x y z
#
# Youngs Moduli (GPa) = 54.91543 247.11035 129.97768
#
# Poissons Ratio (x) = 0.12983 0.18174
# Poissons Ratio (y) = 0.02885 0.12624
# Poissons Ratio (z) = 0.07678 0.24001
#
# Static dielectric constant tensor:
#      x y z
#    x 4.033820 0.000000 -0.511230 
#    y 0.000000 5.166280 0.000000 
#    z -0.511230 0.000000 5.443150 
# 
# 
# High freq. dielectric constant tensor:
#      x y z
#    x 2.030070 0.000000 -0.034220 
#    y 0.000000 2.025150 0.000000 
#    z -0.034220 0.000000 2.055050 
# 
# From -- ./inp_files/2746.got.cif
#   From: 2010.06.25/outbox.cif.g09.slc.cpg/sg13_2_cif.got.tgz:2746.got - 2010.06.28 04:50:58.
