data_PCOD8116487
_publ_section_title
;
Structure prediction by ZEFSAII (Michael W. Deem and Ramdas Pophale) SiO2 
 PCOD8116487
Probable space group: C 2/M
;
_chemical_formula_sum "Si O2"
_cell_formula_units_Z 32
_cell_length_a 18.000000
_cell_length_b 9.000000
_cell_length_c 30.000000
_cell_angle_alpha 90.000000
_cell_angle_beta 40.000000
_cell_angle_gamma 90.000000
_cell_volume 3123.947783
_symmetry_space_group_name_H-M "C 2/M"
_symmetry_group_IT_number 12
_symmetry_cell_setting 'monoclinic'
loop_
_space_group_symop_operation_xyz
x,y,z
-x,y,-z
-x,-y,-z
x,-y,z
1/2+x,1/2+y,z
1/2-x,1/2+y,-z
1/2-x,1/2-y,-z
1/2+x,1/2-y,z
loop_
_atom_site_type_symbol
_atom_site_label
_atom_site_fract_x
_atom_site_fract_y
_atom_site_fract_z
Si Si1 0.739041 0.323854 0.958047
Si Si2 0.026511 0.676628 0.712818
Si Si3 0.426715 0.835826 0.438028
Si Si4 0.038205 0.828503 0.172479
Si Si5 0.745900 0.163312 0.564029
Si Si6 0.118203 0.822080 0.296009
Si Si7 0.487166 0.837743 0.955533
Si Si8 0.642686 0.327385 0.822221
O O1 0.757825 0.500000 0.950119
O O2 0.835143 0.243056 0.884548
O O3 0.750000 0.250000 0.000000
O O4 0.612013 0.285662 0.000314
O O5 0.009014 0.500000 0.714334
O O6 0.029237 0.728266 0.761838
O O7 0.927249 0.760489 0.730435
O O8 0.154590 0.729659 0.640639
O O9 0.325134 0.847658 0.449015
O O10 0.361436 0.763834 0.510345
O O11 0.531391 0.730725 0.374650
O O12 0.475199 0.000000 0.427142
O O13 0.968623 0.811993 0.158645
O O14 0.047563 0.000000 0.182614
O O15 0.788126 0.000000 0.558803
O O16 0.243150 0.751609 0.249464
O O17 0.125263 0.000000 0.291894
O O18 0.604834 0.761696 0.883673
O O19 0.463009 0.000000 0.942544
O O20 0.500000 0.879965 0.000000
O O21 0.669851 0.500000 0.819811
#
# Coordination Sequence:
#
# PCOD8116487 Si02
#       8
#     8   8   8   8   8   8   8   8
#     4  12  24  41  65  89 117 152 194 240 285 341
#     4  10  21  37  58  86 118 153 193 239 288 341
#     4   9  16  28  49  78 112 149 189 233 286 342
#     4  11  24  41  62  87 116 152 194 238 288 346
#     4   8  15  28  48  77 112 147 187 232 282 338
#     4  11  22  36  57  84 118 154 194 241 289 342
#     4  11  25  43  64  90 120 151 191 239 289 344
#     4  11  24  42  62  84 116 154 194 237 289 348
#
# _framework density 10.243449
#
# number of rings (size 3 to 8) (size 9 to 14) (size 15 to 20)
#    0.000    1.625    1.250    4.875    1.750    6.000 
#    0.000    0.000    0.000    0.750    0.000    5.250 
#    0.000    0.000    0.000    0.000    0.000    0.000 
#
# Total GULP energy -396542.813880 kJ/mol
# GULP energy per Si atom -12391.962934 kJ/mol
# Density = 1.022013 g / cm^3
# Si number density = 10.243449 Si / 1000 Ang^3
#
#
#
# Elastic Constant Matrix: (Units=GPa)
#
#
# Indices 1 2 3 4 5 6 
#
# 1 25.8780 24.2968 25.9072 0.0002 -12.1341 0.0016
# 2 24.2968 132.8111 47.1977 0.0010 -20.2509 0.0029
# 3 25.9072 47.1977 111.1054 -0.0001 -16.0548 0.0000
# 4 0.0002 0.0010 -0.0001 33.5881 -0.0001 -6.6788
# 5 -12.1341 -20.2509 -16.0548 -0.0001 22.1340 0.0000
# 6 0.0016 0.0029 0.0000 -6.6788 0.0000 26.5704
#
#
#
# Elastic Compliance Matrix: (Units=1/GPa)
#
#
# Indices 1 2 3 4 5 6 
#
# 1 0.063588 -0.004665 -0.009412 -0.000001 0.023765 -0.000003
# 2 -0.004665 0.009989 -0.002463 0.000000 0.004796 -0.000001
# 3 -0.009412 -0.002463 0.012478 0.000000 0.001638 0.000001
# 4 -0.000001 0.000000 0.000000 0.031339 0.000000 0.007877
# 5 0.023765 0.004796 0.001638 0.000000 0.063784 -0.000002
# 6 -0.000003 -0.000001 0.000001 0.007877 -0.000002 0.039616
#
#
# Mechanical properties :
#
#
# Convention : Reuss Voigt Hill
#
# Bulk Modulus (GPa) = 18.87599 51.62200 35.24900
# Shear Modulus (GPa) = 18.41408 27.95135 23.18271
#
# Velocity S-wave (km/s) = 3.00129 3.69772 3.36756
# Velocity P-wave (km/s) = 4.60912 6.59417 5.68890
#
# Compressibility (1/GPa) = 0.05297734
#
# Stress axis : x y z
#
# Youngs Moduli (GPa) = 15.72617 100.10679 80.14145
#
# Poissons Ratio (x) = 0.46696 0.75426
# Poissons Ratio (y) = 0.07336 0.19737
# Poissons Ratio (z) = 0.14801 0.24654
#
# Static dielectric constant tensor:
#      x y z
#    x 3.161390 0.000000 -0.068850 
#    y 0.000000 2.743430 -0.000040 
#    z -0.068850 -0.000040 3.956090 
# 
# 
# High freq. dielectric constant tensor:
#      x y z
#    x 1.752560 0.000000 -0.015590 
#    y 0.000000 1.822880 0.000000 
#    z -0.015590 0.000000 1.809260 
# 
# From -- ./inp_files/378190.got.cif
#   From: 2010.06.25/outbox.ucp.g09.slc.cvg/sg12_190_cif.got.tgz:378190.got - 2010.06.28 13:50:54.
