data_PCOD8116536
_publ_section_title
;
Structure prediction by ZEFSAII (Michael W. Deem and Ramdas Pophale) SiO2 
 PCOD8116536
Probable space group: C 2/M
;
_chemical_formula_sum "Si O2"
_cell_formula_units_Z 32
_cell_length_a 18.000000
_cell_length_b 9.000000
_cell_length_c 30.000000
_cell_angle_alpha 90.000000
_cell_angle_beta 140.000000
_cell_angle_gamma 90.000000
_cell_volume 3123.947783
_symmetry_space_group_name_H-M "C 2/M"
_symmetry_group_IT_number 12
_symmetry_cell_setting 'monoclinic'
loop_
_space_group_symop_operation_xyz
x,y,z
-x,y,-z
-x,-y,-z
x,-y,z
1/2+x,1/2+y,z
1/2-x,1/2+y,-z
1/2-x,1/2-y,-z
1/2+x,1/2-y,z
loop_
_atom_site_type_symbol
_atom_site_label
_atom_site_fract_x
_atom_site_fract_y
_atom_site_fract_z
Si Si1 0.546116 0.173936 0.436973
Si Si2 0.538962 0.662631 0.346968
Si Si3 0.228802 0.662402 0.594766
Si Si4 0.805254 0.826603 0.335567
Si Si5 0.175576 0.169350 0.195930
Si Si6 0.183708 0.174728 0.809002
Si Si7 0.775306 0.331594 0.082381
Si Si8 0.904925 0.166766 0.068482
O O1 0.581763 0.221614 0.403771
O O2 0.645222 0.220276 0.517245
O O3 0.434190 0.266851 0.397343
O O4 0.521193 0.000000 0.426865
O O5 0.504982 0.500000 0.351988
O O6 0.643185 0.637297 0.362318
O O7 0.432216 0.727593 0.269677
O O8 0.183524 0.500000 0.591532
O O9 0.245376 0.785772 0.639912
O O10 0.731761 0.752531 0.263143
O O11 0.802051 0.000000 0.325810
O O12 0.210743 0.243352 0.165833
O O13 0.040059 0.184770 0.133798
O O14 0.217575 0.000000 0.217119
O O15 0.185840 0.220897 0.861194
O O16 0.198480 0.000000 0.812656
O O17 0.798023 0.500000 0.108590
O O18 0.854009 0.294469 0.076137
O O19 0.642678 0.310121 0.004216
O O20 0.868588 0.000000 0.067402
#
# Coordination Sequence:
#
# PCOD8116536 Si02
#       8
#     8   8   8   8   8   8   8   8
#     4  11  22  39  64  88 117 156 201 247 296 357
#     4  10  22  40  61  86 121 158 196 247 300 351
#     4  10  23  41  61  88 118 156 201 246 299 356
#     4  12  25  40  59  88 122 156 198 248 302 355
#     4  11  23  41  64  87 118 159 202 247 296 352
#     4  11  23  39  60  89 124 161 200 243 295 352
#     4  10  21  39  64  93 125 159 198 242 291 351
#     4   9  21  41  64  91 123 160 198 243 297 348
#
# _framework density 10.243449
#
# number of rings (size 3 to 8) (size 9 to 14) (size 15 to 20)
#    0.000    1.500    1.250    3.375    1.750    5.500 
#    0.000    2.500    0.000    0.000    0.000    0.000 
#    0.000    0.000    0.000    0.000    0.000    0.000 
#
# Total GULP energy -396689.335949 kJ/mol
# GULP energy per Si atom -12396.541748 kJ/mol
# Density = 1.022013 g / cm^3
# Si number density = 10.243449 Si / 1000 Ang^3
#
#
#
# Elastic Constant Matrix: (Units=GPa)
#
#
# Indices 1 2 3 4 5 6 
#
# 1 56.7902 36.8851 33.1959 0.0000 -10.3846 0.0000
# 2 36.8851 105.8421 43.3642 0.0000 -5.1309 -0.0001
# 3 33.1959 43.3642 83.6980 0.0000 -7.1712 -0.0001
# 4 0.0000 0.0000 0.0000 31.2681 0.0000 -17.9300
# 5 -10.3846 -5.1309 -7.1712 0.0000 26.5546 0.0000
# 6 0.0000 -0.0001 -0.0001 -17.9300 0.0000 61.7184
#
#
#
# Elastic Compliance Matrix: (Units=1/GPa)
#
#
# Indices 1 2 3 4 5 6 
#
# 1 0.027047 -0.006259 -0.006840 0.000000 0.007521 0.000000
# 2 -0.006259 0.013453 -0.004581 0.000000 -0.001085 0.000000
# 3 -0.006840 -0.004581 0.017125 0.000000 0.001065 0.000000
# 4 0.000000 0.000000 0.000000 0.038374 0.000000 0.011148
# 5 0.007521 -0.001085 0.001065 0.000000 0.040677 0.000000
# 6 0.000000 0.000000 0.000000 0.011148 0.000000 0.019441
#
#
# Mechanical properties :
#
#
# Convention : Reuss Voigt Hill
#
# Bulk Modulus (GPa) = 44.91136 52.58010 48.74573
# Shear Modulus (GPa) = 25.13818 32.76723 28.95270
#
# Velocity S-wave (km/s) = 3.50671 4.00362 3.76337
# Velocity P-wave (km/s) = 6.19400 6.86243 6.53676
#
# Compressibility (1/GPa) = 0.02226608
#
# Stress axis : x y z
#
# Youngs Moduli (GPa) = 36.97222 74.33093 58.39300
#
# Poissons Ratio (x) = 0.46521 0.39943
# Poissons Ratio (y) = 0.23140 0.26749
# Poissons Ratio (z) = 0.25290 0.34050
#
# Static dielectric constant tensor:
#      x y z
#    x 3.545820 0.000000 -0.085100 
#    y 0.000000 4.901170 0.000000 
#    z -0.085100 0.000000 3.866020 
# 
# 
# High freq. dielectric constant tensor:
#      x y z
#    x 1.778190 0.000000 -0.002820 
#    y 0.000000 1.804890 0.000000 
#    z -0.002820 0.000000 1.815550 
# 
# From -- ./inp_files/378356.got.cif
#   From: 2010.06.25/outbox.ucp.g09.slc.cvg/sg12_190_cif.got.tgz:378356.got - 2010.06.28 13:50:54.
