data_PCOD8116823
_publ_section_title
;
Structure prediction by ZEFSAII (Michael W. Deem and Ramdas Pophale) SiO2 
 PCOD8116823
Probable space group: P 2/C
;
_chemical_formula_sum "Si O2"
_cell_formula_units_Z 32
_cell_length_a 8.392266
_cell_length_b 35.191294
_cell_length_c 5.242760
_cell_angle_alpha 90.000000
_cell_angle_beta 93.320278
_cell_angle_gamma 90.000000
_cell_volume 1545.769831
_symmetry_space_group_name_H-M "P 2/C"
_symmetry_group_IT_number 13
_symmetry_cell_setting 'monoclinic'
loop_
_space_group_symop_operation_xyz
x,y,z
-x,y,1/2-z
-x,-y,-z
x,-y,1/2+z
loop_
_atom_site_type_symbol
_atom_site_label
_atom_site_fract_x
_atom_site_fract_y
_atom_site_fract_z
Si Si1 0.689680 0.222920 0.767832
Si Si2 0.689191 0.732866 0.766753
Si Si3 0.686896 0.393996 0.765927
Si Si4 0.308983 0.647189 0.732701
Si Si5 0.819263 0.898052 0.762047
Si Si6 0.187773 0.861015 0.241285
Si Si7 0.178543 0.984857 0.576912
Si Si8 0.813147 0.522869 0.231899
O O1 0.500000 0.217407 0.750000
O O2 0.750061 0.244385 0.520019
O O3 0.774669 0.182733 0.795701
O O4 0.749674 0.246754 0.016513
O O5 0.500000 0.731229 0.750000
O O6 0.757311 0.690137 0.776571
O O7 0.500000 0.386835 0.750000
O O8 0.760703 0.374168 0.522141
O O9 0.719756 0.438464 0.765867
O O10 0.760155 0.374500 0.025535
O O11 0.500000 0.646620 0.750000
O O12 0.737925 0.885845 0.486268
O O13 0.814096 0.942524 0.817741
O O14 0.000000 0.883835 0.750000
O O15 0.733311 0.875941 0.987507
O O16 0.000000 0.868386 0.250000
O O17 0.263459 0.989670 0.308136
O O18 0.000000 0.000000 0.500000
O O19 0.762548 0.494922 0.456626
O O20 0.000000 0.531643 0.250000
#
# Coordination Sequence:
#
# PCOD8116823 Si02
#       8
#     4   4   4   4   4   4   4   4
#     4  10  19  33  52  73  94 126 170 203 230 274
#     4   9  17  30  52  75  97 124 161 205 239 283
#     4  10  19  31  51  76 102 126 155 201 250 298
#     4   9  17  30  49  77 103 124 153 197 256 296
#     4  10  18  29  43  65  96 131 152 184 239 296
#     4  10  21  32  47  67  99 132 153 191 241 291
#     4  10  17  24  41  63  92 125 149 192 236 277
#     4  10  21  36  52  70  96 135 174 204 238 286
#
# _framework density 20.70166
#
# number of rings (size 3 to 8) (size 9 to 14) (size 15 to 20)
#    0.000    2.250    1.250    3.000    3.500    3.500 
#    0.000    0.000    0.000    4.500    0.000    0.000 
#    0.000   10.000    0.000    0.000    0.000    0.000 
#
# Total GULP energy -396638.172898 kJ/mol
# GULP energy per Si atom -12394.942903 kJ/mol
# Density = 2.065454 g / cm^3
# Si number density = 20.701660 Si / 1000 Ang^3
#
#
#
# Elastic Constant Matrix: (Units=GPa)
#
#
# Indices 1 2 3 4 5 6 
#
# 1 3.3509 2.5550 11.1184 0.0000 -2.1671 0.0000
# 2 2.5550 153.2920 87.2629 0.0000 -4.8333 0.0000
# 3 11.1184 87.2629 230.8685 0.0000 -8.7559 0.0000
# 4 0.0000 0.0000 0.0000 48.9157 0.0000 -0.4841
# 5 -2.1671 -4.8333 -8.7559 0.0000 6.9543 0.0000
# 6 0.0000 0.0000 0.0000 -0.4841 0.0000 21.3976
#
#
#
# Elastic Compliance Matrix: (Units=1/GPa)
#
#
# Indices 1 2 3 4 5 6 
#
# 1 0.430949 0.007362 -0.019165 0.000000 0.115277 0.000000
# 2 0.007362 0.008462 -0.003406 0.000000 0.003887 0.000000
# 3 -0.019165 -0.003406 0.006538 0.000000 -0.000108 0.000000
# 4 0.000000 0.000000 0.000000 0.020448 0.000000 0.000463
# 5 0.115277 0.003887 -0.000108 0.000000 0.182283 0.000000
# 6 0.000000 0.000000 0.000000 0.000463 0.000000 0.046745
#
#
# Mechanical properties :
#
#
# Convention : Reuss Voigt Hill
#
# Bulk Modulus (GPa) = 2.40656 65.48711 33.94684
# Shear Modulus (GPa) = 5.78468 34.55854 20.17161
#
# Velocity S-wave (km/s) = 1.67343 4.09021 3.12492
# Velocity P-wave (km/s) = 2.21334 7.34907 5.42714
#
# Compressibility (1/GPa) = 0.41553095
#
# Stress axis : x y z
#
# Youngs Moduli (GPa) = 2.32046 118.17534 152.96262
#
# Poissons Ratio (x) = -0.86996 2.93147
# Poissons Ratio (y) = -0.01708 0.52092
# Poissons Ratio (z) = 0.04447 0.40245
#
# Static dielectric constant tensor:
#      x y z
#    x 3.349710 0.000000 -3.131950 
#    y 0.000000 3.713240 0.000000 
#    z -3.131950 0.000000 33.452310 
# 
# 
# High freq. dielectric constant tensor:
#      x y z
#    x 1.733090 0.000000 -0.007010 
#    y 0.000000 1.821270 0.000000 
#    z -0.007010 0.000000 1.845530 
# 
# From -- ./inp_files/2722.got.cif
#   From: 2010.06.25/outbox.cif.g09.slc.cpg/sg13_2_cif.got.tgz:2722.got - 2010.06.28 04:50:58.
