data_PCOD8116298
_publ_section_title
;
Structure prediction by ZEFSAII (Michael W. Deem and Ramdas Pophale) SiO2 
 PCOD8116298
Probable space group: C 2/M
;
_chemical_formula_sum "Si O2"
_cell_formula_units_Z 32
_cell_length_a 24.000000
_cell_length_b 9.000000
_cell_length_c 30.000000
_cell_angle_alpha 90.000000
_cell_angle_beta 30.000000
_cell_angle_gamma 90.000000
_cell_volume 3240.000000
_symmetry_space_group_name_H-M "C 2/M"
_symmetry_group_IT_number 12
_symmetry_cell_setting 'monoclinic'
loop_
_space_group_symop_operation_xyz
x,y,z
-x,y,-z
-x,-y,-z
x,-y,z
1/2+x,1/2+y,z
1/2-x,1/2+y,-z
1/2-x,1/2-y,-z
1/2+x,1/2-y,z
loop_
_atom_site_type_symbol
_atom_site_label
_atom_site_fract_x
_atom_site_fract_y
_atom_site_fract_z
Si Si1 0.334658 0.829740 0.408923
Si Si2 0.207020 0.177563 0.788096
Si Si3 0.464236 0.670138 0.846469
Si Si4 0.724886 0.173443 0.868473
Si Si5 0.579555 0.823652 0.215269
Si Si6 0.200904 0.161547 0.651053
Si Si7 0.384331 0.832801 0.594657
Si Si8 0.973235 0.673688 0.928022
O O1 0.250000 0.750000 0.500000
O O2 0.465591 0.785297 0.321562
O O3 0.297177 0.795209 0.384863
O O4 0.319528 0.000000 0.429761
O O5 0.234876 0.221595 0.818963
O O6 0.310350 0.237871 0.685908
O O7 0.093145 0.257891 0.854425
O O8 0.192865 0.000000 0.792698
O O9 0.420706 0.500000 0.872237
O O10 0.426843 0.770505 0.831144
O O11 0.598735 0.675328 0.756419
O O12 0.417825 0.744076 0.923854
O O13 0.823468 0.224920 0.831877
O O14 0.738638 0.000000 0.846363
O O15 0.606415 0.199788 0.974484
O O16 0.604098 0.000000 0.199742
O O17 0.314766 0.169820 0.598035
O O18 0.191043 0.000000 0.633426
O O19 0.500000 0.749859 0.500000
O O20 0.414271 0.000000 0.589202
O O21 0.986192 0.500000 0.908414
#
# Coordination Sequence:
#
# PCOD8116298 Si02
#       8
#     8   8   8   8   8   8   8   8
#     4  10  21  36  57  85 113 149 195 239 290 351
#     4  11  22  39  62  89 119 156 203 249 296 355
#     4  10  19  35  61  89 116 150 195 245 296 352
#     4  11  25  42  59  85 121 161 200 246 304 359
#     4  10  22  40  60  86 119 155 197 245 300 357
#     4   9  17  33  55  81 112 147 188 237 291 344
#     4   9  18  34  57  86 117 149 188 235 292 350
#     4  11  23  39  61  87 118 158 203 247 298 359
#
# _framework density 9.8765429999999999
#
# number of rings (size 3 to 8) (size 9 to 14) (size 15 to 20)
#    0.000    1.875    1.250    2.625    0.000    7.000 
#    0.000    2.500    0.000    2.625    0.000    0.000 
#    0.000    0.000    0.000    0.000    0.000    0.000 
#
# Total GULP energy -396639.218653 kJ/mol
# GULP energy per Si atom -12394.975583 kJ/mol
# Density = 0.985406 g / cm^3
# Si number density = 9.876543 Si / 1000 Ang^3
#
#
#
# Elastic Constant Matrix: (Units=GPa)
#
#
# Indices 1 2 3 4 5 6 
#
# 1 57.5215 17.5879 42.1214 -0.0131 -1.9754 0.0206
# 2 17.5879 75.4384 45.6932 0.0367 2.8718 -0.0556
# 3 42.1214 45.6932 137.0509 0.0086 4.1374 -0.0035
# 4 -0.0131 0.0367 0.0086 30.6539 0.0043 2.8059
# 5 -1.9754 2.8718 4.1374 0.0043 22.1909 -0.0099
# 6 0.0206 -0.0556 -0.0035 2.8059 -0.0099 33.6052
#
#
#
# Elastic Compliance Matrix: (Units=1/GPa)
#
#
# Indices 1 2 3 4 5 6 
#
# 1 0.022799 -0.001428 -0.006635 0.000014 0.003451 -0.000017
# 2 -0.001428 0.016728 -0.005098 -0.000022 -0.001341 0.000029
# 3 -0.006635 -0.005098 0.011096 0.000001 -0.002000 -0.000004
# 4 0.000014 -0.000022 0.000001 0.032874 -0.000004 -0.002745
# 5 0.003451 -0.001341 -0.002000 -0.000004 0.045917 0.000009
# 6 -0.000017 0.000029 -0.000004 -0.002745 0.000009 0.029987
#
#
# Mechanical properties :
#
#
# Convention : Reuss Voigt Hill
#
# Bulk Modulus (GPa) = 41.15118 53.42398 47.28758
# Shear Modulus (GPa) = 25.79705 28.26388 27.03047
#
# Velocity S-wave (km/s) = 3.61775 3.78677 3.70323
# Velocity P-wave (km/s) = 6.19103 6.79883 6.50204
#
# Compressibility (1/GPa) = 0.02430064
#
# Stress axis : x y z
#
# Youngs Moduli (GPa) = 43.86230 59.78176 90.12458
#
# Poissons Ratio (x) = 0.08536 0.59799
# Poissons Ratio (y) = 0.06263 0.45943
# Poissons Ratio (z) = 0.29103 0.30475
#
# Static dielectric constant tensor:
#      x y z
#    x 3.479830 -0.000040 0.060300 
#    y -0.000040 3.698010 -0.000160 
#    z 0.060300 -0.000160 3.887740 
# 
# 
# High freq. dielectric constant tensor:
#      x y z
#    x 1.761390 0.000000 0.002450 
#    y 0.000000 1.767810 0.000000 
#    z 0.002450 0.000000 1.783530 
# 
# From -- ./inp_files/382365.got.cif
#   From: 2010.06.25/outbox.ucp.g09.slc.cvg/sg12_192_cif.got.tgz:382365.got - 2010.06.28 13:50:54.
