data_PCOD8116783
_publ_section_title
;
Structure prediction by ZEFSAII (Michael W. Deem and Ramdas Pophale) SiO2 
 PCOD8116783
Probable space group: P 2/C
;
_chemical_formula_sum "Si O2"
_cell_formula_units_Z 26
_cell_length_a 24.328965
_cell_length_b 8.435522
_cell_length_c 16.545623
_cell_angle_alpha 90.000000
_cell_angle_beta 157.518153
_cell_angle_gamma 90.000000
_cell_volume 1298.452428
_symmetry_space_group_name_H-M "P 2/C"
_symmetry_group_IT_number 13
_symmetry_cell_setting 'monoclinic'
loop_
_space_group_symop_operation_xyz
x,y,z
-x,y,1/2-z
-x,-y,-z
x,-y,1/2+z
loop_
_atom_site_type_symbol
_atom_site_label
_atom_site_fract_x
_atom_site_fract_y
_atom_site_fract_z
Si Si1 0.285910 0.800720 0.158724
Si Si2 0.166290 0.131136 0.979357
Si Si3 0.199065 0.328164 0.867613
Si Si4 0.667397 0.372779 0.611044
Si Si5 0.000000 0.636363 0.750000
Si Si6 0.583082 0.425368 0.782800
Si Si7 0.892727 0.394677 0.475256
O O1 0.318035 0.739060 0.292155
O O2 0.403109 0.728044 0.256332
O O3 0.134682 0.747734 0.916579
O O4 0.279355 0.991026 0.152561
O O5 0.216390 0.199486 0.961564
O O6 0.182749 0.261523 0.072150
O O7 0.000000 0.074761 0.750000
O O8 0.288800 0.274886 0.910121
O O9 0.030218 0.332076 0.611493
O O10 0.262638 0.496775 0.985994
O O11 0.505656 0.437008 0.384418
O O12 0.771823 0.527171 0.755201
O O13 0.967961 0.526726 0.631252
O O14 0.500000 0.368838 0.750000
#
# Coordination Sequence:
#
# PCOD8116783 Si02
#       7
#     4   4   4   4   2   4   4
#     4  11  20  36  57  87 116 147 190 235 289 345
#     4  10  20  35  59  85 121 153 186 231 302 351
#     4  10  18  37  58  81 111 154 193 242 284 340
#     4  10  22  34  58  87 112 147 202 245 279 327
#     4  10  16  30  62  80 104 146 194 232 274 330
#     4  10  21  39  60  83 114 155 199 238 278 339
#     4  10  17  35  57  83 111 150 197 236 281 336
#
# _framework density 20.023837
#
# number of rings (size 3 to 8) (size 9 to 14) (size 15 to 20)
#    0.000    1.846    4.615    1.846    0.000    0.000 
#    0.000   11.538    0.000    0.000    0.000    0.000 
#    0.000    0.000    0.000    0.000    0.000    0.000 
#
# Total GULP energy -322267.602242 kJ/mol
# GULP energy per Si atom -12394.907779 kJ/mol
# Density = 1.997826 g / cm^3
# Si number density = 20.023837 Si / 1000 Ang^3
#
#
#
# Elastic Constant Matrix: (Units=GPa)
#
#
# Indices 1 2 3 4 5 6 
#
# 1 130.8361 60.4641 33.9033 0.0000 3.2930 0.0000
# 2 60.4641 89.1631 21.8142 0.0000 2.7346 0.0000
# 3 33.9033 21.8142 58.7704 0.0000 2.3264 0.0000
# 4 0.0000 0.0000 0.0000 69.0791 0.0000 31.2228
# 5 3.2930 2.7346 2.3264 0.0000 22.4148 0.0000
# 6 0.0000 0.0000 0.0000 31.2228 0.0000 37.2738
#
#
#
# Elastic Compliance Matrix: (Units=1/GPa)
#
#
# Indices 1 2 3 4 5 6 
#
# 1 0.012053 -0.007108 -0.004297 0.000000 -0.000458 0.000000
# 2 -0.007108 0.016552 -0.002013 0.000000 -0.000766 0.000000
# 3 -0.004297 -0.002013 0.020290 0.000000 -0.001229 0.000000
# 4 0.000000 0.000000 0.000000 0.023296 0.000000 -0.019514
# 5 -0.000458 -0.000766 -0.001229 0.000000 0.044902 0.000000
# 6 0.000000 0.000000 0.000000 -0.019514 0.000000 0.043175
#
#
# Mechanical properties :
#
#
# Convention : Reuss Voigt Hill
#
# Bulk Modulus (GPa) = 45.33232 56.79251 51.06242
# Shear Modulus (GPa) = 25.71283 36.59275 31.15279
#
# Velocity S-wave (km/s) = 3.58734 4.27952 3.94862
# Velocity P-wave (km/s) = 6.31245 7.26932 6.80772
#
# Compressibility (1/GPa) = 0.02205932
#
# Stress axis : x y z
#
# Youngs Moduli (GPa) = 82.96673 60.41695 49.28619
#
# Poissons Ratio (x) = 0.42946 0.21176
# Poissons Ratio (y) = 0.58975 0.09920
# Poissons Ratio (z) = 0.35647 0.12160
#
# Static dielectric constant tensor:
#      x y z
#    x 3.573800 0.000000 -0.131280 
#    y 0.000000 3.414300 0.000000 
#    z -0.131280 0.000000 2.515240 
# 
# 
# High freq. dielectric constant tensor:
#      x y z
#    x 1.785540 0.000000 0.006110 
#    y 0.000000 1.748220 0.000000 
#    z 0.006110 0.000000 1.782130 
# 
# From -- ./inp_files/57324.got.cif
#   From: 2010.06.25/outbox.cif.g09.slc.cpg/sg13_29_cif.got.tgz:57324.got - 2010.06.28 04:50:58.
