data_PCOD8116964
_publ_section_title
;
Structure prediction by ZEFSAII (Michael W. Deem and Ramdas Pophale) SiO2 
 PCOD8116964
Probable space group: P 2/C
;
_chemical_formula_sum "Si O2"
_cell_formula_units_Z 28
_cell_length_a 9.295722
_cell_length_b 8.995217
_cell_length_c 29.622397
_cell_angle_alpha 90.000000
_cell_angle_beta 34.015115
_cell_angle_gamma 90.000000
_cell_volume 1385.627294
_symmetry_space_group_name_H-M "P 2/C"
_symmetry_group_IT_number 13
_symmetry_cell_setting 'monoclinic'
loop_
_space_group_symop_operation_xyz
x,y,z
-x,y,1/2-z
-x,-y,-z
x,-y,1/2+z
loop_
_atom_site_type_symbol
_atom_site_label
_atom_site_fract_x
_atom_site_fract_y
_atom_site_fract_z
Si Si1 0.129215 0.844775 0.811750
Si Si2 0.129481 0.121950 0.604859
Si Si3 0.021209 0.293141 0.429903
Si Si4 0.850391 0.432761 0.919984
Si Si5 0.523092 0.208971 0.130849
Si Si6 0.587098 0.052575 0.546348
Si Si7 0.675318 0.658924 0.903115
O O1 0.336398 0.796918 0.721824
O O2 0.187487 0.767651 0.844396
O O3 0.832667 0.808031 0.874506
O O4 0.121892 0.021893 0.819975
O O5 0.992702 0.281091 0.629168
O O6 0.317590 0.121793 0.599596
O O7 0.289449 0.064304 0.520248
O O8 0.940390 0.464034 0.438714
O O9 0.772342 0.193858 0.505805
O O10 0.204824 0.280815 0.425527
O O11 0.860364 0.522229 0.869697
O O12 0.568793 0.359874 0.000996
O O13 0.400395 0.332124 0.129359
O O14 0.551675 0.045087 0.101405
#
# Coordination Sequence:
#
# PCOD8116964 Si02
#       7
#     4   4   4   4   4   4   4
#     4  10  21  37  62  84 113 161 200 247 303 357
#     4  10  17  35  62  86 112 146 205 246 292 342
#     4  10  23  37  59  86 122 161 199 238 308 370
#     4  10  19  37  60  87 114 156 196 246 300 360
#     4  12  21  36  60  90 121 153 203 253 299 359
#     4  10  19  34  59  89 111 150 197 258 285 340
#     4  10  19  34  60  87 112 151 201 247 287 359
#
# _framework density 20.207453000000001
#
# number of rings (size 3 to 8) (size 9 to 14) (size 15 to 20)
#    0.000    1.714    2.857    4.714    0.000    0.571 
#    0.000    0.000   22.000    6.857    0.000    0.000 
#    0.000    0.000    0.000    0.000    0.000    0.000 
#
# Total GULP energy -346930.636610 kJ/mol
# GULP energy per Si atom -12390.379879 kJ/mol
# Density = 2.016146 g / cm^3
# Si number density = 20.207453 Si / 1000 Ang^3
#
#
#
# Elastic Constant Matrix: (Units=GPa)
#
#
# Indices 1 2 3 4 5 6 
#
# 1 91.3175 31.3929 -2.2887 0.0000 -0.1735 0.0000
# 2 31.3929 138.5639 7.1255 0.0000 -5.5669 0.0000
# 3 -2.2887 7.1255 49.5872 0.0000 4.5559 0.0000
# 4 0.0000 0.0000 0.0000 20.4414 0.0000 8.0240
# 5 -0.1735 -5.5669 4.5559 0.0000 15.8191 0.0000
# 6 0.0000 0.0000 0.0000 8.0240 0.0000 24.3866
#
#
#
# Elastic Compliance Matrix: (Units=1/GPa)
#
#
# Indices 1 2 3 4 5 6 
#
# 1 0.011940 -0.002806 0.001061 0.000000 -0.001162 0.000000
# 2 -0.002806 0.008066 -0.001588 0.000000 0.003265 0.000000
# 3 0.001061 -0.001588 0.021051 0.000000 -0.006610 0.000000
# 4 0.000000 0.000000 0.000000 0.056176 0.000000 -0.018484
# 5 -0.001162 0.003265 -0.006610 0.000000 0.066255 0.000000
# 6 0.000000 0.000000 0.000000 -0.018484 0.000000 0.047088
#
#
# Mechanical properties :
#
#
# Convention : Reuss Voigt Hill
#
# Bulk Modulus (GPa) = 29.07900 39.10312 34.09106
# Shear Modulus (GPa) = 21.86215 28.34533 25.10374
#
# Velocity S-wave (km/s) = 3.29277 3.74935 3.52845
# Velocity P-wave (km/s) = 5.37382 6.17546 5.78853
#
# Compressibility (1/GPa) = 0.03438908
#
# Stress axis : x y z
#
# Youngs Moduli (GPa) = 83.75239 123.98399 47.50360
#
# Poissons Ratio (x) = 0.34794 -0.05041
# Poissons Ratio (y) = 0.23504 0.07546
# Poissons Ratio (z) = -0.08887 0.19695
#
# Static dielectric constant tensor:
#      x y z
#    x 3.690150 0.000000 0.047630 
#    y 0.000000 4.035400 0.000000 
#    z 0.047630 0.000000 3.260510 
# 
# 
# High freq. dielectric constant tensor:
#      x y z
#    x 1.783090 0.000000 0.003880 
#    y 0.000000 1.794750 0.000000 
#    z 0.003880 0.000000 1.751330 
# 
# From -- ./inp_files/91399.got.cif
#   From: 2010.06.25/outbox.cif.g09.slc.cpg/sg13_46_cif.got.tgz:91399.got - 2010.06.28 04:50:58.
