data_PCOD8116456
_publ_section_title
;
Structure prediction by ZEFSAII (Michael W. Deem and Ramdas Pophale) SiO2 
 PCOD8116456
Probable space group: C 2/M
;
_chemical_formula_sum "Si O2"
_cell_formula_units_Z 32
_cell_length_a 18.000000
_cell_length_b 9.000000
_cell_length_c 30.000000
_cell_angle_alpha 90.000000
_cell_angle_beta 40.000000
_cell_angle_gamma 90.000000
_cell_volume 3123.947783
_symmetry_space_group_name_H-M "C 2/M"
_symmetry_group_IT_number 12
_symmetry_cell_setting 'monoclinic'
loop_
_space_group_symop_operation_xyz
x,y,z
-x,y,-z
-x,-y,-z
x,-y,z
1/2+x,1/2+y,z
1/2-x,1/2+y,-z
1/2-x,1/2-y,-z
1/2+x,1/2-y,z
loop_
_atom_site_type_symbol
_atom_site_label
_atom_site_fract_x
_atom_site_fract_y
_atom_site_fract_z
Si Si1 0.958626 0.323110 0.182210
Si Si2 0.419636 0.323648 0.790972
Si Si3 0.976004 0.829856 0.937666
Si Si4 0.095008 0.169331 0.635897
Si Si5 0.185048 0.170230 0.908755
Si Si6 0.333897 0.826401 0.556332
Si Si7 0.780003 0.326848 0.683703
Si Si8 0.500377 0.669741 0.585011
O O1 0.953365 0.500000 0.186673
O O2 0.015318 0.275436 0.109253
O O3 0.831249 0.257569 0.247289
O O4 0.036833 0.260449 0.185482
O O5 0.430689 0.500000 0.792448
O O6 0.491633 0.265829 0.714423
O O7 0.286446 0.279658 0.846767
O O8 0.088947 0.810053 0.915495
O O9 0.964555 0.000000 0.926774
O O10 0.865520 0.786004 0.019144
O O11 0.218417 0.244909 0.588214
O O12 0.085211 0.181912 0.587639
O O13 0.106129 0.000000 0.646813
O O14 0.228708 0.000000 0.890104
O O15 0.314727 0.794619 0.616862
O O16 0.444516 0.743578 0.484487
O O17 0.353711 0.000000 0.537291
O O18 0.763473 0.500000 0.701716
O O19 0.890831 0.256500 0.656516
O O20 0.468259 0.500000 0.588269
#
# Coordination Sequence:
#
# PCOD8116456 Si02
#       8
#     8   8   8   8   8   8   8   8
#     4  12  25  40  61  90 122 156 203 255 299 352
#     4  11  22  40  63  87 121 165 203 244 301 357
#     4   9  20  41  66  91 126 163 196 239 297 355
#     4   9  20  39  59  83 118 157 196 241 295 355
#     4   9  20  40  65  95 125 157 199 246 290 347
#     4  10  20  40  63  81 111 157 204 242 291 361
#     4  11  23  41  62  84 116 160 202 243 299 362
#     4  11  23  37  58  90 122 150 193 251 303 353
#
# _framework density 10.243449
#
# number of rings (size 3 to 8) (size 9 to 14) (size 15 to 20)
#    0.000    1.750    1.250    3.750    1.750    4.000 
#    0.000    3.750    0.000    0.000    0.000    0.000 
#    0.000    0.000    0.000    0.000    0.000    0.000 
#
# Total GULP energy -396659.866548 kJ/mol
# GULP energy per Si atom -12395.620830 kJ/mol
# Density = 1.022013 g / cm^3
# Si number density = 10.243449 Si / 1000 Ang^3
#
#
#
# Elastic Constant Matrix: (Units=GPa)
#
#
# Indices 1 2 3 4 5 6 
#
# 1 21.8664 7.5213 -1.5270 -0.0003 6.1511 0.0018
# 2 7.5213 91.3159 18.9056 0.0012 12.2674 0.0015
# 3 -1.5270 18.9056 80.4689 -0.0005 10.3859 -0.0004
# 4 -0.0003 0.0012 -0.0005 39.3951 0.0000 -5.5957
# 5 6.1511 12.2674 10.3859 0.0000 37.1350 0.0003
# 6 0.0018 0.0015 -0.0004 -5.5957 0.0003 22.2485
#
#
#
# Elastic Compliance Matrix: (Units=1/GPa)
#
#
# Indices 1 2 3 4 5 6 
#
# 1 0.049348 -0.003598 0.002784 0.000000 -0.007764 -0.000004
# 2 -0.003598 0.012142 -0.002573 -0.000001 -0.002696 -0.000001
# 3 0.002784 -0.002573 0.013522 0.000000 -0.003393 0.000000
# 4 0.000000 -0.000001 0.000000 0.026324 0.000000 0.006621
# 5 -0.007764 -0.002696 -0.003393 0.000000 0.030054 0.000000
# 6 -0.000004 -0.000001 0.000000 0.006621 0.000000 0.046612
#
#
# Mechanical properties :
#
#
# Convention : Reuss Voigt Hill
#
# Bulk Modulus (GPa) = 14.65443 27.05009 20.85226
# Shear Modulus (GPa) = 24.09360 31.00583 27.54972
#
# Velocity S-wave (km/s) = 3.43308 3.89452 3.67106
# Velocity P-wave (km/s) = 4.78365 5.78406 5.30748
#
# Compressibility (1/GPa) = 0.06823875
#
# Stress axis : x y z
#
# Youngs Moduli (GPa) = 20.26408 82.35764 73.95112
#
# Poissons Ratio (x) = 0.29632 -0.20587
# Poissons Ratio (y) = 0.07291 0.19028
# Poissons Ratio (z) = -0.05641 0.21191
#
# Static dielectric constant tensor:
#      x y z
#    x 3.663990 0.000000 -0.085220 
#    y 0.000000 3.670520 0.000000 
#    z -0.085220 0.000000 3.985250 
# 
# 
# High freq. dielectric constant tensor:
#      x y z
#    x 1.798520 0.000000 0.001040 
#    y 0.000000 1.789210 0.000000 
#    z 0.001040 0.000000 1.824450 
# 
# From -- ./inp_files/377976.got.cif
#   From: 2010.06.25/outbox.ucp.g09.slc.cvg/sg12_189_cif.got.tgz:377976.got - 2010.06.28 13:50:54.
