data_PCOD8116931
_publ_section_title
;
Structure prediction by ZEFSAII (Michael W. Deem and Ramdas Pophale) SiO2 
 PCOD8116931
Probable space group: P 2/C
;
_chemical_formula_sum "Si O2"
_cell_formula_units_Z 20
_cell_length_a 16.296354
_cell_length_b 11.950380
_cell_length_c 13.292058
_cell_angle_alpha 90.000000
_cell_angle_beta 24.852226
_cell_angle_gamma 90.000000
_cell_volume 1087.933768
_symmetry_space_group_name_H-M "P 2/C"
_symmetry_group_IT_number 13
_symmetry_cell_setting 'monoclinic'
loop_
_space_group_symop_operation_xyz
x,y,z
-x,y,1/2-z
-x,-y,-z
x,-y,1/2+z
loop_
_atom_site_type_symbol
_atom_site_label
_atom_site_fract_x
_atom_site_fract_y
_atom_site_fract_z
Si Si1 0.296910 0.876352 0.926582
Si Si2 0.965024 0.906624 0.456331
Si Si3 0.285886 0.379465 0.460349
Si Si4 0.969831 0.340262 0.561198
Si Si5 0.273868 0.504010 0.277789
O O1 0.500000 0.918744 0.750000
O O2 0.301873 0.744684 0.896103
O O3 0.235788 0.927921 0.884963
O O4 0.139485 0.909433 0.183710
O O5 0.969335 0.788855 0.510648
O O6 0.000000 0.000000 0.500000
O O7 0.500000 0.421356 0.250000
O O8 0.130581 0.375575 0.721954
O O9 0.219335 0.468731 0.451443
O O10 0.813019 0.371711 0.648101
O O11 0.163519 0.414721 0.328064
O O12 0.500000 0.500000 0.000000
#
# Coordination Sequence:
#
# PCOD8116931 Si02
#       5
#     4   4   4   4   4
#     4   9  19  35  58  84 106 142 190 232 276 328
#     4  10  20  36  60  84 112 145 188 237 278 328
#     4  10  17  33  56  77 109 144 182 229 270 325
#     4  10  21  34  54  82 109 147 185 224 280 326
#     4  11  20  32  53  83 115 138 184 227 272 329
#
# _framework density 18.383472000000001
#
# number of rings (size 3 to 8) (size 9 to 14) (size 15 to 20)
#    0.000    2.000    4.000    0.600    0.000    0.800 
#    0.000    0.000   17.600    1.200    0.000    0.000 
#    0.000    0.000    0.000    0.000    0.000    0.000 
#
# Total GULP energy -247784.485555 kJ/mol
# GULP energy per Si atom -12389.224278 kJ/mol
# Density = 1.834163 g / cm^3
# Si number density = 18.383472 Si / 1000 Ang^3
#
#
#
# Elastic Constant Matrix: (Units=GPa)
#
#
# Indices 1 2 3 4 5 6 
#
# 1 147.2413 65.0419 30.3278 0.0000 -20.4364 0.0000
# 2 65.0419 88.4259 24.8670 0.0000 -4.2969 0.0000
# 3 30.3278 24.8670 60.2630 0.0000 -23.2922 0.0000
# 4 0.0000 0.0000 0.0000 14.8819 0.0000 4.7622
# 5 -20.4364 -4.2969 -23.2922 0.0000 38.0720 0.0000
# 6 0.0000 0.0000 0.0000 4.7622 0.0000 37.7355
#
#
#
# Elastic Compliance Matrix: (Units=1/GPa)
#
#
# Indices 1 2 3 4 5 6 
#
# 1 0.010938 -0.007669 -0.000531 0.000000 0.004681 0.000000
# 2 -0.007669 0.018331 -0.005889 0.000000 -0.005650 0.000000
# 3 -0.000531 -0.005889 0.024785 0.000000 0.014214 0.000000
# 4 0.000000 0.000000 0.000000 0.070024 0.000000 -0.008837
# 5 0.004681 -0.005650 0.014214 0.000000 0.036837 0.000000
# 6 0.000000 0.000000 0.000000 -0.008837 0.000000 0.027615
#
#
# Mechanical properties :
#
#
# Convention : Reuss Voigt Hill
#
# Bulk Modulus (GPa) = 38.64416 59.60041 49.12229
# Shear Modulus (GPa) = 22.18938 29.85078 26.02008
#
# Velocity S-wave (km/s) = 3.47800 4.03399 3.76627
# Velocity P-wave (km/s) = 6.09881 7.36128 6.75958
#
# Compressibility (1/GPa) = 0.02587713
#
# Stress axis : x y z
#
# Youngs Moduli (GPa) = 91.42196 54.55173 40.34743
#
# Poissons Ratio (x) = 0.41835 0.02142
# Poissons Ratio (y) = 0.70111 0.23759
# Poissons Ratio (z) = 0.04854 0.32124
#
# Static dielectric constant tensor:
#      x y z
#    x 3.814590 0.000000 -0.349520 
#    y 0.000000 3.200460 0.000000 
#    z -0.349520 0.000000 3.373360 
# 
# 
# High freq. dielectric constant tensor:
#      x y z
#    x 1.727350 0.000000 -0.026160 
#    y 0.000000 1.677900 0.000000 
#    z -0.026160 0.000000 1.704720 
# 
# From -- ./inp_files/37075.got.cif
#   From: 2010.06.25/outbox.cif.g09.slc.cpg/sg13_19_cif.got.tgz:37075.got - 2010.06.28 04:50:58.
