data_PCOD8116269
_publ_section_title
;
Structure prediction by ZEFSAII (Michael W. Deem and Ramdas Pophale) SiO2 
 PCOD8116269
Probable space group: C 2/M
;
_chemical_formula_sum "Si O2"
_cell_formula_units_Z 32
_cell_length_a 24.000000
_cell_length_b 9.000000
_cell_length_c 30.000000
_cell_angle_alpha 90.000000
_cell_angle_beta 30.000000
_cell_angle_gamma 90.000000
_cell_volume 3240.000000
_symmetry_space_group_name_H-M "C 2/M"
_symmetry_group_IT_number 12
_symmetry_cell_setting 'monoclinic'
loop_
_space_group_symop_operation_xyz
x,y,z
-x,y,-z
-x,-y,-z
x,-y,z
1/2+x,1/2+y,z
1/2-x,1/2+y,-z
1/2-x,1/2-y,-z
1/2+x,1/2-y,z
loop_
_atom_site_type_symbol
_atom_site_label
_atom_site_fract_x
_atom_site_fract_y
_atom_site_fract_z
Si Si1 0.048071 0.832542 0.337418
Si Si2 0.544852 0.828951 0.215935
Si Si3 0.979016 0.669468 0.870681
Si Si4 0.869069 0.324641 0.413203
Si Si5 0.222972 0.326984 0.928180
Si Si6 0.103610 0.166547 0.401455
Si Si7 0.264975 0.324432 0.165894
Si Si8 0.182814 0.174335 0.771416
O O1 0.070959 0.836612 0.373179
O O2 0.139454 0.736440 0.247701
O O3 0.933218 0.745509 0.410613
O O4 0.043940 0.000000 0.320800
O O5 0.511037 0.802522 0.188465
O O6 0.438684 0.782116 0.320032
O O7 0.653391 0.731161 0.148852
O O8 0.576826 0.000000 0.202885
O O9 0.010456 0.500000 0.860874
O O10 0.064574 0.779419 0.834681
O O11 0.855708 0.707288 0.974783
O O12 0.855581 0.500000 0.427441
O O13 0.750000 0.250000 0.500000
O O14 0.229206 0.500000 0.913710
O O15 0.169117 0.247276 0.921566
O O16 0.218085 0.257218 0.327396
O O17 0.000000 0.240202 0.500000
O O18 0.124686 0.000000 0.405310
O O19 0.266254 0.500000 0.160484
O O20 0.313787 0.271097 0.179462
O O21 0.198457 0.000000 0.758221
#
# Coordination Sequence:
#
# PCOD8116269 Si02
#       8
#     8   8   8   8   8   8   8   8
#     4  10  19  34  57  83 111 144 188 238 286 340
#     4  10  22  41  62  83 115 157 196 238 292 351
#     4  10  23  41  59  84 119 157 195 239 293 353
#     4  11  23  38  58  84 115 152 192 237 292 346
#     4  11  22  36  61  91 115 148 196 245 292 344
#     4   9  19  36  59  84 112 151 192 233 289 354
#     4  10  20  36  58  83 115 152 190 234 287 348
#     4  10  22  38  57  84 117 154 195 242 293 340
#
# _framework density 9.8765429999999999
#
# number of rings (size 3 to 8) (size 9 to 14) (size 15 to 20)
#    0.000    1.875    1.250    2.250    0.000    5.750 
#    0.000    7.500    0.000    0.000    0.000    0.000 
#    0.000    0.000    0.000    0.000    0.000    0.000 
#
# Total GULP energy -396752.927689 kJ/mol
# GULP energy per Si atom -12398.528990 kJ/mol
# Density = 0.985406 g / cm^3
# Si number density = 9.876543 Si / 1000 Ang^3
#
#
#
# Elastic Constant Matrix: (Units=GPa)
#
#
# Indices 1 2 3 4 5 6 
#
# 1 53.2997 34.9358 36.2692 0.0345 -10.5486 -0.0292
# 2 34.9358 88.3911 49.2976 -0.0113 -2.9376 -0.0082
# 3 36.2692 49.2976 128.3478 0.0058 -0.4193 0.0201
# 4 0.0345 -0.0113 0.0058 28.6625 -0.0111 -5.8646
# 5 -10.5486 -2.9376 -0.4193 -0.0111 26.1214 0.0548
# 6 -0.0292 -0.0082 0.0201 -5.8646 0.0548 30.0723
#
#
#
# Elastic Compliance Matrix: (Units=1/GPa)
#
#
# Indices 1 2 3 4 5 6 
#
# 1 0.030155 -0.008675 -0.005153 -0.000034 0.011119 0.000003
# 2 -0.008675 0.016955 -0.004066 0.000018 -0.001662 0.000006
# 3 -0.005153 -0.004066 0.010802 0.000000 -0.002365 -0.000009
# 4 -0.000034 0.000018 0.000000 0.036339 -0.000011 0.007087
# 5 0.011119 -0.001662 -0.002365 -0.000011 0.042548 -0.000068
# 6 0.000003 0.000006 -0.000009 0.007087 -0.000068 0.034635
#
#
# Mechanical properties :
#
#
# Convention : Reuss Voigt Hill
#
# Bulk Modulus (GPa) = 45.20215 56.78263 50.99239
# Shear Modulus (GPa) = 23.29953 26.94031 25.11992
#
# Velocity S-wave (km/s) = 3.43817 3.69705 3.56995
# Velocity P-wave (km/s) = 6.22050 6.85805 6.54704
#
# Compressibility (1/GPa) = 0.02212284
#
# Stress axis : x y z
#
# Youngs Moduli (GPa) = 33.16181 58.98089 92.57916
#
# Poissons Ratio (x) = 0.51166 0.47706
# Poissons Ratio (y) = 0.28768 0.37644
# Poissons Ratio (z) = 0.17088 0.23983
#
# Static dielectric constant tensor:
#      x y z
#    x 3.585370 -0.000160 0.299980 
#    y -0.000160 3.685190 -0.000720 
#    z 0.299980 -0.000720 4.087920 
# 
# 
# High freq. dielectric constant tensor:
#      x y z
#    x 1.762200 -0.000010 0.010620 
#    y -0.000010 1.773180 0.000000 
#    z 0.010620 0.000000 1.776990 
# 
# From -- ./inp_files/382279.got.cif
#   From: 2010.06.25/outbox.ucp.g09.slc.cvg/sg12_192_cif.got.tgz:382279.got - 2010.06.28 13:50:54.
