data_PCOD8116071
_publ_section_title
;
Structure prediction by ZEFSAII (Michael W. Deem and Ramdas Pophale) SiO2 
 PCOD8116071
Probable space group: C 2/M
;
_chemical_formula_sum "Si O2"
_cell_formula_units_Z 48
_cell_length_a 14.058856
_cell_length_b 9.575026
_cell_length_c 29.975747
_cell_angle_alpha 90.000000
_cell_angle_beta 134.709358
_cell_angle_gamma 90.000000
_cell_volume 2867.720704
_symmetry_space_group_name_H-M "C 2/M"
_symmetry_group_IT_number 12
_symmetry_cell_setting 'monoclinic'
loop_
_space_group_symop_operation_xyz
x,y,z
-x,y,-z
-x,-y,-z
x,-y,z
1/2+x,1/2+y,z
1/2-x,1/2+y,-z
1/2-x,1/2-y,-z
1/2+x,1/2-y,z
loop_
_atom_site_type_symbol
_atom_site_label
_atom_site_fract_x
_atom_site_fract_y
_atom_site_fract_z
Si Si1 0.842790 0.340164 0.561860
Si Si2 0.848738 0.663036 0.335624
Si Si3 0.653836 0.334849 1.000000
Si Si4 0.658133 0.836964 0.335624
Si Si5 0.148297 0.834966 0.098865
Si Si6 0.142160 0.333889 0.761440
O O1 0.811132 0.500000 0.540755
O O2 0.750000 0.250000 0.500000
O O3 0.809423 0.306907 0.602139
O O4 0.996993 0.306906 0.602139
O O5 0.815309 0.500000 0.329986
O O6 0.759322 0.750000 0.339548
O O7 0.818074 0.715062 0.275146
O O8 0.674525 0.500000 1.000000
O O9 0.502147 0.288932 0.938490
O O10 0.750000 0.250000 0.000000
O O11 0.686678 0.288933 0.061510
O O12 0.507364 0.784937 0.275146
O O13 0.674647 0.000000 0.329985
O O14 0.252828 0.768356 0.168552
O O15 0.155789 0.000000 0.103860
O O16 0.143948 0.500000 0.762632
#
# Coordination Sequence:
#
# PCOD8116071 Si02
#       6
#     8   8   8   8   8   8
#     4   9  19  34  49  67  92 121 151 183 222 268
#     4   9  18  32  49  69  92 118 150 187 225 266
#     4   9  17  29  46  68  92 119 153 189 224 266
#     4   9  18  32  49  69  92 118 150 187 225 266
#     4   8  15  29  47  65  89 124 157 181 218 275
#     4   8  15  30  49  66  89 122 155 185 220 267
#
# _framework density 16.738030999999999
#
# number of rings (size 3 to 8) (size 9 to 14) (size 15 to 20)
#    0.000    3.333    0.000    3.000    0.000    3.333 
#    0.000    7.500    0.000    2.000    0.000    0.000 
#    0.000    0.000    0.000    0.000    0.000    0.000 
#
# Total GULP energy -297486.716102 kJ/mol
# GULP energy per Si atom -12395.279838 kJ/mol
# Density = 1.669993 g / cm^3
# Si number density = 16.738031 Si / 1000 Ang^3
#
#
#
# Elastic Constant Matrix: (Units=GPa)
#
#
# Indices 1 2 3 4 5 6 
#
# 1 169.1280 67.1111 81.6915 0.0000 -1.0645 0.0000
# 2 67.1111 51.1167 53.9049 0.0000 -0.2191 0.0000
# 3 81.6915 53.9049 167.2900 0.0000 1.0344 0.0000
# 4 0.0000 0.0000 0.0000 17.6502 0.0000 -0.3242
# 5 -1.0645 -0.2191 1.0344 0.0000 11.6708 0.0000
# 6 0.0000 0.0000 0.0000 -0.3242 0.0000 37.1916
#
#
#
# Elastic Compliance Matrix: (Units=1/GPa)
#
#
# Indices 1 2 3 4 5 6 
#
# 1 0.012521 -0.015117 -0.001249 0.000000 0.000969 0.000000
# 2 -0.015117 0.047907 -0.008056 0.000000 0.000234 0.000000
# 3 -0.001249 -0.008056 0.009190 0.000000 -0.001080 0.000000
# 4 0.000000 0.000000 0.000000 0.056666 0.000000 0.000494
# 5 0.000969 0.000234 -0.001080 0.000000 0.085873 0.000000
# 6 0.000000 0.000000 0.000000 0.000494 0.000000 0.026892
#
#
# Mechanical properties :
#
#
# Convention : Reuss Voigt Hill
#
# Bulk Modulus (GPa) = 48.13909 88.10552 68.12231
# Shear Modulus (GPa) = 16.95966 25.62430 21.29198
#
# Velocity S-wave (km/s) = 3.18660 3.91692 3.57048
# Velocity P-wave (km/s) = 6.50861 8.55620 7.60166
#
# Compressibility (1/GPa) = 0.02077314
#
# Stress axis : x y z
#
# Youngs Moduli (GPa) = 79.86830 20.87381 108.81198
#
# Poissons Ratio (x) = 0.31555 0.13591
# Poissons Ratio (y) = 1.20737 0.87662
# Poissons Ratio (z) = 0.09976 0.16816
#
# Static dielectric constant tensor:
#      x y z
#    x 3.078980 0.000000 0.009080 
#    y 0.000000 2.762690 0.000000 
#    z 0.009080 0.000000 3.625940 
# 
# 
# High freq. dielectric constant tensor:
#      x y z
#    x 1.648630 0.000000 0.000100 
#    y 0.000000 1.609630 0.000000 
#    z 0.000100 0.000000 1.654460 
# 
# From -- ./inp_files/303836.got.cif
#   From: 2010.06.25/outbox.cif.g09.slc.cpg/sg12_152_cif.got.tgz:303836.got - 2010.06.28 00:19:55.
