data_PCOD8116049
_publ_section_title
;
Structure prediction by ZEFSAII (Michael W. Deem and Ramdas Pophale) SiO2 
 PCOD8116049
Probable space group: C 2/M
;
_chemical_formula_sum "Si O2"
_cell_formula_units_Z 52
_cell_length_a 24.672864
_cell_length_b 13.814424
_cell_length_c 19.891967
_cell_angle_alpha 90.000000
_cell_angle_beta 150.205256
_cell_angle_gamma 90.000000
_cell_volume 3368.946694
_symmetry_space_group_name_H-M "C 2/M"
_symmetry_group_IT_number 12
_symmetry_cell_setting 'monoclinic'
loop_
_space_group_symop_operation_xyz
x,y,z
-x,y,-z
-x,-y,-z
x,-y,z
1/2+x,1/2+y,z
1/2-x,1/2+y,-z
1/2-x,1/2-y,-z
1/2+x,1/2-y,z
loop_
_atom_site_type_symbol
_atom_site_label
_atom_site_fract_x
_atom_site_fract_y
_atom_site_fract_z
Si Si1 0.941990 0.889934 0.190315
Si Si2 0.553258 0.767086 0.697557
Si Si3 0.500000 0.811309 0.500000
Si Si4 0.222558 0.390119 0.704200
Si Si5 0.691687 0.390665 0.458541
Si Si6 0.810913 0.703067 0.466642
Si Si7 0.738806 0.614031 0.107413
O O1 0.916502 0.829691 0.229955
O O2 0.066475 0.878306 0.300584
O O3 0.913410 0.000000 0.177956
O O4 0.866913 0.852815 0.048250
O O5 0.533822 0.741100 0.598024
O O6 0.441500 0.814125 0.605740
O O7 0.653710 0.840976 0.811214
O O8 0.594193 0.885137 0.580218
O O9 0.255797 0.500000 0.721949
O O10 0.248615 0.321499 0.668287
O O11 0.281620 0.353847 0.836605
O O12 0.714081 0.500000 0.508449
O O13 0.766933 0.369239 0.475817
O O14 0.717268 0.315048 0.546175
O O15 0.757081 0.500000 0.125551
#
# Coordination Sequence:
#
# PCOD8116049 Si02
#       7
#     8   8   4   8   8   8   8
#     4   9  17  29  42  57  81 113 140 160 192 238
#     4   9  16  27  43  61  83 105 130 169 203 233
#     4   8  15  24  37  60  84 104 129 160 205 248
#     4   9  15  24  39  59  84 106 126 162 203 239
#     4   9  17  29  43  59  83 108 132 167 200 233
#     4   9  17  27  42  63  81 103 137 165 200 243
#     4   9  17  27  41  62  84 107 134 162 200 243
#
# _framework density 15.435091
#
# number of rings (size 3 to 8) (size 9 to 14) (size 15 to 20)
#    0.000    3.077    0.000    1.154    0.000    4.308 
#    0.000    1.154    0.000    9.231    0.000    0.000 
#    0.000   11.077    0.000    0.000    0.000    0.000 
#
# Total GULP energy -322194.699792 kJ/mol
# GULP energy per Si atom -12392.103838 kJ/mol
# Density = 1.539996 g / cm^3
# Si number density = 15.435091 Si / 1000 Ang^3
#
#
#
# Elastic Constant Matrix: (Units=GPa)
#
#
# Indices 1 2 3 4 5 6 
#
# 1 88.9532 44.7035 41.1257 0.0000 -11.2684 0.0000
# 2 44.7035 75.2102 42.3801 0.0000 -12.7296 0.0000
# 3 41.1257 42.3801 85.5748 0.0000 -20.7395 0.0000
# 4 0.0000 0.0000 0.0000 20.8218 0.0000 -3.8968
# 5 -11.2684 -12.7296 -20.7395 0.0000 21.9256 0.0000
# 6 0.0000 0.0000 0.0000 -3.8968 0.0000 21.1823
#
#
#
# Elastic Compliance Matrix: (Units=1/GPa)
#
#
# Indices 1 2 3 4 5 6 
#
# 1 0.017163 -0.007694 -0.004389 0.000000 0.000202 0.000000
# 2 -0.007694 0.022015 -0.006572 0.000000 0.002610 0.000000
# 3 -0.004389 -0.006572 0.020212 0.000000 0.013047 0.000000
# 4 0.000000 0.000000 0.000000 0.049739 0.000000 0.009150
# 5 0.000202 0.002610 0.013047 0.000000 0.059569 0.000000
# 6 0.000000 0.000000 0.000000 0.009150 0.000000 0.048893
#
#
# Mechanical properties :
#
#
# Convention : Reuss Voigt Hill
#
# Bulk Modulus (GPa) = 45.29185 56.23963 50.76574
# Shear Modulus (GPa) = 19.06499 20.88787 19.97643
#
# Velocity S-wave (km/s) = 3.51831 3.68267 3.60143
# Velocity P-wave (km/s) = 6.77583 7.38905 7.08907
#
# Compressibility (1/GPa) = 0.02207903
#
# Stress axis : x y z
#
# Youngs Moduli (GPa) = 58.26366 45.42458 49.47623
#
# Poissons Ratio (x) = 0.34951 0.21714
# Poissons Ratio (y) = 0.44829 0.32517
# Poissons Ratio (z) = 0.25571 0.29854
#
# Static dielectric constant tensor:
#      x y z
#    x 3.027710 0.000000 -0.157740 
#    y 0.000000 2.858610 0.000000 
#    z -0.157740 0.000000 3.096920 
# 
# 
# High freq. dielectric constant tensor:
#      x y z
#    x 1.591230 0.000000 -0.005670 
#    y 0.000000 1.573860 0.000000 
#    z -0.005670 0.000000 1.583090 
# 
# From -- ./inp_files/166281.got.cif
#   From: 2010.06.25/outbox.cif.g09.slc.cpg/sg12_84_cif.got.tgz:166281.got - 2010.06.28 00:19:55.
