data_PCOD8116485
_publ_section_title
;
Structure prediction by ZEFSAII (Michael W. Deem and Ramdas Pophale) SiO2 
 PCOD8116485
Probable space group: C 2/M
;
_chemical_formula_sum "Si O2"
_cell_formula_units_Z 32
_cell_length_a 30.000000
_cell_length_b 9.000000
_cell_length_c 24.000000
_cell_angle_alpha 90.000000
_cell_angle_beta 30.000000
_cell_angle_gamma 90.000000
_cell_volume 3240.000000
_symmetry_space_group_name_H-M "C 2/M"
_symmetry_group_IT_number 12
_symmetry_cell_setting 'monoclinic'
loop_
_space_group_symop_operation_xyz
x,y,z
-x,y,-z
-x,-y,-z
x,-y,z
1/2+x,1/2+y,z
1/2-x,1/2+y,-z
1/2-x,1/2-y,-z
1/2+x,1/2-y,z
loop_
_atom_site_type_symbol
_atom_site_label
_atom_site_fract_x
_atom_site_fract_y
_atom_site_fract_z
Si Si1 0.619810 0.163059 0.024457
Si Si2 0.027339 0.174022 0.216669
Si Si3 0.540657 0.826547 0.311759
Si Si4 0.409409 0.167928 0.068855
Si Si5 0.169276 0.162609 0.563370
Si Si6 0.681937 0.668595 0.226181
Si Si7 0.262362 0.828056 0.727033
Si Si8 0.638691 0.334166 0.470520
O O1 0.584245 0.296736 0.100342
O O2 0.594622 0.000000 0.076045
O O3 0.574289 0.183737 0.014218
O O4 0.725330 0.177080 0.906358
O O5 0.071513 0.270730 0.217709
O O6 0.926376 0.233157 0.317215
O O7 0.028016 0.000000 0.231864
O O8 0.620838 0.794564 0.266219
O O9 0.461088 0.724565 0.419086
O O10 0.516016 0.000000 0.338542
O O11 0.341641 0.291149 0.164313
O O12 0.375828 0.000000 0.119166
O O13 0.500000 0.207389 0.000000
O O14 0.250000 0.250000 0.500000
O O15 0.182094 0.156962 0.483792
O O16 0.173302 0.000000 0.585738
O O17 0.643682 0.500000 0.264836
O O18 0.692339 0.716749 0.278459
O O19 0.305169 0.789341 0.622062
O O20 0.277148 0.000000 0.726323
O O21 0.639559 0.500000 0.442689
#
# Coordination Sequence:
#
# PCOD8116485 Si02
#       8
#     8   8   8   8   8   8   8   8
#     4   9  19  35  56  81 107 140 183 226 267 315
#     4  10  21  37  55  78 110 146 181 219 270 327
#     4  11  22  37  58  84 110 138 179 228 273 319
#     4   9  19  37  58  80 110 148 187 226 273 328
#     4   9  20  36  55  79 107 141 180 221 266 319
#     4  10  21  39  59  80 110 146 181 220 271 328
#     4  11  22  36  56  84 113 142 182 229 273 319
#     4  10  21  39  58  79 110 147 183 220 270 328
#
# _framework density 9.8765429999999999
#
# number of rings (size 3 to 8) (size 9 to 14) (size 15 to 20)
#    0.000    2.125    0.000    4.875    0.000    7.750 
#    0.000    6.250    0.000    0.000    0.000    0.000 
#    0.000    0.000    0.000    0.000    0.000    0.000 
#
# Total GULP energy -396698.921637 kJ/mol
# GULP energy per Si atom -12396.841301 kJ/mol
# Density = 0.985406 g / cm^3
# Si number density = 9.876543 Si / 1000 Ang^3
#
#
#
# Elastic Constant Matrix: (Units=GPa)
#
#
# Indices 1 2 3 4 5 6 
#
# 1 60.6004 36.4893 42.4274 -0.0121 -18.8182 0.0142
# 2 36.4893 110.1794 26.2017 0.0769 0.2413 -0.0189
# 3 42.4274 26.2017 54.7491 0.0238 14.2941 -0.0062
# 4 -0.0121 0.0769 0.0238 32.3787 -0.0023 6.7333
# 5 -18.8182 0.2413 14.2941 -0.0023 15.5229 -0.0057
# 6 0.0142 -0.0189 -0.0062 6.7333 -0.0057 26.4282
#
#
#
# Elastic Compliance Matrix: (Units=1/GPa)
#
#
# Indices 1 2 3 4 5 6 
#
# 1 -0.020799 -0.000121 0.029962 -0.000036 -0.052802 0.000016
# 2 -0.000121 0.010644 -0.006475 -0.000023 0.005650 0.000013
# 3 0.029962 -0.006475 -0.014961 0.000046 0.050200 -0.000025
# 4 -0.000036 -0.000023 0.000046 0.032612 -0.000085 -0.008309
# 5 -0.052802 0.005650 0.050200 -0.000085 -0.045904 0.000056
# 6 0.000016 0.000013 -0.000025 -0.008309 0.000056 0.039955
#
#
# Mechanical properties :
#
#
# Convention : Reuss Voigt Hill
#
# Bulk Modulus (GPa) = 46.26436 48.41843 47.34140
# Shear Modulus (GPa) = -131.65409 22.89333 -54.38038
#
# Velocity S-wave (km/s) = -8.17279 3.40807 -5.25260
# Velocity P-wave (km/s) = 8.09860 6.32863 3.57321
#
# Compressibility (1/GPa) = 0.02161491
#
# Stress axis : x y z
#
# Youngs Moduli (GPa) = -48.07992 93.95215 -66.84032
#
# Poissons Ratio (x) = 0.01140 2.00265
# Poissons Ratio (y) = -0.00583 -0.43278
# Poissons Ratio (z) = 1.44055 0.60832
#
# Static dielectric constant tensor:
#      x y z
#    x 3.342830 -0.000010 -0.032370 
#    y -0.000010 3.687440 0.000040 
#    z -0.032370 0.000040 3.338640 
# 
# 
# High freq. dielectric constant tensor:
#      x y z
#    x 1.753740 0.000000 -0.001540 
#    y 0.000000 1.773300 0.000000 
#    z -0.001540 0.000000 1.752350 
# 
# From -- ./inp_files/353259.got.cif
#   From: 2010.06.25/outbox.ucp.g09.slc.cvg/sg12_177_cif.got.tgz:353259.got - 2010.06.28 13:50:54.
