data_PCOD8116035
_publ_section_title
;
Structure prediction by ZEFSAII (Michael W. Deem and Ramdas Pophale) SiO2 
 PCOD8116035
Probable space group: C 2/M
;
_chemical_formula_sum "Si O2"
_cell_formula_units_Z 64
_cell_length_a 35.716680
_cell_length_b 9.210619
_cell_length_c 12.750209
_cell_angle_alpha 90.000000
_cell_angle_beta 90.049910
_cell_angle_gamma 90.000000
_cell_volume 4194.469490
_symmetry_space_group_name_H-M "C 2/M"
_symmetry_group_IT_number 12
_symmetry_cell_setting 'monoclinic'
loop_
_space_group_symop_operation_xyz
x,y,z
-x,y,-z
-x,-y,-z
x,-y,z
1/2+x,1/2+y,z
1/2-x,1/2+y,-z
1/2-x,1/2-y,-z
1/2+x,1/2-y,z
loop_
_atom_site_type_symbol
_atom_site_label
_atom_site_fract_x
_atom_site_fract_y
_atom_site_fract_z
Si Si1 0.289211 0.830254 0.227489
Si Si2 0.999931 0.335457 0.374833
Si Si3 0.571957 0.663963 0.375161
Si Si4 0.712221 0.165866 0.999821
Si Si5 0.927907 0.836040 0.375432
Si Si6 0.645657 0.169492 0.621121
Si Si7 0.145529 0.669502 0.378321
Si Si8 0.789380 0.330239 0.772892
O O1 0.307928 0.798343 0.111592
O O2 0.318628 0.774527 0.313636
O O3 0.249922 0.749932 0.243704
O O4 0.281341 0.000000 0.243105
O O5 0.999910 0.500000 0.331843
O O6 0.963420 0.252332 0.331140
O O7 0.000000 0.336206 0.500000
O O8 0.036391 0.252314 0.331003
O O9 0.570975 0.500000 0.330944
O O10 0.570428 0.662823 0.499867
O O11 0.609600 0.742863 0.337054
O O12 0.723942 0.000000 0.999933
O O13 0.750000 0.250000 0.000000
O O14 0.691993 0.201719 0.111016
O O15 0.890217 0.757174 0.337467
O O16 0.928846 0.000000 0.331210
O O17 0.653913 0.202303 0.499709
O O18 0.637676 0.000000 0.640244
O O19 0.137547 0.500000 0.359214
O O20 0.181159 0.725604 0.312946
O O21 0.781562 0.500000 0.757142
#
# Coordination Sequence:
#
# PCOD8116035 Si02
#       8
#     8   8   8   8   8   8   8   8
#     4   9  17  28  42  58  76 100 130 164 199 234
#     4   9  15  23  37  55  75 102 133 162 193 229
#     4   9  16  25  37  54  76 102 132 164 194 225
#     4   8  14  26  42  58  74  93 122 161 202 236
#     4   9  16  25  37  54  76 102 132 164 194 225
#     4   9  17  28  39  53  77 107 134 159 191 232
#     4   9  17  28  39  53  77 107 134 159 191 232
#     4   9  17  28  42  58  76 100 130 164 199 234
#
# _framework density 15.258187
#
# number of rings (size 3 to 8) (size 9 to 14) (size 15 to 20)
#    0.000    3.125    0.000    1.125    0.000    6.000 
#    0.000    0.000    0.000    0.000    0.000    0.000 
#    0.000    1.000    0.000   11.750    0.000    5.750 
#
# Total GULP energy -396504.409485 kJ/mol
# GULP energy per Si atom -12390.762796 kJ/mol
# Density = 1.522346 g / cm^3
# Si number density = 15.258187 Si / 1000 Ang^3
#
#
#
# Elastic Constant Matrix: (Units=GPa)
#
#
# Indices 1 2 3 4 5 6 
#
# 1 130.8243 60.3405 53.6489 0.0000 7.3758 0.0000
# 2 60.3405 80.6841 30.5995 0.0000 2.9257 0.0000
# 3 53.6489 30.5995 58.7729 0.0000 -0.4495 0.0000
# 4 0.0000 0.0000 0.0000 11.0435 0.0000 1.7553
# 5 7.3758 2.9257 -0.4495 0.0000 2.1549 0.0000
# 6 0.0000 0.0000 0.0000 1.7553 0.0000 28.1547
#
#
#
# Elastic Compliance Matrix: (Units=1/GPa)
#
#
# Indices 1 2 3 4 5 6 
#
# 1 0.021572 -0.007527 -0.016285 0.000000 -0.067013 0.000000
# 2 -0.007527 0.019262 -0.003166 0.000000 -0.001050 0.000000
# 3 -0.016285 -0.003166 0.034042 0.000000 0.067139 0.000000
# 4 0.000000 0.000000 0.000000 0.091457 0.000000 -0.005702
# 5 -0.067013 -0.001050 0.067139 0.000000 0.708856 0.000000
# 6 0.000000 0.000000 0.000000 -0.005702 0.000000 0.035873
#
#
# Mechanical properties :
#
#
# Convention : Reuss Voigt Hill
#
# Bulk Modulus (GPa) = 47.80124 62.16213 54.98169
# Shear Modulus (GPa) = 5.14409 16.65013 10.89711
#
# Velocity S-wave (km/s) = 1.83812 3.30695 2.67532
# Velocity P-wave (km/s) = 5.99176 7.44378 6.75689
#
# Compressibility (1/GPa) = 0.02091996
#
# Stress axis : x y z
#
# Youngs Moduli (GPa) = 46.35699 51.91666 29.37584
#
# Poissons Ratio (x) = 0.39076 0.47838
# Poissons Ratio (y) = 0.34891 0.09300
# Poissons Ratio (z) = 0.75492 0.16437
#
# Static dielectric constant tensor:
#      x y z
#    x 2.893280 0.000000 -0.023950 
#    y 0.000000 2.990540 0.000000 
#    z -0.023950 0.000000 3.114110 
# 
# 
# High freq. dielectric constant tensor:
#      x y z
#    x 1.574650 0.000000 0.003410 
#    y 0.000000 1.594160 0.000000 
#    z 0.003410 0.000000 1.540500 
# 
# From -- ./inp_files/248482.got.cif
#   From: 2010.06.25/outbox.cif.g09.slc.cpg/sg12_125_cif.got.tgz:248482.got - 2010.06.28 00:19:55.
