data_PCOD8116692
_publ_section_title
;
Structure prediction by ZEFSAII (Michael W. Deem and Ramdas Pophale) SiO2 
 PCOD8116692
Probable space group: P 2/C
;
_chemical_formula_sum "Si O2"
_cell_formula_units_Z 22
_cell_length_a 21.434634
_cell_length_b 13.697717
_cell_length_c 5.312095
_cell_angle_alpha 90.000000
_cell_angle_beta 68.173113
_cell_angle_gamma 90.000000
_cell_volume 1447.850778
_symmetry_space_group_name_H-M "P 2/C"
_symmetry_group_IT_number 13
_symmetry_cell_setting 'monoclinic'
loop_
_space_group_symop_operation_xyz
x,y,z
-x,y,1/2-z
-x,-y,-z
x,-y,1/2+z
loop_
_atom_site_type_symbol
_atom_site_label
_atom_site_fract_x
_atom_site_fract_y
_atom_site_fract_z
Si Si1 0.201700 0.101564 0.447441
Si Si2 0.358454 0.941167 0.712251
Si Si3 0.575260 0.458568 0.386971
Si Si4 0.000000 0.935732 0.750000
Si Si5 0.854283 0.114324 0.468570
Si Si6 0.543408 0.236284 0.434835
O O1 0.279801 0.078919 0.330221
O O2 0.180279 0.161407 0.228680
O O3 0.159600 0.001553 0.510644
O O4 0.180295 0.161403 0.730481
O O5 0.395825 0.838817 0.656075
O O6 0.379586 0.000029 0.430593
O O7 0.500000 0.500000 0.500000
O O8 0.612375 0.499934 0.581359
O O9 0.576645 0.342420 0.384603
O O10 0.934187 0.866789 0.848734
O O11 0.000000 0.000000 0.500000
O O12 0.500000 0.220419 0.250000
O O13 0.500000 0.220674 0.750000
#
# Coordination Sequence:
#
# PCOD8116692 Si02
#       6
#     4   4   4   2   4   4
#     4  10  16  29  41  51  70 113 143 164 202 240
#     4  12  23  35  47  59  86 122 153 176 207 251
#     4  10  16  32  56  69  84 102 121 165 235 278
#     4  12  16  20  34  62  72  88 124 196 212 230
#     4  10  16  25  41  53  75  98 142 174 216 230
#     4  12  23  35  50  71  84 105 144 182 226 266
#
# _framework density 15.194938
#
# number of rings (size 3 to 8) (size 9 to 14) (size 15 to 20)
#    0.000    1.091   10.909    1.091    0.000    2.182 
#    0.000    0.000    0.000    0.000    0.000    0.000 
#    0.000    0.000    0.000    0.000    0.000    0.000 
#
# Total GULP energy -272660.135558 kJ/mol
# GULP energy per Si atom -12393.642525 kJ/mol
# Density = 1.516035 g / cm^3
# Si number density = 15.194938 Si / 1000 Ang^3
#
#
#
# Elastic Constant Matrix: (Units=GPa)
#
#
# Indices 1 2 3 4 5 6 
#
# 1 48.0302 37.4325 46.5130 0.0000 4.9201 0.0000
# 2 37.4325 71.7106 32.4945 0.0000 -2.1838 0.0000
# 3 46.5130 32.4945 132.4791 0.0000 43.4337 0.0000
# 4 0.0000 0.0000 0.0000 -49.6112 0.0000 -22.0508
# 5 4.9201 -2.1838 43.4337 0.0000 26.3924 0.0000
# 6 0.0000 0.0000 0.0000 -22.0508 0.0000 -10.4882
#
#
#
# Elastic Compliance Matrix: (Units=1/GPa)
#
#
# Indices 1 2 3 4 5 6 
#
# 1 0.054441 -0.016396 -0.024585 0.000000 0.028954 0.000000
# 2 -0.016396 0.024866 -0.004386 0.000000 0.012331 0.000000
# 3 -0.024585 -0.004386 0.034471 0.000000 -0.052508 0.000000
# 4 0.000000 0.000000 0.000000 -0.307645 0.000000 0.646808
# 5 0.028954 0.012331 -0.052508 0.000000 0.119924 0.000000
# 6 0.000000 0.000000 0.000000 0.646808 0.000000 -1.455225
#
#
# Mechanical properties :
#
#
# Convention : Reuss Voigt Hill
#
# Bulk Modulus (GPa) = 43.39359 53.90000 48.64680
# Shear Modulus (GPa) = -3.49466 2.31059 -0.59204
#
# Velocity S-wave (km/s) = -1.51818 1.23448 -0.62488
# Velocity P-wave (km/s) = 5.05438 6.13036 5.61819
#
# Compressibility (1/GPa) = 0.02304488
#
# Stress axis : x y z
#
# Youngs Moduli (GPa) = 18.36861 40.21521 29.01021
#
# Poissons Ratio (x) = 0.65936 0.71322
# Poissons Ratio (y) = 0.30117 0.12723
# Poissons Ratio (z) = 0.45159 0.17637
#
# Static dielectric constant tensor:
#      x y z
#    x 3.364780 0.000000 1.182330 
#    y 0.000000 2.469910 0.000000 
#    z 1.182330 0.000000 5.477230 
# 
# 
# High freq. dielectric constant tensor:
#      x y z
#    x 1.572980 0.000000 0.025210 
#    y 0.000000 1.508800 0.000000 
#    z 0.025210 0.000000 1.617960 
# 
# From -- ./inp_files/6007.got.cif
#   From: 2010.06.25/outbox.cif.g09.slc.cpg/sg13_4_cif.got.tgz:6007.got - 2010.06.28 04:50:58.
