data_PCOD8116619
_publ_section_title
;
Structure prediction by ZEFSAII (Michael W. Deem and Ramdas Pophale) SiO2 
 PCOD8116619
Probable space group: C 2/M
;
_chemical_formula_sum "Si O2"
_cell_formula_units_Z 24
_cell_length_a 21.000000
_cell_length_b 18.000000
_cell_length_c 18.000000
_cell_angle_alpha 90.000000
_cell_angle_beta 20.000000
_cell_angle_gamma 90.000000
_cell_volume 2327.105055
_symmetry_space_group_name_H-M "C 2/M"
_symmetry_group_IT_number 12
_symmetry_cell_setting 'monoclinic'
loop_
_space_group_symop_operation_xyz
x,y,z
-x,y,-z
-x,-y,-z
x,-y,z
1/2+x,1/2+y,z
1/2-x,1/2+y,-z
1/2-x,1/2-y,-z
1/2+x,1/2-y,z
loop_
_atom_site_type_symbol
_atom_site_label
_atom_site_fract_x
_atom_site_fract_y
_atom_site_fract_z
Si Si1 0.213404 0.318612 0.856605
Si Si2 0.366654 0.834258 0.453207
Si Si3 0.394542 0.321098 0.498528
Si Si4 0.106369 0.588573 0.732920
Si Si5 0.467302 0.336109 0.948648
Si Si6 0.603353 0.913696 0.314182
O O1 0.275465 0.305164 0.703470
O O2 0.391040 0.335492 0.714644
O O3 0.108159 0.243561 0.996912
O O4 0.069953 0.387458 0.022269
O O5 0.380865 0.746093 0.453992
O O6 0.411145 0.860300 0.321199
O O7 0.522114 0.873106 0.332334
O O8 0.157686 0.859768 0.700329
O O9 0.301261 0.392726 0.561099
O O10 0.098954 0.500000 0.724838
O O11 0.500000 0.336756 0.000000
O O12 0.321925 0.398972 0.083189
O O13 0.500000 0.880832 0.500000
O O14 0.563837 0.000000 0.348402
#
# Coordination Sequence:
#
# PCOD8116619 Si02
#       6
#     8   8   8   8   8   8
#     4  11  23  43  74 106 127 175 229 295 340 397
#     4  12  24  43  69  99 137 181 224 280 339 408
#     4  11  23  43  75 103 131 170 239 285 338 399
#     4  12  28  46  65 100 147 184 222 278 348 411
#     4  12  21  38  69  99 130 172 228 280 330 398
#     4  11  23  38  60  95 138 180 225 279 335 395
#
# _framework density 10.313243
#
# number of rings (size 3 to 8) (size 9 to 14) (size 15 to 20)
#    0.000    0.500    6.667    1.500    0.000    5.667 
#    0.000    1.667    0.000    0.000    0.000    0.000 
#    0.000    0.000    0.000    0.000    0.000    0.000 
#
# Total GULP energy -297648.744678 kJ/mol
# GULP energy per Si atom -12402.031028 kJ/mol
# Density = 1.028977 g / cm^3
# Si number density = 10.313243 Si / 1000 Ang^3
#
#
#
# Elastic Constant Matrix: (Units=GPa)
#
#
# Indices 1 2 3 4 5 6 
#
# 1 104.0698 34.1615 31.3599 -0.0063 -18.0983 -0.0008
# 2 34.1615 102.3686 26.1821 0.0233 0.1422 -0.0004
# 3 31.3599 26.1821 96.4985 0.0210 -21.5209 0.0032
# 4 -0.0063 0.0233 0.0210 34.5196 -0.0080 -3.4740
# 5 -18.0983 0.1422 -21.5209 -0.0080 39.2190 -0.0116
# 6 -0.0008 -0.0004 0.0032 -3.4740 -0.0116 24.9911
#
#
#
# Elastic Compliance Matrix: (Units=1/GPa)
#
#
# Indices 1 2 3 4 5 6 
#
# 1 0.012162 -0.003560 -0.001973 0.000007 0.004542 0.000004
# 2 -0.003560 0.011655 -0.002713 -0.000008 -0.003174 -0.000002
# 3 -0.001973 -0.002713 0.013148 -0.000005 0.006314 0.000000
# 4 0.000007 -0.000008 -0.000005 0.029380 0.000008 0.004084
# 5 0.004542 -0.003174 0.006314 0.000008 0.031070 0.000015
# 6 0.000004 -0.000002 0.000000 0.004084 0.000015 0.040582
#
#
# Mechanical properties :
#
#
# Convention : Reuss Voigt Hill
#
# Bulk Modulus (GPa) = 48.84678 54.03820 51.44249
# Shear Modulus (GPa) = 30.99510 33.82817 32.41164
#
# Velocity S-wave (km/s) = 3.88065 4.05413 3.96834
# Velocity P-wave (km/s) = 6.61908 6.94046 6.78167
#
# Compressibility (1/GPa) = 0.02047218
#
# Stress axis : x y z
#
# Youngs Moduli (GPa) = 82.22174 85.79985 76.05440
#
# Poissons Ratio (x) = 0.30547 0.15009
# Poissons Ratio (y) = 0.29273 0.20634
# Poissons Ratio (z) = 0.16226 0.23278
#
# Static dielectric constant tensor:
#      x y z
#    x 3.908260 -0.000050 -0.167810 
#    y -0.000050 3.647910 0.000030 
#    z -0.167810 0.000030 4.042930 
# 
# 
# High freq. dielectric constant tensor:
#      x y z
#    x 1.824840 0.000000 -0.016770 
#    y 0.000000 1.798460 0.000010 
#    z -0.016770 0.000010 1.820740 
# 
# From -- ./inp_files/285352.got.cif
#   From: 2010.06.25/outbox.ucp.g09.slc.cvg/sg12_143_cif.got.tgz:285352.got - 2010.06.28 13:50:54.
