data_PCOD8116294
_publ_section_title
;
Structure prediction by ZEFSAII (Michael W. Deem and Ramdas Pophale) SiO2 
 PCOD8116294
Probable space group: C 2/M
;
_chemical_formula_sum "Si O2"
_cell_formula_units_Z 32
_cell_length_a 18.000000
_cell_length_b 9.000000
_cell_length_c 30.000000
_cell_angle_alpha 90.000000
_cell_angle_beta 40.000000
_cell_angle_gamma 90.000000
_cell_volume 3123.947783
_symmetry_space_group_name_H-M "C 2/M"
_symmetry_group_IT_number 12
_symmetry_cell_setting 'monoclinic'
loop_
_space_group_symop_operation_xyz
x,y,z
-x,y,-z
-x,-y,-z
x,-y,z
1/2+x,1/2+y,z
1/2-x,1/2+y,-z
1/2-x,1/2-y,-z
1/2+x,1/2-y,z
loop_
_atom_site_type_symbol
_atom_site_label
_atom_site_fract_x
_atom_site_fract_y
_atom_site_fract_z
Si Si1 0.872420 0.333920 0.057361
Si Si2 0.844632 0.177214 0.706638
Si Si3 0.333884 0.167341 0.798711
Si Si4 0.769573 0.672974 0.426269
Si Si5 0.933014 0.324331 0.433637
Si Si6 0.367465 0.833505 0.956507
Si Si7 0.077359 0.333961 0.729102
Si Si8 0.406607 0.323651 0.189178
O O1 0.871431 0.500000 0.080054
O O2 0.780015 0.230557 0.124804
O O3 0.847205 0.349410 0.017700
O O4 0.000000 0.260970 0.000000
O O5 0.883883 0.222767 0.737888
O O6 0.716740 0.250239 0.765543
O O7 0.939798 0.245276 0.627981
O O8 0.838750 0.000000 0.702170
O O9 0.442195 0.157095 0.781176
O O10 0.304710 0.000000 0.794463
O O11 0.737906 0.500000 0.442697
O O12 0.862175 0.713618 0.421671
O O13 0.647783 0.761980 0.488642
O O14 0.834066 0.715150 0.350685
O O15 0.952938 0.500000 0.431116
O O16 0.485800 0.747880 0.887914
O O17 0.372280 0.000000 0.932924
O O18 0.250000 0.750000 0.000000
O O19 0.115657 0.500000 0.727774
O O20 0.082172 0.207445 0.763825
O O21 0.405789 0.500000 0.180484
#
# Coordination Sequence:
#
# PCOD8116294 Si02
#       8
#     8   8   8   8   8   8   8   8
#     4  10  22  39  58  83 115 152 196 245 296 354
#     4  12  24  40  62  88 122 164 205 247 304 364
#     4  11  22  38  62  91 120 152 196 250 301 355
#     4   9  18  35  59  89 124 160 197 242 298 356
#     4  10  19  35  59  91 125 157 199 248 297 352
#     4  11  23  41  64  89 119 158 203 248 300 361
#     4  10  21  40  62  88 123 159 198 246 300 358
#     4  12  26  42  62  89 123 160 204 254 306 361
#
# _framework density 10.243449
#
# number of rings (size 3 to 8) (size 9 to 14) (size 15 to 20)
#    0.000    1.375    1.250    4.875    0.000    6.250 
#    0.000    0.625    0.000    3.750    0.000    0.000 
#    0.000    0.000    0.000    0.000    0.000    0.000 
#
# Total GULP energy -396462.451610 kJ/mol
# GULP energy per Si atom -12389.451613 kJ/mol
# Density = 1.022013 g / cm^3
# Si number density = 10.243449 Si / 1000 Ang^3
#
#
#
# Elastic Constant Matrix: (Units=GPa)
#
#
# Indices 1 2 3 4 5 6 
#
# 1 40.4835 23.1161 12.8888 0.0002 -16.0314 0.0020
# 2 23.1161 157.3364 61.0140 0.0008 -19.5113 0.0032
# 3 12.8888 61.0140 168.6682 0.0001 -30.9985 0.0008
# 4 0.0002 0.0008 0.0001 49.9094 0.0000 -4.8630
# 5 -16.0314 -19.5113 -30.9985 0.0000 38.8000 0.0005
# 6 0.0020 0.0032 0.0008 -4.8630 0.0005 27.1049
#
#
#
# Elastic Compliance Matrix: (Units=1/GPa)
#
#
# Indices 1 2 3 4 5 6 
#
# 1 0.031091 -0.003508 0.001090 0.000000 0.011953 -0.000002
# 2 -0.003508 0.007904 -0.002493 0.000000 0.000533 -0.000001
# 3 0.001090 -0.002493 0.007736 0.000000 0.005377 0.000000
# 4 0.000000 0.000000 0.000000 0.020393 0.000000 0.003659
# 5 0.011953 0.000533 0.005377 0.000000 0.035276 -0.000002
# 6 -0.000002 -0.000001 0.000000 0.003659 -0.000002 0.037550
#
#
# Mechanical properties :
#
#
# Convention : Reuss Voigt Hill
#
# Bulk Modulus (GPa) = 27.09459 62.28064 44.68762
# Shear Modulus (GPa) = 30.84991 41.12747 35.98869
#
# Velocity S-wave (km/s) = 3.88472 4.48538 4.19581
# Velocity P-wave (km/s) = 5.77715 7.56908 6.73300
#
# Compressibility (1/GPa) = 0.03690773
#
# Stress axis : x y z
#
# Youngs Moduli (GPa) = 32.16369 126.51442 129.27321
#
# Poissons Ratio (x) = 0.44386 -0.14091
# Poissons Ratio (y) = 0.11284 0.32230
# Poissons Ratio (z) = -0.03506 0.31542
#
# Static dielectric constant tensor:
#      x y z
#    x 3.594720 0.000000 -0.179130 
#    y 0.000000 4.435580 0.000000 
#    z -0.179130 0.000000 4.167020 
# 
# 
# High freq. dielectric constant tensor:
#      x y z
#    x 1.783410 0.000000 -0.017440 
#    y 0.000000 1.815840 0.000000 
#    z -0.017440 0.000000 1.841570 
# 
# From -- ./inp_files/378026.got.cif
#   From: 2010.06.25/outbox.ucp.g09.slc.cvg/sg12_190_cif.got.tgz:378026.got - 2010.06.28 13:50:54.
