data_PCOD8116339
_publ_section_title
;
Structure prediction by ZEFSAII (Michael W. Deem and Ramdas Pophale) SiO2 
 PCOD8116339
Probable space group: C 2/M
;
_chemical_formula_sum "Si O2"
_cell_formula_units_Z 28
_cell_length_a 27.000000
_cell_length_b 18.000000
_cell_length_c 9.000000
_cell_angle_alpha 90.000000
_cell_angle_beta 40.000000
_cell_angle_gamma 90.000000
_cell_volume 2811.553005
_symmetry_space_group_name_H-M "C 2/M"
_symmetry_group_IT_number 12
_symmetry_cell_setting 'monoclinic'
loop_
_space_group_symop_operation_xyz
x,y,z
-x,y,-z
-x,-y,-z
x,-y,z
1/2+x,1/2+y,z
1/2-x,1/2+y,-z
1/2-x,1/2-y,-z
1/2+x,1/2-y,z
loop_
_atom_site_type_symbol
_atom_site_label
_atom_site_fract_x
_atom_site_fract_y
_atom_site_fract_z
Si Si1 0.728464 0.167006 0.527290
Si Si2 0.050814 0.413612 0.241525
Si Si3 0.132399 0.087853 0.299924
Si Si4 0.131111 0.152614 0.986488
Si Si5 0.435651 0.202479 0.029459
Si Si6 0.225633 0.584121 0.828640
Si Si7 0.007471 0.083724 0.821850
O O1 0.750000 0.250000 0.500000
O O2 0.754131 0.127264 0.618838
O O3 0.635851 0.163448 0.716924
O O4 0.780724 0.137386 0.269953
O O5 0.039498 0.500000 0.222615
O O6 0.025845 0.360997 0.162296
O O7 0.000000 0.392786 0.500000
O O8 0.139540 0.394776 0.077744
O O9 0.127403 0.144454 0.172910
O O10 0.218090 0.100094 0.164231
O O11 0.070839 0.118258 0.563506
O O12 0.117717 0.000000 0.294055
O O13 0.094727 0.229798 0.005814
O O14 0.077098 0.086110 0.054398
O O15 0.500000 0.229163 0.000000
O O16 0.229626 0.500000 0.768066
O O17 0.034897 0.000000 0.786107
O O18 0.000000 0.124670 0.000000
#
# Coordination Sequence:
#
# PCOD8116339 Si02
#       7
#     8   8   8   8   8   8   8
#     4   9  20  38  55  77 109 143 181 227 275 323
#     4   9  19  37  59  82 108 137 177 233 289 333
#     4  10  21  35  54  85 119 147 182 225 266 319
#     4  11  21  35  54  80 113 147 182 225 271 316
#     4  10  22  39  57  80 109 144 187 229 274 332
#     4   9  18  35  57  79 107 145 183 219 269 331
#     4  10  20  34  53  78 111 151 188 222 264 317
#
# _framework density 9.9589090000000002
#
# number of rings (size 3 to 8) (size 9 to 14) (size 15 to 20)
#    0.000    2.286    0.000    2.143    0.000    7.143 
#    0.000    6.429    0.000    0.000    0.000    0.000 
#    0.000    0.000    0.000    0.000    0.000    0.000 
#
# Total GULP energy -346940.260136 kJ/mol
# GULP energy per Si atom -12390.723576 kJ/mol
# Density = 0.993624 g / cm^3
# Si number density = 9.958909 Si / 1000 Ang^3
#
#
#
# Elastic Constant Matrix: (Units=GPa)
#
#
# Indices 1 2 3 4 5 6 
#
# 1 111.6739 41.9998 63.4508 0.0000 10.8985 0.0000
# 2 41.9998 65.7704 43.8806 0.0000 10.3707 0.0000
# 3 63.4508 43.8806 180.9666 0.0000 19.5428 0.0000
# 4 0.0000 0.0000 0.0000 31.4287 0.0000 4.4269
# 5 10.8985 10.3707 19.5428 0.0000 30.1104 0.0000
# 6 0.0000 0.0000 0.0000 4.4269 0.0000 29.7321
#
#
#
# Elastic Compliance Matrix: (Units=1/GPa)
#
#
# Indices 1 2 3 4 5 6 
#
# 1 0.013069 -0.006245 -0.003000 0.000000 -0.000633 0.000000
# 2 -0.006245 0.021503 -0.002655 0.000000 -0.003423 0.000000
# 3 -0.003000 -0.002655 0.007533 0.000000 -0.002889 0.000000
# 4 0.000000 0.000000 0.000000 0.032500 0.000000 -0.004839
# 5 -0.000633 -0.003423 -0.002889 0.000000 0.036494 0.000000
# 6 0.000000 0.000000 0.000000 -0.004839 0.000000 0.034354
#
#
# Mechanical properties :
#
#
# Convention : Reuss Voigt Hill
#
# Bulk Modulus (GPa) = 54.62367 73.00815 63.81591
# Shear Modulus (GPa) = 28.51350 32.19289 30.35319
#
# Velocity S-wave (km/s) = 3.78770 4.02467 3.90798
# Velocity P-wave (km/s) = 6.82737 7.63751 7.24377
#
# Compressibility (1/GPa) = 0.01830708
#
# Stress axis : x y z
#
# Youngs Moduli (GPa) = 76.51421 46.50478 132.74052
#
# Poissons Ratio (x) = 0.29041 0.39821
# Poissons Ratio (y) = 0.47781 0.35241
# Poissons Ratio (z) = 0.22954 0.12347
#
# Static dielectric constant tensor:
#      x y z
#    x 3.581690 0.000000 -0.295550 
#    y 0.000000 3.586280 0.000000 
#    z -0.295550 0.000000 4.686060 
# 
# 
# High freq. dielectric constant tensor:
#      x y z
#    x 1.761390 0.000000 -0.005990 
#    y 0.000000 1.768440 0.000000 
#    z -0.005990 0.000000 1.796220 
# 
# From -- ./inp_files/98183.got.cif
#   From: 2010.06.25/outbox.ucp.g09.slc.cvg/sg12_50_cif.got.tgz:98183.got - 2010.06.28 13:50:54.
