data_PCOD8116981
_publ_section_title
;
Structure prediction by ZEFSAII (Michael W. Deem and Ramdas Pophale) SiO2 
 PCOD8116981
Probable space group: P 2/C
;
_chemical_formula_sum "Si O2"
_cell_formula_units_Z 16
_cell_length_a 9.391760
_cell_length_b 7.604285
_cell_length_c 13.030121
_cell_angle_alpha 90.000000
_cell_angle_beta 102.930169
_cell_angle_gamma 90.000000
_cell_volume 906.983975
_symmetry_space_group_name_H-M "P 2/C"
_symmetry_group_IT_number 13
_symmetry_cell_setting 'monoclinic'
loop_
_space_group_symop_operation_xyz
x,y,z
-x,y,1/2-z
-x,-y,-z
x,-y,1/2+z
loop_
_atom_site_type_symbol
_atom_site_label
_atom_site_fract_x
_atom_site_fract_y
_atom_site_fract_z
Si Si1 0.337553 0.677831 0.220423
Si Si2 0.677567 0.806352 0.058053
Si Si3 0.172311 0.505456 0.532180
Si Si4 0.343040 0.816033 0.012908
O O1 0.500000 0.593836 0.250000
O O2 0.282490 0.749739 0.319935
O O3 0.226753 0.529020 0.158380
O O4 0.343969 0.838402 0.137847
O O5 0.508031 0.778403 0.001722
O O6 0.774657 0.695357 0.995520
O O7 0.721204 0.010564 0.050997
O O8 0.242659 0.353910 0.469096
O O9 0.000000 0.500000 0.500000
#
# Coordination Sequence:
#
# PCOD8116981 Si02
#       4
#     4   4   4   4
#     4   8  18  35  54  83 108 142 189 221 264 330
#     4  10  17  37  60  74 116 145 179 233 267 319
#     4  10  21  35  55  84 114 142 181 228 278 325
#     4   8  19  35  55  85 101 146 192 220 268 325
#
# _framework density 17.640885999999998
#
# number of rings (size 3 to 8) (size 9 to 14) (size 15 to 20)
#    1.500    1.500    0.000    0.750    0.000    2.000 
#    4.500    1.250    0.000    0.000    0.000    0.000 
#    0.000    0.000    0.000    0.000    0.000    0.000 
#
# Total GULP energy -198215.670078 kJ/mol
# GULP energy per Si atom -12388.479380 kJ/mol
# Density = 1.760073 g / cm^3
# Si number density = 17.640886 Si / 1000 Ang^3
#
#
#
# Elastic Constant Matrix: (Units=GPa)
#
#
# Indices 1 2 3 4 5 6 
#
# 1 96.1110 42.3944 25.2464 0.0000 12.5503 0.0000
# 2 42.3944 74.4819 16.7681 0.0000 2.0974 0.0000
# 3 25.2464 16.7681 80.4729 0.0000 8.5664 0.0000
# 4 0.0000 0.0000 0.0000 27.1710 0.0000 -6.7351
# 5 12.5503 2.0974 8.5664 0.0000 21.4499 0.0000
# 6 0.0000 0.0000 0.0000 -6.7351 0.0000 19.5576
#
#
#
# Elastic Compliance Matrix: (Units=1/GPa)
#
#
# Indices 1 2 3 4 5 6 
#
# 1 0.015580 -0.008118 -0.002413 0.000000 -0.007358 0.000000
# 2 -0.008118 0.018317 -0.001655 0.000000 0.003620 0.000000
# 3 -0.002413 -0.001655 0.013954 0.000000 -0.003999 0.000000
# 4 0.000000 0.000000 0.000000 0.040239 0.000000 0.013857
# 5 -0.007358 0.003620 -0.003999 0.000000 0.052169 0.000000
# 6 0.000000 0.000000 0.000000 0.013857 0.000000 0.055903
#
#
# Mechanical properties :
#
#
# Convention : Reuss Voigt Hill
#
# Bulk Modulus (GPa) = 42.59041 46.65375 44.62208
# Shear Modulus (GPa) = 21.89520 24.74618 23.32069
#
# Velocity S-wave (km/s) = 3.52684 3.74943 3.63983
# Velocity P-wave (km/s) = 6.38594 6.72667 6.55851
#
# Compressibility (1/GPa) = 0.02347946
#
# Stress axis : x y z
#
# Youngs Moduli (GPa) = 64.18485 54.59341 71.66282
#
# Poissons Ratio (x) = 0.44316 0.17293
# Poissons Ratio (y) = 0.52102 0.11863
# Poissons Ratio (z) = 0.15488 0.09037
#
# Static dielectric constant tensor:
#      x y z
#    x 3.057390 0.000000 0.007420 
#    y 0.000000 3.083530 0.000000 
#    z 0.007420 0.000000 3.163080 
# 
# 
# High freq. dielectric constant tensor:
#      x y z
#    x 1.669250 0.000000 -0.001510 
#    y 0.000000 1.664160 0.000000 
#    z -0.001510 0.000000 1.666070 
# 
# From -- ./inp_files/27771.got.cif
#   From: 2010.06.25/outbox.cif.g09.slc.cpg/sg13_14_cif.got.tgz:27771.got - 2010.06.28 04:50:58.
