data_PCOD8116915
_publ_section_title
;
Structure prediction by ZEFSAII (Michael W. Deem and Ramdas Pophale) SiO2 
 PCOD8116915
Probable space group: P 2/C
;
_chemical_formula_sum "Si O2"
_cell_formula_units_Z 26
_cell_length_a 18.847417
_cell_length_b 19.154838
_cell_length_c 5.031180
_cell_angle_alpha 90.000000
_cell_angle_beta 124.176348
_cell_angle_gamma 90.000000
_cell_volume 1502.691336
_symmetry_space_group_name_H-M "P 2/C"
_symmetry_group_IT_number 13
_symmetry_cell_setting 'monoclinic'
loop_
_space_group_symop_operation_xyz
x,y,z
-x,y,1/2-z
-x,-y,-z
x,-y,1/2+z
loop_
_atom_site_type_symbol
_atom_site_label
_atom_site_fract_x
_atom_site_fract_y
_atom_site_fract_z
Si Si1 0.500000 0.756237 0.250000
Si Si2 0.000000 0.548869 0.250000
Si Si3 0.500000 0.854993 0.750000
Si Si4 0.256823 0.182127 0.795857
Si Si5 0.861922 0.335810 0.526380
Si Si6 0.311749 0.266150 0.408988
Si Si7 0.339057 0.953532 0.355387
Si Si8 0.092442 0.744975 0.878472
O O1 0.510520 0.806204 0.521002
O O2 0.587940 0.709463 0.412495
O O3 0.089833 0.592243 0.443255
O O4 0.000000 0.500000 0.500000
O O5 0.421176 0.906156 0.564395
O O6 0.305143 0.231310 0.684576
O O7 0.262151 0.099712 0.752347
O O8 0.155506 0.191978 0.569535
O O9 0.291716 0.204855 0.156821
O O10 0.756860 0.331034 0.266767
O O11 0.902464 0.278073 0.416802
O O12 0.884421 0.320222 0.880047
O O13 0.336142 0.018300 0.550062
O O14 0.000000 0.774750 0.750000
#
# Coordination Sequence:
#
# PCOD8116915 Si02
#       8
#     2   2   2   4   4   4   4   4
#     4  12  18  33  54  72 100 127 162 220 266 292
#     4  12  22  34  54  82 118 148 160 190 236 290
#     4  12  22  33  46  70  96 125 174 204 256 326
#     4  10  20  33  48  72  93 127 167 213 261 298
#     4  10  20  33  50  80 107 135 170 194 240 298
#     4  10  19  33  52  71 101 129 164 217 252 291
#     4  12  22  34  46  63  96 134 166 205 258 320
#     4  10  17  32  56  74  99 126 164 214 253 294
#
# _framework density 17.302291
#
# number of rings (size 3 to 8) (size 9 to 14) (size 15 to 20)
#    0.000    1.231    4.615    3.231    0.000    0.000 
#    0.000    0.000    0.000    0.923    0.000    1.077 
#    0.000    0.000    0.000    0.000    0.000    0.000 
#
# Total GULP energy -322189.577400 kJ/mol
# GULP energy per Si atom -12391.906823 kJ/mol
# Density = 1.726291 g / cm^3
# Si number density = 17.302291 Si / 1000 Ang^3
#
#
#
# Elastic Constant Matrix: (Units=GPa)
#
#
# Indices 1 2 3 4 5 6 
#
# 1 98.4549 28.9991 42.2278 0.0000 22.5583 0.0000
# 2 28.9991 62.9163 27.2375 0.0000 18.6619 0.0000
# 3 42.2278 27.2375 65.0540 0.0000 21.9466 0.0000
# 4 0.0000 0.0000 0.0000 24.2346 0.0000 5.7013
# 5 22.5583 18.6619 21.9466 0.0000 51.9457 0.0000
# 6 0.0000 0.0000 0.0000 5.7013 0.0000 35.0025
#
#
#
# Elastic Compliance Matrix: (Units=1/GPa)
#
#
# Indices 1 2 3 4 5 6 
#
# 1 0.014782 -0.002852 -0.007675 0.000000 -0.002152 0.000000
# 2 -0.002852 0.020753 -0.005528 0.000000 -0.003882 0.000000
# 3 -0.007675 -0.005528 0.024344 0.000000 -0.004966 0.000000
# 4 0.000000 0.000000 0.000000 0.042908 0.000000 -0.006989
# 5 -0.002152 -0.003882 -0.004966 0.000000 0.023678 0.000000
# 6 0.000000 0.000000 0.000000 -0.006989 0.000000 0.029708
#
#
# Mechanical properties :
#
#
# Convention : Reuss Voigt Hill
#
# Bulk Modulus (GPa) = 36.01278 47.03933 41.52606
# Shear Modulus (GPa) = 25.31136 30.76727 28.03932
#
# Velocity S-wave (km/s) = 3.82892 4.22147 4.02998
# Velocity P-wave (km/s) = 6.35662 7.14191 6.76068
#
# Compressibility (1/GPa) = 0.02776792
#
# Stress axis : x y z
#
# Youngs Moduli (GPa) = 67.64984 48.18485 41.07818
#
# Poissons Ratio (x) = 0.13744 0.31528
# Poissons Ratio (y) = 0.19296 0.22709
# Poissons Ratio (z) = 0.51922 0.26638
#
# Static dielectric constant tensor:
#      x y z
#    x 3.647630 0.000000 0.123970 
#    y 0.000000 2.937480 0.000000 
#    z 0.123970 0.000000 3.583120 
# 
# 
# High freq. dielectric constant tensor:
#      x y z
#    x 1.693480 0.000000 -0.009130 
#    y 0.000000 1.611820 0.000000 
#    z -0.009130 0.000000 1.682300 
# 
# From -- ./inp_files/5141.got.cif
#   From: 2010.06.25/outbox.cif.g09.slc.cpg/sg13_3_cif.got.tgz:5141.got - 2010.06.28 04:50:58.
