data_PCOD8116800
_publ_section_title
;
Structure prediction by ZEFSAII (Michael W. Deem and Ramdas Pophale) SiO2 
 PCOD8116800
Probable space group: P 2/C
;
_chemical_formula_sum "Si O2"
_cell_formula_units_Z 32
_cell_length_a 14.744300
_cell_length_b 23.284067
_cell_length_c 5.553342
_cell_angle_alpha 90.000000
_cell_angle_beta 65.809813
_cell_angle_gamma 90.000000
_cell_volume 1739.093267
_symmetry_space_group_name_H-M "P 2/C"
_symmetry_group_IT_number 13
_symmetry_cell_setting 'monoclinic'
loop_
_space_group_symop_operation_xyz
x,y,z
-x,y,1/2-z
-x,-y,-z
x,-y,1/2+z
loop_
_atom_site_type_symbol
_atom_site_label
_atom_site_fract_x
_atom_site_fract_y
_atom_site_fract_z
Si Si1 0.111661 0.477295 0.379073
Si Si2 0.603343 0.791239 0.703919
Si Si3 0.255023 0.158866 0.835366
Si Si4 0.115641 0.133249 0.602131
Si Si5 0.797483 0.758394 0.718617
Si Si6 0.229493 0.031572 0.306142
Si Si7 0.596128 0.096243 0.504969
Si Si8 0.938806 0.652642 0.566624
O O1 0.163565 0.500142 0.572379
O O2 0.113293 0.408886 0.378437
O O3 0.000000 0.500000 0.500000
O O4 0.500000 0.757860 0.750000
O O5 0.660031 0.810181 0.407457
O O6 0.680132 0.752286 0.774287
O O7 0.566323 0.848010 0.885548
O O8 0.172562 0.121132 0.789210
O O9 0.311508 0.111484 0.925852
O O10 0.197694 0.210376 0.030896
O O11 0.141056 0.200134 0.525839
O O12 0.163154 0.090172 0.356213
O O13 0.000000 0.122553 0.750000
O O14 0.847978 0.696819 0.670584
O O15 0.201496 0.001682 0.590745
O O16 0.349050 0.045650 0.204984
O O17 0.500000 0.072670 0.750000
O O18 0.000000 0.660416 0.750000
O O19 0.000000 0.660921 0.250000
#
# Coordination Sequence:
#
# PCOD8116800 Si02
#       8
#     4   4   4   4   4   4   4   4
#     4  10  16  33  52  79 114 173 210 240 279 329
#     4  10  19  35  63  83 108 149 190 229 304 372
#     4  10  19  39  58  84 114 143 188 232 292 363
#     4  11  24  42  61  79 112 154 196 238 294 347
#     4  10  24  35  56  89 116 153 192 250 295 344
#     4  12  27  45  63  87 116 143 191 247 293 362
#     4  11  21  38  65  88 109 143 177 234 311 370
#     4  12  23  35  56  86 130 167 208 244 285 340
#
# _framework density 18.400393999999999
#
# number of rings (size 3 to 8) (size 9 to 14) (size 15 to 20)
#    0.000    1.250    7.500    1.125    5.250    1.000 
#    0.000    0.000    0.000    0.000    0.000    0.000 
#    0.000    1.000    0.000    0.000    0.000    0.000 
#
# Total GULP energy -396426.666772 kJ/mol
# GULP energy per Si atom -12388.333337 kJ/mol
# Density = 1.835851 g / cm^3
# Si number density = 18.400394 Si / 1000 Ang^3
#
#
#
# Elastic Constant Matrix: (Units=GPa)
#
#
# Indices 1 2 3 4 5 6 
#
# 1 81.0829 30.2884 46.4559 0.0000 -9.2173 0.0000
# 2 30.2884 72.7278 8.5787 0.0000 2.0546 0.0000
# 3 46.4559 8.5787 96.7895 0.0000 13.5496 0.0000
# 4 0.0000 0.0000 0.0000 15.6157 0.0000 -3.5623
# 5 -9.2173 2.0546 13.5496 0.0000 33.1454 0.0000
# 6 0.0000 0.0000 0.0000 -3.5623 0.0000 21.8882
#
#
#
# Elastic Compliance Matrix: (Units=1/GPa)
#
#
# Indices 1 2 3 4 5 6 
#
# 1 0.024366 -0.009009 -0.012647 0.000000 0.012504 0.000000
# 2 -0.009009 0.017231 0.003497 0.000000 -0.005003 0.000000
# 3 -0.012647 0.003497 0.017623 0.000000 -0.010938 0.000000
# 4 0.000000 0.000000 0.000000 0.066507 0.000000 0.010824
# 5 0.012504 -0.005003 -0.010938 0.000000 0.038429 0.000000
# 6 0.000000 0.000000 0.000000 0.010824 0.000000 0.047448
#
#
# Mechanical properties :
#
#
# Convention : Reuss Voigt Hill
#
# Bulk Modulus (GPa) = 43.66374 46.80514 45.23444
# Shear Modulus (GPa) = 19.56530 25.14832 22.35681
#
# Velocity S-wave (km/s) = 3.26438 3.70094 3.48949
# Velocity P-wave (km/s) = 6.16356 6.61474 6.39314
#
# Compressibility (1/GPa) = 0.02290230
#
# Stress axis : x y z
#
# Youngs Moduli (GPa) = 41.04153 58.03637 56.74430
#
# Poissons Ratio (x) = 0.52284 0.71763
# Poissons Ratio (y) = 0.36974 -0.19844
# Poissons Ratio (z) = 0.51904 -0.20296
#
# Static dielectric constant tensor:
#      x y z
#    x 3.364760 0.000000 0.399460 
#    y 0.000000 3.213180 0.000000 
#    z 0.399460 0.000000 4.113410 
# 
# 
# High freq. dielectric constant tensor:
#      x y z
#    x 1.692130 0.000000 0.015990 
#    y 0.000000 1.682340 0.000000 
#    z 0.015990 0.000000 1.735180 
# 
# From -- ./inp_files/5559.got.cif
#   From: 2010.06.25/outbox.cif.g09.slc.cpg/sg13_3_cif.got.tgz:5559.got - 2010.06.28 04:50:58.
