data_PCOD8116345
_publ_section_title
;
Structure prediction by ZEFSAII (Michael W. Deem and Ramdas Pophale) SiO2 
 PCOD8116345
Probable space group: C 2/M
;
_chemical_formula_sum "Si O2"
_cell_formula_units_Z 24
_cell_length_a 18.000000
_cell_length_b 9.000000
_cell_length_c 30.000000
_cell_angle_alpha 90.000000
_cell_angle_beta 30.000000
_cell_angle_gamma 90.000000
_cell_volume 2430.000000
_symmetry_space_group_name_H-M "C 2/M"
_symmetry_group_IT_number 12
_symmetry_cell_setting 'monoclinic'
loop_
_space_group_symop_operation_xyz
x,y,z
-x,y,-z
-x,-y,-z
x,-y,z
1/2+x,1/2+y,z
1/2-x,1/2+y,-z
1/2-x,1/2-y,-z
1/2+x,1/2-y,z
loop_
_atom_site_type_symbol
_atom_site_label
_atom_site_fract_x
_atom_site_fract_y
_atom_site_fract_z
Si Si1 0.586464 0.165836 0.501448
Si Si2 0.849027 0.174470 0.821796
Si Si3 0.799662 0.172733 0.183617
Si Si4 0.170355 0.835215 0.329303
Si Si5 0.154359 0.333106 0.670278
Si Si6 0.097244 0.836820 0.993808
O O1 0.500000 0.157710 0.500000
O O2 0.498241 0.279063 0.578800
O O3 0.751800 0.232316 0.412489
O O4 0.596903 0.000000 0.516565
O O5 0.793261 0.229736 0.802925
O O6 0.997607 0.256190 0.759163
O O7 0.875206 0.000000 0.807322
O O8 0.726939 0.215536 0.922870
O O9 0.749995 0.212745 0.258399
O O10 0.976163 0.210412 0.093535
O O11 0.772351 0.000000 0.186662
O O12 0.256010 0.840175 0.330833
O O13 0.167995 0.000000 0.309027
O O14 0.132879 0.500000 0.662495
O O15 0.166967 0.000000 0.967329
O O16 0.000000 0.845347 0.000000
#
# Coordination Sequence:
#
# PCOD8116345 Si02
#       6
#     8   8   8   8   8   8
#     4   9  17  31  52  76 102 134 172 209 249 303
#     4  11  21  33  53  79 105 134 172 214 255 303
#     4  10  20  35  55  77 104 137 171 210 257 306
#     4  10  20  34  54  79 105 135 172 212 254 302
#     4  10  20  35  54  76 105 138 172 211 255 302
#     4   8  16  32  52  73  99 134 172 208 252 305
#
# _framework density 9.8765429999999999
#
# number of rings (size 3 to 8) (size 9 to 14) (size 15 to 20)
#    0.000    2.333    0.000    4.500    0.000    7.667 
#    0.000    1.667    0.000    0.000    0.000    0.000 
#    0.000    0.000    0.000    0.000    0.000    0.000 
#
# Total GULP energy -297455.517003 kJ/mol
# GULP energy per Si atom -12393.979875 kJ/mol
# Density = 0.985406 g / cm^3
# Si number density = 9.876543 Si / 1000 Ang^3
#
#
#
# Elastic Constant Matrix: (Units=GPa)
#
#
# Indices 1 2 3 4 5 6 
#
# 1 8.9949 26.7443 22.7789 0.0051 -7.2964 0.0448
# 2 26.7443 144.8296 56.9056 -0.0087 -21.8170 0.0138
# 3 22.7789 56.9056 124.4277 0.0045 -16.7107 -0.0022
# 4 0.0051 -0.0087 0.0045 31.7047 0.0004 2.1019
# 5 -7.2964 -21.8170 -16.7107 0.0004 24.7018 -0.0022
# 6 0.0448 0.0138 -0.0022 2.1019 -0.0022 33.1666
#
#
#
# Elastic Compliance Matrix: (Units=1/GPa)
#
#
# Indices 1 2 3 4 5 6 
#
# 1 0.429437 -0.053367 -0.047852 -0.000041 0.047340 -0.000555
# 2 -0.053367 0.015735 0.002555 0.000008 -0.000138 0.000065
# 3 -0.047852 0.002555 0.015436 0.000002 -0.001436 0.000064
# 4 -0.000041 0.000008 0.000002 0.031674 -0.000004 -0.002007
# 5 0.047340 -0.000138 -0.001436 -0.000004 0.053373 -0.000060
# 6 -0.000555 0.000065 0.000064 -0.002007 -0.000060 0.030279
#
#
# Mechanical properties :
#
#
# Convention : Reuss Voigt Hill
#
# Bulk Modulus (GPa) = 3.79825 54.56777 29.18301
# Shear Modulus (GPa) = 5.80706 29.36949 17.58828
#
# Velocity S-wave (km/s) = 1.71645 3.86013 2.98721
# Velocity P-wave (km/s) = 2.41978 6.89582 5.16757
#
# Compressibility (1/GPa) = 0.26327925
#
# Stress axis : x y z
#
# Youngs Moduli (GPa) = 2.32863 63.55383 64.78508
#
# Poissons Ratio (x) = 3.39168 3.10011
# Poissons Ratio (y) = 0.12427 -0.16554
# Poissons Ratio (z) = 0.11143 -0.16240
#
# Static dielectric constant tensor:
#      x y z
#    x 3.006100 0.000010 -0.013320 
#    y 0.000010 3.818040 0.000020 
#    z -0.013320 0.000020 4.107350 
# 
# 
# High freq. dielectric constant tensor:
#      x y z
#    x 1.712270 0.000000 -0.011090 
#    y 0.000000 1.783200 0.000000 
#    z -0.011090 0.000000 1.776410 
# 
# From -- ./inp_files/244734.got.cif
#   From: 2010.06.25/outbox.ucp.g09.slc.cvg/sg12_123_cif.got.tgz:244734.got - 2010.06.28 13:50:54.
