data_PCOD8116125
_publ_section_title
;
Structure prediction by ZEFSAII (Michael W. Deem and Ramdas Pophale) SiO2 
 PCOD8116125
Probable space group: C 2/M
;
_chemical_formula_sum "Si O2"
_cell_formula_units_Z 64
_cell_length_a 22.648192
_cell_length_b 9.853419
_cell_length_c 16.133658
_cell_angle_alpha 90.000000
_cell_angle_beta 90.000045
_cell_angle_gamma 90.000000
_cell_volume 3600.421409
_symmetry_space_group_name_H-M "C 2/M"
_symmetry_group_IT_number 12
_symmetry_cell_setting 'monoclinic'
loop_
_space_group_symop_operation_xyz
x,y,z
-x,y,-z
-x,-y,-z
x,-y,z
1/2+x,1/2+y,z
1/2-x,1/2+y,-z
1/2-x,1/2-y,-z
1/2+x,1/2-y,z
loop_
_atom_site_type_symbol
_atom_site_label
_atom_site_fract_x
_atom_site_fract_y
_atom_site_fract_z
Si Si1 0.642600 0.339287 0.249999
Si Si2 0.460027 0.338976 0.075639
Si Si3 0.229867 0.847430 0.112265
Si Si4 0.488845 0.337950 0.750000
Si Si5 0.039973 0.161024 0.575639
Si Si6 0.825847 0.152572 0.432368
Si Si7 0.325847 0.652571 0.067632
Si Si8 0.229866 0.152571 0.387734
O O1 0.635919 0.500000 0.249997
O O2 0.677957 0.288902 0.169659
O O3 0.577251 0.276756 0.249999
O O4 0.677956 0.288904 0.330340
O O5 0.465638 0.500000 0.074087
O O6 0.480074 0.283427 0.165951
O O7 0.392619 0.292824 0.061310
O O8 0.500000 0.279503 0.000000
O O9 0.287530 0.753384 0.124671
O O10 0.247976 0.000000 0.138879
O O11 0.204138 0.847077 0.021114
O O12 0.489422 0.500000 0.749999
O O13 0.519925 0.283428 0.665950
O O14 0.107381 0.207179 0.561311
O O15 0.000000 0.220496 0.500000
O O16 0.034364 0.000000 0.574086
O O17 0.795863 0.152927 0.521115
O O18 0.787529 0.253383 0.375328
O O19 0.825020 0.000000 0.394699
O O20 0.325020 0.500000 0.105302
O O21 0.247976 0.000000 0.361123
#
# Coordination Sequence:
#
# PCOD8116125 Si02
#       8
#     8   8   8   8   8   8   8   8
#     4   9  16  27  43  63  87 115 148 181 214 256
#     4   9  16  26  41  62  88 114 140 177 221 258
#     4   9  17  29  45  64  87 116 147 179 214 256
#     4   9  16  25  40  63  87 111 142 179 218 260
#     4   9  16  26  41  62  88 114 140 177 221 258
#     4   9  17  29  45  66  90 114 143 179 220 262
#     4   9  17  29  45  66  90 114 143 179 220 262
#     4   9  17  29  45  64  87 116 147 179 214 256
#
# _framework density 17.775697000000001
#
# number of rings (size 3 to 8) (size 9 to 14) (size 15 to 20)
#    0.000    3.000    0.000    1.500    0.000    7.000 
#    0.000    1.875    0.000    0.750    0.000    3.500 
#    0.000    0.000    0.000    0.000    0.000    0.000 
#
# Total GULP energy -396603.959982 kJ/mol
# GULP energy per Si atom -12393.873749 kJ/mol
# Density = 1.773524 g / cm^3
# Si number density = 17.775697 Si / 1000 Ang^3
#
#
#
# Elastic Constant Matrix: (Units=GPa)
#
#
# Indices 1 2 3 4 5 6 
#
# 1 153.5385 41.9457 29.1063 0.0000 -0.0007 0.0000
# 2 41.9457 37.2004 14.8575 0.0000 -0.0002 0.0000
# 3 29.1063 14.8575 66.1697 0.0000 0.0006 0.0000
# 4 0.0000 0.0000 0.0000 8.8041 0.0000 0.0001
# 5 -0.0007 -0.0002 0.0006 0.0000 20.1690 0.0000
# 6 0.0000 0.0000 0.0000 0.0001 0.0000 23.5437
#
#
#
# Elastic Compliance Matrix: (Units=1/GPa)
#
#
# Indices 1 2 3 4 5 6 
#
# 1 0.009642 -0.010083 -0.001978 0.000000 0.000000 0.000000
# 2 -0.010083 0.040072 -0.004563 0.000000 0.000000 0.000000
# 3 -0.001978 -0.004563 0.017007 0.000000 -0.000001 0.000000
# 4 0.000000 0.000000 0.000000 0.113584 0.000000 0.000000
# 5 0.000000 0.000000 -0.000001 0.000000 0.049581 0.000000
# 6 0.000000 0.000000 0.000000 0.000000 0.000000 0.042474
#
#
# Mechanical properties :
#
#
# Convention : Reuss Voigt Hill
#
# Bulk Modulus (GPa) = 29.87192 47.63641 38.75416
# Shear Modulus (GPa) = 15.78457 21.90330 18.84394
#
# Velocity S-wave (km/s) = 2.98314 3.51409 3.25944
# Velocity P-wave (km/s) = 5.35788 6.58193 6.00120
#
# Compressibility (1/GPa) = 0.03347626
#
# Stress axis : x y z
#
# Youngs Moduli (GPa) = 103.70865 24.95483 58.79928
#
# Poissons Ratio (x) = 0.25161 0.11628
# Poissons Ratio (y) = 1.04565 0.26828
# Poissons Ratio (z) = 0.20509 0.11386
#
# Static dielectric constant tensor:
#      x y z
#    x 3.520600 0.000000 0.000000 
#    y 0.000000 3.000690 0.000000 
#    z 0.000000 0.000000 3.348240 
# 
# 
# High freq. dielectric constant tensor:
#      x y z
#    x 1.700960 0.000000 0.000000 
#    y 0.000000 1.619730 0.000000 
#    z 0.000000 0.000000 1.690020 
# 
# From -- ./inp_files/282583.got.cif
#   From: 2010.06.25/outbox.cif.g09.slc.cpg/sg12_142_cif.got.tgz:282583.got - 2010.06.28 00:19:55.
