data_PCOD8116625
_publ_section_title
;
Structure prediction by ZEFSAII (Michael W. Deem and Ramdas Pophale) SiO2 
 PCOD8116625
Probable space group: C 2/M
;
_chemical_formula_sum "Si O2"
_cell_formula_units_Z 32
_cell_length_a 18.000000
_cell_length_b 9.000000
_cell_length_c 30.000000
_cell_angle_alpha 90.000000
_cell_angle_beta 40.000000
_cell_angle_gamma 90.000000
_cell_volume 3123.947783
_symmetry_space_group_name_H-M "C 2/M"
_symmetry_group_IT_number 12
_symmetry_cell_setting 'monoclinic'
loop_
_space_group_symop_operation_xyz
x,y,z
-x,y,-z
-x,-y,-z
x,-y,z
1/2+x,1/2+y,z
1/2-x,1/2+y,-z
1/2-x,1/2-y,-z
1/2+x,1/2-y,z
loop_
_atom_site_type_symbol
_atom_site_label
_atom_site_fract_x
_atom_site_fract_y
_atom_site_fract_z
Si Si1 0.078051 0.178514 0.299942
Si Si2 0.681368 0.329670 0.834926
Si Si3 0.686098 0.829487 0.418446
Si Si4 0.075327 0.821632 0.153304
Si Si5 0.576026 0.821971 0.705590
Si Si6 0.050766 0.321556 0.073140
Si Si7 0.200525 0.829506 0.928257
Si Si8 0.005043 0.329776 0.423405
O O1 0.201918 0.252526 0.235034
O O2 0.026143 0.221128 0.372072
O O3 0.995126 0.244668 0.300720
O O4 0.085531 0.000000 0.292434
O O5 0.679425 0.500000 0.817657
O O6 0.580820 0.230445 0.860090
O O7 0.652202 0.332672 0.900640
O O8 0.790676 0.714771 0.364833
O O9 0.607182 0.808466 0.411595
O O10 0.615313 0.790223 0.496159
O O11 0.730483 0.000000 0.400744
O O12 0.108680 0.745695 0.090786
O O13 0.186537 0.773068 0.130488
O O14 0.963318 0.749670 0.228917
O O15 0.062557 0.000000 0.155463
O O16 0.556663 0.000000 0.715218
O O17 0.061427 0.500000 0.065952
O O18 0.109780 0.249117 0.002759
O O19 0.226089 0.000000 0.932294
O O20 0.001381 0.500000 0.408052
#
# Coordination Sequence:
#
# PCOD8116625 Si02
#       8
#     8   8   8   8   8   8   8   8
#     4  12  25  41  64  93 128 168 214 261 313 375
#     4  11  24  43  66  92 127 167 211 263 318 374
#     4   9  20  41  68  97 128 167 209 255 310 374
#     4  12  25  43  66  92 126 166 213 264 317 376
#     4  12  25  42  64  92 128 168 211 262 317 375
#     4  12  26  42  64  94 128 165 213 262 314 378
#     4  11  23  43  68  93 126 165 209 261 321 379
#     4   9  20  41  68  96 130 167 208 255 312 372
#
# _framework density 10.243449
#
# number of rings (size 3 to 8) (size 9 to 14) (size 15 to 20)
#    0.000    1.000    1.250    6.750    1.750    4.500 
#    0.000    1.250    0.000    0.000    0.000    0.000 
#    0.000    0.000    0.000    0.000    0.000    0.000 
#
# Total GULP energy -396784.871790 kJ/mol
# GULP energy per Si atom -12399.527243 kJ/mol
# Density = 1.022013 g / cm^3
# Si number density = 10.243449 Si / 1000 Ang^3
#
#
#
# Elastic Constant Matrix: (Units=GPa)
#
#
# Indices 1 2 3 4 5 6 
#
# 1 35.4783 25.0737 16.2468 -0.0002 1.9564 0.0001
# 2 25.0737 194.9206 56.1709 -0.0004 3.8447 0.0001
# 3 16.2468 56.1709 131.3532 -0.0001 2.7908 0.0002
# 4 -0.0002 -0.0004 -0.0001 49.8308 0.0000 -1.6543
# 5 1.9564 3.8447 2.7908 0.0000 41.1490 0.0001
# 6 0.0001 0.0001 0.0002 -1.6543 0.0001 33.6641
#
#
#
# Elastic Compliance Matrix: (Units=1/GPa)
#
#
# Indices 1 2 3 4 5 6 
#
# 1 0.031743 -0.003351 -0.002471 0.000000 -0.001029 0.000000
# 2 -0.003351 0.006211 -0.002236 0.000000 -0.000269 0.000000
# 3 -0.002471 -0.002236 0.008881 0.000000 -0.000276 0.000000
# 4 0.000000 0.000000 0.000000 0.020101 0.000000 0.000988
# 5 -0.001029 -0.000269 -0.000276 0.000000 0.024395 0.000000
# 6 0.000000 0.000000 0.000000 0.000988 0.000000 0.029754
#
#
# Mechanical properties :
#
#
# Convention : Reuss Voigt Hill
#
# Bulk Modulus (GPa) = 32.55382 61.85945 47.20663
# Shear Modulus (GPa) = 33.91229 42.54617 38.22923
#
# Velocity S-wave (km/s) = 4.07297 4.56208 4.32445
# Velocity P-wave (km/s) = 6.16793 7.61645 6.93014
#
# Compressibility (1/GPa) = 0.03071836
#
# Stress axis : x y z
#
# Youngs Moduli (GPa) = 31.50323 161.00626 112.60344
#
# Poissons Ratio (x) = 0.53949 0.27829
# Poissons Ratio (y) = 0.10556 0.25176
# Poissons Ratio (z) = 0.07786 0.35998
#
# Static dielectric constant tensor:
#      x y z
#    x 3.732900 0.000000 0.072650 
#    y 0.000000 3.999900 0.000000 
#    z 0.072650 0.000000 3.979540 
# 
# 
# High freq. dielectric constant tensor:
#      x y z
#    x 1.800230 0.000000 0.005530 
#    y 0.000000 1.824320 0.000000 
#    z 0.005530 0.000000 1.829680 
# 
# From -- ./inp_files/378258.got.cif
#   From: 2010.06.25/outbox.ucp.g09.slc.cvg/sg12_190_cif.got.tgz:378258.got - 2010.06.28 13:50:54.
