data_PCOD8116693
_publ_section_title
;
Structure prediction by ZEFSAII (Michael W. Deem and Ramdas Pophale) SiO2 
 PCOD8116693
Probable space group: P 2/C
;
_chemical_formula_sum "Si O2"
_cell_formula_units_Z 24
_cell_length_a 16.290866
_cell_length_b 17.169854
_cell_length_c 5.366373
_cell_angle_alpha 90.000000
_cell_angle_beta 99.480100
_cell_angle_gamma 90.000000
_cell_volume 1480.537928
_symmetry_space_group_name_H-M "P 2/C"
_symmetry_group_IT_number 13
_symmetry_cell_setting 'monoclinic'
loop_
_space_group_symop_operation_xyz
x,y,z
-x,y,1/2-z
-x,-y,-z
x,-y,1/2+z
loop_
_atom_site_type_symbol
_atom_site_label
_atom_site_fract_x
_atom_site_fract_y
_atom_site_fract_z
Si Si1 0.907662 0.281389 0.953831
Si Si2 0.906179 0.216783 0.453090
Si Si3 0.335231 0.580646 0.167579
Si Si4 0.140868 0.453928 0.570433
Si Si5 0.093316 0.967691 0.546658
Si Si6 0.403382 0.408922 0.201655
O O1 0.861176 0.249623 0.680727
O O2 0.910621 0.374364 0.955311
O O3 0.861176 0.249623 0.180449
O O4 0.000170 0.248026 0.000084
O O5 0.905819 0.124554 0.452910
O O6 0.238334 0.563077 0.119175
O O7 0.388324 0.501375 0.194087
O O8 0.360599 0.627652 0.431293
O O9 0.360579 0.627649 0.929199
O O10 0.115564 0.500000 0.307781
O O11 0.138726 0.000000 0.319364
O O12 0.000000 0.000000 0.500000
O O13 0.500000 0.388562 0.250000
#
# Coordination Sequence:
#
# PCOD8116693 Si02
#       6
#     4   4   4   4   4   4
#     4  10  20  32  48  56  75 110 128 172 223 246
#     4  10  19  35  44  63  87  98 132 166 207 255
#     4  10  16  27  38  55  77  94 117 164 199 247
#     4  12  21  34  44  57  73 101 146 181 215 246
#     4  10  16  25  46  69  84 102 116 146 200 245
#     4  10  16  25  41  60  76  94 112 146 224 260
#
# _framework density 16.210324
#
# number of rings (size 3 to 8) (size 9 to 14) (size 15 to 20)
#    0.000    1.667    3.333    8.500    0.000    0.000 
#    0.000   10.000    0.000    0.000    0.000    0.000 
#    0.000    0.000    0.000    0.000    0.000    0.000 
#
# Total GULP energy -297371.315706 kJ/mol
# GULP energy per Si atom -12390.471488 kJ/mol
# Density = 1.617343 g / cm^3
# Si number density = 16.210324 Si / 1000 Ang^3
#
#
#
# Elastic Constant Matrix: (Units=GPa)
#
#
# Indices 1 2 3 4 5 6 
#
# 1 14.3187 19.0179 20.9199 0.0000 -5.7108 0.0000
# 2 19.0179 115.2604 57.1319 0.0000 -10.8535 0.0000
# 3 20.9199 57.1319 191.8083 0.0000 -44.8271 0.0000
# 4 0.0000 0.0000 0.0000 23.4409 0.0000 -5.7514
# 5 -5.7108 -10.8535 -44.8271 0.0000 17.8649 0.0000
# 6 0.0000 0.0000 0.0000 -5.7514 0.0000 3.2433
#
#
#
# Elastic Compliance Matrix: (Units=1/GPa)
#
#
# Indices 1 2 3 4 5 6 
#
# 1 0.098104 -0.013159 -0.003190 0.000000 0.015360 0.000000
# 2 -0.013159 0.012032 -0.003442 0.000000 -0.005533 0.000000
# 3 -0.003190 -0.003442 0.014168 0.000000 0.032441 0.000000
# 4 0.000000 0.000000 0.000000 0.075519 0.000000 0.133919
# 5 0.015360 -0.005533 0.032441 0.000000 0.138926 0.000000
# 6 0.000000 0.000000 0.000000 0.133919 0.000000 0.545810
#
#
# Mechanical properties :
#
#
# Convention : Reuss Voigt Hill
#
# Bulk Modulus (GPa) = 11.80333 57.28076 34.54205
# Shear Modulus (GPa) = 5.24999 23.86434 14.55716
#
# Velocity S-wave (km/s) = 1.80158 3.84105 2.99995
# Velocity P-wave (km/s) = 3.40951 7.42187 5.77534
#
# Compressibility (1/GPa) = 0.08472188
#
# Stress axis : x y z
#
# Youngs Moduli (GPa) = 10.19324 83.10984 70.58019
#
# Poissons Ratio (x) = 1.09367 0.22518
# Poissons Ratio (y) = 0.13414 0.24292
# Poissons Ratio (z) = 0.03252 0.28604
#
# Static dielectric constant tensor:
#      x y z
#    x 3.077910 0.000000 -1.937890 
#    y 0.000000 2.429130 0.000000 
#    z -1.937890 0.000000 9.884580 
# 
# 
# High freq. dielectric constant tensor:
#      x y z
#    x 1.564500 0.000000 -0.030200 
#    y 0.000000 1.575880 0.000000 
#    z -0.030200 0.000000 1.670580 
# 
# From -- ./inp_files/6147.got.cif
#   From: 2010.06.25/outbox.cif.g09.slc.cpg/sg13_4_cif.got.tgz:6147.got - 2010.06.28 04:50:58.
