data_PCOD8116367
_publ_section_title
;
Structure prediction by ZEFSAII (Michael W. Deem and Ramdas Pophale) SiO2 
 PCOD8116367
Probable space group: C 2/M
;
_chemical_formula_sum "Si O2"
_cell_formula_units_Z 32
_cell_length_a 21.000000
_cell_length_b 9.000000
_cell_length_c 21.000000
_cell_angle_alpha 90.000000
_cell_angle_beta 120.000000
_cell_angle_gamma 90.000000
_cell_volume 3437.254828
_symmetry_space_group_name_H-M "C 2/M"
_symmetry_group_IT_number 12
_symmetry_cell_setting 'monoclinic'
loop_
_space_group_symop_operation_xyz
x,y,z
-x,y,-z
-x,-y,-z
x,-y,z
1/2+x,1/2+y,z
1/2-x,1/2+y,-z
1/2-x,1/2-y,-z
1/2+x,1/2-y,z
loop_
_atom_site_type_symbol
_atom_site_label
_atom_site_fract_x
_atom_site_fract_y
_atom_site_fract_z
Si Si1 0.209045 0.675238 0.788265
Si Si2 0.416390 0.328899 0.946377
Si Si3 0.719364 0.668927 0.045299
Si Si4 0.660437 0.175530 0.206164
Si Si5 0.082769 0.824243 0.285909
Si Si6 0.030254 0.829061 0.446230
Si Si7 0.325732 0.668699 0.545405
Si Si8 0.959193 0.325337 0.295127
O O1 0.218915 0.500000 0.782254
O O2 0.239469 0.727506 0.871541
O O3 0.256724 0.758831 0.757785
O O4 0.125096 0.726192 0.744395
O O5 0.408770 0.500000 0.918744
O O6 0.368514 0.308734 0.987341
O O7 0.386286 0.216852 0.879064
O O8 0.500000 0.285031 0.000000
O O9 0.739836 0.500000 0.043859
O O10 0.750000 0.750000 0.000000
O O11 0.618010 0.246653 0.243464
O O12 0.664925 0.000000 0.217130
O O13 0.132962 0.778527 0.370600
O O14 0.001058 0.760596 0.259031
O O15 0.077267 0.000000 0.272509
O O16 0.118744 0.804767 0.486507
O O17 0.000000 0.789558 0.500000
O O18 0.991474 0.716239 0.379527
O O19 0.012390 0.000000 0.417944
O O20 0.302902 0.500000 0.540286
O O21 0.250000 0.750000 0.500000
O O22 0.966641 0.500000 0.286520
#
# Coordination Sequence:
#
# PCOD8116367 Si02
#       8
#     8   8   8   8   8   8   8   8
#     4   9  20  38  55  75 108 143 173 215 269 317
#     4   9  19  37  57  76 103 141 179 215 263 318
#     4   9  18  33  52  74 102 134 168 208 254 305
#     4  11  22  35  55  82 108 138 180 225 264 308
#     4  10  21  38  56  76 108 145 177 214 267 324
#     4   9  19  36  54  74 104 140 175 212 261 318
#     4   9  19  34  53  76 102 135 172 214 261 309
#     4  10  20  35  56  81 106 135 178 226 266 309
#
# _framework density 9.3097549999999991
#
# number of rings (size 3 to 8) (size 9 to 14) (size 15 to 20)
#    0.000    2.500    0.000    3.375    0.000    8.000 
#    0.000    5.000    0.000    0.000    0.000    0.000 
#    0.000    0.000    0.000    0.000    0.000    0.000 
#
# Total GULP energy -396697.859413 kJ/mol
# GULP energy per Si atom -12396.808107 kJ/mol
# Density = 0.928857 g / cm^3
# Si number density = 9.309755 Si / 1000 Ang^3
#
#
#
# Elastic Constant Matrix: (Units=GPa)
#
#
# Indices 1 2 3 4 5 6 
#
# 1 182.3067 57.8001 63.3885 0.0000 -1.5160 0.0000
# 2 57.8001 71.2440 29.7156 0.0000 -4.0935 0.0000
# 3 63.3885 29.7156 43.2646 0.0000 0.3042 0.0000
# 4 0.0000 0.0000 0.0000 28.4196 0.0000 -2.3576
# 5 -1.5160 -4.0935 0.3042 0.0000 39.7431 0.0000
# 6 0.0000 0.0000 0.0000 -2.3576 0.0000 37.0280
#
#
#
# Elastic Compliance Matrix: (Units=1/GPa)
#
#
# Indices 1 2 3 4 5 6 
#
# 1 0.011707 -0.003266 -0.014911 0.000000 0.000224 0.000000
# 2 -0.003266 0.020765 -0.009492 0.000000 0.002087 0.000000
# 3 -0.014911 -0.009492 0.051493 0.000000 -0.001941 0.000000
# 4 0.000000 0.000000 0.000000 0.035374 0.000000 0.002252
# 5 0.000224 0.002087 -0.001941 0.000000 0.025400 0.000000
# 6 0.000000 0.000000 0.000000 0.002252 0.000000 0.027150
#
#
# Mechanical properties :
#
#
# Convention : Reuss Voigt Hill
#
# Bulk Modulus (GPa) = 34.93108 66.51374 50.72241
# Shear Modulus (GPa) = 21.11767 30.76555 25.94161
#
# Velocity S-wave (km/s) = 3.37140 4.06929 3.73667
# Velocity P-wave (km/s) = 5.82720 7.60783 6.77626
#
# Compressibility (1/GPa) = 0.02862780
#
# Stress axis : x y z
#
# Youngs Moduli (GPa) = 85.41790 48.15885 19.42002
#
# Poissons Ratio (x) = 0.15727 0.28957
# Poissons Ratio (y) = 0.27895 0.18433
# Poissons Ratio (z) = 1.27368 0.45711
#
# Static dielectric constant tensor:
#      x y z
#    x 3.818340 0.000000 0.018290 
#    y 0.000000 3.377520 0.000000 
#    z 0.018290 0.000000 3.180940 
# 
# 
# High freq. dielectric constant tensor:
#      x y z
#    x 1.748050 0.000000 -0.000700 
#    y 0.000000 1.719930 0.000000 
#    z -0.000700 0.000000 1.693890 
# 
# From -- ./inp_files/320182.got.cif
#   From: 2010.06.25/outbox.ucp.g09.slc.cvg/sg12_161_cif.got.tgz:320182.got - 2010.06.28 13:50:54.
