data_PCOD8116634
_publ_section_title
;
Structure prediction by ZEFSAII (Michael W. Deem and Ramdas Pophale) SiO2 
 PCOD8116634
Probable space group: P 2/C
;
_chemical_formula_sum "Si O2"
_cell_formula_units_Z 32
_cell_length_a 13.395388
_cell_length_b 28.155201
_cell_length_c 5.208101
_cell_angle_alpha 90.000000
_cell_angle_beta 97.162284
_cell_angle_gamma 90.000000
_cell_volume 1948.907525
_symmetry_space_group_name_H-M "P 2/C"
_symmetry_group_IT_number 13
_symmetry_cell_setting 'monoclinic'
loop_
_space_group_symop_operation_xyz
x,y,z
-x,y,1/2-z
-x,-y,-z
x,-y,1/2+z
loop_
_atom_site_type_symbol
_atom_site_label
_atom_site_fract_x
_atom_site_fract_y
_atom_site_fract_z
Si Si1 0.884953 0.020368 0.457473
Si Si2 0.613158 0.284572 0.794209
Si Si3 0.117961 0.527683 0.769158
Si Si4 0.733076 0.285075 0.337832
Si Si5 0.611972 0.397300 0.797820
Si Si6 0.935953 0.123004 0.482392
Si Si7 0.729057 0.397560 0.331939
Si Si8 0.932619 0.227533 0.480340
O O1 0.866442 0.077002 0.423196
O O2 0.829303 0.003058 0.696462
O O3 0.000000 0.000000 0.500000
O O4 0.500000 0.263327 0.750000
O O5 0.668441 0.266640 0.556955
O O6 0.606803 0.340879 0.788192
O O7 0.675955 0.267188 0.063036
O O8 0.151782 0.489477 0.562866
O O9 0.165075 0.577646 0.696275
O O10 0.000000 0.536351 0.750000
O O11 0.746827 0.341517 0.339086
O O12 0.843651 0.264138 0.404203
O O13 0.500000 0.418897 0.750000
O O14 0.680699 0.415460 0.583829
O O15 0.655197 0.414300 0.082214
O O16 0.884314 0.174589 0.509066
O O17 0.000000 0.128647 0.250000
O O18 0.000000 0.109295 0.750000
O O19 0.000000 0.241805 0.750000
O O20 0.000000 0.229134 0.250000
#
# Coordination Sequence:
#
# PCOD8116634 Si02
#       8
#     4   4   4   4   4   4   4   4
#     4  10  14  20  34  52  71  93 141 203 221 239
#     4   9  17  30  50  72  93 114 146 193 237 272
#     4  10  21  37  54  71  91 116 151 190 228 261
#     4  10  19  32  48  71  95 118 155 188 223 269
#     4   9  17  30  50  76  99 118 141 173 218 272
#     4  10  16  25  36  52  75 111 150 188 218 255
#     4  10  19  32  53  73  91 119 147 183 224 265
#     4  10  21  32  43  59  92 132 162 185 213 269
#
# _framework density 16.419454000000002
#
# number of rings (size 3 to 8) (size 9 to 14) (size 15 to 20)
#    0.000    2.250    2.500    2.250    0.000    3.500 
#    0.000    1.875    0.000    7.500    0.000    0.000 
#    0.000    0.000    0.000    0.000    0.000   12.500 
#
# Total GULP energy -396487.285776 kJ/mol
# GULP energy per Si atom -12390.227680 kJ/mol
# Density = 1.638208 g / cm^3
# Si number density = 16.419454 Si / 1000 Ang^3
#
#
#
# Elastic Constant Matrix: (Units=GPa)
#
#
# Indices 1 2 3 4 5 6 
#
# 1 77.8643 39.5295 43.2993 0.0000 -2.2853 0.0000
# 2 39.5295 54.8866 27.4017 0.0000 -0.2021 0.0000
# 3 43.2993 27.4017 144.4691 0.0000 -2.9094 0.0000
# 4 0.0000 0.0000 0.0000 15.8787 0.0000 -1.2104
# 5 -2.2853 -0.2021 -2.9094 0.0000 23.0436 0.0000
# 6 0.0000 0.0000 0.0000 -1.2104 0.0000 1.4578
#
#
#
# Elastic Compliance Matrix: (Units=1/GPa)
#
#
# Indices 1 2 3 4 5 6 
#
# 1 0.022206 -0.014006 -0.003967 0.000000 0.001579 0.000000
# 2 -0.014006 0.028962 -0.001322 0.000000 -0.001302 0.000000
# 3 -0.003967 -0.001322 0.008375 0.000000 0.000652 0.000000
# 4 0.000000 0.000000 0.000000 0.067232 0.000000 0.055819
# 5 0.001579 -0.001302 0.000652 0.000000 0.043623 0.000000
# 6 0.000000 0.000000 0.000000 0.055819 0.000000 0.732295
#
#
# Mechanical properties :
#
#
# Convention : Reuss Voigt Hill
#
# Bulk Modulus (GPa) = 47.72717 55.29788 51.51252
# Shear Modulus (GPa) = 5.27277 19.20866 12.24072
#
# Velocity S-wave (km/s) = 1.79395 3.42405 2.73335
# Velocity P-wave (km/s) = 5.78114 7.02734 6.43448
#
# Compressibility (1/GPa) = 0.02095243
#
# Stress axis : x y z
#
# Youngs Moduli (GPa) = 45.03327 34.52826 119.40804
#
# Poissons Ratio (x) = 0.48362 0.47369
# Poissons Ratio (y) = 0.63075 0.15780
# Poissons Ratio (z) = 0.17865 0.04563
#
# Static dielectric constant tensor:
#      x y z
#    x 2.884200 0.000000 -0.071600 
#    y 0.000000 3.061120 0.000000 
#    z -0.071600 0.000000 3.803370 
# 
# 
# High freq. dielectric constant tensor:
#      x y z
#    x 1.586460 0.000000 -0.007100 
#    y 0.000000 1.606730 0.000000 
#    z -0.007100 0.000000 1.666360 
# 
# From -- ./inp_files/4360.got.cif
#   From: 2010.06.25/outbox.cif.g09.slc.cpg/sg13_3_cif.got.tgz:4360.got - 2010.06.28 04:50:58.
