data_PCOD8116013
_publ_section_title
;
Structure prediction by ZEFSAII (Michael W. Deem and Ramdas Pophale) SiO2 
 PCOD8116013
Probable space group: C 2/M
;
_chemical_formula_sum "Si O2"
_cell_formula_units_Z 64
_cell_length_a 18.895422
_cell_length_b 9.394713
_cell_length_c 20.185886
_cell_angle_alpha 90.000000
_cell_angle_beta 88.262823
_cell_angle_gamma 90.000000
_cell_volume 3581.692370
_symmetry_space_group_name_H-M "C 2/M"
_symmetry_group_IT_number 12
_symmetry_cell_setting 'monoclinic'
loop_
_space_group_symop_operation_xyz
x,y,z
-x,y,-z
-x,-y,-z
x,-y,z
1/2+x,1/2+y,z
1/2-x,1/2+y,-z
1/2-x,1/2-y,-z
1/2+x,1/2-y,z
loop_
_atom_site_type_symbol
_atom_site_label
_atom_site_fract_x
_atom_site_fract_y
_atom_site_fract_z
Si Si1 0.321568 0.665080 0.509024
Si Si2 0.787334 0.838195 0.652749
Si Si3 0.410471 0.163405 0.891167
Si Si4 0.550451 0.667277 0.851719
Si Si5 0.125192 0.661082 0.250448
Si Si6 0.865988 0.665094 0.393745
Si Si7 0.963926 0.665565 0.270093
Si Si8 0.415420 0.341872 0.008901
O O1 0.312673 0.500000 0.489431
O O2 0.250000 0.750000 0.500000
O O3 0.338815 0.679010 0.586882
O O4 0.379667 0.740219 0.459690
O O5 0.816443 0.750327 0.713166
O O6 0.707674 0.787611 0.638299
O O7 0.785266 0.000000 0.676652
O O8 0.477681 0.255946 0.870617
O O9 0.358546 0.173100 0.829044
O O10 0.377438 0.230557 0.959683
O O11 0.431842 0.000000 0.904241
O O12 0.537436 0.500000 0.840088
O O13 0.579016 0.741820 0.783777
O O14 0.603378 0.690520 0.913161
O O15 0.133043 0.500000 0.274603
O O16 0.045768 0.714285 0.269906
O O17 0.862227 0.500000 0.414776
O O18 0.930313 0.695868 0.342420
O O19 0.957618 0.500000 0.250241
O O20 0.389358 0.500000 0.990552
O O21 0.500000 0.331716 0.000000
#
# Coordination Sequence:
#
# PCOD8116013 Si02
#       8
#     8   8   8   8   8   8   8   8
#     4   9  17  30  48  70  92 115 148 186 224 264
#     4   9  18  31  48  69  90 115 147 183 222 264
#     4   9  16  25  38  58  84 115 151 185 219 261
#     4   9  16  25  38  59  87 116 147 182 222 267
#     4   9  18  30  44  65  92 121 150 181 221 267
#     4   9  18  33  51  70  91 116 150 188 223 263
#     4   9  18  32  47  65  92 122 151 184 222 266
#     4   8  14  23  35  55  83 113 145 182 222 263
#
# _framework density 17.868648
#
# number of rings (size 3 to 8) (size 9 to 14) (size 15 to 20)
#    0.000    3.125    0.000    3.375    0.000    8.250 
#    0.000    0.625    0.000    3.750    0.000    0.875 
#    0.000    0.000    0.000    0.000    0.000    0.000 
#
# Total GULP energy -396454.303462 kJ/mol
# GULP energy per Si atom -12389.196983 kJ/mol
# Density = 1.782798 g / cm^3
# Si number density = 17.868648 Si / 1000 Ang^3
#
#
#
# Elastic Constant Matrix: (Units=GPa)
#
#
# Indices 1 2 3 4 5 6 
#
# 1 17.2010 2.0957 -2.7827 0.0000 6.4058 0.0000
# 2 2.0957 76.2176 23.9757 0.0000 10.0366 0.0000
# 3 -2.7827 23.9757 36.9509 0.0000 14.2402 0.0000
# 4 0.0000 0.0000 0.0000 40.5061 0.0000 2.5867
# 5 6.4058 10.0366 14.2402 0.0000 16.6441 0.0000
# 6 0.0000 0.0000 0.0000 2.5867 0.0000 15.7158
#
#
#
# Elastic Compliance Matrix: (Units=1/GPa)
#
#
# Indices 1 2 3 4 5 6 
#
# 1 0.084806 -0.004712 0.031222 0.000000 -0.056511 0.000000
# 2 -0.004712 0.016762 -0.011987 0.000000 0.001961 0.000000
# 3 0.031222 -0.011987 0.058241 0.000000 -0.054617 0.000000
# 4 0.000000 0.000000 0.000000 0.024950 0.000000 -0.004107
# 5 -0.056511 0.001961 -0.054617 0.000000 0.127377 0.000000
# 6 0.000000 0.000000 0.000000 -0.004107 0.000000 0.064306
#
#
# Mechanical properties :
#
#
# Convention : Reuss Voigt Hill
#
# Bulk Modulus (GPa) = 5.29504 19.66077 12.47790
# Shear Modulus (GPa) = 12.18480 21.71191 16.94835
#
# Velocity S-wave (km/s) = 2.61417 3.48959 3.08311
# Velocity P-wave (km/s) = 3.47586 5.22141 4.43535
#
# Compressibility (1/GPa) = 0.18885595
#
# Stress axis : x y z
#
# Youngs Moduli (GPa) = 11.79157 59.65743 17.17015
#
# Poissons Ratio (x) = 0.28110 -0.53609
# Poissons Ratio (y) = 0.05556 0.20582
# Poissons Ratio (z) = -0.36816 0.71512
#
# Static dielectric constant tensor:
#      x y z
#    x 2.713200 0.000000 -0.114740 
#    y 0.000000 3.502880 0.000000 
#    z -0.114740 0.000000 4.173410 
# 
# 
# High freq. dielectric constant tensor:
#      x y z
#    x 1.616520 0.000000 -0.000320 
#    y 0.000000 1.699390 0.000000 
#    z -0.000320 0.000000 1.708090 
# 
# From -- ./inp_files/319169.got.cif
#   From: 2010.06.25/outbox.cif.g09.slc.cpg/sg12_160_cif.got.tgz:319169.got - 2010.06.28 00:19:55.
