data_PCOD8116569
_publ_section_title
;
Structure prediction by ZEFSAII (Michael W. Deem and Ramdas Pophale) SiO2 
 PCOD8116569
Probable space group: C 2/M
;
_chemical_formula_sum "Si O2"
_cell_formula_units_Z 24
_cell_length_a 18.000000
_cell_length_b 9.000000
_cell_length_c 30.000000
_cell_angle_alpha 90.000000
_cell_angle_beta 30.000000
_cell_angle_gamma 90.000000
_cell_volume 2430.000000
_symmetry_space_group_name_H-M "C 2/M"
_symmetry_group_IT_number 12
_symmetry_cell_setting 'monoclinic'
loop_
_space_group_symop_operation_xyz
x,y,z
-x,y,-z
-x,-y,-z
x,-y,z
1/2+x,1/2+y,z
1/2-x,1/2+y,-z
1/2-x,1/2-y,-z
1/2+x,1/2-y,z
loop_
_atom_site_type_symbol
_atom_site_label
_atom_site_fract_x
_atom_site_fract_y
_atom_site_fract_z
Si Si1 0.411544 0.178500 0.255853
Si Si2 0.398650 0.328821 0.095110
Si Si3 0.586497 0.329802 0.244328
Si Si4 0.088218 0.177027 0.083823
Si Si5 0.596084 0.830261 0.405984
Si Si6 0.906057 0.171009 0.428458
O O1 0.493017 0.230370 0.258522
O O2 0.500333 0.248517 0.169302
O O3 0.243497 0.236772 0.339995
O O4 0.412429 0.000000 0.253191
O O5 0.348375 0.500000 0.124563
O O6 0.252308 0.229766 0.166141
O O7 0.497109 0.282955 0.086555
O O8 0.500000 0.299592 0.000000
O O9 0.595027 0.500000 0.222559
O O10 0.503260 0.321964 0.334006
O O11 0.103088 0.000000 0.082292
O O12 0.250000 0.250000 0.000000
O O13 0.500000 0.832607 0.500000
O O14 0.498041 0.755025 0.418664
O O15 0.637367 0.000000 0.370493
O O16 0.750000 0.250000 0.500000
O O17 0.877347 0.000000 0.457810
#
# Coordination Sequence:
#
# PCOD8116569 Si02
#       6
#     8   8   8   8   8   8
#     4  12  25  41  63  90 123 163 207 253 304 365
#     4  10  22  40  62  90 122 157 199 246 299 361
#     4  11  24  41  62  90 122 157 202 253 304 361
#     4  11  23  40  64  93 127 164 204 252 305 362
#     4  11  24  42  64  91 124 161 204 255 308 364
#     4  11  24  41  63  92 124 160 203 251 306 368
#
# _framework density 9.8765429999999999
#
# number of rings (size 3 to 8) (size 9 to 14) (size 15 to 20)
#    0.000    1.000    0.000    6.500    0.000   13.667 
#    0.000    0.000    0.000    0.000    0.000    0.000 
#    0.000    0.000    0.000    0.000    0.000    0.000 
#
# Total GULP energy -297661.188677 kJ/mol
# GULP energy per Si atom -12402.549528 kJ/mol
# Density = 0.985406 g / cm^3
# Si number density = 9.876543 Si / 1000 Ang^3
#
#
#
# Elastic Constant Matrix: (Units=GPa)
#
#
# Indices 1 2 3 4 5 6 
#
# 1 176.3767 79.4212 51.7027 -0.0006 -24.3584 -0.0009
# 2 79.4212 177.5186 53.2380 -0.0016 -15.9905 -0.0017
# 3 51.7027 53.2380 106.0479 -0.0007 -21.9532 0.0007
# 4 -0.0006 -0.0016 -0.0007 33.1215 0.0002 -13.3989
# 5 -24.3584 -15.9905 -21.9532 0.0002 48.4658 -0.0001
# 6 -0.0009 -0.0017 0.0007 -13.3989 -0.0001 40.8430
#
#
#
# Elastic Compliance Matrix: (Units=1/GPa)
#
#
# Indices 1 2 3 4 5 6 
#
# 1 0.007753 -0.002680 -0.001999 0.000000 0.002107 0.000000
# 2 -0.002680 0.007583 -0.002495 0.000000 0.000025 0.000000
# 3 -0.001999 -0.002495 0.012445 0.000000 0.003810 0.000000
# 4 0.000000 0.000000 0.000000 0.034812 0.000000 0.011420
# 5 0.002107 0.000025 0.003810 0.000000 0.023426 0.000000
# 6 0.000000 0.000000 0.000000 0.011420 0.000000 0.028231
#
#
# Mechanical properties :
#
#
# Convention : Reuss Voigt Hill
#
# Bulk Modulus (GPa) = 74.43429 92.07410 83.25419
# Shear Modulus (GPa) = 37.57315 42.85816 40.21565
#
# Velocity S-wave (km/s) = 4.36609 4.66305 4.51701
# Velocity P-wave (km/s) = 7.94865 8.70091 8.33327
#
# Compressibility (1/GPa) = 0.01343467
#
# Stress axis : x y z
#
# Youngs Moduli (GPa) = 128.97995 131.88206 80.35189
#
# Poissons Ratio (x) = 0.35338 0.16059
# Poissons Ratio (y) = 0.34561 0.20048
# Poissons Ratio (z) = 0.25777 0.32905
#
# Static dielectric constant tensor:
#      x y z
#    x 3.946570 0.000000 -0.033820 
#    y 0.000000 4.137330 0.000000 
#    z -0.033820 0.000000 3.863610 
# 
# 
# High freq. dielectric constant tensor:
#      x y z
#    x 1.804660 0.000000 -0.008340 
#    y 0.000000 1.798700 0.000000 
#    z -0.008340 0.000000 1.793170 
# 
# From -- ./inp_files/377906.got.cif
#   From: 2010.06.25/outbox.ucp.g09.slc.cvg/sg12_189_cif.got.tgz:377906.got - 2010.06.28 13:50:54.
