data_PCOD8116890
_publ_section_title
;
Structure prediction by ZEFSAII (Michael W. Deem and Ramdas Pophale) SiO2 
 PCOD8116890
Probable space group: P 2/C
;
_chemical_formula_sum "Si O2"
_cell_formula_units_Z 20
_cell_length_a 13.700817
_cell_length_b 11.782561
_cell_length_c 17.262026
_cell_angle_alpha 90.000000
_cell_angle_beta 157.285736
_cell_angle_gamma 90.000000
_cell_volume 1076.013907
_symmetry_space_group_name_H-M "P 2/C"
_symmetry_group_IT_number 13
_symmetry_cell_setting 'monoclinic'
loop_
_space_group_symop_operation_xyz
x,y,z
-x,y,1/2-z
-x,-y,-z
x,-y,1/2+z
loop_
_atom_site_type_symbol
_atom_site_label
_atom_site_fract_x
_atom_site_fract_y
_atom_site_fract_z
Si Si1 0.762016 0.124317 0.532098
Si Si2 0.339220 0.382126 0.016223
Si Si3 0.105856 0.657164 0.589415
Si Si4 0.195466 0.904164 0.618270
Si Si5 0.921301 0.530250 0.316809
O O1 0.759475 0.253676 0.558226
O O2 0.819313 0.119240 0.483405
O O3 0.489980 0.066389 0.354366
O O4 0.000000 0.063923 0.750000
O O5 0.310269 0.438214 0.909495
O O6 0.182487 0.454642 0.962479
O O7 0.628504 0.383304 0.253264
O O8 0.100475 0.792588 0.594561
O O9 0.077830 0.600737 0.653792
O O10 0.899152 0.611451 0.376709
O O11 0.000000 0.000000 0.500000
#
# Coordination Sequence:
#
# PCOD8116890 Si02
#       5
#     4   4   4   4   4
#     4  10  18  35  60  80 102 144 190 228 269 332
#     4  10  17  31  52  79 105 138 176 216 263 329
#     4  10  19  31  51  77 107 137 177 220 270 319
#     4  10  21  35  56  80 110 145 189 233 268 320
#     4  10  18  29  52  79 104 133 176 217 268 322
#
# _framework density 18.587121
#
# number of rings (size 3 to 8) (size 9 to 14) (size 15 to 20)
#    0.000    2.000    4.000    1.200    0.000    0.800 
#    0.000    0.000   22.000    0.000    0.000    0.000 
#    0.000    0.000    0.000    0.000    0.000    0.000 
#
# Total GULP energy -247854.560004 kJ/mol
# GULP energy per Si atom -12392.728000 kJ/mol
# Density = 1.854482 g / cm^3
# Si number density = 18.587121 Si / 1000 Ang^3
#
#
#
# Elastic Constant Matrix: (Units=GPa)
#
#
# Indices 1 2 3 4 5 6 
#
# 1 65.4062 49.7359 24.3535 0.0000 -1.7461 0.0000
# 2 49.7359 107.1302 42.0655 0.0000 6.6791 0.0000
# 3 24.3535 42.0655 100.5410 0.0000 -5.6615 0.0000
# 4 0.0000 0.0000 0.0000 21.5565 0.0000 4.6999
# 5 -1.7461 6.6791 -5.6615 0.0000 32.7565 0.0000
# 6 0.0000 0.0000 0.0000 4.6999 0.0000 13.5681
#
#
#
# Elastic Compliance Matrix: (Units=1/GPa)
#
#
# Indices 1 2 3 4 5 6 
#
# 1 0.024135 -0.010999 -0.001056 0.000000 0.003347 0.000000
# 2 -0.010999 0.016506 -0.004508 0.000000 -0.004731 0.000000
# 3 -0.001056 -0.004508 0.012256 0.000000 0.002981 0.000000
# 4 0.000000 0.000000 0.000000 0.050179 0.000000 -0.017382
# 5 0.003347 -0.004731 0.002981 0.000000 0.032187 0.000000
# 6 0.000000 0.000000 0.000000 -0.017382 0.000000 0.079723
#
#
# Mechanical properties :
#
#
# Convention : Reuss Voigt Hill
#
# Bulk Modulus (GPa) = 50.57835 56.15413 53.36624
# Shear Modulus (GPa) = 19.63069 24.03771 21.83420
#
# Velocity S-wave (km/s) = 3.25336 3.60007 3.43110
# Velocity P-wave (km/s) = 6.43297 6.89620 6.66861
#
# Compressibility (1/GPa) = 0.01977130
#
# Stress axis : x y z
#
# Youngs Moduli (GPa) = 41.43286 60.58427 81.59297
#
# Poissons Ratio (x) = 0.66637 0.08615
# Poissons Ratio (y) = 0.45572 0.36783
# Poissons Ratio (z) = 0.04375 0.27312
#
# Static dielectric constant tensor:
#      x y z
#    x 3.456960 0.000000 0.119570 
#    y 0.000000 3.170570 0.000000 
#    z 0.119570 0.000000 3.878640 
# 
# 
# High freq. dielectric constant tensor:
#      x y z
#    x 1.709400 0.000000 -0.006230 
#    y 0.000000 1.683760 0.000000 
#    z -0.006230 0.000000 1.739840 
# 
# From -- ./inp_files/33423.got.cif
#   From: 2010.06.25/outbox.cif.g09.slc.cpg/sg13_17_cif.got.tgz:33423.got - 2010.06.28 04:50:58.
