data_PCOD8116825
_publ_section_title
;
Structure prediction by ZEFSAII (Michael W. Deem and Ramdas Pophale) SiO2 
 PCOD8116825
Probable space group: P 2/C
;
_chemical_formula_sum "Si O2"
_cell_formula_units_Z 32
_cell_length_a 5.284761
_cell_length_b 17.437307
_cell_length_c 22.521931
_cell_angle_alpha 90.000000
_cell_angle_beta 61.448270
_cell_angle_gamma 90.000000
_cell_volume 1823.038196
_symmetry_space_group_name_H-M "P 2/C"
_symmetry_group_IT_number 13
_symmetry_cell_setting 'monoclinic'
loop_
_space_group_symop_operation_xyz
x,y,z
-x,y,1/2-z
-x,-y,-z
x,-y,1/2+z
loop_
_atom_site_type_symbol
_atom_site_label
_atom_site_fract_x
_atom_site_fract_y
_atom_site_fract_z
Si Si1 0.922949 0.055890 0.929922
Si Si2 0.832056 0.135916 0.709312
Si Si3 0.165984 0.685002 0.291941
Si Si4 0.116122 0.580042 0.565036
Si Si5 0.734979 0.902498 0.993976
Si Si6 0.243274 0.268533 0.000206
Si Si7 0.860714 0.668339 0.442486
Si Si8 0.356444 0.531614 0.948548
O O1 0.606442 0.089643 0.977904
O O2 0.021159 0.082225 0.855101
O O3 0.164154 0.083481 0.949654
O O4 0.902925 0.962871 0.933352
O O5 0.500000 0.112525 0.750000
O O6 0.864268 0.225157 0.689804
O O7 0.000000 0.116232 0.750000
O O8 0.500000 0.660381 0.250000
O O9 0.000000 0.662965 0.250000
O O10 0.019464 0.641190 0.364121
O O11 0.116273 0.671900 0.563585
O O12 0.300599 0.545245 0.598967
O O13 0.281324 0.550982 0.485030
O O14 0.794308 0.544824 0.598658
O O15 0.820480 0.815767 0.967015
O O16 0.585267 0.280661 0.954470
O O17 0.082202 0.279499 0.955498
O O18 0.763803 0.595270 0.491735
#
# Coordination Sequence:
#
# PCOD8116825 Si02
#       8
#     4   4   4   4   4   4   4   4
#     4  10  20  32  44  61  84 110 140 170 208 252
#     4  10  19  30  44  59  78 105 137 173 205 238
#     4  10  19  28  38  54  75  99 131 168 196 221
#     4   8  14  23  36  55  78  98 122 152 178 219
#     4  10  19  30  45  62  85 112 135 169 209 252
#     4  10  17  26  42  61  79 104 133 159 195 239
#     4  10  18  27  41  57  79 108 134 160 193 237
#     4   8  14  24  36  53  76 102 124 147 182 218
#
# _framework density 17.553115999999999
#
# number of rings (size 3 to 8) (size 9 to 14) (size 15 to 20)
#    0.000    2.500    0.000    3.750    0.000    2.000 
#    0.000    0.000    0.000    0.000    0.000    0.000 
#    0.000    2.000    0.000    0.000    0.000    6.500 
#
# Total GULP energy -396472.982847 kJ/mol
# GULP energy per Si atom -12389.780714 kJ/mol
# Density = 1.751316 g / cm^3
# Si number density = 17.553116 Si / 1000 Ang^3
#
#
#
# Elastic Constant Matrix: (Units=GPa)
#
#
# Indices 1 2 3 4 5 6 
#
# 1 145.9816 1.1023 -1.9380 0.0000 1.9904 0.0000
# 2 1.1023 74.5091 -5.4230 0.0000 0.2110 0.0000
# 3 -1.9380 -5.4230 30.5343 0.0000 1.3278 0.0000
# 4 0.0000 0.0000 0.0000 13.3543 0.0000 1.0526
# 5 1.9904 0.2110 1.3278 0.0000 15.1865 0.0000
# 6 0.0000 0.0000 0.0000 1.0526 0.0000 16.8548
#
#
#
# Elastic Compliance Matrix: (Units=1/GPa)
#
#
# Indices 1 2 3 4 5 6 
#
# 1 0.006870 -0.000065 0.000465 0.000000 -0.000940 0.000000
# 2 -0.000065 0.013600 0.002428 0.000000 -0.000393 0.000000
# 3 0.000465 0.002428 0.033342 0.000000 -0.003010 0.000000
# 4 0.000000 0.000000 0.000000 0.075253 0.000000 -0.004700
# 5 -0.000940 -0.000393 -0.003010 0.000000 0.066240 0.000000
# 6 0.000000 0.000000 0.000000 -0.004700 0.000000 0.059624
#
#
# Mechanical properties :
#
#
# Convention : Reuss Voigt Hill
#
# Bulk Modulus (GPa) = 16.81558 26.50083 21.65821
# Shear Modulus (GPa) = 18.58091 26.23136 22.40613
#
# Velocity S-wave (km/s) = 3.25707 3.86994 3.57666
# Velocity P-wave (km/s) = 4.87292 5.92443 5.42421
#
# Compressibility (1/GPa) = 0.05946866
#
# Stress axis : x y z
#
# Youngs Moduli (GPa) = 145.56746 73.52946 29.99237
#
# Poissons Ratio (x) = 0.00479 -0.01396
# Poissons Ratio (y) = 0.00948 -0.07283
# Poissons Ratio (z) = -0.06774 -0.17855
#
# Static dielectric constant tensor:
#      x y z
#    x 4.138470 0.000000 0.004330 
#    y 0.000000 3.308740 0.000000 
#    z 0.004330 0.000000 2.631990 
# 
# 
# High freq. dielectric constant tensor:
#      x y z
#    x 1.724670 0.000000 0.002080 
#    y 0.000000 1.675040 0.000000 
#    z 0.002080 0.000000 1.595090 
# 
# From -- ./inp_files/83922.got.cif
#   From: 2010.06.25/outbox.cif.g09.slc.cpg/sg13_42_cif.got.tgz:83922.got - 2010.06.28 04:50:58.
