data_PCOD8116709
_publ_section_title
;
Structure prediction by ZEFSAII (Michael W. Deem and Ramdas Pophale) SiO2 
 PCOD8116709
Probable space group: P 2/C
;
_chemical_formula_sum "Si O2"
_cell_formula_units_Z 20
_cell_length_a 6.538233
_cell_length_b 21.835275
_cell_length_c 5.365391
_cell_angle_alpha 90.000000
_cell_angle_beta 78.560664
_cell_angle_gamma 90.000000
_cell_volume 750.769189
_symmetry_space_group_name_H-M "P 2/C"
_symmetry_group_IT_number 13
_symmetry_cell_setting 'monoclinic'
loop_
_space_group_symop_operation_xyz
x,y,z
-x,y,1/2-z
-x,-y,-z
x,-y,1/2+z
loop_
_atom_site_type_symbol
_atom_site_label
_atom_site_fract_x
_atom_site_fract_y
_atom_site_fract_z
Si Si1 0.370965 0.654943 0.532409
Si Si2 0.233440 0.475107 0.963035
Si Si3 0.267346 0.023138 0.750547
Si Si4 0.733166 0.161911 0.923896
Si Si5 0.738879 0.788977 0.926529
O O1 0.500000 0.667658 0.250000
O O2 0.221701 0.597281 0.516451
O O3 0.240223 0.716181 0.618018
O O4 0.500000 0.639392 0.750000
O O5 0.346315 0.489184 0.668360
O O6 0.000000 0.500000 0.000000
O O7 0.500000 0.998849 0.750000
O O8 0.261608 0.090286 0.635040
O O9 0.160127 0.982177 0.553852
O O10 0.850860 0.192688 0.659190
O O11 0.499066 0.187618 0.999934
O O12 0.846564 0.179260 0.158186
#
# Coordination Sequence:
#
# PCOD8116709 Si02
#       5
#     4   4   4   4   4
#     4  12  21  34  55  82 106 127 172 225 265 316
#     4  10  23  42  59  77 106 141 168 203 261 334
#     4  10  18  22  31  49  71 111 169 213 237 283
#     4  10  16  27  38  51  87 123 153 211 267 295
#     4  10  17  27  39  61  86 119 151 200 274 292
#
# _framework density 26.639344999999999
#
# number of rings (size 3 to 8) (size 9 to 14) (size 15 to 20)
#    0.000    1.600    6.000    2.400    5.600    2.400 
#    0.000    0.000    0.000    0.000    0.000    0.000 
#    0.000    0.000    0.000    0.000    0.000    0.000 
#
# Total GULP energy -247800.019247 kJ/mol
# GULP energy per Si atom -12390.000962 kJ/mol
# Density = 2.657871 g / cm^3
# Si number density = 26.639345 Si / 1000 Ang^3
#
#
#
# Elastic Constant Matrix: (Units=GPa)
#
#
# Indices 1 2 3 4 5 6 
#
# 1 39.1852 0.4589 48.6777 0.0000 16.0073 0.0000
# 2 0.4589 224.8233 98.5894 0.0000 19.6089 0.0000
# 3 48.6777 98.5894 336.3347 0.0000 21.8202 0.0000
# 4 0.0000 0.0000 0.0000 56.1511 0.0000 2.6554
# 5 16.0073 19.6089 21.8202 0.0000 40.9606 0.0000
# 6 0.0000 0.0000 0.0000 2.6554 0.0000 -47.3495
#
#
#
# Elastic Compliance Matrix: (Units=1/GPa)
#
#
# Indices 1 2 3 4 5 6 
#
# 1 0.038090 0.003601 -0.005687 0.000000 -0.013580 0.000000
# 2 0.003601 0.005562 -0.001955 0.000000 -0.003028 0.000000
# 3 -0.005687 -0.001955 0.004314 0.000000 0.000861 0.000000
# 4 0.000000 0.000000 0.000000 0.017762 0.000000 0.000996
# 5 -0.013580 -0.003028 0.000861 0.000000 0.030712 0.000000
# 6 0.000000 0.000000 0.000000 0.000996 0.000000 -0.021064
#
#
# Mechanical properties :
#
#
# Convention : Reuss Voigt Hill
#
# Bulk Modulus (GPa) = 25.07384 99.53280 62.30332
# Shear Modulus (GPa) = 51.67799 40.12692 45.90246
#
# Velocity S-wave (km/s) = 4.40922 3.88532 4.15554
# Velocity P-wave (km/s) = 5.94596 7.58761 6.81639
#
# Compressibility (1/GPa) = 0.03988221
#
# Stress axis : x y z
#
# Youngs Moduli (GPa) = 26.25370 179.79016 231.82581
#
# Poissons Ratio (x) = -0.64735 1.31844
# Poissons Ratio (y) = -0.09453 0.45323
# Poissons Ratio (z) = 0.14931 0.35150
#
# Static dielectric constant tensor:
#      x y z
#    x 4.576340 0.000000 0.037290 
#    y 0.000000 4.681510 0.000000 
#    z 0.037290 0.000000 8.490360 
# 
# 
# High freq. dielectric constant tensor:
#      x y z
#    x 2.065230 0.000000 0.009480 
#    y 0.000000 2.057620 0.000000 
#    z 0.009480 0.000000 2.130660 
# 
# From -- ./inp_files/1599.got.cif
#   From: 2010.06.25/outbox.cif.g09.slc.cpg/sg13_1_cif.got.tgz:1599.got - 2010.06.28 04:50:58.
