data_PCOD8116975
_publ_section_title
;
Structure prediction by ZEFSAII (Michael W. Deem and Ramdas Pophale) SiO2 
 PCOD8116975
Probable space group: P 2/C
;
_chemical_formula_sum "Si O2"
_cell_formula_units_Z 26
_cell_length_a 21.858095
_cell_length_b 7.252714
_cell_length_c 17.144191
_cell_angle_alpha 90.000000
_cell_angle_beta 154.767468
_cell_angle_gamma 90.000000
_cell_volume 1158.612030
_symmetry_space_group_name_H-M "P 2/C"
_symmetry_group_IT_number 13
_symmetry_cell_setting 'monoclinic'
loop_
_space_group_symop_operation_xyz
x,y,z
-x,y,1/2-z
-x,-y,-z
x,-y,1/2+z
loop_
_atom_site_type_symbol
_atom_site_label
_atom_site_fract_x
_atom_site_fract_y
_atom_site_fract_z
Si Si1 0.251742 0.236920 0.285564
Si Si2 0.908805 0.601744 0.766739
Si Si3 0.772414 0.479728 0.866845
Si Si4 0.478176 0.109430 0.805794
Si Si5 0.000000 0.115953 0.250000
Si Si6 0.356018 0.496646 0.620900
Si Si7 0.760663 0.954951 0.363382
O O1 0.111424 0.295596 0.173376
O O2 0.298603 0.412821 0.287520
O O3 0.376366 0.182601 0.488452
O O4 0.215215 0.064988 0.188149
O O5 0.771207 0.472299 0.589366
O O6 0.904152 0.754493 0.693899
O O7 0.055427 0.483558 0.933898
O O8 0.697799 0.571641 0.857048
O O9 0.751458 0.261579 0.832356
O O10 0.500000 0.992657 0.750000
O O11 0.383882 0.281123 0.667758
O O12 0.388260 0.989930 0.765055
O O13 0.107119 0.994869 0.426581
O O14 0.500000 0.590748 0.750000
#
# Coordination Sequence:
#
# PCOD8116975 Si02
#       7
#     4   4   4   4   2   4   4
#     4  12  23  37  65  96 124 156 214 262 310 367
#     4  11  18  39  65  86 123 170 201 249 318 377
#     4  10  23  39  62  93 125 160 204 262 314 363
#     4  10  18  38  65  87 124 173 205 248 322 374
#     4  10  18  38  62  80 126 164 206 238 310 372
#     4  10  17  36  64  87 112 171 207 238 310 381
#     4  10  22  39  60  93 124 165 206 262 309 366
#
# _framework density 22.440643000000001
#
# number of rings (size 3 to 8) (size 9 to 14) (size 15 to 20)
#    0.000    1.538    7.692    0.923    0.000    4.923 
#    2.769    0.769    3.385    0.923    0.000    0.000 
#    0.000    0.000    0.000    0.000    0.000    0.000 
#
# Total GULP energy -322182.137412 kJ/mol
# GULP energy per Si atom -12391.620670 kJ/mol
# Density = 2.238957 g / cm^3
# Si number density = 22.440643 Si / 1000 Ang^3
#
#
#
# Elastic Constant Matrix: (Units=GPa)
#
#
# Indices 1 2 3 4 5 6 
#
# 1 191.9207 31.1192 71.5238 0.0000 -2.2532 0.0000
# 2 31.1192 51.5717 23.1463 0.0000 -12.8126 0.0000
# 3 71.5238 23.1463 109.6269 0.0000 -4.5714 0.0000
# 4 0.0000 0.0000 0.0000 6.2280 0.0000 -2.1880
# 5 -2.2532 -12.8126 -4.5714 0.0000 45.9951 0.0000
# 6 0.0000 0.0000 0.0000 -2.1880 0.0000 7.1034
#
#
#
# Elastic Compliance Matrix: (Units=1/GPa)
#
#
# Indices 1 2 3 4 5 6 
#
# 1 0.007183 -0.002669 -0.004156 0.000000 -0.000805 0.000000
# 2 -0.002669 0.023917 -0.003049 0.000000 0.006229 0.000000
# 3 -0.004156 -0.003049 0.012485 0.000000 0.000188 0.000000
# 4 0.000000 0.000000 0.000000 0.180048 0.000000 0.055459
# 5 -0.000805 0.006229 0.000188 0.000000 0.023456 0.000000
# 6 0.000000 0.000000 0.000000 0.055459 0.000000 0.157861
#
#
# Mechanical properties :
#
#
# Convention : Reuss Voigt Hill
#
# Bulk Modulus (GPa) = 41.95190 67.18863 54.57027
# Shear Modulus (GPa) = 11.55688 27.02063 19.28875
#
# Velocity S-wave (km/s) = 2.27182 3.47377 2.93498
# Velocity P-wave (km/s) = 5.06130 6.78933 5.98798
#
# Compressibility (1/GPa) = 0.02383682
#
# Stress axis : x y z
#
# Youngs Moduli (GPa) = 139.22360 41.81196 80.09545
#
# Poissons Ratio (x) = 0.11158 0.33290
# Poissons Ratio (y) = 0.37154 0.24420
# Poissons Ratio (z) = 0.57866 0.12748
#
# Static dielectric constant tensor:
#      x y z
#    x 4.977860 0.000000 0.078110 
#    y 0.000000 3.356680 0.000000 
#    z 0.078110 0.000000 4.017890 
# 
# 
# High freq. dielectric constant tensor:
#      x y z
#    x 1.915020 0.000000 0.000600 
#    y 0.000000 1.822190 0.000000 
#    z 0.000600 0.000000 1.886190 
# 
# From -- ./inp_files/57341.got.cif
#   From: 2010.06.25/outbox.cif.g09.slc.cpg/sg13_29_cif.got.tgz:57341.got - 2010.06.28 04:50:58.
