data_PCOD8116723
_publ_section_title
;
Structure prediction by ZEFSAII (Michael W. Deem and Ramdas Pophale) SiO2 
 PCOD8116723
Probable space group: P 2/C
;
_chemical_formula_sum "Si O2"
_cell_formula_units_Z 28
_cell_length_a 20.508935
_cell_length_b 9.283190
_cell_length_c 16.818725
_cell_angle_alpha 90.000000
_cell_angle_beta 28.754254
_cell_angle_gamma 90.000000
_cell_volume 1540.377344
_symmetry_space_group_name_H-M "P 2/C"
_symmetry_group_IT_number 13
_symmetry_cell_setting 'monoclinic'
loop_
_space_group_symop_operation_xyz
x,y,z
-x,y,1/2-z
-x,-y,-z
x,-y,1/2+z
loop_
_atom_site_type_symbol
_atom_site_label
_atom_site_fract_x
_atom_site_fract_y
_atom_site_fract_z
Si Si1 0.122761 0.664252 0.767770
Si Si2 0.643081 0.687150 0.575629
Si Si3 0.038962 0.847851 0.995284
Si Si4 0.792253 0.642514 0.265559
Si Si5 0.347420 0.351165 0.904395
Si Si6 0.823913 0.403151 0.555692
Si Si7 0.872687 0.723511 0.443105
O O1 0.137725 0.764693 0.828873
O O2 0.137410 0.497627 0.773341
O O3 0.242970 0.714368 0.580627
O O4 0.970297 0.677443 0.894954
O O5 0.500000 0.759295 0.750000
O O6 0.667925 0.695296 0.453812
O O7 0.643513 0.521269 0.598641
O O8 0.752041 0.771491 0.513094
O O9 0.109467 0.846526 0.007544
O O10 0.898955 0.768205 0.156066
O O11 0.000000 0.000000 0.000000
O O12 0.750397 0.611517 0.219854
O O13 0.500000 0.284373 0.750000
O O14 0.279760 0.319475 0.891393
O O15 0.842166 0.570872 0.516891
O O16 0.000000 0.705139 0.250000
#
# Coordination Sequence:
#
# PCOD8116723 Si02
#       7
#     4   4   4   4   4   4   4
#     4  10  17  33  54  76 104 139 175 210 268 317
#     4   9  18  31  51  81 111 140 181 217 252 321
#     4  11  21  33  52  83 106 130 178 233 265 307
#     4  10  17  33  55  80 107 135 177 219 269 310
#     4   9  18  30  46  80 115 137 169 220 265 313
#     4  10  16  28  54  80 104 137 179 214 265 316
#     4  11  17  32  54  78 105 144 175 217 269 312
#
# _framework density 18.177364000000001
#
# number of rings (size 3 to 8) (size 9 to 14) (size 15 to 20)
#    0.000    2.000    4.286    3.000    0.000    0.000 
#    2.571    5.714    0.000    1.714    0.000    0.000 
#    0.000    0.000    0.000    0.000    0.000    0.000 
#
# Total GULP energy -346950.089118 kJ/mol
# GULP energy per Si atom -12391.074611 kJ/mol
# Density = 1.813599 g / cm^3
# Si number density = 18.177364 Si / 1000 Ang^3
#
#
#
# Elastic Constant Matrix: (Units=GPa)
#
#
# Indices 1 2 3 4 5 6 
#
# 1 145.4628 21.8709 91.9316 0.0000 15.7874 0.0000
# 2 21.8709 46.3556 27.0562 0.0000 9.4167 0.0000
# 3 91.9316 27.0562 155.5613 0.0000 11.2730 0.0000
# 4 0.0000 0.0000 0.0000 -2.6014 0.0000 -0.0941
# 5 15.7874 9.4167 11.2730 0.0000 31.7348 0.0000
# 6 0.0000 0.0000 0.0000 -0.0941 0.0000 16.6486
#
#
#
# Elastic Compliance Matrix: (Units=1/GPa)
#
#
# Indices 1 2 3 4 5 6 
#
# 1 0.011351 -0.001048 -0.006301 0.000000 -0.003097 0.000000
# 2 -0.001048 0.025190 -0.003344 0.000000 -0.005765 0.000000
# 3 -0.006301 -0.003344 0.010710 0.000000 0.000322 0.000000
# 4 0.000000 0.000000 0.000000 -0.384323 0.000000 -0.002173
# 5 -0.003097 -0.005765 0.000322 0.000000 0.034648 0.000000
# 6 0.000000 0.000000 0.000000 -0.002173 0.000000 0.060053
#
#
# Mechanical properties :
#
#
# Convention : Reuss Voigt Hill
#
# Bulk Modulus (GPa) = 38.66346 69.89969 54.28158
# Shear Modulus (GPa) = -23.54455 22.92446 -0.31004
#
# Velocity S-wave (km/s) = -3.60289 3.55513 -0.41344
# Velocity P-wave (km/s) = 2.00214 7.44242 5.44969
#
# Compressibility (1/GPa) = 0.02586421
#
# Stress axis : x y z
#
# Youngs Moduli (GPa) = 88.10089 39.69851 93.36843
#
# Poissons Ratio (x) = 0.04162 0.58832
# Poissons Ratio (y) = 0.09237 0.31221
# Poissons Ratio (z) = 0.55513 0.13274
#
# Static dielectric constant tensor:
#      x y z
#    x 3.966340 0.000000 0.091690 
#    y 0.000000 2.898510 0.000000 
#    z 0.091690 0.000000 3.687970 
# 
# 
# High freq. dielectric constant tensor:
#      x y z
#    x 1.714220 0.000000 0.017350 
#    y 0.000000 1.641460 0.000000 
#    z 0.017350 0.000000 1.705120 
# 
# From -- ./inp_files/70460.got.cif
#   From: 2010.06.25/outbox.cif.g09.slc.cpg/sg13_36_cif.got.tgz:70460.got - 2010.06.28 04:50:58.
