data_PCOD8116290
_publ_section_title
;
Structure prediction by ZEFSAII (Michael W. Deem and Ramdas Pophale) SiO2 
 PCOD8116290
Probable space group: C 2/M
;
_chemical_formula_sum "Si O2"
_cell_formula_units_Z 28
_cell_length_a 27.000000
_cell_length_b 9.000000
_cell_length_c 18.000000
_cell_angle_alpha 90.000000
_cell_angle_beta 40.000000
_cell_angle_gamma 90.000000
_cell_volume 2811.553005
_symmetry_space_group_name_H-M "C 2/M"
_symmetry_group_IT_number 12
_symmetry_cell_setting 'monoclinic'
loop_
_space_group_symop_operation_xyz
x,y,z
-x,y,-z
-x,-y,-z
x,-y,z
1/2+x,1/2+y,z
1/2-x,1/2+y,-z
1/2-x,1/2-y,-z
1/2+x,1/2-y,z
loop_
_atom_site_type_symbol
_atom_site_label
_atom_site_fract_x
_atom_site_fract_y
_atom_site_fract_z
Si Si1 0.253483 0.675288 0.645395
Si Si2 0.058473 0.173877 0.062791
Si Si3 0.222058 0.167651 0.822236
Si Si4 0.306593 0.168126 0.879648
Si Si5 0.545514 0.325168 0.249037
Si Si6 0.409306 0.834283 0.221057
Si Si7 0.393967 0.832795 0.413919
O O1 0.260452 0.500000 0.627111
O O2 0.267396 0.725015 0.713968
O O3 0.168803 0.736688 0.721278
O O4 0.314641 0.751198 0.521801
O O5 0.062416 0.218336 0.144547
O O6 0.983963 0.243611 0.108377
O O7 0.050997 0.000000 0.063211
O O8 0.135997 0.231922 0.934533
O O9 0.269235 0.168762 0.842759
O O10 0.217919 0.000000 0.795285
O O11 0.387236 0.253179 0.779590
O O12 0.319749 0.000000 0.892777
O O13 0.250000 0.250000 0.000000
O O14 0.543383 0.500000 0.264675
O O15 0.464714 0.256541 0.369443
O O16 0.403932 0.832811 0.315154
O O17 0.418876 0.000000 0.179149
O O18 0.392592 0.000000 0.447457
#
# Coordination Sequence:
#
# PCOD8116290 Si02
#       7
#     8   8   8   8   8   8   8
#     4  11  23  38  55  80 113 150 188 233 281 326
#     4   9  18  34  55  81 112 146 184 226 276 329
#     4  10  22  39  55  79 115 151 187 226 274 336
#     4  11  21  36  59  86 115 146 185 229 277 332
#     4  10  19  35  58  87 116 143 182 233 280 327
#     4   9  20  36  56  83 112 143 187 233 278 328
#     4  10  20  37  60  84 110 147 189 230 278 332
#
# _framework density 9.9589090000000002
#
# number of rings (size 3 to 8) (size 9 to 14) (size 15 to 20)
#    0.000    2.000    1.429    2.143    0.000    4.571 
#    0.000    3.571    0.000    4.286    0.000    0.000 
#    0.000    0.000    0.000    0.000    0.000    0.000 
#
# Total GULP energy -347227.179946 kJ/mol
# GULP energy per Si atom -12400.970712 kJ/mol
# Density = 0.993624 g / cm^3
# Si number density = 9.958909 Si / 1000 Ang^3
#
#
#
# Elastic Constant Matrix: (Units=GPa)
#
#
# Indices 1 2 3 4 5 6 
#
# 1 57.1834 34.0047 22.0477 -0.0012 -25.6734 0.0012
# 2 34.0047 81.6533 26.3005 -0.0016 -8.3180 0.0036
# 3 22.0477 26.3005 31.3260 0.0004 -16.0399 0.0003
# 4 -0.0012 -0.0016 0.0004 33.5698 0.0003 -8.3007
# 5 -25.6734 -8.3180 -16.0399 0.0003 21.3542 -0.0006
# 6 0.0012 0.0036 0.0003 -8.3007 -0.0006 29.8463
#
#
#
# Elastic Compliance Matrix: (Units=1/GPa)
#
#
# Indices 1 2 3 4 5 6 
#
# 1 0.055055 -0.020212 0.013132 0.000001 0.068181 0.000002
# 2 -0.020212 0.024795 -0.022894 0.000000 -0.031838 -0.000003
# 3 0.013132 -0.022894 0.073804 -0.000001 0.062308 0.000002
# 4 0.000001 0.000000 -0.000001 0.031989 0.000000 0.008897
# 5 0.068181 -0.031838 0.062308 0.000000 0.163201 0.000004
# 6 0.000002 -0.000003 0.000002 0.008897 0.000004 0.035979
#
#
# Mechanical properties :
#
#
# Convention : Reuss Voigt Hill
#
# Bulk Modulus (GPa) = 10.67163 37.20760 23.93961
# Shear Modulus (GPa) = 10.50408 22.80804 16.65606
#
# Velocity S-wave (km/s) = 2.29895 3.38761 2.89492
# Velocity P-wave (km/s) = 3.52368 5.83287 4.81865
#
# Compressibility (1/GPa) = 0.09370641
#
# Stress axis : x y z
#
# Youngs Moduli (GPa) = 18.16379 40.33096 13.54934
#
# Poissons Ratio (x) = 0.81516 -0.17793
# Poissons Ratio (y) = 0.36712 0.31020
# Poissons Ratio (z) = -0.23852 0.92333
#
# Static dielectric constant tensor:
#      x y z
#    x 3.811060 -0.000010 -0.316850 
#    y -0.000010 3.693510 0.000020 
#    z -0.316850 0.000020 3.590330 
# 
# 
# High freq. dielectric constant tensor:
#      x y z
#    x 1.765330 0.000000 -0.020350 
#    y 0.000000 1.777240 0.000000 
#    z -0.020350 0.000000 1.767330 
# 
# From -- ./inp_files/288196.got.cif
#   From: 2010.06.25/outbox.ucp.g09.slc.cvg/sg12_145_cif.got.tgz:288196.got - 2010.06.28 13:50:54.
