data_PCOD8116686
_publ_section_title
;
Structure prediction by ZEFSAII (Michael W. Deem and Ramdas Pophale) SiO2 
 PCOD8116686
Probable space group: P 2/C
;
_chemical_formula_sum "Si O2"
_cell_formula_units_Z 26
_cell_length_a 21.119629
_cell_length_b 17.746006
_cell_length_c 5.285239
_cell_angle_alpha 90.000000
_cell_angle_beta 75.291525
_cell_angle_gamma 90.000000
_cell_volume 1915.937736
_symmetry_space_group_name_H-M "P 2/C"
_symmetry_group_IT_number 13
_symmetry_cell_setting 'monoclinic'
loop_
_space_group_symop_operation_xyz
x,y,z
-x,y,1/2-z
-x,-y,-z
x,-y,1/2+z
loop_
_atom_site_type_symbol
_atom_site_label
_atom_site_fract_x
_atom_site_fract_y
_atom_site_fract_z
Si Si1 0.577839 0.712087 0.171288
Si Si2 0.802327 0.920293 0.454484
Si Si3 0.422173 0.797202 0.828751
Si Si4 0.857518 0.088171 0.398576
Si Si5 0.350128 0.953412 0.889739
Si Si6 0.578052 0.541927 0.170542
Si Si7 0.000000 0.950295 0.750000
O O1 0.500000 0.710816 0.250000
O O2 0.603790 0.753607 0.396627
O O3 0.605153 0.627059 0.142297
O O4 0.603849 0.754446 0.894734
O O5 0.824003 0.874677 0.684297
O O6 0.725398 0.931339 0.526494
O O7 0.840624 0.999418 0.420102
O O8 0.825750 0.874374 0.181910
O O9 0.500000 0.801752 0.750000
O O10 0.394730 0.880654 0.860271
O O11 0.935450 0.101833 0.315441
O O12 0.367548 0.995158 0.611952
O O13 0.500000 0.541562 0.250000
O O14 0.604747 0.500131 0.393707
O O15 0.000000 0.000000 0.500000
#
# Coordination Sequence:
#
# PCOD8116686 Si02
#       7
#     4   4   4   4   4   4   2
#     4   9  17  31  44  56  79  99 111 136 178 229
#     4  10  16  27  37  49  66  85 107 144 186 220
#     4  10  21  33  43  55  71  95 121 153 201 241
#     4  10  16  25  36  51  70  86 104 131 180 228
#     4  12  21  31  45  55  65  88 126 168 204 235
#     4   9  15  23  40  64  81  95 113 129 152 203
#     4  12  16  20  34  52  68  88 104 120 158 240
#
# _framework density 13.570379000000001
#
# number of rings (size 3 to 8) (size 9 to 14) (size 15 to 20)
#    0.000    1.846    6.154    1.846    0.000    4.308 
#    0.000    0.000    0.000    0.000    0.000    0.000 
#    0.000    0.000    0.000    0.000    0.000    0.000 
#
# Total GULP energy -322279.991833 kJ/mol
# GULP energy per Si atom -12395.384301 kJ/mol
# Density = 1.353949 g / cm^3
# Si number density = 13.570379 Si / 1000 Ang^3
#
#
#
# Elastic Constant Matrix: (Units=GPa)
#
#
# Indices 1 2 3 4 5 6 
#
# 1 27.7769 25.0750 26.1376 0.0000 6.5528 0.0000
# 2 25.0750 53.9787 30.2022 0.0000 10.5851 0.0000
# 3 26.1376 30.2022 126.8501 0.0000 29.7982 0.0000
# 4 0.0000 0.0000 0.0000 19.0623 0.0000 4.3659
# 5 6.5528 10.5851 29.7982 0.0000 18.2034 0.0000
# 6 0.0000 0.0000 0.0000 4.3659 0.0000 1.0007
#
#
#
# Elastic Compliance Matrix: (Units=1/GPa)
#
#
# Indices 1 2 3 4 5 6 
#
# 1 0.068003 -0.027860 -0.008829 0.000000 0.006173 0.000000
# 2 -0.027860 0.033296 0.000009 0.000000 -0.009346 0.000000
# 3 -0.008829 0.000009 0.014550 0.000000 -0.020645 0.000000
# 4 0.000000 0.000000 0.000000 67.377752 0.000000**********
# 5 0.006173 -0.009346 -0.020645 0.000000 0.091941 0.000000
# 6 0.000000 0.000000 0.000000********** 0.000000**********
#
#
# Mechanical properties :
#
#
# Convention : Reuss Voigt Hill
#
# Bulk Modulus (GPa) = 23.53631 41.27060 32.40346
# Shear Modulus (GPa) = 0.00370 16.13268 8.06819
#
# Velocity S-wave (km/s) = 0.05228 3.45166 2.44097
# Velocity P-wave (km/s) = 4.16955 6.80908 5.64574
#
# Compressibility (1/GPa) = 0.04248754
#
# Stress axis : x y z
#
# Youngs Moduli (GPa) = 14.70523 30.03370 68.72828
#
# Poissons Ratio (x) = 0.83675 0.60679
# Poissons Ratio (y) = 0.40969 -0.00059
# Poissons Ratio (z) = 0.12983 -0.00026
#
# Static dielectric constant tensor:
#      x y z
#    x 2.620930 0.000000 0.363730 
#    y 0.000000 2.416880 0.000000 
#    z 0.363730 0.000000 4.143870 
# 
# 
# High freq. dielectric constant tensor:
#      x y z
#    x 1.484680 0.000000 0.016810 
#    y 0.000000 1.461520 0.000000 
#    z 0.016810 0.000000 1.551280 
# 
# From -- ./inp_files/6957.got.cif
#   From: 2010.06.25/outbox.cif.g09.slc.cpg/sg13_4_cif.got.tgz:6957.got - 2010.06.28 04:50:58.
