data_PCOD8116738
_publ_section_title
;
Structure prediction by ZEFSAII (Michael W. Deem and Ramdas Pophale) SiO2 
 PCOD8116738
Probable space group: P 2/C
;
_chemical_formula_sum "Si O2"
_cell_formula_units_Z 28
_cell_length_a 23.471889
_cell_length_b 13.553790
_cell_length_c 5.192050
_cell_angle_alpha 90.000000
_cell_angle_beta 90.089913
_cell_angle_gamma 90.000000
_cell_volume 1651.760691
_symmetry_space_group_name_H-M "P 2/C"
_symmetry_group_IT_number 13
_symmetry_cell_setting 'monoclinic'
loop_
_space_group_symop_operation_xyz
x,y,z
-x,y,1/2-z
-x,-y,-z
x,-y,1/2+z
loop_
_atom_site_type_symbol
_atom_site_label
_atom_site_fract_x
_atom_site_fract_y
_atom_site_fract_z
Si Si1 0.124265 0.539363 0.228370
Si Si2 0.318383 0.934697 0.737010
Si Si3 0.250349 0.546576 0.699959
Si Si4 0.152116 0.235672 0.725591
Si Si5 0.558150 0.937980 0.681608
Si Si6 0.774312 0.769305 0.779793
Si Si7 0.933362 0.061313 0.745320
O O1 0.090802 0.486345 0.463556
O O2 0.184553 0.485307 0.174023
O O3 0.129880 0.654778 0.277840
O O4 0.381446 0.884349 0.762968
O O5 0.272758 0.850167 0.780447
O O6 0.310282 0.982394 0.456022
O O7 0.280924 0.505177 0.443402
O O8 0.256448 0.663732 0.716306
O O9 0.179115 0.227359 0.444372
O O10 0.098169 0.164906 0.740022
O O11 0.197332 0.207066 0.945355
O O12 0.500000 0.875463 0.750000
O O13 0.556273 0.969420 0.382456
O O14 0.000000 0.085045 0.750000
O O15 0.915073 0.006213 0.484916
#
# Coordination Sequence:
#
# PCOD8116738 Si02
#       7
#     4   4   4   4   4   4   4
#     4  10  16  30  48  71  93 119 148 191 229 272
#     4  10  21  33  42  65 105 132 151 197 236 267
#     4  10  16  30  46  66  92 125 154 188 221 272
#     4  12  21  32  55  75  91 127 161 188 233 289
#     4   8  14  27  46  61  80 122 168 193 224 269
#     4  12  21  30  49  75  99 129 155 184 238 294
#     4  10  23  42  57  71  94 124 162 201 225 263
#
# _framework density 16.951608
#
# number of rings (size 3 to 8) (size 9 to 14) (size 15 to 20)
#    0.000    1.714    5.714    1.714    0.000    3.429 
#    0.000    0.000    0.000    0.857    0.000    0.000 
#    0.000    1.143    0.000    0.000    0.000    2.571 
#
# Total GULP energy -346980.621122 kJ/mol
# GULP energy per Si atom -12392.165040 kJ/mol
# Density = 1.691303 g / cm^3
# Si number density = 16.951608 Si / 1000 Ang^3
#
#
#
# Elastic Constant Matrix: (Units=GPa)
#
#
# Indices 1 2 3 4 5 6 
#
# 1 43.1942 37.4705 10.9438 0.0000 1.2097 0.0000
# 2 37.4705 75.0902 7.9162 0.0000 0.5725 0.0000
# 3 10.9438 7.9162 110.5469 0.0000 -3.6832 0.0000
# 4 0.0000 0.0000 0.0000 22.5481 0.0000 -0.1162
# 5 1.2097 0.5725 -3.6832 0.0000 9.0113 0.0000
# 6 0.0000 0.0000 0.0000 -0.1162 0.0000 -0.9378
#
#
#
# Elastic Compliance Matrix: (Units=1/GPa)
#
#
# Indices 1 2 3 4 5 6 
#
# 1 0.041844 -0.020538 -0.002854 0.000000 -0.005479 0.000000
# 2 -0.020538 0.023513 0.000397 0.000000 0.001425 0.000000
# 3 -0.002854 0.000397 0.009441 0.000000 0.004217 0.000000
# 4 0.000000 0.000000 0.000000 0.044321 0.000000 -0.005491
# 5 -0.005479 0.001425 0.004217 0.000000 0.113340 0.000000
# 6 0.000000 0.000000 0.000000 -0.005491 0.000000 -1.065682
#
#
# Mechanical properties :
#
#
# Convention : Reuss Voigt Hill
#
# Bulk Modulus (GPa) = 34.71323 37.94359 36.32841
# Shear Modulus (GPa) = -6.42979 17.62439 5.59730
#
# Velocity S-wave (km/s) = -1.94968 3.22792 1.81909
# Velocity P-wave (km/s) = 3.93115 6.02700 5.08815
#
# Compressibility (1/GPa) = 0.02880746
#
# Stress axis : x y z
#
# Youngs Moduli (GPa) = 23.89810 42.52937 105.92583
#
# Poissons Ratio (x) = 0.87346 0.30234
# Poissons Ratio (y) = 0.49082 -0.04204
# Poissons Ratio (z) = 0.06821 -0.01688
#
# Static dielectric constant tensor:
#      x y z
#    x 3.032920 0.000000 0.060050 
#    y 0.000000 2.964140 0.000000 
#    z 0.060050 0.000000 4.249600 
# 
# 
# High freq. dielectric constant tensor:
#      x y z
#    x 1.611680 0.000000 0.000820 
#    y 0.000000 1.627750 0.000000 
#    z 0.000820 0.000000 1.693960 
# 
# From -- ./inp_files/6856.got.cif
#   From: 2010.06.25/outbox.cif.g09.slc.cpg/sg13_4_cif.got.tgz:6856.got - 2010.06.28 04:50:58.
