data_PCOD8116176
_publ_section_title
;
Structure prediction by ZEFSAII (Michael W. Deem and Ramdas Pophale) SiO2 
 PCOD8116176
Probable space group: C 2/M
;
_chemical_formula_sum "Si O2"
_cell_formula_units_Z 26
_cell_length_a 21.000000
_cell_length_b 12.000000
_cell_length_c 12.000000
_cell_angle_alpha 90.000000
_cell_angle_beta 110.000000
_cell_angle_gamma 90.000000
_cell_volume 2841.630485
_symmetry_space_group_name_H-M "C 2/M"
_symmetry_group_IT_number 12
_symmetry_cell_setting 'monoclinic'
loop_
_space_group_symop_operation_xyz
x,y,z
-x,y,-z
-x,-y,-z
x,-y,z
1/2+x,1/2+y,z
1/2-x,1/2+y,-z
1/2-x,1/2-y,-z
1/2+x,1/2-y,z
loop_
_atom_site_type_symbol
_atom_site_label
_atom_site_fract_x
_atom_site_fract_y
_atom_site_fract_z
Si Si1 0.439505 0.132573 0.874892
Si Si2 0.658120 0.727158 0.039230
Si Si3 0.397679 0.258892 0.380299
Si Si4 0.111830 0.000000 0.685421
Si Si5 0.523144 0.500000 0.291058
Si Si6 0.693148 0.864330 0.843511
Si Si7 0.958373 0.758714 0.652218
Si Si8 0.401302 0.500000 0.076397
O O1 0.373769 0.198065 0.881240
O O2 0.453573 0.177099 0.756857
O O3 0.425453 0.000000 0.858272
O O4 0.500000 0.155957 0.000000
O O5 0.731852 0.685901 0.120985
O O6 0.615099 0.613812 0.998075
O O7 0.657947 0.805486 0.929088
O O8 0.365398 0.384988 0.361780
O O9 0.345986 0.170810 0.293311
O O10 0.412553 0.221618 0.517673
O O11 0.463956 0.258946 0.341497
O O12 0.029743 0.000000 0.637196
O O13 0.140180 0.000000 0.830284
O O14 0.565436 0.384583 0.325993
O O15 0.482113 0.500000 0.149022
O O16 0.693160 0.000000 0.856080
#
# Coordination Sequence:
#
# PCOD8116176 Si02
#       8
#     8   8   8   4   4   8   8   4
#     4  11  24  41  59  82 118 156 189 235 292 356
#     4  11  22  38  58  87 116 152 196 238 290 343
#     4  10  19  35  59  89 118 151 194 241 290 341
#     4   8  15  30  55  84 121 140 184 233 286 330
#     4   8  15  29  54  84 112 147 174 230 291 329
#     4  11  22  37  59  84 116 153 194 242 287 342
#     4  10  20  35  59  88 119 151 193 241 292 346
#     4  10  16  33  58  87 118 143 184 247 276 347
#
# _framework density 9.1496770000000005
#
# number of rings (size 3 to 8) (size 9 to 14) (size 15 to 20)
#    0.462    1.385    2.308    2.769    0.000    4.923 
#    1.385    3.846    0.000    0.000    0.000    0.000 
#    0.000    0.000    0.000    0.000    0.000    0.000 
#
# Total GULP energy -322152.921938 kJ/mol
# GULP energy per Si atom -12390.496998 kJ/mol
# Density = 0.912885 g / cm^3
# Si number density = 9.149677 Si / 1000 Ang^3
#
#
#
# Elastic Constant Matrix: (Units=GPa)
#
#
# Indices 1 2 3 4 5 6 
#
# 1 54.6274 38.6015 37.0984 0.0000 -5.6066 0.0000
# 2 38.6015 170.0916 64.6096 0.0000 -4.0046 0.0000
# 3 37.0984 64.6096 149.5762 0.0000 -2.0573 0.0000
# 4 0.0000 0.0000 0.0000 36.3801 0.0000 0.7342
# 5 -5.6066 -4.0046 -2.0573 0.0000 29.4639 0.0000
# 6 0.0000 0.0000 0.0000 0.7342 0.0000 30.0154
#
#
#
# Elastic Compliance Matrix: (Units=1/GPa)
#
#
# Indices 1 2 3 4 5 6 
#
# 1 0.024319 -0.003778 -0.004347 0.000000 0.003811 0.000000
# 2 -0.003778 0.007636 -0.002359 0.000000 0.000154 0.000000
# 3 -0.004347 -0.002359 0.008776 0.000000 -0.000535 0.000000
# 4 0.000000 0.000000 0.000000 0.027501 0.000000 -0.000673
# 5 0.003811 0.000154 -0.000535 0.000000 0.034649 0.000000
# 6 0.000000 0.000000 0.000000 -0.000673 0.000000 0.033333
#
#
# Mechanical properties :
#
#
# Convention : Reuss Voigt Hill
#
# Bulk Modulus (GPa) = 50.60357 72.76823 61.68590
# Shear Modulus (GPa) = 30.53061 34.77092 32.65077
#
# Velocity S-wave (km/s) = 4.08903 4.36376 4.22863
# Velocity P-wave (km/s) = 7.07155 8.07723 7.59106
#
# Compressibility (1/GPa) = 0.01976145
#
# Stress axis : x y z
#
# Youngs Moduli (GPa) = 41.12021 130.95096 113.95246
#
# Poissons Ratio (x) = 0.49473 0.49539
# Poissons Ratio (y) = 0.15535 0.26886
# Poissons Ratio (z) = 0.17876 0.30897
#
# Static dielectric constant tensor:
#      x y z
#    x 3.083710 0.000000 0.041490 
#    y 0.000000 3.750280 0.000000 
#    z 0.041490 0.000000 3.576920 
# 
# 
# High freq. dielectric constant tensor:
#      x y z
#    x 1.668290 0.000000 0.005210 
#    y 0.000000 1.741700 0.000000 
#    z 0.005210 0.000000 1.726740 
# 
# From -- ./inp_files/165155.got.cif
#   From: 2010.06.25/outbox.ucp.g09.slc.cvg/sg12_83_cif.got.tgz:165155.got - 2010.06.28 13:50:54.
