data_PCOD8116124
_publ_section_title
;
Structure prediction by ZEFSAII (Michael W. Deem and Ramdas Pophale) SiO2 
 PCOD8116124
Probable space group: C 2/M
;
_chemical_formula_sum "Si O2"
_cell_formula_units_Z 64
_cell_length_a 24.676040
_cell_length_b 9.447455
_cell_length_c 21.680452
_cell_angle_alpha 90.000000
_cell_angle_beta 128.650031
_cell_angle_gamma 90.000000
_cell_volume 3947.262272
_symmetry_space_group_name_H-M "C 2/M"
_symmetry_group_IT_number 12
_symmetry_cell_setting 'monoclinic'
loop_
_space_group_symop_operation_xyz
x,y,z
-x,y,-z
-x,-y,-z
x,-y,z
1/2+x,1/2+y,z
1/2-x,1/2+y,-z
1/2-x,1/2-y,-z
1/2+x,1/2-y,z
loop_
_atom_site_type_symbol
_atom_site_label
_atom_site_fract_x
_atom_site_fract_y
_atom_site_fract_z
Si Si1 0.622953 0.665276 0.450523
Si Si2 0.277283 0.332161 0.370818
Si Si3 0.012751 0.661732 0.782766
Si Si4 0.359703 0.834133 0.660462
Si Si5 0.349138 0.161862 0.065190
Si Si6 0.824223 0.832809 0.274061
Si Si7 0.532213 0.663687 0.676746
Si Si8 0.233869 0.165344 0.894585
O O1 0.636809 0.500000 0.447399
O O2 0.666648 0.721837 0.539561
O O3 0.647712 0.751040 0.408593
O O4 0.541868 0.693914 0.408047
O O5 0.281398 0.500000 0.369871
O O6 0.200332 0.282500 0.335844
O O7 0.295360 0.264480 0.316939
O O8 0.014177 0.500000 0.761476
O O9 0.067119 0.685975 0.878006
O O10 0.039433 0.753184 0.745125
O O11 0.933840 0.701508 0.745594
O O12 0.351626 0.000000 0.639970
O O13 0.318632 0.259485 0.096653
O O14 0.332392 0.000000 0.071404
O O15 0.313230 0.195915 0.973486
O O16 0.905124 0.789349 0.323655
O O17 0.778112 0.777239 0.183402
O O18 0.816947 0.000000 0.273724
O O19 0.540017 0.500000 0.699709
O O20 0.215726 0.000000 0.883911
#
# Coordination Sequence:
#
# PCOD8116124 Si02
#       8
#     8   8   8   8   8   8   8   8
#     4   9  17  28  44  64  83 102 133 178 213 237
#     4   9  17  28  42  61  82 109 141 169 202 242
#     4   9  16  26  41  61  84 108 133 166 204 241
#     4   9  17  29  45  61  80 108 140 171 203 240
#     4   9  16  25  40  62  85 106 131 164 202 239
#     4   9  16  26  41  60  85 111 135 164 200 246
#     4   9  16  26  41  62  84 106 133 167 206 243
#     4   9  16  26  41  61  84 108 132 162 199 241
#
# _framework density 16.21377
#
# number of rings (size 3 to 8) (size 9 to 14) (size 15 to 20)
#    0.000    3.000    1.250    0.375    0.000    0.500 
#    0.000    2.500    0.000    3.750    0.000    8.750 
#    0.000    0.000    0.000   12.500    0.000   13.000 
#
# Total GULP energy -396516.899676 kJ/mol
# GULP energy per Si atom -12391.153115 kJ/mol
# Density = 1.617687 g / cm^3
# Si number density = 16.213770 Si / 1000 Ang^3
#
#
#
# Elastic Constant Matrix: (Units=GPa)
#
#
# Indices 1 2 3 4 5 6 
#
# 1 127.5085 22.4712 80.4266 0.0000 6.3196 0.0000
# 2 22.4712 23.8352 21.0761 0.0000 0.9398 0.0000
# 3 80.4266 21.0761 137.1633 0.0000 17.2400 0.0000
# 4 0.0000 0.0000 0.0000 15.3333 0.0000 -0.0008
# 5 6.3196 0.9398 17.2400 0.0000 20.2087 0.0000
# 6 0.0000 0.0000 0.0000 -0.0008 0.0000 14.3193
#
#
#
# Elastic Compliance Matrix: (Units=1/GPa)
#
#
# Indices 1 2 3 4 5 6 
#
# 1 0.013351 -0.006373 -0.007126 0.000000 0.002200 0.000000
# 2 -0.006373 0.051978 -0.004701 0.000000 0.003586 0.000000
# 3 -0.007126 -0.004701 0.013311 0.000000 -0.008909 0.000000
# 4 0.000000 0.000000 0.000000 0.065218 0.000000 0.000004
# 5 0.002200 0.003586 -0.008909 0.000000 0.056229 0.000000
# 6 0.000000 0.000000 0.000000 0.000004 0.000000 0.069836
#
#
# Mechanical properties :
#
#
# Convention : Reuss Voigt Hill
#
# Bulk Modulus (GPa) = 23.67359 59.60611 41.63985
# Shear Modulus (GPa) = 15.60538 20.94113 18.27326
#
# Velocity S-wave (km/s) = 3.10575 3.59773 3.36076
# Velocity P-wave (km/s) = 5.24342 7.35532 6.38726
#
# Compressibility (1/GPa) = 0.04224116
#
# Stress axis : x y z
#
# Youngs Moduli (GPa) = 74.89807 19.23887 75.12606
#
# Poissons Ratio (x) = 0.12261 0.53535
# Poissons Ratio (y) = 0.47733 0.35314
# Poissons Ratio (z) = 0.53373 0.09043
#
# Static dielectric constant tensor:
#      x y z
#    x 3.100670 0.000000 0.173500 
#    y 0.000000 2.882340 0.000000 
#    z 0.173500 0.000000 3.456430 
# 
# 
# High freq. dielectric constant tensor:
#      x y z
#    x 1.598250 0.000000 0.023250 
#    y 0.000000 1.598130 0.000000 
#    z 0.023250 0.000000 1.634450 
# 
# From -- ./inp_files/288857.got.cif
#   From: 2010.06.25/outbox.cif.g09.slc.cpg/sg12_145_cif.got.tgz:288857.got - 2010.06.28 00:19:55.
