data_PCOD8116248
_publ_section_title
;
Structure prediction by ZEFSAII (Michael W. Deem and Ramdas Pophale) SiO2 
 PCOD8116248
Probable space group: C 2/M
;
_chemical_formula_sum "Si O2"
_cell_formula_units_Z 32
_cell_length_a 24.000000
_cell_length_b 9.000000
_cell_length_c 30.000000
_cell_angle_alpha 90.000000
_cell_angle_beta 30.000000
_cell_angle_gamma 90.000000
_cell_volume 3240.000000
_symmetry_space_group_name_H-M "C 2/M"
_symmetry_group_IT_number 12
_symmetry_cell_setting 'monoclinic'
loop_
_space_group_symop_operation_xyz
x,y,z
-x,y,-z
-x,-y,-z
x,-y,z
1/2+x,1/2+y,z
1/2-x,1/2+y,-z
1/2-x,1/2-y,-z
1/2+x,1/2-y,z
loop_
_atom_site_type_symbol
_atom_site_label
_atom_site_fract_x
_atom_site_fract_y
_atom_site_fract_z
Si Si1 0.892899 0.167553 0.803876
Si Si2 0.675615 0.326784 0.986097
Si Si3 0.267059 0.169733 0.333163
Si Si4 0.222044 0.331187 0.773188
Si Si5 0.068305 0.823034 0.322748
Si Si6 0.503651 0.668465 0.817243
Si Si7 0.510494 0.165705 0.044680
Si Si8 0.556795 0.175976 0.507937
O O1 0.795862 0.255014 0.896485
O O2 0.942102 0.229067 0.722177
O O3 0.989874 0.172191 0.773341
O O4 0.850541 0.000000 0.824183
O O5 0.695715 0.500000 0.972935
O O6 0.606224 0.276427 0.078705
O O7 0.608873 0.276506 0.988749
O O8 0.221587 0.181383 0.314173
O O9 0.393827 0.223800 0.244485
O O10 0.185836 0.272388 0.418597
O O11 0.262793 0.000000 0.353373
O O12 0.195662 0.500000 0.804799
O O13 0.307648 0.268635 0.750175
O O14 0.101353 0.253980 0.858654
O O15 0.989155 0.744812 0.413967
O O16 0.050351 0.000000 0.340243
O O17 0.531425 0.500000 0.813311
O O18 0.532111 0.000000 0.049931
O O19 0.500000 0.153880 0.000000
O O20 0.500000 0.227973 0.500000
O O21 0.548613 0.000000 0.517827
#
# Coordination Sequence:
#
# PCOD8116248 Si02
#       8
#     8   8   8   8   8   8   8   8
#     4  10  22  40  62  84 113 155 199 242 287 336
#     4  11  22  35  55  84 119 155 194 240 289 341
#     4  11  21  36  61  88 113 148 192 237 282 336
#     4   9  17  30  52  82 111 141 183 234 281 328
#     4  10  20  38  62  87 114 148 193 241 287 340
#     4  10  22  40  59  85 119 154 195 243 289 335
#     4  10  19  33  53  78 112 153 196 237 282 341
#     4  11  23  38  59  89 122 153 183 227 291 353
#
# _framework density 9.8765429999999999
#
# number of rings (size 3 to 8) (size 9 to 14) (size 15 to 20)
#    0.000    1.750    2.500    2.250    0.000    4.250 
#    0.000    1.250    0.000    0.000    0.000    0.000 
#    0.000    0.000    0.000    0.000    0.000    0.000 
#
# Total GULP energy -396462.731567 kJ/mol
# GULP energy per Si atom -12389.460361 kJ/mol
# Density = 0.985406 g / cm^3
# Si number density = 9.876543 Si / 1000 Ang^3
#
#
#
# Elastic Constant Matrix: (Units=GPa)
#
#
# Indices 1 2 3 4 5 6 
#
# 1 82.2481 30.1135 30.8016 -0.0282 23.7590 -0.0105
# 2 30.1135 62.0267 40.6387 0.0214 8.9617 0.0061
# 3 30.8016 40.6387 114.6874 -0.0016 18.5512 -0.0046
# 4 -0.0282 0.0214 -0.0016 33.9390 -0.0172 2.9483
# 5 23.7590 8.9617 18.5512 -0.0172 26.7125 0.0436
# 6 -0.0105 0.0061 -0.0046 2.9483 0.0436 10.2011
#
#
#
# Elastic Compliance Matrix: (Units=1/GPa)
#
#
# Indices 1 2 3 4 5 6 
#
# 1 0.018945 -0.006920 -0.000322 0.000006 -0.014305 0.000083
# 2 -0.006920 0.023631 -0.007016 -0.000017 0.003100 -0.000033
# 3 -0.000322 -0.007016 0.012240 -0.000001 -0.005860 0.000035
# 4 0.000006 -0.000017 -0.000001 0.030223 0.000035 -0.008735
# 5 -0.014305 0.003100 -0.005860 0.000035 0.053189 -0.000256
# 6 0.000083 -0.000033 0.000035 -0.008735 -0.000256 0.100554
#
#
# Mechanical properties :
#
#
# Convention : Reuss Voigt Hill
#
# Bulk Modulus (GPa) = 38.02409 51.34110 44.68259
# Shear Modulus (GPa) = 18.11169 24.66444 21.38806
#
# Velocity S-wave (km/s) = 3.03133 3.53744 3.29412
# Velocity P-wave (km/s) = 5.61635 6.53701 6.09409
#
# Compressibility (1/GPa) = 0.02629911
#
# Stress axis : x y z
#
# Youngs Moduli (GPa) = 52.78497 42.31784 81.69974
#
# Poissons Ratio (x) = 0.29283 0.02632
# Poissons Ratio (y) = 0.36526 0.57323
# Poissons Ratio (z) = 0.01700 0.29692
#
# Static dielectric constant tensor:
#      x y z
#    x 3.562310 -0.000230 0.192240 
#    y -0.000230 3.458640 -0.000020 
#    z 0.192240 -0.000020 3.774380 
# 
# 
# High freq. dielectric constant tensor:
#      x y z
#    x 1.761650 -0.000010 0.014180 
#    y -0.000010 1.750290 0.000000 
#    z 0.014180 0.000000 1.777530 
# 
# From -- ./inp_files/382359.got.cif
#   From: 2010.06.25/outbox.ucp.g09.slc.cvg/sg12_192_cif.got.tgz:382359.got - 2010.06.28 13:50:54.
