data_PCOD8116755
_publ_section_title
;
Structure prediction by ZEFSAII (Michael W. Deem and Ramdas Pophale) SiO2 
 PCOD8116755
Probable space group: P 2/C
;
_chemical_formula_sum "Si O2"
_cell_formula_units_Z 20
_cell_length_a 10.132609
_cell_length_b 21.359761
_cell_length_c 5.279609
_cell_angle_alpha 90.000000
_cell_angle_beta 121.403186
_cell_angle_gamma 90.000000
_cell_volume 975.290658
_symmetry_space_group_name_H-M "P 2/C"
_symmetry_group_IT_number 13
_symmetry_cell_setting 'monoclinic'
loop_
_space_group_symop_operation_xyz
x,y,z
-x,y,1/2-z
-x,-y,-z
x,-y,1/2+z
loop_
_atom_site_type_symbol
_atom_site_label
_atom_site_fract_x
_atom_site_fract_y
_atom_site_fract_z
Si Si1 0.593091 0.749205 0.593093
Si Si2 0.898807 0.669914 0.898804
Si Si3 0.934760 0.069838 0.434760
Si Si4 0.827129 0.473143 0.327121
Si Si5 0.590796 0.896681 0.590797
O O1 0.500000 0.727863 0.750000
O O2 0.761067 0.719071 0.761074
O O3 0.621431 0.823000 0.621437
O O4 0.500000 0.727864 0.250000
O O5 0.824749 0.601284 0.824724
O O6 0.000000 0.680526 0.750000
O O7 0.000000 0.680517 0.250000
O O8 0.751221 0.066808 0.251219
O O9 0.000000 0.105349 0.250000
O O10 0.000000 0.000000 0.500000
O O11 0.000000 0.105349 0.750000
O O12 0.740919 0.499998 0.490914
O O13 0.000000 0.500000 0.500000
O O14 0.500000 0.917983 0.750000
O O15 0.500000 0.917982 0.250000
#
# Coordination Sequence:
#
# PCOD8116755 Si02
#       5
#     4   4   4   4   4
#     4  10  23  41  57  81 120 155 185 235 293 340
#     4  12  21  33  59  90 106 143 199 242 281 332
#     4  10  21  38  58  88 123 150 182 243 297 313
#     4  10  16  30  49  78 107 141 176 237 278 326
#     4  10  21  40  63  82 111 162 201 221 274 358
#
# _framework density 20.506708
#
# number of rings (size 3 to 8) (size 9 to 14) (size 15 to 20)
#    0.000    1.600    4.000    2.400    0.000    1.600 
#    0.000   12.000    0.000    3.600    0.000    0.000 
#    0.000    0.000    0.000    0.000    0.000    0.000 
#
# Total GULP energy -247980.499238 kJ/mol
# GULP energy per Si atom -12399.024962 kJ/mol
# Density = 2.046003 g / cm^3
# Si number density = 20.506708 Si / 1000 Ang^3
#
#
#
# Elastic Constant Matrix: (Units=GPa)
#
#
# Indices 1 2 3 4 5 6 
#
# 1 159.8840 39.6448 120.9381 0.0000 -20.8905 0.0000
# 2 39.6448 41.7891 37.1517 0.0000 8.2813 0.0000
# 3 120.9381 37.1517 175.2370 0.0000 -30.4963 0.0000
# 4 0.0000 0.0000 0.0000 -132.9851 0.0000 128.2952
# 5 -20.8905 8.2813 -30.4963 0.0000 54.6410 0.0000
# 6 0.0000 0.0000 0.0000 128.2952 0.0000 -94.4990
#
#
#
# Elastic Compliance Matrix: (Units=1/GPa)
#
#
# Indices 1 2 3 4 5 6 
#
# 1 0.014323 -0.006776 -0.008104 0.000000 0.001980 0.000000
# 2 -0.006776 0.037099 -0.005115 0.000000 -0.011068 0.000000
# 3 -0.008104 -0.005115 0.013268 0.000000 0.005082 0.000000
# 4 0.000000 0.000000 0.000000 0.024276 0.000000 0.032958
# 5 0.001980 -0.011068 0.005082 0.000000 0.023572 0.000000
# 6 0.000000 0.000000 0.000000 0.032958 0.000000 0.034163
#
#
# Mechanical properties :
#
#
# Convention : Reuss Voigt Hill
#
# Bulk Modulus (GPa) = 40.48514 85.81994 63.15254
# Shear Modulus (GPa) = 25.65090 -22.62358 1.51366
#
# Velocity S-wave (km/s) = 3.54058 -3.32509 0.86008
# Velocity P-wave (km/s) = 6.04148 5.21526 5.64351
#
# Compressibility (1/GPa) = 0.02470042
#
# Stress axis : x y z
#
# Youngs Moduli (GPa) = 69.81577 26.95500 75.36789
#
# Poissons Ratio (x) = 0.18265 0.61078
# Poissons Ratio (y) = 0.47309 0.38550
# Poissons Ratio (z) = 0.56578 0.13787
#
# Static dielectric constant tensor:
#      x y z
#    x 3.242230 0.000000 0.169480 
#    y 0.000000 3.507760 0.000000 
#    z 0.169480 0.000000 3.191420 
# 
# 
# High freq. dielectric constant tensor:
#      x y z
#    x 1.804950 0.000000 -0.032450 
#    y 0.000000 1.785290 0.000000 
#    z -0.032450 0.000000 1.814680 
# 
# From -- ./inp_files/2475.got.cif
#   From: 2010.06.25/outbox.cif.g09.slc.cpg/sg13_2_cif.got.tgz:2475.got - 2010.06.28 04:50:58.
