data_PCOD8116710
_publ_section_title
;
Structure prediction by ZEFSAII (Michael W. Deem and Ramdas Pophale) SiO2 
 PCOD8116710
Probable space group: P 2/C
;
_chemical_formula_sum "Si O2"
_cell_formula_units_Z 30
_cell_length_a 10.057350
_cell_length_b 16.990722
_cell_length_c 10.256006
_cell_angle_alpha 90.000000
_cell_angle_beta 63.337191
_cell_angle_gamma 90.000000
_cell_volume 1566.200548
_symmetry_space_group_name_H-M "P 2/C"
_symmetry_group_IT_number 13
_symmetry_cell_setting 'monoclinic'
loop_
_space_group_symop_operation_xyz
x,y,z
-x,y,1/2-z
-x,-y,-z
x,-y,1/2+z
loop_
_atom_site_type_symbol
_atom_site_label
_atom_site_fract_x
_atom_site_fract_y
_atom_site_fract_z
Si Si1 0.780675 0.874752 0.806256
Si Si2 0.870710 0.272001 0.411291
Si Si3 0.474203 0.937824 0.901253
Si Si4 0.179154 0.565678 0.653823
Si Si5 0.153850 0.133200 0.510690
Si Si6 0.953419 0.702222 0.410988
Si Si7 0.842056 0.543169 0.557291
Si Si8 0.000000 0.013356 0.750000
O O1 0.796852 0.812941 0.917064
O O2 0.604932 0.874050 0.857751
O O3 0.864995 0.850598 0.635663
O O4 0.850976 0.960202 0.808076
O O5 0.768389 0.347917 0.420343
O O6 0.000000 0.277288 0.250000
O O7 0.914490 0.277320 0.544717
O O8 0.500000 0.979839 0.750000
O O9 0.314748 0.897727 0.982708
O O10 0.500000 0.000000 0.000000
O O11 0.246329 0.541661 0.765803
O O12 0.242805 0.502755 0.520879
O O13 0.000000 0.563186 0.750000
O O14 0.135940 0.218268 0.584359
O O15 0.027123 0.071035 0.613655
O O16 0.853468 0.635430 0.520074
O O17 0.000000 0.667530 0.250000
O O18 0.000000 0.500000 0.500000
#
# Coordination Sequence:
#
# PCOD8116710 Si02
#       8
#     4   4   4   4   4   4   4   2
#     4  11  21  36  59  78 103 145 182 224 267 323
#     4  11  18  33  50  74 106 138 176 222 269 316
#     4  10  22  41  58  76 106 142 184 224 268 327
#     4   9  16  26  43  69 104 141 171 208 262 326
#     4  11  22  36  53  81 109 142 179 226 272 321
#     4  12  21  32  49  78 113 138 175 228 272 320
#     4  10  16  27  45  70 107 144 171 207 270 324
#     4  12  20  34  56  80 112 132 180 222 274 316
#
# _framework density 19.154633
#
# number of rings (size 3 to 8) (size 9 to 14) (size 15 to 20)
#    0.000    1.333    8.000    1.600    0.000    0.000 
#    2.400    0.000    0.000    0.000    0.000    0.933 
#    0.000    0.267    0.000    0.000    0.000    0.000 
#
# Total GULP energy -371646.171353 kJ/mol
# GULP energy per Si atom -12388.205712 kJ/mol
# Density = 1.911104 g / cm^3
# Si number density = 19.154633 Si / 1000 Ang^3
#
#
#
# Elastic Constant Matrix: (Units=GPa)
#
#
# Indices 1 2 3 4 5 6 
#
# 1 53.8957 32.7092 40.0873 0.0000 19.5842 0.0000
# 2 32.7092 137.0956 43.7911 0.0000 15.6558 0.0000
# 3 40.0873 43.7911 102.3172 0.0000 39.9025 0.0000
# 4 0.0000 0.0000 0.0000 24.5925 0.0000 15.9279
# 5 19.5842 15.6558 39.9025 0.0000 32.9728 0.0000
# 6 0.0000 0.0000 0.0000 15.9279 0.0000 16.9184
#
#
#
# Elastic Compliance Matrix: (Units=1/GPa)
#
#
# Indices 1 2 3 4 5 6 
#
# 1 0.028440 -0.003818 -0.006870 0.000000 -0.006765 0.000000
# 2 -0.003818 0.008970 -0.002967 0.000000 0.001599 0.000000
# 3 -0.006870 -0.002967 0.021957 0.000000 -0.021082 0.000000
# 4 0.000000 0.000000 0.000000 0.104198 0.000000 -0.098098
# 5 -0.006765 0.001599 -0.021082 0.000000 0.059099 0.000000
# 6 0.000000 0.000000 0.000000 -0.098098 0.000000 0.151463
#
#
# Mechanical properties :
#
#
# Convention : Reuss Voigt Hill
#
# Bulk Modulus (GPa) = 31.19519 58.49820 44.84670
# Shear Modulus (GPa) = 12.13229 26.67813 19.40521
#
# Velocity S-wave (km/s) = 2.51945 3.73604 3.18635
# Velocity P-wave (km/s) = 4.97844 7.01548 6.08284
#
# Compressibility (1/GPa) = 0.03205622
#
# Stress axis : x y z
#
# Youngs Moduli (GPa) = 35.16195 111.47962 45.54416
#
# Poissons Ratio (x) = 0.42567 0.31289
# Poissons Ratio (y) = 0.13426 0.13512
# Poissons Ratio (z) = 0.24157 0.33074
#
# Static dielectric constant tensor:
#      x y z
#    x 3.010110 0.000000 0.630340 
#    y 0.000000 3.942560 0.000000 
#    z 0.630340 0.000000 3.703330 
# 
# 
# High freq. dielectric constant tensor:
#      x y z
#    x 1.692990 0.000000 0.043260 
#    y 0.000000 1.759100 0.000000 
#    z 0.043260 0.000000 1.740670 
# 
# From -- ./inp_files/34386.got.cif
#   From: 2010.06.25/outbox.cif.g09.slc.cpg/sg13_18_cif.got.tgz:34386.got - 2010.06.28 04:50:58.
