data_PCOD8116227
_publ_section_title
;
Structure prediction by ZEFSAII (Michael W. Deem and Ramdas Pophale) SiO2 
 PCOD8116227
Probable space group: C 2/M
;
_chemical_formula_sum "Si O2"
_cell_formula_units_Z 32
_cell_length_a 18.000000
_cell_length_b 9.000000
_cell_length_c 30.000000
_cell_angle_alpha 90.000000
_cell_angle_beta 140.000000
_cell_angle_gamma 90.000000
_cell_volume 3123.947783
_symmetry_space_group_name_H-M "C 2/M"
_symmetry_group_IT_number 12
_symmetry_cell_setting 'monoclinic'
loop_
_space_group_symop_operation_xyz
x,y,z
-x,y,-z
-x,-y,-z
x,-y,z
1/2+x,1/2+y,z
1/2-x,1/2+y,-z
1/2-x,1/2-y,-z
1/2+x,1/2-y,z
loop_
_atom_site_type_symbol
_atom_site_label
_atom_site_fract_x
_atom_site_fract_y
_atom_site_fract_z
Si Si1 0.095880 0.665152 0.197404
Si Si2 0.898121 0.330004 0.703135
Si Si3 0.651370 0.830624 0.799415
Si Si4 0.920972 0.170843 0.065571
Si Si5 0.922119 0.172117 0.568544
Si Si6 0.246346 0.828233 0.929037
Si Si7 0.655996 0.334596 0.715941
Si Si8 0.253405 0.828910 0.432920
O O1 0.043072 0.500000 0.166336
O O2 0.062478 0.730716 0.230303
O O3 0.233656 0.657416 0.264642
O O4 0.048024 0.766823 0.135384
O O5 0.857068 0.500000 0.687752
O O6 0.792351 0.238140 0.634271
O O7 0.014204 0.312993 0.727905
O O8 0.700432 0.738628 0.862640
O O9 0.701914 0.766247 0.777293
O O10 0.688452 0.000000 0.823787
O O11 0.845512 0.203586 0.074599
O O12 0.930109 0.000000 0.057321
O O13 0.867748 0.253185 0.998404
O O14 0.841690 0.206471 0.573629
O O15 0.874842 0.256852 0.503333
O O16 0.049675 0.233186 0.638925
O O17 0.924023 0.000000 0.557077
O O18 0.270004 0.000000 0.932522
O O19 0.619908 0.500000 0.716524
O O20 0.275972 0.000000 0.435634
#
# Coordination Sequence:
#
# PCOD8116227 Si02
#       8
#     8   8   8   8   8   8   8   8
#     4  10  21  38  58  80 111 149 185 221 269 331
#     4  10  20  34  54  81 110 142 181 224 269 321
#     4  11  21  34  56  84 113 142 180 230 275 319
#     4  10  20  34  55  83 114 145 180 226 276 321
#     4   9  18  33  52  77 108 140 179 224 271 324
#     4  10  20  34  56  83 112 145 183 226 271 323
#     4  10  21  38  58  80 110 148 185 223 271 330
#     4  10  19  31  53  81 107 138 179 229 275 317
#
# _framework density 10.243449
#
# number of rings (size 3 to 8) (size 9 to 14) (size 15 to 20)
#    0.000    2.000    2.500    1.500    0.000    3.500 
#    0.000    1.250    0.000    7.500    0.000    0.000 
#    0.000    0.000    0.000    0.000    0.000    0.000 
#
# Total GULP energy -396707.516583 kJ/mol
# GULP energy per Si atom -12397.109893 kJ/mol
# Density = 1.022013 g / cm^3
# Si number density = 10.243449 Si / 1000 Ang^3
#
#
#
# Elastic Constant Matrix: (Units=GPa)
#
#
# Indices 1 2 3 4 5 6 
#
# 1 16.5265 22.3907 13.1560 0.0000 2.4088 0.0000
# 2 22.3907 50.2095 73.9970 0.0000 2.3553 0.0000
# 3 13.1560 73.9970 157.3578 0.0000 -1.0765 0.0000
# 4 0.0000 0.0000 0.0000 39.6080 0.0000 -3.9610
# 5 2.4088 2.3553 -1.0765 0.0000 17.3943 0.0000
# 6 0.0000 0.0000 0.0000 -3.9610 0.0000 14.7252
#
#
#
# Elastic Compliance Matrix: (Units=1/GPa)
#
#
# Indices 1 2 3 4 5 6 
#
# 1 -0.615335 0.650389 -0.254525 0.000000 -0.018608 -0.000001
# 2 0.650389 -0.620513 0.237477 0.000000 0.008653 0.000001
# 3 -0.254525 0.237477 -0.084053 0.000000 -0.002111 0.000000
# 4 0.000000 0.000000 0.000000 0.025945 0.000000 0.006979
# 5 -0.018608 0.008653 -0.002111 0.000000 0.058765 0.000000
# 6 -0.000001 0.000001 0.000000 0.006979 0.000000 0.069788
#
#
# Mechanical properties :
#
#
# Convention : Reuss Voigt Hill
#
# Bulk Modulus (GPa) = -18.79040 49.24236 15.22598
# Shear Modulus (GPa) = -2.04096 21.98217 9.97060
#
# Velocity S-wave (km/s) = -0.99920 3.27920 2.20848
# Velocity P-wave (km/s) = 3.24392 6.19885 3.73515
#
# Compressibility (1/GPa) = -0.05321866
#
# Stress axis : x y z
#
# Youngs Moduli (GPa) = -1.62513 -1.61157 -11.89730
#
# Poissons Ratio (x) = 1.04815 -3.02816
# Poissons Ratio (y) = 1.05697 2.82534
# Poissons Ratio (z) = -0.41364 0.38271
#
# Static dielectric constant tensor:
#      x y z
#    x 3.246770 0.000000 0.034940 
#    y 0.000000 3.576730 0.000000 
#    z 0.034940 0.000000 3.770020 
# 
# 
# High freq. dielectric constant tensor:
#      x y z
#    x 1.750500 0.000000 -0.000820 
#    y 0.000000 1.790500 0.000000 
#    z -0.000820 0.000000 1.812620 
# 
# From -- ./inp_files/378270.got.cif
#   From: 2010.06.25/outbox.ucp.g09.slc.cvg/sg12_190_cif.got.tgz:378270.got - 2010.06.28 13:50:54.
