data_PCOD8116220
_publ_section_title
;
Structure prediction by ZEFSAII (Michael W. Deem and Ramdas Pophale) SiO2 
 PCOD8116220
Probable space group: C 2/M
;
_chemical_formula_sum "Si O2"
_cell_formula_units_Z 32
_cell_length_a 30.000000
_cell_length_b 9.000000
_cell_length_c 30.000000
_cell_angle_alpha 90.000000
_cell_angle_beta 30.000000
_cell_angle_gamma 90.000000
_cell_volume 4050.000000
_symmetry_space_group_name_H-M "C 2/M"
_symmetry_group_IT_number 12
_symmetry_cell_setting 'monoclinic'
loop_
_space_group_symop_operation_xyz
x,y,z
-x,y,-z
-x,-y,-z
x,-y,z
1/2+x,1/2+y,z
1/2-x,1/2+y,-z
1/2-x,1/2-y,-z
1/2+x,1/2-y,z
loop_
_atom_site_type_symbol
_atom_site_label
_atom_site_fract_x
_atom_site_fract_y
_atom_site_fract_z
Si Si1 0.859031 0.675955 0.604262
Si Si2 0.333353 0.325120 0.205485
Si Si3 0.669744 0.176892 0.887298
Si Si4 0.025811 0.828689 0.071616
Si Si5 0.346155 0.824733 0.773752
Si Si6 0.855002 0.830811 0.950476
Si Si7 0.674723 0.670045 0.122212
Si Si8 0.527438 0.175831 0.411239
O O1 0.857516 0.500000 0.605232
O O2 0.755948 0.730320 0.690566
O O3 0.904234 0.736165 0.610485
O O4 0.925074 0.734053 0.507209
O O5 0.326766 0.500000 0.199992
O O6 0.339413 0.235542 0.154650
O O7 0.420677 0.289526 0.159579
O O8 0.756264 0.244553 0.836068
O O9 0.676642 0.000000 0.881315
O O10 0.581254 0.225832 0.990221
O O11 0.057982 0.799781 0.094659
O O12 0.041977 0.000000 0.043946
O O13 0.372240 0.774405 0.800790
O O14 0.431946 0.773159 0.670866
O O15 0.329511 0.000000 0.785148
O O16 0.878370 0.807490 0.878175
O O17 0.820297 0.000000 0.988075
O O18 0.778000 0.716174 0.029715
O O19 0.671775 0.500000 0.140512
O O20 0.525587 0.000000 0.416684
#
# Coordination Sequence:
#
# PCOD8116220 Si02
#       8
#     8   8   8   8   8   8   8   8
#     4   8  13  25  44  68  90 112 145 188 227 262
#     4  10  19  32  50  68  89 120 158 191 223 261
#     4  12  23  32  43  64  95 128 158 186 219 264
#     4  10  20  33  49  67  88 121 159 191 221 261
#     4  11  19  30  48  69  92 121 153 187 229 273
#     4   9  18  32  47  64  90 121 152 187 225 269
#     4  10  19  30  46  68  91 117 150 187 231 275
#     4   8  14  24  44  68  90 113 144 185 230 269
#
# _framework density 7.9012349999999998
#
# number of rings (size 3 to 8) (size 9 to 14) (size 15 to 20)
#    0.000    2.250    2.500    3.000    0.000    2.500 
#    0.000    0.000    0.000    2.250    0.000    0.875 
#    0.000    0.000    0.000    0.000    0.000    0.000 
#
# Total GULP energy -396554.447425 kJ/mol
# GULP energy per Si atom -12392.326482 kJ/mol
# Density = 0.788325 g / cm^3
# Si number density = 7.901235 Si / 1000 Ang^3
#
#
#
# Elastic Constant Matrix: (Units=GPa)
#
#
# Indices 1 2 3 4 5 6 
#
# 1 91.7505 27.6605 64.3514 0.0017 -2.2673 0.0092
# 2 27.6605 60.2276 33.0754 0.0176 -0.2128 -0.0186
# 3 64.3514 33.0754 140.0184 0.0021 -6.4811 -0.0099
# 4 0.0017 0.0176 0.0021 7.8227 -0.0003 4.3016
# 5 -2.2673 -0.2128 -6.4811 -0.0003 21.9069 0.0010
# 6 0.0092 -0.0186 -0.0099 4.3016 0.0010 20.0351
#
#
#
# Elastic Compliance Matrix: (Units=1/GPa)
#
#
# Indices 1 2 3 4 5 6 
#
# 1 0.016890 -0.004007 -0.006830 0.000017 -0.000312 -0.000019
# 2 -0.004007 0.020059 -0.002947 -0.000061 -0.001092 0.000032
# 3 -0.006830 -0.002947 0.011095 0.000002 0.002547 0.000005
# 4 0.000017 -0.000061 0.000002 0.144945 0.000005 -0.031120
# 5 -0.000312 -0.001092 0.002547 0.000005 0.046358 -0.000003
# 6 -0.000019 0.000032 0.000005 -0.031120 -0.000003 0.056594
#
#
# Mechanical properties :
#
#
# Convention : Reuss Voigt Hill
#
# Bulk Modulus (GPa) = 48.84105 60.24124 54.54115
# Shear Modulus (GPa) = 15.13613 21.08025 18.10819
#
# Velocity S-wave (km/s) = 3.09825 3.65634 3.38880
# Velocity P-wave (km/s) = 6.61613 7.48527 7.06408
#
# Compressibility (1/GPa) = 0.02047458
#
# Stress axis : x y z
#
# Youngs Moduli (GPa) = 59.20610 49.85372 90.12893
#
# Poissons Ratio (x) = 0.19977 0.61562
# Poissons Ratio (y) = 0.23724 0.26563
# Poissons Ratio (z) = 0.40440 0.14693
#
# Static dielectric constant tensor:
#      x y z
#    x 3.095180 -0.000030 0.048080 
#    y -0.000030 2.894490 0.000050 
#    z 0.048080 0.000050 3.361710 
# 
# 
# High freq. dielectric constant tensor:
#      x y z
#    x 1.590630 0.000000 0.003050 
#    y 0.000000 1.592140 0.000000 
#    z 0.003050 0.000000 1.599150 
# 
# From -- ./inp_files/384532.got.cif
#   From: 2010.06.25/outbox.ucp.g09.slc.cvg/sg12_193_cif.got.tgz:384532.got - 2010.06.28 13:50:54.
