data_PCOD8116491
_publ_section_title
;
Structure prediction by ZEFSAII (Michael W. Deem and Ramdas Pophale) SiO2 
 PCOD8116491
Probable space group: C 2/M
;
_chemical_formula_sum "Si O2"
_cell_formula_units_Z 32
_cell_length_a 18.000000
_cell_length_b 9.000000
_cell_length_c 30.000000
_cell_angle_alpha 90.000000
_cell_angle_beta 40.000000
_cell_angle_gamma 90.000000
_cell_volume 3123.947783
_symmetry_space_group_name_H-M "C 2/M"
_symmetry_group_IT_number 12
_symmetry_cell_setting 'monoclinic'
loop_
_space_group_symop_operation_xyz
x,y,z
-x,y,-z
-x,-y,-z
x,-y,z
1/2+x,1/2+y,z
1/2-x,1/2+y,-z
1/2-x,1/2-y,-z
1/2+x,1/2-y,z
loop_
_atom_site_type_symbol
_atom_site_label
_atom_site_fract_x
_atom_site_fract_y
_atom_site_fract_z
Si Si1 0.331333 0.674934 0.696807
Si Si2 0.820346 0.672974 0.154660
Si Si3 0.050322 0.836316 0.160015
Si Si4 0.248634 0.168935 0.899136
Si Si5 0.450198 0.336711 0.943113
Si Si6 0.255131 0.827603 0.564365
Si Si7 0.082329 0.174317 0.567781
Si Si8 0.302736 0.329284 0.311379
O O1 0.329624 0.500000 0.702787
O O2 0.250594 0.748877 0.772118
O O3 0.460370 0.737618 0.640554
O O4 0.290457 0.721805 0.667065
O O5 0.814199 0.500000 0.163710
O O6 0.763267 0.718383 0.135345
O O7 0.952460 0.718608 0.091761
O O8 0.122161 0.697771 0.144572
O O9 0.076277 0.842696 0.096236
O O10 0.921088 0.795033 0.231901
O O11 0.081336 0.000000 0.166023
O O12 0.232794 0.000000 0.890974
O O13 0.162790 0.213768 0.978317
O O14 0.490567 0.500000 0.941381
O O15 0.165930 0.774007 0.568433
O O16 0.376181 0.744737 0.498376
O O17 0.195105 0.783563 0.638157
O O18 0.282260 0.000000 0.549657
O O19 0.076941 0.000000 0.563070
O O20 0.266429 0.500000 0.321713
#
# Coordination Sequence:
#
# PCOD8116491 Si02
#       8
#     8   8   8   8   8   8   8   8
#     4  10  22  38  58  83 113 150 189 233 279 330
#     4  11  23  38  59  85 114 150 193 238 284 338
#     4  10  21  38  60  84 113 151 190 232 286 340
#     4  11  24  38  57  85 115 149 190 238 287 339
#     4  10  21  40  61  82 114 151 188 234 288 342
#     4   9  19  36  59  86 113 145 185 227 273 328
#     4   9  19  37  59  82 113 149 183 225 276 327
#     4  10  21  37  60  84 113 151 187 231 281 332
#
# _framework density 10.243449
#
# number of rings (size 3 to 8) (size 9 to 14) (size 15 to 20)
#    0.000    2.000    1.250    1.500    1.750    5.500 
#    0.000    2.500    0.000    0.000    0.000    0.000 
#    0.000    0.000    0.000    0.000    0.000    0.000 
#
# Total GULP energy -396586.117358 kJ/mol
# GULP energy per Si atom -12393.316167 kJ/mol
# Density = 1.022013 g / cm^3
# Si number density = 10.243449 Si / 1000 Ang^3
#
#
#
# Elastic Constant Matrix: (Units=GPa)
#
#
# Indices 1 2 3 4 5 6 
#
# 1 57.8523 28.5510 49.0345 0.0018 -2.4888 0.0164
# 2 28.5510 15.8410 29.3635 0.0039 -6.4878 0.0079
# 3 49.0345 29.3635 77.1477 0.0008 3.4504 0.0012
# 4 0.0018 0.0039 0.0008 26.8456 -0.0003 2.0920
# 5 -2.4888 -6.4878 3.4504 -0.0003 28.2187 0.0024
# 6 0.0164 0.0079 0.0012 2.0920 0.0024 26.4643
#
#
#
# Elastic Compliance Matrix: (Units=1/GPa)
#
#
# Indices 1 2 3 4 5 6 
#
# 1 -0.275620 0.948011 -0.195374 -0.000103 0.217539 -0.000114
# 2 0.948011 -2.860164 0.514553 0.000312 -0.636891 0.000274
# 3 -0.195374 0.514553 -0.063574 -0.000057 0.108844 -0.000035
# 4 -0.000103 0.000312 -0.000057 0.037481 0.000070 -0.002963
# 5 0.217539 -0.636891 0.108844 0.000070 -0.105114 0.000054
# 6 -0.000114 0.000274 -0.000035 -0.002963 0.000054 0.038021
#
#
# Mechanical properties :
#
#
# Convention : Reuss Voigt Hill
#
# Bulk Modulus (GPa) = -1.50381 40.52656 19.51137
# Shear Modulus (GPa) = -0.83542 19.23185 9.19821
#
# Velocity S-wave (km/s) = -0.63927 3.06721 2.12121
# Velocity P-wave (km/s) = 1.13160 5.68932 3.94258
#
# Compressibility (1/GPa) = -0.66497586
#
# Stress axis : x y z
#
# Youngs Moduli (GPa) = -3.62819 -0.34963 -15.72976
#
# Poissons Ratio (x) = 0.33145 -3.07318
# Poissons Ratio (y) = 3.43957 8.09380
# Poissons Ratio (z) = -0.70885 0.17990
#
# Static dielectric constant tensor:
#      x y z
#    x 3.130370 0.000000 0.034770 
#    y 0.000000 3.556880 0.000000 
#    z 0.034770 0.000000 4.060070 
# 
# 
# High freq. dielectric constant tensor:
#      x y z
#    x 1.770460 0.000000 0.005920 
#    y 0.000000 1.778780 0.000000 
#    z 0.005920 0.000000 1.812360 
# 
# From -- ./inp_files/346170.got.cif
#   From: 2010.06.25/outbox.ucp.g09.slc.cvg/sg12_174_cif.got.tgz:346170.got - 2010.06.28 13:50:54.
