data_PCOD8116268
_publ_section_title
;
Structure prediction by ZEFSAII (Michael W. Deem and Ramdas Pophale) SiO2 
 PCOD8116268
Probable space group: C 2/M
;
_chemical_formula_sum "Si O2"
_cell_formula_units_Z 32
_cell_length_a 24.000000
_cell_length_b 9.000000
_cell_length_c 30.000000
_cell_angle_alpha 90.000000
_cell_angle_beta 30.000000
_cell_angle_gamma 90.000000
_cell_volume 3240.000000
_symmetry_space_group_name_H-M "C 2/M"
_symmetry_group_IT_number 12
_symmetry_cell_setting 'monoclinic'
loop_
_space_group_symop_operation_xyz
x,y,z
-x,y,-z
-x,-y,-z
x,-y,z
1/2+x,1/2+y,z
1/2-x,1/2+y,-z
1/2-x,1/2-y,-z
1/2+x,1/2-y,z
loop_
_atom_site_type_symbol
_atom_site_label
_atom_site_fract_x
_atom_site_fract_y
_atom_site_fract_z
Si Si1 0.656466 0.674946 0.535368
Si Si2 0.605940 0.165384 0.388950
Si Si3 0.630263 0.672449 0.127458
Si Si4 0.125348 0.174717 0.457244
Si Si5 0.038208 0.675782 0.925079
Si Si6 0.255539 0.164865 0.793571
Si Si7 0.114589 0.675050 0.049701
Si Si8 0.423444 0.673862 0.737250
O O1 0.663070 0.500000 0.538297
O O2 0.750000 0.750000 0.500000
O O3 0.677762 0.717962 0.468937
O O4 0.534750 0.731570 0.635675
O O5 0.502032 0.274175 0.454792
O O6 0.682955 0.238781 0.375359
O O7 0.656699 0.153655 0.305928
O O8 0.572620 0.000000 0.427812
O O9 0.625465 0.500000 0.118889
O O10 0.573217 0.758403 0.125659
O O11 0.564096 0.708906 0.218735
O O12 0.757963 0.723660 0.046339
O O13 0.134406 0.000000 0.443281
O O14 0.043451 0.500000 0.918948
O O15 0.159832 0.741972 0.835876
O O16 0.957984 0.737986 0.941469
O O17 0.000000 0.731469 0.000000
O O18 0.312614 0.245409 0.795960
O O19 0.215897 0.000000 0.835831
O O20 0.100427 0.500000 0.062108
O O21 0.403378 0.500000 0.743002
#
# Coordination Sequence:
#
# PCOD8116268 Si02
#       8
#     8   8   8   8   8   8   8   8
#     4  10  22  38  57  81 109 143 183 229 281 331
#     4  10  20  34  54  81 110 143 178 221 277 330
#     4   9  18  34  59  83 107 144 184 224 269 319
#     4  10  19  34  57  82 106 138 182 226 271 327
#     4  10  21  38  59  82 113 153 189 225 273 330
#     4  11  23  36  55  85 115 145 183 231 282 329
#     4   9  18  34  55  82 112 143 182 223 267 319
#     4  10  20  38  60  81 107 143 188 229 272 334
#
# _framework density 9.8765429999999999
#
# number of rings (size 3 to 8) (size 9 to 14) (size 15 to 20)
#    0.000    2.125    1.250    2.625    0.000    6.250 
#    2.250    2.500    0.000    0.000    0.000    0.000 
#    0.000    0.000    0.000    0.000    0.000    0.000 
#
# Total GULP energy -396577.274238 kJ/mol
# GULP energy per Si atom -12393.039820 kJ/mol
# Density = 0.985406 g / cm^3
# Si number density = 9.876543 Si / 1000 Ang^3
#
#
#
# Elastic Constant Matrix: (Units=GPa)
#
#
# Indices 1 2 3 4 5 6 
#
# 1 168.0037 41.9248 24.5598 0.0031 4.5797 0.0191
# 2 41.9248 19.1990 16.5816 -0.0106 9.2436 0.0261
# 3 24.5598 16.5816 27.8967 0.0090 4.6519 0.0039
# 4 0.0031 -0.0106 0.0090 29.7614 -0.0105 -2.9589
# 5 4.5797 9.2436 4.6519 -0.0105 30.5585 0.0011
# 6 0.0191 0.0261 0.0039 -2.9589 0.0011 41.0119
#
#
#
# Elastic Compliance Matrix: (Units=1/GPa)
#
#
# Indices 1 2 3 4 5 6 
#
# 1 0.018877 -0.064767 0.019580 -0.000023 0.013781 0.000029
# 2 -0.064767 0.348263 -0.137528 0.000129 -0.074703 -0.000167
# 3 0.019580 -0.137528 0.096352 -0.000065 0.023998 0.000064
# 4 -0.000023 0.000129 -0.000065 0.033843 -0.000014 0.002442
# 5 0.013781 -0.074703 0.023998 -0.000014 0.049602 0.000037
# 6 0.000029 -0.000167 0.000064 0.002442 0.000037 0.024559
#
#
# Mechanical properties :
#
#
# Convention : Reuss Voigt Hill
#
# Bulk Modulus (GPa) = 10.19761 42.35908 26.27834
# Shear Modulus (GPa) = 5.15669 29.06857 17.11263
#
# Velocity S-wave (km/s) = 1.61748 3.84030 2.94654
# Velocity P-wave (km/s) = 2.94314 6.41519 4.99083
#
# Compressibility (1/GPa) = 0.09806224
#
# Stress axis : x y z
#
# Youngs Moduli (GPa) = 52.97567 2.87139 10.37856
#
# Poissons Ratio (x) = 0.18597 -0.20321
# Poissons Ratio (y) = 3.43107 1.42734
# Poissons Ratio (z) = -1.03727 0.39490
#
# Static dielectric constant tensor:
#      x y z
#    x 4.086090 -0.000050 0.463870 
#    y -0.000050 3.677490 -0.000020 
#    z 0.463870 -0.000020 3.745470 
# 
# 
# High freq. dielectric constant tensor:
#      x y z
#    x 1.785270 -0.000010 0.022250 
#    y -0.000010 1.763710 0.000000 
#    z 0.022250 0.000000 1.744740 
# 
# From -- ./inp_files/382252.got.cif
#   From: 2010.06.25/outbox.ucp.g09.slc.cvg/sg12_192_cif.got.tgz:382252.got - 2010.06.28 13:50:54.
