data_PCOD8116947
_publ_section_title
;
Structure prediction by ZEFSAII (Michael W. Deem and Ramdas Pophale) SiO2 
 PCOD8116947
Probable space group: P 2/C
;
_chemical_formula_sum "Si O2"
_cell_formula_units_Z 26
_cell_length_a 18.851238
_cell_length_b 10.524388
_cell_length_c 15.531764
_cell_angle_alpha 90.000000
_cell_angle_beta 26.744749
_cell_angle_gamma 90.000000
_cell_volume 1386.711268
_symmetry_space_group_name_H-M "P 2/C"
_symmetry_group_IT_number 13
_symmetry_cell_setting 'monoclinic'
loop_
_space_group_symop_operation_xyz
x,y,z
-x,y,1/2-z
-x,-y,-z
x,-y,1/2+z
loop_
_atom_site_type_symbol
_atom_site_label
_atom_site_fract_x
_atom_site_fract_y
_atom_site_fract_z
Si Si1 0.173438 0.155445 0.574068
Si Si2 0.239799 0.725292 0.174227
Si Si3 0.870836 0.729649 0.021685
Si Si4 0.652424 0.605762 0.137122
Si Si5 0.000000 0.086461 0.250000
Si Si6 0.430043 0.333808 0.231380
Si Si7 0.072823 0.499266 0.260019
O O1 0.231800 0.168262 0.609201
O O2 0.292474 0.225820 0.377698
O O3 0.000000 0.218132 0.750000
O O4 0.157302 0.003182 0.576818
O O5 0.168869 0.778915 0.339835
O O6 0.134168 0.607625 0.256942
O O7 0.424838 0.692070 0.990943
O O8 0.991001 0.827072 0.845300
O O9 0.947552 0.589443 0.944759
O O10 0.710066 0.716206 0.139733
O O11 0.500000 0.650999 0.250000
O O12 0.635750 0.475720 0.211842
O O13 0.780463 0.588551 0.923800
O O14 0.500000 0.334680 0.250000
O O15 0.000000 0.555718 0.250000
#
# Coordination Sequence:
#
# PCOD8116947 Si02
#       7
#     4   4   4   4   2   4   4
#     4   9  20  36  62  73 104 150 198 223 273 324
#     4  11  20  35  57  92 111 139 184 241 270 323
#     4  11  23  35  56  84 121 143 185 225 277 338
#     4  10  17  34  58  77 115 150 180 213 282 347
#     4  10  22  40  56  76 106 158 192 224 284 320
#     4   9  17  33  57  83 109 141 183 227 275 324
#     4  10  18  34  59  84 117 152 176 212 278 348
#
# _framework density 18.749397999999999
#
# number of rings (size 3 to 8) (size 9 to 14) (size 15 to 20)
#    0.462    1.538    6.923    0.923    2.154    1.231 
#    0.000    3.077    0.000    0.000    0.000    0.000 
#    0.000    0.000    0.000    0.000    0.000    0.000 
#
# Total GULP energy -322091.810229 kJ/mol
# GULP energy per Si atom -12388.146547 kJ/mol
# Density = 1.870672 g / cm^3
# Si number density = 18.749398 Si / 1000 Ang^3
#
#
#
# Elastic Constant Matrix: (Units=GPa)
#
#
# Indices 1 2 3 4 5 6 
#
# 1 54.9297 13.5007 22.0037 0.0000 -3.0483 0.0000
# 2 13.5007 72.9771 13.9873 0.0000 -3.7451 0.0000
# 3 22.0037 13.9873 79.8446 0.0000 -4.2256 0.0000
# 4 0.0000 0.0000 0.0000 19.8431 0.0000 -2.3630
# 5 -3.0483 -3.7451 -4.2256 0.0000 37.7380 0.0000
# 6 0.0000 0.0000 0.0000 -2.3630 0.0000 13.2061
#
#
#
# Elastic Compliance Matrix: (Units=1/GPa)
#
#
# Indices 1 2 3 4 5 6 
#
# 1 0.021058 -0.002845 -0.005261 0.000000 0.000830 0.000000
# 2 -0.002845 0.014612 -0.001721 0.000000 0.001028 0.000000
# 3 -0.005261 -0.001721 0.014329 0.000000 0.001009 0.000000
# 4 0.000000 0.000000 0.000000 0.051493 0.000000 0.009214
# 5 0.000830 0.001028 0.001009 0.000000 0.026780 0.000000
# 6 0.000000 0.000000 0.000000 0.009214 0.000000 0.077371
#
#
# Mechanical properties :
#
#
# Convention : Reuss Voigt Hill
#
# Bulk Modulus (GPa) = 32.95474 34.08162 33.51818
# Shear Modulus (GPa) = 21.23937 24.70808 22.97373
#
# Velocity S-wave (km/s) = 3.36936 3.63410 3.50423
# Velocity P-wave (km/s) = 5.72288 5.98547 5.85565
#
# Compressibility (1/GPa) = 0.03034465
#
# Stress axis : x y z
#
# Youngs Moduli (GPa) = 47.48860 68.43756 69.78823
#
# Poissons Ratio (x) = 0.19469 0.36715
# Poissons Ratio (y) = 0.13509 0.12013
# Poissons Ratio (z) = 0.24983 0.11781
#
# Static dielectric constant tensor:
#      x y z
#    x 3.347420 0.000000 -0.343700 
#    y 0.000000 3.246600 0.000000 
#    z -0.343700 0.000000 3.887350 
# 
# 
# High freq. dielectric constant tensor:
#      x y z
#    x 1.699860 0.000000 -0.016510 
#    y 0.000000 1.703020 0.000000 
#    z -0.016510 0.000000 1.729430 
# 
# From -- ./inp_files/46636.got.cif
#   From: 2010.06.25/outbox.cif.g09.slc.cpg/sg13_24_cif.got.tgz:46636.got - 2010.06.28 04:50:58.
