data_PCOD8116428
_publ_section_title
;
Structure prediction by ZEFSAII (Michael W. Deem and Ramdas Pophale) SiO2 
 PCOD8116428
Probable space group: C 2/M
;
_chemical_formula_sum "Si O2"
_cell_formula_units_Z 32
_cell_length_a 18.000000
_cell_length_b 9.000000
_cell_length_c 30.000000
_cell_angle_alpha 90.000000
_cell_angle_beta 40.000000
_cell_angle_gamma 90.000000
_cell_volume 3123.947783
_symmetry_space_group_name_H-M "C 2/M"
_symmetry_group_IT_number 12
_symmetry_cell_setting 'monoclinic'
loop_
_space_group_symop_operation_xyz
x,y,z
-x,y,-z
-x,-y,-z
x,-y,z
1/2+x,1/2+y,z
1/2-x,1/2+y,-z
1/2-x,1/2-y,-z
1/2+x,1/2-y,z
loop_
_atom_site_type_symbol
_atom_site_label
_atom_site_fract_x
_atom_site_fract_y
_atom_site_fract_z
Si Si1 0.841716 0.674378 0.365793
Si Si2 0.033909 0.332482 0.781980
Si Si3 0.799702 0.677649 0.778562
Si Si4 0.419414 0.324099 0.497980
Si Si5 0.494498 0.677120 0.638261
Si Si6 0.831665 0.179494 0.999524
Si Si7 0.068696 0.329292 0.865419
Si Si8 0.682065 0.323484 0.139483
O O1 0.857977 0.500000 0.369282
O O2 0.878086 0.709558 0.298149
O O3 0.710677 0.728141 0.432638
O O4 0.915838 0.770871 0.365686
O O5 0.984013 0.500000 0.797512
O O6 0.099441 0.326181 0.798909
O O7 0.932285 0.211615 0.836650
O O8 0.797228 0.500000 0.777045
O O9 0.871693 0.743635 0.703956
O O10 0.673711 0.747848 0.840839
O O11 0.856893 0.737148 0.797690
O O12 0.500000 0.256524 0.500000
O O13 0.426597 0.500000 0.495829
O O14 0.461689 0.267897 0.430204
O O15 0.479358 0.500000 0.647391
O O16 0.959533 0.233733 0.930634
O O17 0.823285 0.000000 0.003213
O O18 0.750000 0.250000 0.000000
O O19 0.792759 0.246662 0.065271
O O20 0.055491 0.500000 0.888029
O O21 0.701512 0.500000 0.136834
#
# Coordination Sequence:
#
# PCOD8116428 Si02
#       8
#     8   8   8   8   8   8   8   8
#     4  10  20  37  63  92 124 166 209 255 313 375
#     4  10  21  37  63  94 127 165 209 261 317 379
#     4  12  26  44  64  91 129 169 211 262 325 385
#     4   9  20  37  61  92 125 164 210 258 311 373
#     4  11  22  38  63  92 123 164 212 262 312 374
#     4  12  24  41  65  95 130 171 215 261 316 376
#     4  11  24  42  65  96 129 165 212 265 323 381
#     4  12  24  41  67  95 126 164 214 268 318 377
#
# _framework density 10.243449
#
# number of rings (size 3 to 8) (size 9 to 14) (size 15 to 20)
#    0.000    1.125    2.500    4.500    1.750    1.000 
#    0.000    3.125    0.000    1.875    0.000    0.000 
#    0.000    0.000    0.000    0.000    0.000    0.000 
#
# Total GULP energy -396772.403883 kJ/mol
# GULP energy per Si atom -12399.137621 kJ/mol
# Density = 1.022013 g / cm^3
# Si number density = 10.243449 Si / 1000 Ang^3
#
#
#
# Elastic Constant Matrix: (Units=GPa)
#
#
# Indices 1 2 3 4 5 6 
#
# 1 43.5382 20.2063 21.2875 0.0001 -3.3370 0.0034
# 2 20.2063 145.0800 45.6772 0.0003 0.2383 0.0030
# 3 21.2875 45.6772 146.1234 0.0000 2.6595 0.0002
# 4 0.0001 0.0003 0.0000 37.1091 -0.0001 -2.3068
# 5 -3.3370 0.2383 2.6595 -0.0001 40.8550 -0.0001
# 6 0.0034 0.0030 0.0002 -2.3068 -0.0001 30.4647
#
#
#
# Elastic Compliance Matrix: (Units=1/GPa)
#
#
# Indices 1 2 3 4 5 6 
#
# 1 0.025837 -0.002666 -0.002973 0.000000 0.002319 -0.000003
# 2 -0.002666 0.007921 -0.002085 0.000000 -0.000128 0.000000
# 3 -0.002973 -0.002085 0.007942 0.000000 -0.000748 0.000000
# 4 0.000000 0.000000 0.000000 0.027075 0.000000 0.002050
# 5 0.002319 -0.000128 -0.000748 0.000000 0.024716 0.000000
# 6 -0.000003 0.000000 0.000000 0.002050 0.000000 0.032980
#
#
# Mechanical properties :
#
#
# Convention : Reuss Voigt Hill
#
# Bulk Modulus (GPa) = 38.09334 56.56484 47.32909
# Shear Modulus (GPa) = 33.18516 38.19048 35.68782
#
# Velocity S-wave (km/s) = 4.02907 4.32225 4.17823
# Velocity P-wave (km/s) = 6.34657 7.25116 6.81389
#
# Compressibility (1/GPa) = 0.02625130
#
# Stress axis : x y z
#
# Youngs Moduli (GPa) = 38.70410 126.24919 125.91238
#
# Poissons Ratio (x) = 0.33663 0.37430
# Poissons Ratio (y) = 0.10320 0.26256
# Poissons Ratio (z) = 0.11506 0.26326
#
# Static dielectric constant tensor:
#      x y z
#    x 3.853650 0.000000 0.074580 
#    y 0.000000 3.732070 0.000000 
#    z 0.074580 0.000000 4.063790 
# 
# 
# High freq. dielectric constant tensor:
#      x y z
#    x 1.796200 0.000000 0.006970 
#    y 0.000000 1.801290 0.000000 
#    z 0.006970 0.000000 1.825560 
# 
# From -- ./inp_files/378232.got.cif
#   From: 2010.06.25/outbox.ucp.g09.slc.cvg/sg12_190_cif.got.tgz:378232.got - 2010.06.28 13:50:54.
