data_PCOD8116407
_publ_section_title
;
Structure prediction by ZEFSAII (Michael W. Deem and Ramdas Pophale) SiO2 
 PCOD8116407
Probable space group: C 2/M
;
_chemical_formula_sum "Si O2"
_cell_formula_units_Z 32
_cell_length_a 24.000000
_cell_length_b 9.000000
_cell_length_c 30.000000
_cell_angle_alpha 90.000000
_cell_angle_beta 30.000000
_cell_angle_gamma 90.000000
_cell_volume 3240.000000
_symmetry_space_group_name_H-M "C 2/M"
_symmetry_group_IT_number 12
_symmetry_cell_setting 'monoclinic'
loop_
_space_group_symop_operation_xyz
x,y,z
-x,y,-z
-x,-y,-z
x,-y,z
1/2+x,1/2+y,z
1/2-x,1/2+y,-z
1/2-x,1/2-y,-z
1/2+x,1/2-y,z
loop_
_atom_site_type_symbol
_atom_site_label
_atom_site_fract_x
_atom_site_fract_y
_atom_site_fract_z
Si Si1 0.478335 0.825802 0.566453
Si Si2 0.254120 0.322618 0.759737
Si Si3 0.129948 0.676487 0.081922
Si Si4 0.694182 0.172662 0.897758
Si Si5 0.590795 0.674287 0.196170
Si Si6 0.111023 0.673073 0.623217
Si Si7 0.336087 0.328488 0.503826
Si Si8 0.007792 0.676266 0.907375
O O1 0.500000 0.790768 0.500000
O O2 0.362088 0.750726 0.662175
O O3 0.588638 0.764659 0.514399
O O4 0.468208 0.000000 0.583132
O O5 0.269970 0.500000 0.745612
O O6 0.243276 0.261042 0.817892
O O7 0.136447 0.269421 0.819060
O O8 0.144499 0.500000 0.072091
O O9 0.064823 0.737241 0.169348
O O10 0.053129 0.731826 0.094774
O O11 0.250000 0.750000 0.000000
O O12 0.781720 0.200281 0.876898
O O13 0.679157 0.000000 0.898612
O O14 0.571941 0.236103 0.996748
O O15 0.564623 0.500000 0.209521
O O16 0.508200 0.753283 0.286938
O O17 0.096893 0.500000 0.620124
O O18 0.200161 0.687903 0.603006
O O19 0.149777 0.770258 0.555258
O O20 0.372673 0.500000 0.482910
O O21 0.008189 0.500000 0.909408
#
# Coordination Sequence:
#
# PCOD8116407 Si02
#       8
#     8   8   8   8   8   8   8   8
#     4  11  25  43  61  82 116 158 197 246 306 360
#     4  10  20  36  63  90 110 143 192 246 296 347
#     4  11  21  36  55  78 112 153 195 237 287 343
#     4   9  17  32  56  86 116 146 187 234 283 339
#     4  11  21  34  55  84 118 156 198 238 281 345
#     4  10  21  37  59  90 123 152 189 243 299 351
#     4  10  21  39  63  88 116 152 195 242 294 356
#     4   9  18  34  57  85 116 149 191 240 288 346
#
# _framework density 9.8765429999999999
#
# number of rings (size 3 to 8) (size 9 to 14) (size 15 to 20)
#    0.000    1.875    1.250    3.000    0.000    6.000 
#    0.000    5.625    0.000    0.750    0.000    0.000 
#    0.000    0.000    0.000    0.000    0.000    0.000 
#
# Total GULP energy -396440.002442 kJ/mol
# GULP energy per Si atom -12388.750076 kJ/mol
# Density = 0.985406 g / cm^3
# Si number density = 9.876543 Si / 1000 Ang^3
#
#
#
# Elastic Constant Matrix: (Units=GPa)
#
#
# Indices 1 2 3 4 5 6 
#
# 1 125.8034 42.3452 30.2869 -0.0224 -7.0144 0.0210
# 2 42.3452 81.0674 22.2428 -0.0330 -5.9590 0.0326
# 3 30.2869 22.2428 72.2205 -0.0095 -5.9058 0.0124
# 4 -0.0224 -0.0330 -0.0095 31.6930 0.0001 -0.4634
# 5 -7.0144 -5.9590 -5.9058 0.0001 31.7926 -0.0054
# 6 0.0210 0.0326 0.0124 -0.4634 -0.0054 28.7336
#
#
#
# Elastic Compliance Matrix: (Units=1/GPa)
#
#
# Indices 1 2 3 4 5 6 
#
# 1 0.010185 -0.004482 -0.002819 0.000002 0.000884 -0.000001
# 2 -0.004482 0.015546 -0.002793 0.000012 0.001406 -0.000013
# 3 -0.002819 -0.002793 0.016039 0.000000 0.001834 -0.000001
# 4 0.000002 0.000012 0.000000 0.031560 0.000003 0.000509
# 5 0.000884 0.001406 0.001834 0.000003 0.032253 0.000003
# 6 -0.000001 -0.000013 -0.000001 0.000509 0.000003 0.034811
#
#
# Mechanical properties :
#
#
# Convention : Reuss Voigt Hill
#
# Bulk Modulus (GPa) = 46.33441 52.09348 49.21395
# Shear Modulus (GPa) = 29.80144 30.72492 30.26318
#
# Velocity S-wave (km/s) = 3.88841 3.94820 3.91842
# Velocity P-wave (km/s) = 6.60813 6.87124 6.74097
#
# Compressibility (1/GPa) = 0.02158223
#
# Stress axis : x y z
#
# Youngs Moduli (GPa) = 98.17965 64.32370 62.34833
#
# Poissons Ratio (x) = 0.28830 0.17575
# Poissons Ratio (y) = 0.44004 0.17417
# Poissons Ratio (z) = 0.27675 0.17969
#
# Static dielectric constant tensor:
#      x y z
#    x 3.898480 -0.000130 -0.271540 
#    y -0.000130 3.535810 -0.000340 
#    z -0.271540 -0.000340 3.899830 
# 
# 
# High freq. dielectric constant tensor:
#      x y z
#    x 1.777580 0.000000 -0.016440 
#    y 0.000000 1.750770 0.000000 
#    z -0.016440 0.000000 1.784440 
# 
# From -- ./inp_files/382369.got.cif
#   From: 2010.06.25/outbox.ucp.g09.slc.cvg/sg12_192_cif.got.tgz:382369.got - 2010.06.28 13:50:54.
