data_PCOD8116414
_publ_section_title
;
Structure prediction by ZEFSAII (Michael W. Deem and Ramdas Pophale) SiO2 
 PCOD8116414
Probable space group: C 2/M
;
_chemical_formula_sum "Si O2"
_cell_formula_units_Z 32
_cell_length_a 24.000000
_cell_length_b 9.000000
_cell_length_c 30.000000
_cell_angle_alpha 90.000000
_cell_angle_beta 30.000000
_cell_angle_gamma 90.000000
_cell_volume 3240.000000
_symmetry_space_group_name_H-M "C 2/M"
_symmetry_group_IT_number 12
_symmetry_cell_setting 'monoclinic'
loop_
_space_group_symop_operation_xyz
x,y,z
-x,y,-z
-x,-y,-z
x,-y,z
1/2+x,1/2+y,z
1/2-x,1/2+y,-z
1/2-x,1/2-y,-z
1/2+x,1/2-y,z
loop_
_atom_site_type_symbol
_atom_site_label
_atom_site_fract_x
_atom_site_fract_y
_atom_site_fract_z
Si Si1 0.557780 0.174279 0.507361
Si Si2 0.818089 0.678432 0.823512
Si Si3 0.495590 0.677756 0.768353
Si Si4 0.407889 0.163150 0.996094
Si Si5 0.637909 0.163155 0.072974
Si Si6 0.699582 0.821595 0.664468
Si Si7 0.143903 0.675444 0.803464
Si Si8 0.369095 0.321771 0.695904
O O1 0.500000 0.195886 0.500000
O O2 0.677318 0.254234 0.425886
O O3 0.479023 0.257076 0.596909
O O4 0.571231 0.000000 0.509888
O O5 0.822055 0.500000 0.820449
O O6 0.901721 0.743773 0.802799
O O7 0.867643 0.747795 0.744853
O O8 0.688110 0.728711 0.918259
O O9 0.497737 0.500000 0.759191
O O10 0.457835 0.725923 0.843784
O O11 0.621061 0.747535 0.679877
O O12 0.381811 0.127928 0.963864
O O13 0.534151 0.235172 0.907334
O O14 0.404819 0.000000 0.023064
O O15 0.640194 0.000000 0.096007
O O16 0.750000 0.250000 0.000000
O O17 0.650982 0.776213 0.746775
O O18 0.703396 0.000000 0.655706
O O19 0.134776 0.500000 0.811911
O O20 0.257117 0.731208 0.748278
O O21 0.377559 0.500000 0.692887
#
# Coordination Sequence:
#
# PCOD8116414 Si02
#       8
#     8   8   8   8   8   8   8   8
#     4  11  23  40  65 100 134 163 200 255 315 372
#     4  12  26  43  61  86 124 172 217 261 311 376
#     4  12  24  39  60  90 127 167 210 261 316 374
#     4  10  20  37  59  88 124 165 211 258 307 368
#     4  11  20  32  55  85 120 160 207 259 308 363
#     4  11  21  39  65  98 130 162 205 257 317 376
#     4   9  19  36  62  93 125 160 205 256 308 367
#     4  11  23  43  68  92 121 166 214 259 311 376
#
# _framework density 9.8765429999999999
#
# number of rings (size 3 to 8) (size 9 to 14) (size 15 to 20)
#    0.000    1.125    3.750    3.750    0.000    1.500 
#    0.000    4.375    0.000    0.000    0.000    0.000 
#    0.000    0.000    0.000    0.000    0.000    0.000 
#
# Total GULP energy -396450.948267 kJ/mol
# GULP energy per Si atom -12389.092133 kJ/mol
# Density = 0.985406 g / cm^3
# Si number density = 9.876543 Si / 1000 Ang^3
#
#
#
# Elastic Constant Matrix: (Units=GPa)
#
#
# Indices 1 2 3 4 5 6 
#
# 1 53.9806 35.1373 43.6242 -0.0175 -15.4340 0.0301
# 2 35.1373 157.3181 64.4998 -0.0332 -9.8414 0.0768
# 3 43.6242 64.4998 158.5179 -0.0022 -22.9761 0.0175
# 4 -0.0175 -0.0332 -0.0022 38.9411 0.0011 -3.3855
# 5 -15.4340 -9.8414 -22.9761 0.0011 42.7714 -0.0114
# 6 0.0301 0.0768 0.0175 -3.3855 -0.0114 27.7332
#
#
#
# Elastic Compliance Matrix: (Units=1/GPa)
#
#
# Indices 1 2 3 4 5 6 
#
# 1 0.026600 -0.003506 -0.005010 0.000007 0.006101 -0.000013
# 2 -0.003506 0.008092 -0.002430 0.000004 -0.000709 -0.000017
# 3 -0.005010 -0.002430 0.009037 -0.000003 0.002487 0.000007
# 4 0.000007 0.000004 -0.000003 0.025955 0.000002 0.003168
# 5 0.006101 -0.000709 0.002487 0.000002 0.026755 0.000005
# 6 -0.000013 -0.000017 0.000007 0.003168 0.000005 0.036445
#
#
# Mechanical properties :
#
#
# Convention : Reuss Voigt Hill
#
# Bulk Modulus (GPa) = 45.79420 72.92656 59.36038
# Shear Modulus (GPa) = 30.85413 36.99283 33.92348
#
# Velocity S-wave (km/s) = 3.95649 4.33224 4.14862
# Velocity P-wave (km/s) = 6.64119 7.87551 7.28454
#
# Compressibility (1/GPa) = 0.02183683
#
# Stress axis : x y z
#
# Youngs Moduli (GPa) = 37.59422 123.58408 110.66186
#
# Poissons Ratio (x) = 0.43323 0.55438
# Poissons Ratio (y) = 0.13179 0.26896
# Poissons Ratio (z) = 0.18833 0.30036
#
# Static dielectric constant tensor:
#      x y z
#    x 3.499340 -0.000040 -0.048440 
#    y -0.000040 3.755920 0.000030 
#    z -0.048440 0.000030 3.765820 
# 
# 
# High freq. dielectric constant tensor:
#      x y z
#    x 1.770880 0.000000 -0.022930 
#    y 0.000000 1.779230 0.000000 
#    z -0.022930 0.000000 1.785470 
# 
# From -- ./inp_files/382241.got.cif
#   From: 2010.06.25/outbox.ucp.g09.slc.cvg/sg12_192_cif.got.tgz:382241.got - 2010.06.28 13:50:54.
