data_PCOD8116609
_publ_section_title
;
Structure prediction by ZEFSAII (Michael W. Deem and Ramdas Pophale) SiO2 
 PCOD8116609
Probable space group: C 2/M
;
_chemical_formula_sum "Si O2"
_cell_formula_units_Z 24
_cell_length_a 18.000000
_cell_length_b 9.000000
_cell_length_c 21.000000
_cell_angle_alpha 90.000000
_cell_angle_beta 130.000000
_cell_angle_gamma 90.000000
_cell_volume 2606.083195
_symmetry_space_group_name_H-M "C 2/M"
_symmetry_group_IT_number 12
_symmetry_cell_setting 'monoclinic'
loop_
_space_group_symop_operation_xyz
x,y,z
-x,y,-z
-x,-y,-z
x,-y,z
1/2+x,1/2+y,z
1/2-x,1/2+y,-z
1/2-x,1/2-y,-z
1/2+x,1/2-y,z
loop_
_atom_site_type_symbol
_atom_site_label
_atom_site_fract_x
_atom_site_fract_y
_atom_site_fract_z
Si Si1 0.272621 0.668753 0.696454
Si Si2 0.602391 0.675190 0.526312
Si Si3 0.459406 0.834231 0.770664
Si Si4 0.529497 0.167249 0.371255
Si Si5 0.819067 0.674025 0.089137
Si Si6 0.324085 0.170149 0.230103
O O1 0.260351 0.500000 0.666708
O O2 0.195857 0.764555 0.614774
O O3 0.383109 0.717660 0.754399
O O4 0.259359 0.685616 0.764774
O O5 0.500000 0.729227 0.500000
O O6 0.611555 0.500000 0.531242
O O7 0.602934 0.734400 0.453984
O O8 0.440070 0.831154 0.684929
O O9 0.566549 0.785920 0.853535
O O10 0.437828 0.000000 0.784361
O O11 0.421725 0.241760 0.313996
O O12 0.530983 0.000000 0.400231
O O13 0.801690 0.500000 0.071723
O O14 0.788660 0.735282 0.142761
O O15 0.750000 0.750000 0.000000
O O16 0.355323 0.000000 0.232080
#
# Coordination Sequence:
#
# PCOD8116609 Si02
#       6
#     8   8   8   8   8   8
#     4  11  21  34  55  78 104 141 180 218 258 308
#     4  11  22  33  49  77 110 139 174 223 267 303
#     4   9  20  37  55  77 109 140 169 216 271 308
#     4   9  17  34  56  73  97 141 186 219 252 304
#     4   9  18  36  60  82 104 133 170 213 259 314
#     4   8  16  32  54  77 101 134 176 215 255 303
#
# _framework density 9.2092229999999997
#
# number of rings (size 3 to 8) (size 9 to 14) (size 15 to 20)
#    0.000    2.500    1.667    3.000    0.000    2.667 
#    0.000    5.000    0.000    5.000    0.000    0.000 
#    0.000    0.000    0.000    0.000    0.000    0.000 
#
# Total GULP energy -297379.131860 kJ/mol
# GULP energy per Si atom -12390.797161 kJ/mol
# Density = 0.918826 g / cm^3
# Si number density = 9.209223 Si / 1000 Ang^3
#
#
#
# Elastic Constant Matrix: (Units=GPa)
#
#
# Indices 1 2 3 4 5 6 
#
# 1 77.7172 41.6703 49.1780 0.0000 9.3009 0.0000
# 2 41.6703 71.0214 55.6135 0.0000 4.6216 0.0000
# 3 49.1780 55.6135 161.1197 0.0000 5.4161 0.0000
# 4 0.0000 0.0000 0.0000 33.9479 0.0000 4.4149
# 5 9.3009 4.6216 5.4161 0.0000 19.1522 0.0000
# 6 0.0000 0.0000 0.0000 4.4149 0.0000 23.8872
#
#
#
# Elastic Compliance Matrix: (Units=1/GPa)
#
#
# Indices 1 2 3 4 5 6 
#
# 1 0.020489 -0.009397 -0.002778 0.000000 -0.006897 0.000000
# 2 -0.009397 0.023755 -0.005343 0.000000 0.000342 0.000000
# 3 -0.002778 -0.005343 0.008895 0.000000 0.000123 0.000000
# 4 0.000000 0.000000 0.000000 0.030182 0.000000 -0.005578
# 5 -0.006897 0.000342 0.000123 0.000000 0.055445 0.000000
# 6 0.000000 0.000000 0.000000 -0.005578 0.000000 0.042894
#
#
# Mechanical properties :
#
#
# Convention : Reuss Voigt Hill
#
# Bulk Modulus (GPa) = 55.24138 66.97576 61.10857
# Shear Modulus (GPa) = 22.44847 26.29054 24.36951
#
# Velocity S-wave (km/s) = 3.49492 3.78220 3.64139
# Velocity P-wave (km/s) = 6.80761 7.45089 7.13650
#
# Compressibility (1/GPa) = 0.01810237
#
# Stress axis : x y z
#
# Youngs Moduli (GPa) = 48.80603 42.09579 112.42720
#
# Poissons Ratio (x) = 0.39558 0.31237
# Poissons Ratio (y) = 0.45864 0.60068
# Poissons Ratio (z) = 0.13560 0.22491
#
# Static dielectric constant tensor:
#      x y z
#    x 3.312610 0.000000 -0.069120 
#    y 0.000000 3.201480 0.000000 
#    z -0.069120 0.000000 3.377690 
# 
# 
# High freq. dielectric constant tensor:
#      x y z
#    x 1.698020 0.000000 -0.000410 
#    y 0.000000 1.694880 0.000000 
#    z -0.000410 0.000000 1.716220 
# 
# From -- ./inp_files/230433.got.cif
#   From: 2010.06.25/outbox.ucp.g09.slc.cvg/sg12_116_cif.got.tgz:230433.got - 2010.06.28 13:50:54.
