data_PCOD8116206
_publ_section_title
;
Structure prediction by ZEFSAII (Michael W. Deem and Ramdas Pophale) SiO2 
 PCOD8116206
Probable space group: C 2/M
;
_chemical_formula_sum "Si O2"
_cell_formula_units_Z 32
_cell_length_a 21.000000
_cell_length_b 27.000000
_cell_length_c 18.000000
_cell_angle_alpha 90.000000
_cell_angle_beta 20.000000
_cell_angle_gamma 90.000000
_cell_volume 3490.657583
_symmetry_space_group_name_H-M "C 2/M"
_symmetry_group_IT_number 12
_symmetry_cell_setting 'monoclinic'
loop_
_space_group_symop_operation_xyz
x,y,z
-x,y,-z
-x,-y,-z
x,-y,z
1/2+x,1/2+y,z
1/2-x,1/2+y,-z
1/2-x,1/2-y,-z
1/2+x,1/2-y,z
loop_
_atom_site_type_symbol
_atom_site_label
_atom_site_fract_x
_atom_site_fract_y
_atom_site_fract_z
Si Si1 0.104031 0.390287 0.993145
Si Si2 0.060352 0.195416 0.597573
Si Si3 0.056223 0.185151 0.852066
Si Si4 0.020172 0.698487 0.645364
Si Si5 0.340208 0.359491 0.962145
Si Si6 0.526959 0.788515 0.810136
Si Si7 0.700827 0.601359 0.373961
Si Si8 0.858053 0.057459 0.828467
O O1 0.243546 0.404544 0.773023
O O2 0.180775 0.419905 0.979434
O O3 0.100063 0.331187 0.012266
O O4 0.890189 0.405906 0.213482
O O5 0.993962 0.247644 0.633561
O O6 0.254060 0.201934 0.427803
O O7 0.097669 0.154513 0.493510
O O8 0.911112 0.177937 0.821283
O O9 0.276987 0.177795 0.598537
O O10 0.980834 0.237887 0.904161
O O11 0.958033 0.142970 0.909298
O O12 0.000000 0.178976 0.000000
O O13 0.985077 0.713040 0.769372
O O14 0.871127 0.656829 0.785258
O O15 0.361829 0.414743 0.904255
O O16 0.550414 0.562181 0.570142
O O17 0.821715 0.000000 0.883779
#
# Coordination Sequence:
#
# PCOD8116206 Si02
#       8
#     8   8   8   8   8   8   8   8
#     4  10  20  36  55  83 120 159 192 226 275 331
#     4   9  17  31  52  81 113 152 191 219 261 323
#     4  11  24  36  55  87 123 151 181 230 279 337
#     4  11  19  34  58  81 113 155 189 225 267 338
#     4  11  21  37  58  78 109 151 191 235 289 331
#     4  10  18  33  56  81 115 157 188 216 263 333
#     4   9  21  34  55  81 121 158 186 227 276 337
#     4  11  24  40  59  82 107 145 201 253 292 332
#
# _framework density 9.1673270000000002
#
# number of rings (size 3 to 8) (size 9 to 14) (size 15 to 20)
#    0.000    1.750    3.750    1.500    5.250    2.000 
#    0.000    1.250    0.000    0.375    0.000    0.875 
#    0.000    0.000    0.000    0.000    0.000    0.000 
#
# Total GULP energy -396632.151410 kJ/mol
# GULP energy per Si atom -12394.754732 kJ/mol
# Density = 0.914646 g / cm^3
# Si number density = 9.167327 Si / 1000 Ang^3
#
#
#
# Elastic Constant Matrix: (Units=GPa)
#
#
# Indices 1 2 3 4 5 6 
#
# 1 87.8558 39.0365 37.6500 -0.1172 8.3933 0.0390
# 2 39.0365 107.5564 37.6381 -0.2055 -4.0978 0.0942
# 3 37.6500 37.6381 105.6143 -0.3190 3.6982 0.1994
# 4 -0.1172 -0.2055 -0.3190 22.7172 0.1019 0.8951
# 5 8.3933 -4.0978 3.6982 0.1019 16.8671 -0.0290
# 6 0.0390 0.0942 0.1994 0.8951 -0.0290 15.8683
#
#
#
# Elastic Compliance Matrix: (Units=1/GPa)
#
#
# Indices 1 2 3 4 5 6 
#
# 1 0.015870 -0.004794 -0.003660 0.000023 -0.008259 0.000019
# 2 -0.004794 0.012272 -0.002874 0.000020 0.005997 -0.000015
# 3 -0.003660 -0.002874 0.011850 0.000133 -0.001476 -0.000133
# 4 0.000023 0.000020 0.000133 0.044121 -0.000307 -0.002491
# 5 -0.008259 0.005997 -0.001476 -0.000307 0.065180 0.000140
# 6 0.000019 -0.000015 -0.000133 -0.002491 0.000140 0.063161
#
#
# Mechanical properties :
#
#
# Convention : Reuss Voigt Hill
#
# Bulk Modulus (GPa) = 57.68480 58.85286 58.26883
# Shear Modulus (GPa) = 20.75660 23.53730 22.14695
#
# Velocity S-wave (km/s) = 3.36831 3.58685 3.47930
# Velocity P-wave (km/s) = 6.83066 7.02303 6.92751
#
# Compressibility (1/GPa) = 0.01733559
#
# Stress axis : x y z
#
# Youngs Moduli (GPa) = 63.01321 81.48880 84.39012
#
# Poissons Ratio (x) = 0.39063 0.30885
# Poissons Ratio (y) = 0.30207 0.24256
# Poissons Ratio (z) = 0.23061 0.23422
#
# Static dielectric constant tensor:
#      x y z
#    x 3.348030 -0.000370 -0.074510 
#    y -0.000370 3.251700 0.001760 
#    z -0.074510 0.001760 3.611920 
# 
# 
# High freq. dielectric constant tensor:
#      x y z
#    x 1.696160 -0.000040 -0.012870 
#    y -0.000040 1.677200 0.000110 
#    z -0.012870 0.000110 1.731660 
# 
# From -- ./inp_files/286684.got.cif
#   From: 2010.06.25/outbox.ucp.g09.slc.cvg/sg12_144_cif.got.tgz:286684.got - 2010.06.28 13:50:54.
