data_PCOD8116126
_publ_section_title
;
Structure prediction by ZEFSAII (Michael W. Deem and Ramdas Pophale) SiO2 
 PCOD8116126
Probable space group: C 2/M
;
_chemical_formula_sum "Si O2"
_cell_formula_units_Z 48
_cell_length_a 24.793667
_cell_length_b 7.696513
_cell_length_c 15.625719
_cell_angle_alpha 90.000000
_cell_angle_beta 106.670060
_cell_angle_gamma 90.000000
_cell_volume 2856.457947
_symmetry_space_group_name_H-M "C 2/M"
_symmetry_group_IT_number 12
_symmetry_cell_setting 'monoclinic'
loop_
_space_group_symop_operation_xyz
x,y,z
-x,y,-z
-x,-y,-z
x,-y,z
1/2+x,1/2+y,z
1/2-x,1/2+y,-z
1/2-x,1/2-y,-z
1/2+x,1/2-y,z
loop_
_atom_site_type_symbol
_atom_site_label
_atom_site_fract_x
_atom_site_fract_y
_atom_site_fract_z
Si Si1 0.409975 0.500000 0.934052
Si Si2 0.477943 0.500000 0.125178
Si Si3 0.831940 0.702782 0.489570
Si Si4 0.022280 0.697846 0.249209
Si Si5 0.955897 0.294203 0.547415
Si Si6 0.133777 0.301383 0.190463
Si Si7 0.222738 0.703949 0.364109
O O1 0.468053 0.500000 0.910230
O O2 0.375706 0.674585 0.894382
O O3 0.421812 0.500000 0.041175
O O4 0.478227 0.325656 0.182595
O O5 0.839826 0.500000 0.507163
O O6 0.893595 0.782705 0.498502
O O7 0.806595 0.788123 0.564971
O O8 0.788561 0.740826 0.391790
O O9 0.000041 0.500000 0.230155
O O10 0.025906 0.758107 0.348891
O O11 0.084071 0.714833 0.236945
O O12 0.955175 0.500000 0.537587
O O13 0.000000 0.212198 0.500000
O O14 0.138436 0.500000 0.158990
O O15 0.190765 0.235979 0.263586
O O16 0.216692 0.500000 0.367797
#
# Coordination Sequence:
#
# PCOD8116126 Si02
#       7
#     4   4   8   8   8   8   8
#     4   9  18  28  42  64  88 114 147 182 228 269
#     4   9  18  30  41  64  88 112 151 188 216 274
#     4   9  16  26  40  60  83 114 153 181 212 257
#     4   9  16  29  45  60  85 121 151 181 220 262
#     4   9  16  28  45  63  87 121 156 187 217 258
#     4   9  16  27  43  61  88 119 147 178 219 272
#     4   9  16  26  38  59  87 115 148 180 213 261
#
# _framework density 16.804027999999999
#
# number of rings (size 3 to 8) (size 9 to 14) (size 15 to 20)
#    0.000    3.000    1.667    0.000    1.167    0.667 
#    1.500    3.750    0.000    0.000    0.000    0.000 
#    0.000    1.333    0.667    0.000    0.000    0.000 
#
# Total GULP energy -297439.202376 kJ/mol
# GULP energy per Si atom -12393.300099 kJ/mol
# Density = 1.676578 g / cm^3
# Si number density = 16.804028 Si / 1000 Ang^3
#
#
#
# Elastic Constant Matrix: (Units=GPa)
#
#
# Indices 1 2 3 4 5 6 
#
# 1 71.0144 18.1435 62.1260 0.0000 23.9944 0.0000
# 2 18.1435 68.5430 54.4359 0.0000 16.7000 0.0000
# 3 62.1260 54.4359 127.1595 0.0000 29.4817 0.0000
# 4 0.0000 0.0000 0.0000 24.3585 0.0000 7.4862
# 5 23.9944 16.7000 29.4817 0.0000 18.9504 0.0000
# 6 0.0000 0.0000 0.0000 7.4862 0.0000 10.7577
#
#
#
# Elastic Compliance Matrix: (Units=1/GPa)
#
#
# Indices 1 2 3 4 5 6 
#
# 1 0.033379 0.008889 -0.013293 0.000000 -0.029416 0.000000
# 2 0.008889 0.025164 -0.011519 0.000000 -0.015509 0.000000
# 3 -0.013293 -0.011519 0.020388 0.000000 -0.004736 0.000000
# 4 0.000000 0.000000 0.000000 0.052222 0.000000 -0.036341
# 5 -0.029416 -0.015509 -0.004736 0.000000 0.111050 0.000000
# 6 0.000000 0.000000 0.000000 -0.036341 0.000000 0.118246
#
#
# Mechanical properties :
#
#
# Convention : Reuss Voigt Hill
#
# Bulk Modulus (GPa) = 21.23893 59.56973 40.40433
# Shear Modulus (GPa) = 12.25518 19.61410 15.93464
#
# Velocity S-wave (km/s) = 2.70349 3.42018 3.08273
# Velocity P-wave (km/s) = 4.73410 7.15007 6.06363
#
# Compressibility (1/GPa) = 0.04708336
#
# Stress axis : x y z
#
# Youngs Moduli (GPa) = 29.95894 39.73982 49.04874
#
# Poissons Ratio (x) = -0.35323 0.65200
# Poissons Ratio (y) = -0.26629 0.56501
# Poissons Ratio (z) = 0.39824 0.45778
#
# Static dielectric constant tensor:
#      x y z
#    x 3.099140 0.000000 0.272730 
#    y 0.000000 3.093150 0.000000 
#    z 0.272730 0.000000 3.209460 
# 
# 
# High freq. dielectric constant tensor:
#      x y z
#    x 1.601010 0.000000 0.032540 
#    y 0.000000 1.646110 0.000000 
#    z 0.032540 0.000000 1.627790 
# 
# From -- ./inp_files/236881.got.cif
#   From: 2010.06.25/outbox.cif.g09.slc.cpg/sg12_119_cif.got.tgz:236881.got - 2010.06.28 00:19:55.
