data_PCOD8116888
_publ_section_title
;
Structure prediction by ZEFSAII (Michael W. Deem and Ramdas Pophale) SiO2 
 PCOD8116888
Probable space group: P 2/C
;
_chemical_formula_sum "Si O2"
_cell_formula_units_Z 32
_cell_length_a 19.816288
_cell_length_b 9.040178
_cell_length_c 20.706621
_cell_angle_alpha 90.000000
_cell_angle_beta 29.774993
_cell_angle_gamma 90.000000
_cell_volume 1842.090726
_symmetry_space_group_name_H-M "P 2/C"
_symmetry_group_IT_number 13
_symmetry_cell_setting 'monoclinic'
loop_
_space_group_symop_operation_xyz
x,y,z
-x,y,1/2-z
-x,-y,-z
x,-y,1/2+z
loop_
_atom_site_type_symbol
_atom_site_label
_atom_site_fract_x
_atom_site_fract_y
_atom_site_fract_z
Si Si1 0.709642 0.213885 0.905618
Si Si2 0.747859 0.157630 0.075607
Si Si3 0.197892 0.054883 0.789498
Si Si4 0.152009 0.609433 0.107063
Si Si5 0.066563 0.912591 0.531694
Si Si6 0.130574 0.732823 0.600812
Si Si7 0.431511 0.898536 0.660647
Si Si8 0.336619 0.031214 0.965737
O O1 0.777796 0.193132 0.778924
O O2 0.759856 0.361434 0.900934
O O3 0.544008 0.214547 0.038080
O O4 0.756710 0.072532 0.910041
O O5 0.661700 0.193641 0.211569
O O6 0.653905 0.050746 0.110767
O O7 0.788694 0.305899 0.004297
O O8 0.884426 0.069784 0.980805
O O9 0.339945 0.967557 0.680162
O O10 0.145823 0.124765 0.899638
O O11 0.093199 0.932316 0.849067
O O12 0.158939 0.439585 0.081758
O O13 0.000000 0.661014 0.250000
O O14 0.099085 0.778686 0.553239
O O15 0.000000 0.781945 0.750000
O O16 0.265857 0.810131 0.517002
O O17 0.510937 0.035802 0.630757
#
# Coordination Sequence:
#
# PCOD8116888 Si02
#       8
#     4   4   4   4   4   4   4   4
#     4   9  18  30  51  75 102 132 176 207 263 307
#     4   9  16  32  52  74 106 125 177 223 265 303
#     4  10  17  31  51  80 107 133 175 217 253 316
#     4  10  20  31  53  78 103 135 169 222 269 304
#     4   9  19  30  54  79 101 136 172 218 269 307
#     4  10  19  34  51  78 107 133 175 223 269 306
#     4   9  18  29  52  75 102 137 168 216 257 310
#     4   8  17  28  51  74 100 131 172 216 272 299
#
# _framework density 17.371565
#
# number of rings (size 3 to 8) (size 9 to 14) (size 15 to 20)
#    0.750    2.000    0.000    2.250    0.000    3.500 
#    0.000    0.000   16.500   22.500    0.000    0.000 
#    0.000    0.000    0.000    0.000    0.000    0.000 
#
# Total GULP energy -396522.349980 kJ/mol
# GULP energy per Si atom -12391.323437 kJ/mol
# Density = 1.733203 g / cm^3
# Si number density = 17.371565 Si / 1000 Ang^3
#
#
#
# Elastic Constant Matrix: (Units=GPa)
#
#
# Indices 1 2 3 4 5 6 
#
# 1 102.4108 35.7828 35.7897 0.0000 -9.7291 0.0000
# 2 35.7828 72.9423 36.0107 0.0000 0.0193 0.0000
# 3 35.7897 36.0107 78.3160 0.0000 -0.7347 0.0000
# 4 0.0000 0.0000 0.0000 19.0060 0.0000 1.3288
# 5 -9.7291 0.0193 -0.7347 0.0000 38.5166 0.0000
# 6 0.0000 0.0000 0.0000 1.3288 0.0000 22.6468
#
#
#
# Elastic Compliance Matrix: (Units=1/GPa)
#
#
# Indices 1 2 3 4 5 6 
#
# 1 0.012974 -0.004467 -0.003845 0.000000 0.003206 0.000000
# 2 -0.004467 0.019275 -0.006833 0.000000 -0.001268 0.000000
# 3 -0.003845 -0.006833 0.017662 0.000000 -0.000631 0.000000
# 4 0.000000 0.000000 0.000000 0.052832 0.000000 -0.003100
# 5 0.003206 -0.001268 -0.000631 0.000000 0.026761 0.000000
# 6 0.000000 0.000000 0.000000 -0.003100 0.000000 0.044338
#
#
# Mechanical properties :
#
#
# Convention : Reuss Voigt Hill
#
# Bulk Modulus (GPa) = 50.96824 52.09283 51.53054
# Shear Modulus (GPa) = 23.73365 25.77294 24.75330
#
# Velocity S-wave (km/s) = 3.70027 3.85597 3.77892
# Velocity P-wave (km/s) = 6.90360 7.06238 6.98344
#
# Compressibility (1/GPa) = 0.01962006
#
# Stress axis : x y z
#
# Youngs Moduli (GPa) = 77.07948 51.88155 56.61915
#
# Poissons Ratio (x) = 0.23176 0.21768
# Poissons Ratio (y) = 0.34432 0.38689
# Poissons Ratio (z) = 0.29635 0.35452
#
# Static dielectric constant tensor:
#      x y z
#    x 3.418990 0.000000 0.001640 
#    y 0.000000 2.716790 0.000000 
#    z 0.001640 0.000000 3.233620 
# 
# 
# High freq. dielectric constant tensor:
#      x y z
#    x 1.680150 0.000000 0.000300 
#    y 0.000000 1.614750 0.000000 
#    z 0.000300 0.000000 1.680950 
# 
# From -- ./inp_files/81675.got.cif
#   From: 2010.06.25/outbox.cif.g09.slc.cpg/sg13_41_cif.got.tgz:81675.got - 2010.06.28 04:50:58.
