data_PCOD8116157
_publ_section_title
;
Structure prediction by ZEFSAII (Michael W. Deem and Ramdas Pophale) SiO2 
 PCOD8116157
Probable space group: C 2/M
;
_chemical_formula_sum "Si O2"
_cell_formula_units_Z 56
_cell_length_a 29.676062
_cell_length_b 13.717345
_cell_length_c 28.049285
_cell_angle_alpha 90.000000
_cell_angle_beta 162.883573
_cell_angle_gamma 90.000000
_cell_volume 3360.543762
_symmetry_space_group_name_H-M "C 2/M"
_symmetry_group_IT_number 12
_symmetry_cell_setting 'monoclinic'
loop_
_space_group_symop_operation_xyz
x,y,z
-x,y,-z
-x,-y,-z
x,-y,z
1/2+x,1/2+y,z
1/2-x,1/2+y,-z
1/2-x,1/2-y,-z
1/2+x,1/2-y,z
loop_
_atom_site_type_symbol
_atom_site_label
_atom_site_fract_x
_atom_site_fract_y
_atom_site_fract_z
Si Si1 0.916006 0.257067 0.464032
Si Si2 0.837916 0.390674 0.244114
Si Si3 0.707495 0.250977 0.881705
Si Si4 0.701957 0.388641 0.476297
Si Si5 0.003641 0.277868 0.764746
Si Si6 0.960945 0.113025 0.591092
Si Si7 0.174165 0.109448 0.177017
O O1 0.754807 0.307618 0.289866
O O2 0.000000 0.226261 0.500000
O O3 0.004861 0.338911 0.583288
O O4 0.895654 0.162598 0.476891
O O5 0.876372 0.500000 0.266967
O O6 0.757133 0.335578 0.119028
O O7 0.725490 0.388145 0.174656
O O8 0.595829 0.207074 0.809059
O O9 0.624867 0.341910 0.772179
O O10 0.872766 0.283866 0.068029
O O11 0.673447 0.500000 0.432776
O O12 0.879243 0.362974 0.646059
O O13 0.587502 0.324970 0.327786
O O14 0.663991 0.371223 0.493617
O O15 0.988609 0.000000 0.608106
O O16 0.201985 0.000000 0.226046
O O17 0.000000 0.139359 0.000000
#
# Coordination Sequence:
#
# PCOD8116157 Si02
#       7
#     8   8   8   8   8   8   8
#     4   9  17  30  48  67  89 119 149 182 225 268
#     4   9  17  29  45  67  93 117 144 180 225 275
#     4   9  18  31  48  69  92 119 151 193 231 262
#     4   9  18  32  48  66  92 124 152 184 227 272
#     4   9  18  32  48  68  92 119 156 190 224 272
#     4   9  18  32  48  67  91 120 155 190 225 265
#     4   9  17  29  46  68  92 118 147 179 221 274
#
# _framework density 16.663969999999999
#
# number of rings (size 3 to 8) (size 9 to 14) (size 15 to 20)
#    0.000    3.000    0.000    0.429    0.000    4.857 
#    0.000    2.857    0.000    4.714    0.000    0.000 
#    0.000    0.000    0.000    0.000    0.000    0.000 
#
# Total GULP energy -347133.972712 kJ/mol
# GULP energy per Si atom -12397.641883 kJ/mol
# Density = 1.662604 g / cm^3
# Si number density = 16.663970 Si / 1000 Ang^3
#
#
#
# Elastic Constant Matrix: (Units=GPa)
#
#
# Indices 1 2 3 4 5 6 
#
# 1 40.7215 40.8178 36.9203 0.0003 -15.7340 0.0013
# 2 40.8178 109.6082 43.4103 -0.0017 -7.4723 -0.0004
# 3 36.9203 43.4103 104.2753 0.0080 -2.3542 0.0033
# 4 0.0003 -0.0017 0.0080 23.5278 0.0001 2.8077
# 5 -15.7340 -7.4723 -2.3542 0.0001 22.5758 0.0005
# 6 0.0013 -0.0004 0.0033 2.8077 0.0005 28.9404
#
#
#
# Elastic Compliance Matrix: (Units=1/GPa)
#
#
# Indices 1 2 3 4 5 6 
#
# 1 0.078117 -0.018428 -0.018940 0.000004 0.046368 -0.000003
# 2 -0.018428 0.015500 -0.000102 0.000001 -0.007724 0.000001
# 3 -0.018940 -0.000102 0.016078 -0.000005 -0.011557 0.000000
# 4 0.000004 0.000001 -0.000005 0.043001 0.000003 -0.004172
# 5 0.046368 -0.007724 -0.011557 0.000003 0.072849 -0.000002
# 6 -0.000003 0.000001 0.000000 -0.004172 -0.000002 0.034958
#
#
# Mechanical properties :
#
#
# Convention : Reuss Voigt Hill
#
# Bulk Modulus (GPa) = 28.77405 55.21130 41.99268
# Shear Modulus (GPa) = 14.40804 23.90592 19.15698
#
# Velocity S-wave (km/s) = 2.94364 3.79170 3.39426
# Velocity P-wave (km/s) = 5.37197 7.23695 6.37305
#
# Compressibility (1/GPa) = 0.03475354
#
# Stress axis : x y z
#
# Youngs Moduli (GPa) = 12.80135 64.51596 62.19851
#
# Poissons Ratio (x) = 1.18892 1.17802
# Poissons Ratio (y) = 0.23591 0.00636
# Poissons Ratio (z) = 0.24245 0.00660
#
# Static dielectric constant tensor:
#      x y z
#    x 2.465990 -0.000040 0.014410 
#    y -0.000040 3.158930 0.000000 
#    z 0.014410 0.000000 3.056120 
# 
# 
# High freq. dielectric constant tensor:
#      x y z
#    x 1.638410 0.000000 0.000500 
#    y 0.000000 1.636510 0.000000 
#    z 0.000500 0.000000 1.636580 
# 
# From -- ./inp_files/349795.got.cif
#   From: 2010.06.25/outbox.cif.g09.slc.cpg/sg12_175_cif.got.tgz:349795.got - 2010.06.28 00:19:55.
