data_PCOD8116759
_publ_section_title
;
Structure prediction by ZEFSAII (Michael W. Deem and Ramdas Pophale) SiO2 
 PCOD8116759
Probable space group: P 2/C
;
_chemical_formula_sum "Si O2"
_cell_formula_units_Z 22
_cell_length_a 17.005981
_cell_length_b 15.675624
_cell_length_c 5.211491
_cell_angle_alpha 90.000000
_cell_angle_beta 82.818733
_cell_angle_gamma 90.000000
_cell_volume 1378.377956
_symmetry_space_group_name_H-M "P 2/C"
_symmetry_group_IT_number 13
_symmetry_cell_setting 'monoclinic'
loop_
_space_group_symop_operation_xyz
x,y,z
-x,y,1/2-z
-x,-y,-z
x,-y,1/2+z
loop_
_atom_site_type_symbol
_atom_site_label
_atom_site_fract_x
_atom_site_fract_y
_atom_site_fract_z
Si Si1 0.217078 0.943477 0.910533
Si Si2 0.965183 0.094859 0.014200
Si Si3 0.412083 0.534271 0.468305
Si Si4 0.356287 0.183742 0.321545
Si Si5 0.500000 0.943314 0.750000
Si Si6 0.410102 0.728336 0.298884
O O1 0.128915 0.906731 0.947533
O O2 0.271641 0.860205 0.892066
O O3 0.234099 0.999428 0.652411
O O4 0.000000 0.143245 0.250000
O O5 0.000000 0.143242 0.750000
O O6 0.000000 0.000000 0.000000
O O7 0.500000 0.500000 0.500000
O O8 0.369117 0.523483 0.763192
O O9 0.412861 0.629001 0.360236
O O10 0.422093 0.112046 0.305271
O O11 0.369145 0.253359 0.541804
O O12 0.359660 0.227599 0.042877
O O13 0.500000 0.000000 0.500000
O O14 0.500000 0.764545 0.250000
#
# Coordination Sequence:
#
# PCOD8116759 Si02
#       6
#     4   4   4   4   2   4
#     4  12  21  35  52  69  96 122 173 218 244 294
#     4  10  16  30  51  76  89 112 148 213 258 291
#     4  10  19  30  53  78  88 109 155 210 241 278
#     4  12  25  35  48  66  92 136 162 204 261 282
#     4  12  22  36  46  56  80 118 182 216 234 258
#     4  12  21  37  51  67  97 124 162 209 239 303
#
# _framework density 15.960789
#
# number of rings (size 3 to 8) (size 9 to 14) (size 15 to 20)
#    0.000    0.727    7.273    4.364    2.545    0.000 
#    0.000    0.000    0.000    0.000    0.000    0.000 
#    0.000    0.000    0.000    0.000    0.000   63.636 
#
# Total GULP energy -272662.716903 kJ/mol
# GULP energy per Si atom -12393.759859 kJ/mol
# Density = 1.592446 g / cm^3
# Si number density = 15.960789 Si / 1000 Ang^3
#
#
#
# Elastic Constant Matrix: (Units=GPa)
#
#
# Indices 1 2 3 4 5 6 
#
# 1 92.2633 32.1018 26.0120 0.0000 -6.2460 0.0000
# 2 32.1018 71.5323 37.6028 0.0000 -0.7728 0.0000
# 3 26.0120 37.6028 162.3536 0.0000 4.3425 0.0000
# 4 0.0000 0.0000 0.0000 26.4636 0.0000 0.0697
# 5 -6.2460 -0.7728 4.3425 0.0000 17.4372 0.0000
# 6 0.0000 0.0000 0.0000 0.0697 0.0000 13.7333
#
#
#
# Elastic Compliance Matrix: (Units=1/GPa)
#
#
# Indices 1 2 3 4 5 6 
#
# 1 0.013326 -0.005396 -0.001013 0.000000 0.004786 0.000000
# 2 -0.005396 0.018149 -0.003331 0.000000 -0.000299 0.000000
# 3 -0.001013 -0.003331 0.007155 0.000000 -0.002292 0.000000
# 4 0.000000 0.000000 0.000000 0.037788 0.000000 -0.000192
# 5 0.004786 -0.000299 -0.002292 0.000000 0.059621 0.000000
# 6 0.000000 0.000000 0.000000 -0.000192 0.000000 0.072817
#
#
# Mechanical properties :
#
#
# Convention : Reuss Voigt Hill
#
# Bulk Modulus (GPa) = 52.22217 57.50915 54.86566
# Shear Modulus (GPa) = 21.30213 26.88900 24.09557
#
# Velocity S-wave (km/s) = 3.65726 4.10895 3.88967
# Velocity P-wave (km/s) = 7.11506 7.65644 7.39071
#
# Compressibility (1/GPa) = 0.01914896
#
# Stress axis : x y z
#
# Youngs Moduli (GPa) = 75.04310 55.09945 139.77117
#
# Poissons Ratio (x) = 0.29731 0.14163
# Poissons Ratio (y) = 0.40492 0.46558
# Poissons Ratio (z) = 0.07604 0.18354
#
# Static dielectric constant tensor:
#      x y z
#    x 2.888380 0.000000 -0.339120 
#    y 0.000000 2.823810 0.000000 
#    z -0.339120 0.000000 5.354650 
# 
# 
# High freq. dielectric constant tensor:
#      x y z
#    x 1.576860 0.000000 0.003670 
#    y 0.000000 1.579210 0.000000 
#    z 0.003670 0.000000 1.657920 
# 
# From -- ./inp_files/4882.got.cif
#   From: 2010.06.25/outbox.cif.g09.slc.cpg/sg13_3_cif.got.tgz:4882.got - 2010.06.28 04:50:58.
