data_PCOD8116847
_publ_section_title
;
Structure prediction by ZEFSAII (Michael W. Deem and Ramdas Pophale) SiO2 
 PCOD8116847
Probable space group: P 2/C
;
_chemical_formula_sum "Si O2"
_cell_formula_units_Z 32
_cell_length_a 11.480945
_cell_length_b 22.151192
_cell_length_c 9.175977
_cell_angle_alpha 90.000000
_cell_angle_beta 45.772242
_cell_angle_gamma 90.000000
_cell_volume 1672.196671
_symmetry_space_group_name_H-M "P 2/C"
_symmetry_group_IT_number 13
_symmetry_cell_setting 'monoclinic'
loop_
_space_group_symop_operation_xyz
x,y,z
-x,y,1/2-z
-x,-y,-z
x,-y,1/2+z
loop_
_atom_site_type_symbol
_atom_site_label
_atom_site_fract_x
_atom_site_fract_y
_atom_site_fract_z
Si Si1 0.757435 0.062678 0.242977
Si Si2 0.096127 0.750263 0.808770
Si Si3 0.180079 0.050880 0.632616
Si Si4 0.083786 0.133651 0.954179
Si Si5 0.928227 0.640575 0.468539
Si Si6 0.688749 0.460164 0.067278
Si Si7 0.663044 0.159788 0.524713
Si Si8 0.149726 0.544754 0.375764
O O1 0.631067 0.109769 0.427041
O O2 0.733780 0.997459 0.337228
O O3 0.717139 0.058966 0.105747
O O4 0.940880 0.085893 0.109134
O O5 0.265985 0.779502 0.609340
O O6 0.000000 0.726822 0.750000
O O7 0.139755 0.696910 0.881887
O O8 0.987521 0.798822 0.992216
O O9 0.170848 0.115213 0.726296
O O10 0.000000 0.027852 0.750000
O O11 0.208307 0.129204 0.978518
O O12 0.784475 0.592420 0.569822
O O13 0.000000 0.661218 0.250000
O O14 0.074153 0.611968 0.439716
O O15 0.500000 0.447882 0.250000
O O16 0.741797 0.526744 0.079668
O O17 0.729288 0.461883 0.863926
O O18 0.500000 0.177910 0.750000
O O19 0.000000 0.500000 0.500000
#
# Coordination Sequence:
#
# PCOD8116847 Si02
#       8
#     4   4   4   4   4   4   4   4
#     4  10  18  30  51  76  99 129 166 208 258 309
#     4   9  19  35  56  75  94 130 178 221 258 300
#     4  10  17  28  51  79 101 125 165 214 256 306
#     4   9  18  33  52  73  97 127 169 214 257 306
#     4   9  19  34  54  78 106 137 177 221 260 307
#     4  10  19  33  53  82 116 147 175 214 264 313
#     4  10  20  36  52  70 100 135 168 211 261 311
#     4   9  18  33  53  77 106 144 181 215 257 306
#
# _framework density 19.136505
#
# number of rings (size 3 to 8) (size 9 to 14) (size 15 to 20)
#    0.000    2.500    0.000    5.625    0.000    4.500 
#    0.000    8.125    0.000    3.750    0.000    0.000 
#    0.000    0.000    0.000    0.000    0.000    0.000 
#
# Total GULP energy -396646.344829 kJ/mol
# GULP energy per Si atom -12395.198276 kJ/mol
# Density = 1.909295 g / cm^3
# Si number density = 19.136505 Si / 1000 Ang^3
#
#
#
# Elastic Constant Matrix: (Units=GPa)
#
#
# Indices 1 2 3 4 5 6 
#
# 1 42.1946 23.9875 30.4286 0.0000 1.4424 0.0000
# 2 23.9875 78.3038 47.9841 0.0000 10.4288 0.0000
# 3 30.4286 47.9841 122.7583 0.0000 -0.4425 0.0000
# 4 0.0000 0.0000 0.0000 31.4898 0.0000 15.3767
# 5 1.4424 10.4288 -0.4425 0.0000 26.7203 0.0000
# 6 0.0000 0.0000 0.0000 15.3767 0.0000 23.0953
#
#
#
# Elastic Compliance Matrix: (Units=1/GPa)
#
#
# Indices 1 2 3 4 5 6 
#
# 1 0.031074 -0.006445 -0.005181 0.000000 0.000752 0.000000
# 2 -0.006445 0.019406 -0.006015 0.000000 -0.007326 0.000000
# 3 -0.005181 -0.006015 0.011791 0.000000 0.002822 0.000000
# 4 0.000000 0.000000 0.000000 0.047054 0.000000 -0.031328
# 5 0.000752 -0.007326 0.002822 0.000000 0.040290 0.000000
# 6 0.000000 0.000000 0.000000 -0.031328 0.000000 0.064157
#
#
# Mechanical properties :
#
#
# Convention : Reuss Voigt Hill
#
# Bulk Modulus (GPa) = 37.04807 49.78411 43.41609
# Shear Modulus (GPa) = 19.37613 25.65152 22.51382
#
# Velocity S-wave (km/s) = 3.18547 3.66519 3.43371
# Velocity P-wave (km/s) = 5.73860 6.63198 6.20140
#
# Compressibility (1/GPa) = 0.02699196
#
# Stress axis : x y z
#
# Youngs Moduli (GPa) = 32.18154 51.52938 84.80768
#
# Poissons Ratio (x) = 0.33209 0.43935
# Poissons Ratio (y) = 0.20740 0.51008
# Poissons Ratio (z) = 0.16672 0.30993
#
# Static dielectric constant tensor:
#      x y z
#    x 3.305710 0.000000 0.235560 
#    y 0.000000 3.394210 0.000000 
#    z 0.235560 0.000000 3.649660 
# 
# 
# High freq. dielectric constant tensor:
#      x y z
#    x 1.720430 0.000000 0.018120 
#    y 0.000000 1.726170 0.000000 
#    z 0.018120 0.000000 1.749420 
# 
# From -- ./inp_files/17338.got.cif
#   From: 2010.06.25/outbox.cif.g09.slc.cpg/sg13_9_cif.got.tgz:17338.got - 2010.06.28 04:50:58.
