data_PCOD8116876
_publ_section_title
;
Structure prediction by ZEFSAII (Michael W. Deem and Ramdas Pophale) SiO2 
 PCOD8116876
Probable space group: P 2/C
;
_chemical_formula_sum "Si O2"
_cell_formula_units_Z 30
_cell_length_a 19.632044
_cell_length_b 8.754468
_cell_length_c 17.176711
_cell_angle_alpha 90.000000
_cell_angle_beta 32.129287
_cell_angle_gamma 90.000000
_cell_volume 1570.035095
_symmetry_space_group_name_H-M "P 2/C"
_symmetry_group_IT_number 13
_symmetry_cell_setting 'monoclinic'
loop_
_space_group_symop_operation_xyz
x,y,z
-x,y,1/2-z
-x,-y,-z
x,-y,1/2+z
loop_
_atom_site_type_symbol
_atom_site_label
_atom_site_fract_x
_atom_site_fract_y
_atom_site_fract_z
Si Si1 0.069993 0.838069 0.251615
Si Si2 0.863369 0.182979 0.362365
Si Si3 0.274387 0.822032 0.654895
Si Si4 0.465392 0.672364 0.052071
Si Si5 0.689732 0.158302 0.672481
Si Si6 0.500000 0.028469 0.250000
Si Si7 0.886865 0.928153 0.560204
Si Si8 0.665002 0.156712 0.958961
O O1 0.198313 0.755965 0.159495
O O2 0.000000 0.745231 0.250000
O O3 0.955938 0.845392 0.423223
O O4 0.118021 0.002090 0.170964
O O5 0.799448 0.253703 0.346857
O O6 0.771753 0.226522 0.522576
O O7 0.000000 0.259262 0.250000
O O8 0.406649 0.741685 0.538669
O O9 0.185278 0.803089 0.817079
O O10 0.302135 0.000184 0.615976
O O11 0.359075 0.706600 0.222143
O O12 0.425563 0.744808 0.008471
O O13 0.500000 0.500000 0.000000
O O14 0.569600 0.071186 0.749460
O O15 0.780972 0.048169 0.633826
O O16 0.400126 0.133386 0.393564
O O17 0.000000 0.000000 0.500000
#
# Coordination Sequence:
#
# PCOD8116876 Si02
#       8
#     4   4   4   4   4   2   4   4
#     4  10  17  30  52  92 124 139 176 255 315 349
#     4  10  17  31  55  91 116 138 187 248 301 357
#     4  11  20  35  58  88 116 150 199 247 292 345
#     4  12  26  41  55  81 125 170 202 237 288 355
#     4  12  19  32  57  84 118 153 193 238 303 345
#     4  12  20  32  60  92 112 144 192 260 300 338
#     4  12  18  28  56  91 120 141 185 251 308 346
#     4  11  20  36  59  90 116 147 196 248 296 346
#
# _framework density 19.107852000000001
#
# number of rings (size 3 to 8) (size 9 to 14) (size 15 to 20)
#    0.000    0.800   10.667    1.200    0.000    0.000 
#    0.000    2.000    0.000    8.000    0.000    0.000 
#    0.000    0.000    0.000    0.000    0.000    0.000 
#
# Total GULP energy -371733.527555 kJ/mol
# GULP energy per Si atom -12391.117585 kJ/mol
# Density = 1.906436 g / cm^3
# Si number density = 19.107852 Si / 1000 Ang^3
#
#
#
# Elastic Constant Matrix: (Units=GPa)
#
#
# Indices 1 2 3 4 5 6 
#
# 1 169.0358 34.2233 53.8995 0.0000 -16.9827 0.0000
# 2 34.2233 34.2270 26.7759 0.0000 0.1480 0.0000
# 3 53.8995 26.7759 162.5655 0.0000 16.9317 0.0000
# 4 0.0000 0.0000 0.0000 10.9511 0.0000 7.1499
# 5 -16.9827 0.1480 16.9317 0.0000 52.4378 0.0000
# 6 0.0000 0.0000 0.0000 7.1499 0.0000 -8.2676
#
#
#
# Elastic Compliance Matrix: (Units=1/GPa)
#
#
# Indices 1 2 3 4 5 6 
#
# 1 0.008237 -0.006707 -0.001972 0.000000 0.003323 0.000000
# 2 -0.006707 0.039155 -0.004126 0.000000 -0.000950 0.000000
# 3 -0.001972 -0.004126 0.007813 0.000000 -0.003150 0.000000
# 4 0.000000 0.000000 0.000000 0.058362 0.000000 0.050472
# 5 0.003323 -0.000950 -0.003150 0.000000 0.021166 0.000000
# 6 0.000000 0.000000 0.000000 0.050472 0.000000 -0.077306
#
#
# Mechanical properties :
#
#
# Convention : Reuss Voigt Hill
#
# Bulk Modulus (GPa) = 33.79156 66.18063 49.98609
# Shear Modulus (GPa) = 53.81899 27.75291 40.78595
#
# Velocity S-wave (km/s) = 5.31291 3.81522 4.62509
# Velocity P-wave (km/s) = 7.44037 7.35652 7.39856
#
# Compressibility (1/GPa) = 0.02959319
#
# Stress axis : x y z
#
# Youngs Moduli (GPa) = 121.40883 25.53931 127.99152
#
# Poissons Ratio (x) = 0.17130 0.25244
# Poissons Ratio (y) = 0.81431 0.52815
# Poissons Ratio (z) = 0.23946 0.10539
#
# Static dielectric constant tensor:
#      x y z
#    x 3.916680 0.000000 -0.216110 
#    y 0.000000 2.374800 0.000000 
#    z -0.216110 0.000000 3.525210 
# 
# 
# High freq. dielectric constant tensor:
#      x y z
#    x 1.783010 0.000000 -0.005220 
#    y 0.000000 1.645010 0.000000 
#    z -0.005220 0.000000 1.771720 
# 
# From -- ./inp_files/70581.got.cif
#   From: 2010.06.25/outbox.cif.g09.slc.cpg/sg13_36_cif.got.tgz:70581.got - 2010.06.28 04:50:58.
