data_PCOD8116313
_publ_section_title
;
Structure prediction by ZEFSAII (Michael W. Deem and Ramdas Pophale) SiO2 
 PCOD8116313
Probable space group: C 2/M
;
_chemical_formula_sum "Si O2"
_cell_formula_units_Z 22
_cell_length_a 15.000000
_cell_length_b 24.000000
_cell_length_c 18.000000
_cell_angle_alpha 90.000000
_cell_angle_beta 160.000000
_cell_angle_gamma 90.000000
_cell_volume 2216.290529
_symmetry_space_group_name_H-M "C 2/M"
_symmetry_group_IT_number 12
_symmetry_cell_setting 'monoclinic'
loop_
_space_group_symop_operation_xyz
x,y,z
-x,y,-z
-x,-y,-z
x,-y,z
1/2+x,1/2+y,z
1/2-x,1/2+y,-z
1/2-x,1/2-y,-z
1/2+x,1/2-y,z
loop_
_atom_site_type_symbol
_atom_site_label
_atom_site_fract_x
_atom_site_fract_y
_atom_site_fract_z
Si Si1 0.243654 0.616065 0.841008
Si Si2 0.232396 0.877970 0.621924
Si Si3 0.263379 0.316259 0.524679
Si Si4 0.296149 0.618451 0.055248
Si Si5 0.356322 0.500000 0.463928
Si Si6 0.532300 0.500000 0.756952
Si Si7 0.467256 0.000000 0.385552
O O1 0.181542 0.556043 0.755557
O O2 0.004787 0.660326 0.649247
O O3 0.500000 0.640356 0.000000
O O4 0.307290 0.609161 0.976498
O O5 0.149695 0.845050 0.483995
O O6 0.000000 0.870974 0.500000
O O7 0.302177 0.942303 0.655346
O O8 0.520305 0.856552 0.870978
O O9 0.250000 0.250000 0.500000
O O10 0.490794 0.334520 0.758939
O O11 0.331354 0.556811 0.113970
O O12 0.500000 0.500000 0.500000
O O13 0.560246 0.500000 0.690248
O O14 0.239061 0.500000 0.556107
O O15 0.500000 0.000000 0.500000
#
# Coordination Sequence:
#
# PCOD8116313 Si02
#       7
#     8   8   8   8   4   4   4
#     4  11  24  42  65 101 134 169 216 271 334 398
#     4  10  22  42  62  96 129 163 212 271 320 389
#     4  11  25  46  64  92 127 174 227 268 318 388
#     4  11  22  40  69  90 134 172 215 266 333 390
#     4  10  19  37  61  92 134 155 206 268 317 391
#     4  12  18  37  66  93 128 181 197 263 342 386
#     4  12  22  38  68 102 144 169 214 271 338 421
#
# _framework density 9.9264960000000002
#
# number of rings (size 3 to 8) (size 9 to 14) (size 15 to 20)
#    0.000    1.091    3.636    3.545    0.000    3.636 
#    6.545    1.818    0.000    0.000    0.000    0.000 
#    0.000    0.000    0.000    0.000    0.000    0.000 
#
# Total GULP energy -272585.298588 kJ/mol
# GULP energy per Si atom -12390.240845 kJ/mol
# Density = 0.990390 g / cm^3
# Si number density = 9.926496 Si / 1000 Ang^3
#
#
#
# Elastic Constant Matrix: (Units=GPa)
#
#
# Indices 1 2 3 4 5 6 
#
# 1 148.4921 43.5621 76.0346 -0.0062 11.9078 -0.0014
# 2 43.5621 140.9773 42.6227 -0.0030 -3.9219 -0.0091
# 3 76.0346 42.6227 134.3918 -0.0047 7.1874 -0.0501
# 4 -0.0062 -0.0030 -0.0047 15.1665 0.0015 5.9349
# 5 11.9078 -3.9219 7.1874 0.0015 42.8396 -0.0077
# 6 -0.0014 -0.0091 -0.0501 5.9349 -0.0077 19.0148
#
#
#
# Elastic Compliance Matrix: (Units=1/GPa)
#
#
# Indices 1 2 3 4 5 6 
#
# 1 0.009933 -0.001616 -0.004996 0.000009 -0.002071 -0.000017
# 2 -0.001616 0.008165 -0.001755 0.000000 0.001491 0.000000
# 3 -0.004996 -0.001755 0.010856 -0.000011 -0.000593 0.000031
# 4 0.000009 0.000000 -0.000011 0.075108 -0.000007 -0.023443
# 5 -0.002071 0.001491 -0.000593 -0.000007 0.024155 0.000011
# 6 -0.000017 0.000000 0.000031 -0.023443 0.000011 0.059908
#
#
# Mechanical properties :
#
#
# Convention : Reuss Voigt Hill
#
# Bulk Modulus (GPa) = 81.84119 83.14448 82.49284
# Shear Modulus (GPa) = 23.93121 32.84696 28.38909
#
# Velocity S-wave (km/s) = 3.47568 4.07198 3.78559
# Velocity P-wave (km/s) = 7.57762 8.00494 7.79421
#
# Compressibility (1/GPa) = 0.01221879
#
# Stress axis : x y z
#
# Youngs Moduli (GPa) = 100.67489 122.47699 92.11485
#
# Poissons Ratio (x) = 0.19796 0.46024
# Poissons Ratio (y) = 0.16272 0.16164
# Poissons Ratio (z) = 0.50301 0.21492
#
# Static dielectric constant tensor:
#      x y z
#    x 3.704380 0.000000 0.013570 
#    y 0.000000 3.098300 0.000040 
#    z 0.013570 0.000040 3.806740 
# 
# 
# High freq. dielectric constant tensor:
#      x y z
#    x 1.786220 0.000000 0.005500 
#    y 0.000000 1.771360 0.000000 
#    z 0.005500 0.000000 1.787370 
# 
# From -- ./inp_files/228078.got.cif
#   From: 2010.06.25/outbox.ucp.g09.slc.cvg/sg12_115_cif.got.tgz:228078.got - 2010.06.28 13:50:54.
