data_PCOD8116195
_publ_section_title
;
Structure prediction by ZEFSAII (Michael W. Deem and Ramdas Pophale) SiO2 
 PCOD8116195
Probable space group: C 2/M
;
_chemical_formula_sum "Si O2"
_cell_formula_units_Z 20
_cell_length_a 24.000000
_cell_length_b 9.000000
_cell_length_c 30.000000
_cell_angle_alpha 90.000000
_cell_angle_beta 20.000000
_cell_angle_gamma 90.000000
_cell_volume 2216.290529
_symmetry_space_group_name_H-M "C 2/M"
_symmetry_group_IT_number 12
_symmetry_cell_setting 'monoclinic'
loop_
_space_group_symop_operation_xyz
x,y,z
-x,y,-z
-x,-y,-z
x,-y,z
1/2+x,1/2+y,z
1/2-x,1/2+y,-z
1/2-x,1/2-y,-z
1/2+x,1/2-y,z
loop_
_atom_site_type_symbol
_atom_site_label
_atom_site_fract_x
_atom_site_fract_y
_atom_site_fract_z
Si Si1 0.654657 0.825238 0.935219
Si Si2 0.977815 0.165770 0.568451
Si Si3 0.808897 0.673444 0.524480
Si Si4 0.836795 0.823121 0.167188
Si Si5 0.011800 0.828268 0.689643
O O1 0.678438 0.749449 0.869732
O O2 0.817846 0.797521 0.842560
O O3 0.621546 0.000000 0.954863
O O4 0.492576 0.745945 0.077200
O O5 0.828873 0.279496 0.684287
O O6 0.000000 0.148158 0.500000
O O7 0.139446 0.233667 0.470618
O O8 0.943233 0.000000 0.614598
O O9 0.836727 0.500000 0.513132
O O10 0.926621 0.721804 0.395781
O O11 0.618976 0.704921 0.653702
O O12 0.855610 0.000000 0.149942
O O13 0.038864 0.000000 0.655061
#
# Coordination Sequence:
#
# PCOD8116195 Si02
#       5
#     8   8   8   8   8
#     4  10  18  31  52  75 106 140 167 202 253 310
#     4  11  23  38  54  72 100 139 178 214 256 310
#     4  10  19  31  50  77 105 133 169 212 255 301
#     4  11  21  32  49  76 105 132 171 215 258 301
#     4   9  18  31  50  76 107 138 165 202 255 310
#
# _framework density 9.0240880000000008
#
# number of rings (size 3 to 8) (size 9 to 14) (size 15 to 20)
#    0.000    1.800    2.000    4.800    0.000    3.200 
#    0.000    0.000    0.000    1.200    0.000    0.000 
#    0.000    0.000    0.000    0.000    0.000    0.000 
#
# Total GULP energy -247844.707644 kJ/mol
# GULP energy per Si atom -12392.235382 kJ/mol
# Density = 0.900355 g / cm^3
# Si number density = 9.024088 Si / 1000 Ang^3
#
#
#
# Elastic Constant Matrix: (Units=GPa)
#
#
# Indices 1 2 3 4 5 6 
#
# 1 96.2851 42.3117 42.5229 -0.0081 -35.6214 -0.0123
# 2 42.3117 137.0153 38.2845 0.0021 -20.1281 -0.0157
# 3 42.5229 38.2845 86.8750 0.0083 -42.8843 -0.0072
# 4 -0.0081 0.0021 0.0083 27.9798 -0.0048 -9.7016
# 5 -35.6214 -20.1281 -42.8843 -0.0048 39.2613 0.0033
# 6 -0.0123 -0.0157 -0.0072 -9.7016 0.0033 17.2215
#
#
#
# Elastic Compliance Matrix: (Units=1/GPa)
#
#
# Indices 1 2 3 4 5 6 
#
# 1 0.016837 -0.003166 -0.000231 0.000012 0.013400 0.000013
# 2 -0.003166 0.008925 -0.003348 0.000001 -0.001954 0.000005
# 3 -0.000231 -0.003348 0.026363 -0.000003 0.026870 0.000001
# 4 0.000012 0.000001 -0.000003 0.044416 0.000012 0.025021
# 5 0.013400 -0.001954 0.026870 0.000012 0.065976 0.000013
# 6 0.000013 0.000005 0.000001 0.025021 0.000013 0.072162
#
#
# Mechanical properties :
#
#
# Convention : Reuss Voigt Hill
#
# Bulk Modulus (GPa) = 25.88364 62.93486 44.40925
# Shear Modulus (GPa) = 19.15367 30.02962 24.59164
#
# Velocity S-wave (km/s) = 3.26122 4.08347 3.69529
# Velocity P-wave (km/s) = 5.34353 7.56169 6.54723
#
# Compressibility (1/GPa) = 0.03863445
#
# Stress axis : x y z
#
# Youngs Moduli (GPa) = 59.39387 112.05008 37.93200
#
# Poissons Ratio (x) = 0.35478 0.00876
# Poissons Ratio (y) = 0.18806 0.12698
# Poissons Ratio (z) = 0.01372 0.37510
#
# Static dielectric constant tensor:
#      x y z
#    x 3.358840 -0.000050 -0.708200 
#    y -0.000050 3.716540 0.000100 
#    z -0.708200 0.000100 3.781670 
# 
# 
# High freq. dielectric constant tensor:
#      x y z
#    x 1.675750 0.000000 -0.051590 
#    y 0.000000 1.725180 0.000010 
#    z -0.051590 0.000010 1.686820 
# 
# From -- ./inp_files/171377.got.cif
#   From: 2010.06.25/outbox.ucp.g09.slc.cvg/sg12_86_cif.got.tgz:171377.got - 2010.06.28 13:50:54.
