data_PCOD8116512
_publ_section_title
;
Structure prediction by ZEFSAII (Michael W. Deem and Ramdas Pophale) SiO2 
 PCOD8116512
Probable space group: C 2/M
;
_chemical_formula_sum "Si O2"
_cell_formula_units_Z 24
_cell_length_a 18.000000
_cell_length_b 9.000000
_cell_length_c 30.000000
_cell_angle_alpha 90.000000
_cell_angle_beta 30.000000
_cell_angle_gamma 90.000000
_cell_volume 2430.000000
_symmetry_space_group_name_H-M "C 2/M"
_symmetry_group_IT_number 12
_symmetry_cell_setting 'monoclinic'
loop_
_space_group_symop_operation_xyz
x,y,z
-x,y,-z
-x,-y,-z
x,-y,z
1/2+x,1/2+y,z
1/2-x,1/2+y,-z
1/2-x,1/2-y,-z
1/2+x,1/2-y,z
loop_
_atom_site_type_symbol
_atom_site_label
_atom_site_fract_x
_atom_site_fract_y
_atom_site_fract_z
Si Si1 0.416950 0.821108 0.334065
Si Si2 0.908050 0.176247 0.835278
Si Si3 0.596165 0.173734 0.494678
Si Si4 0.110748 0.830385 0.814710
Si Si5 0.905182 0.828971 0.006504
Si Si6 0.425102 0.322211 0.662874
O O1 0.528596 0.775058 0.237316
O O2 0.260358 0.742271 0.404537
O O3 0.491638 0.760562 0.340212
O O4 0.398816 0.000000 0.346007
O O5 0.736725 0.225173 0.929462
O O6 0.006371 0.215652 0.827530
O O7 0.914204 0.000000 0.821764
O O8 0.500000 0.188553 0.500000
O O9 0.512706 0.273419 0.573804
O O10 0.608737 0.000000 0.502141
O O11 0.253820 0.725574 0.745754
O O12 0.166770 0.000000 0.779711
O O13 0.013112 0.811731 0.908977
O O14 0.853326 0.000000 0.039758
O O15 0.000000 0.774676 0.000000
O O16 0.432950 0.500000 0.665299
#
# Coordination Sequence:
#
# PCOD8116512 Si02
#       6
#     8   8   8   8   8   8
#     4  12  25  42  64  89 122 161 204 253 304 361
#     4  11  23  39  61  90 124 161 204 253 304 360
#     4  11  24  43  66  92 125 162 201 248 301 357
#     4  10  22  40  61  89 126 164 202 249 305 360
#     4  10  21  38  61  88 120 162 208 252 302 360
#     4  12  25  41  64  93 124 159 203 251 302 362
#
# _framework density 9.8765429999999999
#
# number of rings (size 3 to 8) (size 9 to 14) (size 15 to 20)
#    0.000    1.000    0.000    7.000    0.000    9.000 
#    0.000    0.000    0.000    0.000    0.000    0.000 
#    0.000    0.000    0.000    0.000    0.000    0.000 
#
# Total GULP energy -297631.118084 kJ/mol
# GULP energy per Si atom -12401.296587 kJ/mol
# Density = 0.985406 g / cm^3
# Si number density = 9.876543 Si / 1000 Ang^3
#
#
#
# Elastic Constant Matrix: (Units=GPa)
#
#
# Indices 1 2 3 4 5 6 
#
# 1 121.9575 32.0079 11.6000 0.0062 -10.3457 -0.0162
# 2 32.0079 137.8769 20.3526 0.0065 -10.1565 -0.0065
# 3 11.6000 20.3526 70.1579 -0.0014 -9.6998 0.0016
# 4 0.0062 0.0065 -0.0014 30.8399 -0.0004 -9.3912
# 5 -10.3457 -10.1565 -9.6998 -0.0004 46.9527 0.0012
# 6 -0.0162 -0.0065 0.0016 -9.3912 0.0012 39.0479
#
#
#
# Elastic Compliance Matrix: (Units=1/GPa)
#
#
# Indices 1 2 3 4 5 6 
#
# 1 0.008874 -0.001848 -0.000737 0.000000 0.001403 0.000003
# 2 -0.001848 0.008031 -0.001894 -0.000001 0.000939 0.000000
# 3 -0.000737 -0.001894 0.015282 0.000001 0.002585 -0.000001
# 4 0.000000 -0.000001 0.000001 0.034988 0.000000 0.008415
# 5 0.001403 0.000939 0.002585 0.000000 0.022344 0.000000
# 6 0.000003 0.000000 -0.000001 0.008415 0.000000 0.027633
#
#
# Mechanical properties :
#
#
# Convention : Reuss Voigt Hill
#
# Bulk Modulus (GPa) = 43.05146 50.87926 46.96536
# Shear Modulus (GPa) = 37.35427 41.10355 39.22891
#
# Velocity S-wave (km/s) = 4.35335 4.56660 4.46125
# Velocity P-wave (km/s) = 6.86374 7.32248 7.09682
#
# Compressibility (1/GPa) = 0.02322802
#
# Stress axis : x y z
#
# Youngs Moduli (GPa) = 112.69260 124.52373 65.43488
#
# Poissons Ratio (x) = 0.23010 0.04823
# Poissons Ratio (y) = 0.20824 0.12396
# Poissons Ratio (z) = 0.08307 0.23589
#
# Static dielectric constant tensor:
#      x y z
#    x 3.176490 0.000020 0.113080 
#    y 0.000020 3.940130 0.000000 
#    z 0.113080 0.000000 3.707920 
# 
# 
# High freq. dielectric constant tensor:
#      x y z
#    x 1.806290 0.000000 -0.009490 
#    y 0.000000 1.792150 0.000000 
#    z -0.009490 0.000000 1.792950 
# 
# From -- ./inp_files/274591.got.cif
#   From: 2010.06.25/outbox.ucp.g09.slc.cvg/sg12_138_cif.got.tgz:274591.got - 2010.06.28 13:50:54.
