data_PCOD8116528
_publ_section_title
;
Structure prediction by ZEFSAII (Michael W. Deem and Ramdas Pophale) SiO2 
 PCOD8116528
Probable space group: C 2/M
;
_chemical_formula_sum "Si O2"
_cell_formula_units_Z 32
_cell_length_a 9.000000
_cell_length_b 15.000000
_cell_length_c 30.000000
_cell_angle_alpha 90.000000
_cell_angle_beta 130.000000
_cell_angle_gamma 90.000000
_cell_volume 3102.479995
_symmetry_space_group_name_H-M "C 2/M"
_symmetry_group_IT_number 12
_symmetry_cell_setting 'monoclinic'
loop_
_space_group_symop_operation_xyz
x,y,z
-x,y,-z
-x,-y,-z
x,-y,z
1/2+x,1/2+y,z
1/2-x,1/2+y,-z
1/2-x,1/2-y,-z
1/2+x,1/2-y,z
loop_
_atom_site_type_symbol
_atom_site_label
_atom_site_fract_x
_atom_site_fract_y
_atom_site_fract_z
Si Si1 0.363700 0.744886 0.169948
Si Si2 0.819478 0.838855 0.650751
Si Si3 0.851243 0.895031 0.012019
Si Si4 0.931341 0.098534 0.381201
Si Si5 0.349229 0.405080 0.750519
Si Si6 0.474975 0.754693 0.544291
Si Si7 0.937833 0.730328 0.088335
Si Si8 0.027559 0.658976 0.281549
O O1 0.523917 0.668143 0.200652
O O2 0.318318 0.775757 0.111016
O O3 0.441856 0.824906 0.215636
O O4 0.156662 0.707765 0.146075
O O5 0.856327 0.905499 0.698260
O O6 0.587207 0.821823 0.599680
O O7 0.938499 0.750183 0.685426
O O8 0.898339 0.875446 0.619651
O O9 0.646212 0.848042 0.959373
O O10 0.821041 0.000000 0.020494
O O11 0.928864 0.831517 0.066768
O O12 0.000000 0.890869 0.000000
O O13 0.727550 0.105464 0.315735
O O14 0.937000 0.157859 0.426891
O O15 0.966203 0.000000 0.405258
O O16 0.429731 0.500000 0.782169
O O17 0.125114 0.397344 0.720115
O O18 0.500000 0.788498 0.500000
O O19 0.250000 0.750000 0.500000
#
# Coordination Sequence:
#
# PCOD8116528 Si02
#       8
#     8   8   8   8   8   8   8   8
#     4  11  22  39  63  89 120 161 201 242 302 355
#     4  10  21  39  62  82 117 159 194 233 296 365
#     4  10  22  41  65  91 122 166 208 245 303 365
#     4  11  23  39  59  88 120 151 192 246 298 347
#     4  11  23  38  59  90 122 153 196 248 297 355
#     4  11  22  40  64  85 110 155 203 240 288 359
#     4  11  22  41  64  91 125 161 201 258 299 350
#     4  10  21  39  61  84 117 161 198 231 291 368
#
# _framework density 10.314329000000001
#
# number of rings (size 3 to 8) (size 9 to 14) (size 15 to 20)
#    0.000    1.375    3.750    3.000    3.500    1.250 
#    0.000    3.750    0.000    0.000    0.000    0.000 
#    0.000    0.000    0.000    0.000    0.000    0.000 
#
# Total GULP energy -396471.737934 kJ/mol
# GULP energy per Si atom -12389.741810 kJ/mol
# Density = 1.029085 g / cm^3
# Si number density = 10.314329 Si / 1000 Ang^3
#
#
#
# Elastic Constant Matrix: (Units=GPa)
#
#
# Indices 1 2 3 4 5 6 
#
# 1 37.9950 5.8689 14.7250 0.0000 9.4898 0.0000
# 2 5.8689 82.9194 11.7761 0.0000 7.1066 0.0000
# 3 14.7250 11.7761 92.9079 0.0000 12.6899 0.0000
# 4 0.0000 0.0000 0.0000 4.4363 0.0000 -13.7376
# 5 9.4898 7.1066 12.6899 0.0000 34.7355 0.0000
# 6 0.0000 0.0000 0.0000 -13.7376 0.0000 -12.6763
#
#
#
# Elastic Compliance Matrix: (Units=1/GPa)
#
#
# Indices 1 2 3 4 5 6 
#
# 1 0.029523 -0.001011 -0.003660 0.000000 -0.006522 0.000000
# 2 -0.001011 0.012455 -0.001166 0.000000 -0.001846 0.000000
# 3 -0.003660 -0.001166 0.011917 0.000000 -0.003115 0.000000
# 4 0.000000 0.000000 0.000000 0.051749 0.000000 -0.056081
# 5 -0.006522 -0.001846 -0.003115 0.000000 0.032086 0.000000
# 6 0.000000 0.000000 0.000000 -0.056081 0.000000 -0.018111
#
#
# Mechanical properties :
#
#
# Convention : Reuss Voigt Hill
#
# Bulk Modulus (GPa) = 23.68544 30.95138 27.31841
# Shear Modulus (GPa) = 34.39558 17.39592 25.89575
#
# Velocity S-wave (km/s) = 4.08777 2.90709 3.54691
# Velocity P-wave (km/s) = 5.81262 5.12883 5.48140
#
# Compressibility (1/GPa) = 0.04222004
#
# Stress axis : x y z
#
# Youngs Moduli (GPa) = 33.87218 80.28706 83.91552
#
# Poissons Ratio (x) = 0.08116 0.30715
# Poissons Ratio (y) = 0.03424 0.09788
# Poissons Ratio (z) = 0.12398 0.09364
#
# Static dielectric constant tensor:
#      x y z
#    x 3.556470 0.000000 0.089760 
#    y 0.000000 3.658980 0.000000 
#    z 0.089760 0.000000 3.752940 
# 
# 
# High freq. dielectric constant tensor:
#      x y z
#    x 1.800170 0.000000 0.008630 
#    y 0.000000 1.781320 0.000000 
#    z 0.008630 0.000000 1.813660 
# 
# From -- ./inp_files/372599.got.cif
#   From: 2010.06.25/outbox.ucp.g09.slc.cvg/sg12_187_cif.got.tgz:372599.got - 2010.06.28 13:50:54.
