data_PCOD8116337
_publ_section_title
;
Structure prediction by ZEFSAII (Michael W. Deem and Ramdas Pophale) SiO2 
 PCOD8116337
Probable space group: C 2/M
;
_chemical_formula_sum "Si O2"
_cell_formula_units_Z 28
_cell_length_a 15.000000
_cell_length_b 24.000000
_cell_length_c 15.000000
_cell_angle_alpha 90.000000
_cell_angle_beta 30.000000
_cell_angle_gamma 90.000000
_cell_volume 2700.000000
_symmetry_space_group_name_H-M "C 2/M"
_symmetry_group_IT_number 12
_symmetry_cell_setting 'monoclinic'
loop_
_space_group_symop_operation_xyz
x,y,z
-x,y,-z
-x,-y,-z
x,-y,z
1/2+x,1/2+y,z
1/2-x,1/2+y,-z
1/2-x,1/2-y,-z
1/2+x,1/2-y,z
loop_
_atom_site_type_symbol
_atom_site_label
_atom_site_fract_x
_atom_site_fract_y
_atom_site_fract_z
Si Si1 0.597450 0.726824 0.002640
Si Si2 0.012852 0.247746 0.385139
Si Si3 0.609974 0.631556 0.496224
Si Si4 0.493943 0.154911 0.110918
Si Si5 0.258780 0.622331 0.030636
Si Si6 0.452181 0.128396 0.436286
Si Si7 0.900940 0.934970 0.321904
O O1 0.481541 0.778306 0.142061
O O2 0.500000 0.700507 0.000000
O O3 0.781031 0.755630 0.816916
O O4 0.634065 0.679820 0.043744
O O5 0.000000 0.241546 0.500000
O O6 0.922781 0.191350 0.425935
O O7 0.923572 0.306471 0.433292
O O8 0.500000 0.622813 0.500000
O O9 0.818633 0.625079 0.297889
O O10 0.562532 0.583795 0.608238
O O11 0.659113 0.127671 0.021694
O O12 0.500000 0.143948 0.000000
O O13 0.119456 0.607042 0.231024
O O14 0.414606 0.576051 0.891670
O O15 0.500000 0.122246 0.500000
O O16 0.269761 0.096312 0.573533
O O17 0.857392 0.000000 0.356247
#
# Coordination Sequence:
#
# PCOD8116337 Si02
#       7
#     8   8   8   8   8   8   8
#     4  10  20  33  59  97 139 172 212 259 323 407
#     4   9  18  34  62 100 133 167 208 262 332 402
#     4  11  22  41  68  98 136 175 217 270 332 404
#     4  11  21  38  63 101 140 174 207 266 331 405
#     4  11  24  42  65  98 130 178 218 272 329 391
#     4  10  24  45  71 102 135 171 221 275 335 393
#     4  12  28  46  68  94 129 180 232 282 324 384
#
# _framework density 10.370369999999999
#
# number of rings (size 3 to 8) (size 9 to 14) (size 15 to 20)
#    0.000    1.429    1.429    5.571    8.000    2.857 
#    0.000    0.714    0.000    1.714    0.000    0.000 
#    0.000    0.000    0.000    0.000    0.000    0.000 
#
# Total GULP energy -347075.179372 kJ/mol
# GULP energy per Si atom -12395.542120 kJ/mol
# Density = 1.034677 g / cm^3
# Si number density = 10.370370 Si / 1000 Ang^3
#
#
#
# Elastic Constant Matrix: (Units=GPa)
#
#
# Indices 1 2 3 4 5 6 
#
# 1 133.6950 40.6037 45.2081 -0.0401 -10.4886 0.0321
# 2 40.6037 81.8379 33.0517 -0.0628 -7.2064 0.0341
# 3 45.2081 33.0517 100.4796 -0.1264 -3.3689 0.0443
# 4 -0.0401 -0.0628 -0.1264 26.5614 0.0603 -1.9001
# 5 -10.4886 -7.2064 -3.3689 0.0603 36.7103 -0.0347
# 6 0.0321 0.0341 0.0443 -1.9001 -0.0347 22.8730
#
#
#
# Elastic Compliance Matrix: (Units=1/GPa)
#
#
# Indices 1 2 3 4 5 6 
#
# 1 0.009732 -0.003372 -0.003208 -0.000013 0.001824 -0.000001
# 2 -0.003372 0.015464 -0.003511 0.000010 0.001750 -0.000008
# 3 -0.003208 -0.003511 0.012535 0.000047 -0.000456 -0.000011
# 4 -0.000013 0.000010 0.000047 0.037874 -0.000057 0.003146
# 5 0.001824 0.001750 -0.000456 -0.000057 0.028063 0.000034
# 6 -0.000001 -0.000008 -0.000011 0.003146 0.000034 0.043981
#
#
# Mechanical properties :
#
#
# Convention : Reuss Voigt Hill
#
# Bulk Modulus (GPa) = 56.98311 61.52660 59.25485
# Shear Modulus (GPa) = 28.78821 30.37222 29.58021
#
# Velocity S-wave (km/s) = 3.72963 3.83087 3.78059
# Velocity P-wave (km/s) = 6.78826 7.02114 6.90568
#
# Compressibility (1/GPa) = 0.01754906
#
# Stress axis : x y z
#
# Youngs Moduli (GPa) = 102.75635 64.66455 79.77415
#
# Poissons Ratio (x) = 0.21805 0.25593
# Poissons Ratio (y) = 0.34650 0.28009
# Poissons Ratio (z) = 0.32966 0.22704
#
# Static dielectric constant tensor:
#      x y z
#    x 3.934840 -0.000140 -0.019100 
#    y -0.000140 3.742220 0.000340 
#    z -0.019100 0.000340 3.987170 
# 
# 
# High freq. dielectric constant tensor:
#      x y z
#    x 1.828400 -0.000010 -0.005860 
#    y -0.000010 1.773480 0.000020 
#    z -0.005860 0.000020 1.832450 
# 
# From -- ./inp_files/218673.got.cif
#   From: 2010.06.25/outbox.ucp.g09.slc.cvg/sg12_110_cif.got.tgz:218673.got - 2010.06.28 13:50:54.
