data_PCOD8116997
_publ_section_title
;
Structure prediction by ZEFSAII (Michael W. Deem and Ramdas Pophale) SiO2 
 PCOD8116997
Probable space group: P 2/C
;
_chemical_formula_sum "Si O2"
_cell_formula_units_Z 30
_cell_length_a 15.426772
_cell_length_b 17.176054
_cell_length_c 9.045104
_cell_angle_alpha 90.000000
_cell_angle_beta 135.985940
_cell_angle_gamma 90.000000
_cell_volume 1665.304394
_symmetry_space_group_name_H-M "P 2/C"
_symmetry_group_IT_number 13
_symmetry_cell_setting 'monoclinic'
loop_
_space_group_symop_operation_xyz
x,y,z
-x,y,1/2-z
-x,-y,-z
x,-y,1/2+z
loop_
_atom_site_type_symbol
_atom_site_label
_atom_site_fract_x
_atom_site_fract_y
_atom_site_fract_z
Si Si1 0.635565 0.181104 0.444389
Si Si2 0.582260 0.331131 0.574029
Si Si3 0.841498 0.936314 0.200675
Si Si4 0.282401 0.229968 0.275253
Si Si5 0.500000 0.265026 0.750000
Si Si6 0.880852 0.089472 0.408638
Si Si7 0.644024 0.530059 0.970511
Si Si8 0.690746 0.605232 0.740467
O O1 0.500000 0.142940 0.250000
O O2 0.622822 0.253718 0.538813
O O3 0.727967 0.115919 0.625390
O O4 0.692900 0.209040 0.362457
O O5 0.593372 0.318012 0.764408
O O6 0.664176 0.404118 0.621306
O O7 0.438374 0.353286 0.366825
O O8 0.970292 0.902831 0.425771
O O9 0.823993 0.025328 0.228848
O O10 0.842629 0.936051 0.025641
O O11 0.409147 0.217116 0.528714
O O12 0.176655 0.172703 0.208385
O O13 0.227584 0.319164 0.206194
O O14 0.500000 0.519217 0.750000
O O15 0.728634 0.554412 0.931692
O O16 0.688590 0.448971 0.093846
#
# Coordination Sequence:
#
# PCOD8116997 Si02
#       8
#     4   4   4   4   2   4   4   4
#     4  11  17  35  52  75 107 141 166 211 262 324
#     4  10  18  29  43  66 106 140 173 212 257 309
#     4   9  20  35  63  79 101 132 174 218 263 301
#     4  10  20  33  50  70 111 140 173 214 262 311
#     4  10  20  26  44  72 102 142 172 210 264 298
#     4   9  19  40  56  81 102 132 177 223 251 309
#     4  10  18  27  41  65 100 139 180 211 254 306
#     4  10  19  27  44  68 100 144 173 216 255 302
#
# _framework density 18.014724999999999
#
# number of rings (size 3 to 8) (size 9 to 14) (size 15 to 20)
#    0.000    2.133    4.000    2.000    7.467    1.067 
#    1.200    1.333    0.000    0.000    0.000    0.933 
#    0.000    0.000    0.000    0.000    0.000    1.467 
#
# Total GULP energy -371678.514468 kJ/mol
# GULP energy per Si atom -12389.283816 kJ/mol
# Density = 1.797372 g / cm^3
# Si number density = 18.014725 Si / 1000 Ang^3
#
#
#
# Elastic Constant Matrix: (Units=GPa)
#
#
# Indices 1 2 3 4 5 6 
#
# 1 50.5900 55.3046 27.2895 0.0000 -1.9995 0.0000
# 2 55.3046 158.1498 57.0473 0.0000 4.7493 0.0000
# 3 27.2895 57.0473 61.9110 0.0000 -8.4004 0.0000
# 4 0.0000 0.0000 0.0000 22.0148 0.0000 -5.3891
# 5 -1.9995 4.7493 -8.4004 0.0000 22.2922 0.0000
# 6 0.0000 0.0000 0.0000 -5.3891 0.0000 25.1140
#
#
#
# Elastic Compliance Matrix: (Units=1/GPa)
#
#
# Indices 1 2 3 4 5 6 
#
# 1 0.033591 -0.009971 -0.005186 0.000000 0.003183 0.000000
# 2 -0.009971 0.013142 -0.008659 0.000000 -0.006957 0.000000
# 3 -0.005186 -0.008659 0.028037 0.000000 0.011945 0.000000
# 4 0.000000 0.000000 0.000000 0.047942 0.000000 0.010288
# 5 0.003183 -0.006957 0.011945 0.000000 0.051128 0.000000
# 6 0.000000 0.000000 0.000000 0.010288 0.000000 0.042026
#
#
# Mechanical properties :
#
#
# Convention : Reuss Voigt Hill
#
# Bulk Modulus (GPa) = 36.84906 61.10373 48.97640
# Shear Modulus (GPa) = 18.34558 22.61817 20.48187
#
# Velocity S-wave (km/s) = 3.19465 3.54720 3.37553
# Velocity P-wave (km/s) = 5.84012 7.12525 6.51446
#
# Compressibility (1/GPa) = 0.02713773
#
# Stress axis : x y z
#
# Youngs Moduli (GPa) = 29.77003 76.09021 35.66662
#
# Poissons Ratio (x) = 0.75872 0.18498
# Poissons Ratio (y) = 0.29685 0.30882
# Poissons Ratio (z) = 0.15440 0.65883
#
# Static dielectric constant tensor:
#      x y z
#    x 3.378000 0.000000 -0.261670 
#    y 0.000000 3.728040 0.000000 
#    z -0.261670 0.000000 3.251310 
# 
# 
# High freq. dielectric constant tensor:
#      x y z
#    x 1.669550 0.000000 -0.039690 
#    y 0.000000 1.706030 0.000000 
#    z -0.039690 0.000000 1.667690 
# 
# From -- ./inp_files/20028.got.cif
#   From: 2010.06.25/outbox.cif.g09.slc.cpg/sg13_11_cif.got.tgz:20028.got - 2010.06.28 04:50:58.
