data_PCOD8116642
_publ_section_title
;
Structure prediction by ZEFSAII (Michael W. Deem and Ramdas Pophale) SiO2 
 PCOD8116642
Probable space group: P 2/C
;
_chemical_formula_sum "Si O2"
_cell_formula_units_Z 20
_cell_length_a 19.596662
_cell_length_b 13.423511
_cell_length_c 5.256081
_cell_angle_alpha 90.000000
_cell_angle_beta 74.810229
_cell_angle_gamma 90.000000
_cell_volume 1334.338660
_symmetry_space_group_name_H-M "P 2/C"
_symmetry_group_IT_number 13
_symmetry_cell_setting 'monoclinic'
loop_
_space_group_symop_operation_xyz
x,y,z
-x,y,1/2-z
-x,-y,-z
x,-y,1/2+z
loop_
_atom_site_type_symbol
_atom_site_label
_atom_site_fract_x
_atom_site_fract_y
_atom_site_fract_z
Si Si1 0.045759 0.768225 0.459843
Si Si2 0.920928 0.542729 0.062851
Si Si3 0.838022 0.065009 0.652859
Si Si4 0.470054 0.113557 0.529257
Si Si5 0.683150 0.060087 0.872540
O O1 0.080320 0.660817 0.469370
O O2 0.107694 0.846534 0.363531
O O3 0.000000 0.767696 0.250000
O O4 0.000000 0.798507 0.750000
O O5 0.881535 0.507755 0.359567
O O6 0.000000 0.500000 0.000000
O O7 0.758931 0.112620 0.749496
O O8 0.849565 0.014972 0.366475
O O9 0.500000 0.168475 0.750000
O O10 0.385297 0.126876 0.616456
O O11 0.500000 0.000000 0.500000
O O12 0.500000 0.168499 0.250000
O O13 0.678828 0.970163 0.672871
#
# Coordination Sequence:
#
# PCOD8116642 Si02
#       5
#     4   4   4   4   4
#     4  12  21  32  51  64  81 106 146 185 210 250
#     4  10  16  30  48  71  82  94 118 176 234 265
#     4  10  23  35  42  58  84 122 149 172 206 234
#     4  10  14  20  36  60  70  90 129 174 199 225
#     4  10  16  27  39  51  79 103 133 172 198 238
#
# _framework density 14.988699
#
# number of rings (size 3 to 8) (size 9 to 14) (size 15 to 20)
#    0.000    1.600    8.000    1.200    0.000    2.400 
#    0.000    0.000    0.000    0.000    0.000    0.000 
#    0.000    0.000    0.000    0.000    0.000    6.000 
#
# Total GULP energy -247775.664626 kJ/mol
# GULP energy per Si atom -12388.783231 kJ/mol
# Density = 1.495458 g / cm^3
# Si number density = 14.988699 Si / 1000 Ang^3
#
#
#
# Elastic Constant Matrix: (Units=GPa)
#
#
# Indices 1 2 3 4 5 6 
#
# 1 58.7204 20.2060 26.7633 0.0000 -8.2558 0.0000
# 2 20.2060 38.6380 9.3718 0.0000 -11.5020 0.0000
# 3 26.7633 9.3718 113.0434 0.0000 13.4007 0.0000
# 4 0.0000 0.0000 0.0000 3.3514 0.0000 0.4682
# 5 -8.2558 -11.5020 13.4007 0.0000 27.0503 0.0000
# 6 0.0000 0.0000 0.0000 0.4682 0.0000 -0.9378
#
#
#
# Elastic Compliance Matrix: (Units=1/GPa)
#
#
# Indices 1 2 3 4 5 6 
#
# 1 0.023558 -0.009185 -0.005530 0.000000 0.006024 0.000000
# 2 -0.009185 0.035214 -0.002324 0.000000 0.013321 0.000000
# 3 -0.005530 -0.002324 0.011331 0.000000 -0.008289 0.000000
# 4 0.000000 0.000000 0.000000 0.278929 0.000000 0.139261
# 5 0.006024 0.013321 -0.008289 0.000000 0.048577 0.000000
# 6 0.000000 0.000000 0.000000 0.139261 0.000000 -0.996785
#
#
# Mechanical properties :
#
#
# Convention : Reuss Voigt Hill
#
# Bulk Modulus (GPa) = 27.75910 35.89823 31.82867
# Shear Modulus (GPa) = -9.04013 16.16349 3.56168
#
# Velocity S-wave (km/s) = -2.45853 3.28743 1.54318
# Velocity P-wave (km/s) = 3.24053 6.19772 4.94534
#
# Compressibility (1/GPa) = 0.03602422
#
# Stress axis : x y z
#
# Youngs Moduli (GPa) = 42.44853 28.39786 88.25579
#
# Poissons Ratio (x) = 0.26084 0.48806
# Poissons Ratio (y) = 0.38990 0.20510
# Poissons Ratio (z) = 0.23474 0.06599
#
# Static dielectric constant tensor:
#      x y z
#    x 3.165430 0.000000 0.543580 
#    y 0.000000 2.427200 0.000000 
#    z 0.543580 0.000000 4.294190 
# 
# 
# High freq. dielectric constant tensor:
#      x y z
#    x 1.562790 0.000000 0.019490 
#    y 0.000000 1.501560 0.000000 
#    z 0.019490 0.000000 1.610570 
# 
# From -- ./inp_files/3452.got.cif
#   From: 2010.06.25/outbox.cif.g09.slc.cpg/sg13_2_cif.got.tgz:3452.got - 2010.06.28 04:50:58.
