data_PCOD8116348
_publ_section_title
;
Structure prediction by ZEFSAII (Michael W. Deem and Ramdas Pophale) SiO2 
 PCOD8116348
Probable space group: C 2/M
;
_chemical_formula_sum "Si O2"
_cell_formula_units_Z 32
_cell_length_a 30.000000
_cell_length_b 9.000000
_cell_length_c 18.000000
_cell_angle_alpha 90.000000
_cell_angle_beta 40.000000
_cell_angle_gamma 90.000000
_cell_volume 3123.947783
_symmetry_space_group_name_H-M "C 2/M"
_symmetry_group_IT_number 12
_symmetry_cell_setting 'monoclinic'
loop_
_space_group_symop_operation_xyz
x,y,z
-x,y,-z
-x,-y,-z
x,-y,z
1/2+x,1/2+y,z
1/2-x,1/2+y,-z
1/2-x,1/2-y,-z
1/2+x,1/2-y,z
loop_
_atom_site_type_symbol
_atom_site_label
_atom_site_fract_x
_atom_site_fract_y
_atom_site_fract_z
Si Si1 0.874300 0.666215 0.202475
Si Si2 0.116093 0.668514 0.976770
Si Si3 0.753568 0.325292 0.575353
Si Si4 0.495757 0.323482 0.588155
Si Si5 0.223390 0.826772 0.927792
Si Si6 0.348656 0.325057 0.828649
Si Si7 0.389614 0.674832 0.445192
Si Si8 0.031052 0.669545 0.782339
O O1 0.842603 0.500000 0.252648
O O2 0.904719 0.689150 0.081957
O O3 0.815440 0.788041 0.291731
O O4 0.938637 0.689127 0.174429
O O5 0.138805 0.500000 0.964874
O O6 0.180722 0.775457 0.910634
O O7 0.049844 0.711492 0.111265
O O8 0.761896 0.500000 0.553732
O O9 0.750000 0.250000 0.500000
O O10 0.818059 0.263603 0.540151
O O11 0.500000 0.257332 0.500000
O O12 0.492988 0.500000 0.590004
O O13 0.426286 0.263289 0.717015
O O14 0.563790 0.270858 0.545239
O O15 0.297838 0.747427 0.832725
O O16 0.236807 0.000000 0.908391
O O17 0.177172 0.776585 0.057273
O O18 0.345529 0.500000 0.821164
O O19 0.374524 0.500000 0.466206
O O20 0.430949 0.712872 0.317880
O O21 0.042051 0.500000 0.739984
#
# Coordination Sequence:
#
# PCOD8116348 Si02
#       8
#     8   8   8   8   8   8   8   8
#     4  10  21  38  59  83 114 152 192 238 288 343
#     4  10  21  36  56  84 116 152 192 233 288 353
#     4  12  24  40  61  86 117 153 196 243 289 341
#     4   9  19  36  58  84 113 147 190 237 284 340
#     4  10  20  34  54  82 113 146 186 237 289 342
#     4   9  18  35  58  81 108 145 188 235 286 343
#     4  11  22  37  61  90 118 153 196 242 293 346
#     4  10  20  36  59  84 114 151 193 239 287 344
#
# _framework density 10.243449
#
# number of rings (size 3 to 8) (size 9 to 14) (size 15 to 20)
#    0.000    1.875    1.250    3.000    0.000    5.000 
#    0.000    3.750    0.000    4.875    0.000    0.000 
#    0.000    0.000    0.000    0.000    0.000    0.000 
#
# Total GULP energy -396847.311059 kJ/mol
# GULP energy per Si atom -12401.478471 kJ/mol
# Density = 1.022013 g / cm^3
# Si number density = 10.243449 Si / 1000 Ang^3
#
#
#
# Elastic Constant Matrix: (Units=GPa)
#
#
# Indices 1 2 3 4 5 6 
#
# 1 111.0803 31.1839 12.4590 -0.0023 -13.2704 0.0027
# 2 31.1839 67.3463 19.5476 0.0361 -10.3609 -0.0199
# 3 12.4590 19.5476 47.1393 0.0087 -13.6955 -0.0093
# 4 -0.0023 0.0361 0.0087 23.8447 -0.0150 -4.3695
# 5 -13.2704 -10.3609 -13.6955 -0.0150 31.4697 0.0079
# 6 0.0027 -0.0199 -0.0093 -4.3695 0.0079 24.1801
#
#
#
# Elastic Compliance Matrix: (Units=1/GPa)
#
#
# Indices 1 2 3 4 5 6 
#
# 1 0.010612 -0.004426 -0.000106 0.000009 0.002972 -0.000004
# 2 -0.004426 0.018956 -0.006205 -0.000024 0.001675 0.000009
# 3 -0.000106 -0.006205 0.026567 0.000006 0.009475 0.000003
# 4 0.000009 -0.000024 0.000006 0.043374 0.000017 0.007838
# 5 0.002972 0.001675 0.009475 0.000017 0.037704 -0.000005
# 6 -0.000004 0.000009 0.000003 0.007838 -0.000005 0.042773
#
#
# Mechanical properties :
#
#
# Convention : Reuss Voigt Hill
#
# Bulk Modulus (GPa) = 28.84936 39.10521 33.97729
# Shear Modulus (GPa) = 23.47260 26.72391 25.09825
#
# Velocity S-wave (km/s) = 3.38855 3.61562 3.50392
# Velocity P-wave (km/s) = 5.42421 6.04646 5.74377
#
# Compressibility (1/GPa) = 0.03466281
#
# Stress axis : x y z
#
# Youngs Moduli (GPa) = 94.23424 52.75249 37.64020
#
# Poissons Ratio (x) = 0.23347 0.00400
# Poissons Ratio (y) = 0.41705 0.23354
# Poissons Ratio (z) = 0.01000 0.32731
#
# Static dielectric constant tensor:
#      x y z
#    x 3.906870 -0.000010 -0.145540 
#    y -0.000010 3.517600 0.000030 
#    z -0.145540 0.000030 3.647430 
# 
# 
# High freq. dielectric constant tensor:
#      x y z
#    x 1.805420 0.000000 -0.011660 
#    y 0.000000 1.779860 0.000000 
#    z -0.011660 0.000000 1.790140 
# 
# From -- ./inp_files/295547.got.cif
#   From: 2010.06.25/outbox.ucp.g09.slc.cvg/sg12_148_cif.got.tgz:295547.got - 2010.06.28 13:50:54.
