data_PCOD8116331
_publ_section_title
;
Structure prediction by ZEFSAII (Michael W. Deem and Ramdas Pophale) SiO2 
 PCOD8116331
Probable space group: C 2/M
;
_chemical_formula_sum "Si O2"
_cell_formula_units_Z 32
_cell_length_a 24.000000
_cell_length_b 9.000000
_cell_length_c 30.000000
_cell_angle_alpha 90.000000
_cell_angle_beta 30.000000
_cell_angle_gamma 90.000000
_cell_volume 3240.000000
_symmetry_space_group_name_H-M "C 2/M"
_symmetry_group_IT_number 12
_symmetry_cell_setting 'monoclinic'
loop_
_space_group_symop_operation_xyz
x,y,z
-x,y,-z
-x,-y,-z
x,-y,z
1/2+x,1/2+y,z
1/2-x,1/2+y,-z
1/2-x,1/2-y,-z
1/2+x,1/2-y,z
loop_
_atom_site_type_symbol
_atom_site_label
_atom_site_fract_x
_atom_site_fract_y
_atom_site_fract_z
Si Si1 0.212392 0.164098 0.153340
Si Si2 0.735944 0.173538 0.366212
Si Si3 0.440462 0.173435 0.265738
Si Si4 0.122356 0.824725 0.909841
Si Si5 0.496889 0.830007 0.680303
Si Si6 0.527341 0.828682 0.563174
Si Si7 0.346773 0.665793 0.907838
Si Si8 0.717126 0.826473 0.277566
O O1 0.316936 0.272228 0.087353
O O2 0.111491 0.230101 0.251924
O O3 0.184932 0.160724 0.121142
O O4 0.238800 0.000000 0.153142
O O5 0.822095 0.273307 0.332329
O O6 0.616197 0.234888 0.466298
O O7 0.756179 0.203237 0.300513
O O8 0.751034 0.000000 0.367906
O O9 0.441247 0.218066 0.317489
O O10 0.535300 0.251344 0.170090
O O11 0.455999 0.000000 0.247756
O O12 0.190052 0.757887 0.820239
O O13 0.115297 0.000000 0.911867
O O14 0.000000 0.755498 0.000000
O O15 0.571173 0.808014 0.584091
O O16 0.456328 0.000000 0.712308
O O17 0.405595 0.752793 0.642785
O O18 0.512180 0.000000 0.561170
O O19 0.359452 0.500000 0.918881
O O20 0.250000 0.750000 0.000000
O O21 0.708304 0.000000 0.272571
#
# Coordination Sequence:
#
# PCOD8116331 Si02
#       8
#     8   8   8   8   8   8   8   8
#     4  10  20  34  53  79 109 138 171 219 275 323
#     4  10  20  33  53  80 109 144 183 230 280 327
#     4  10  21  36  53  77 112 149 181 220 273 327
#     4  10  20  34  54  79 105 139 183 225 268 322
#     4   9  17  33  57  78 101 139 183 224 265 322
#     4   9  16  30  56  82 102 134 186 235 276 324
#     4  10  21  37  58  83 109 140 181 225 269 325
#     4   9  17  32  54  79 106 137 182 232 274 326
#
# _framework density 9.8765429999999999
#
# number of rings (size 3 to 8) (size 9 to 14) (size 15 to 20)
#    0.000    2.375    1.250    1.500    0.000    5.250 
#    0.000    2.500    0.000    0.750    0.000    0.000 
#    0.000    0.000    0.000    0.000    0.000    0.000 
#
# Total GULP energy -396543.210873 kJ/mol
# GULP energy per Si atom -12391.975340 kJ/mol
# Density = 0.985406 g / cm^3
# Si number density = 9.876543 Si / 1000 Ang^3
#
#
#
# Elastic Constant Matrix: (Units=GPa)
#
#
# Indices 1 2 3 4 5 6 
#
# 1 43.3792 18.9855 31.3839 0.0001 -18.3884 0.0013
# 2 18.9855 34.0873 33.7675 -0.0026 0.8875 0.0163
# 3 31.3839 33.7675 130.0315 0.0044 -12.8353 -0.0105
# 4 0.0001 -0.0026 0.0044 18.2074 0.0018 -5.4378
# 5 -18.3884 0.8875 -12.8353 0.0018 21.6458 -0.0020
# 6 0.0013 0.0163 -0.0105 -5.4378 -0.0020 20.8068
#
#
#
# Elastic Compliance Matrix: (Units=1/GPa)
#
#
# Indices 1 2 3 4 5 6 
#
# 1 0.061309 -0.035120 -0.000419 -0.000002 0.053275 0.000028
# 2 -0.035120 0.061027 -0.011220 -0.000001 -0.038990 -0.000055
# 3 -0.000419 -0.011220 0.011382 -0.000001 0.006853 0.000015
# 4 -0.000002 -0.000001 -0.000001 0.059573 -0.000005 0.015569
# 5 0.053275 -0.038990 0.006853 -0.000005 0.097119 0.000039
# 6 0.000028 -0.000055 0.000015 0.015569 0.000039 0.052130
#
#
# Mechanical properties :
#
#
# Convention : Reuss Voigt Hill
#
# Bulk Modulus (GPa) = 24.87497 41.75244 33.31370
# Shear Modulus (GPa) = 11.12455 20.35607 15.74031
#
# Velocity S-wave (km/s) = 2.37572 3.21366 2.82592
# Velocity P-wave (km/s) = 4.48839 5.91213 5.24876
#
# Compressibility (1/GPa) = 0.04020106
#
# Stress axis : x y z
#
# Youngs Moduli (GPa) = 16.31076 16.38619 87.86026
#
# Poissons Ratio (x) = 0.57548 0.03677
# Poissons Ratio (y) = 0.57283 0.98581
# Poissons Ratio (z) = 0.00683 0.18386
#
# Static dielectric constant tensor:
#      x y z
#    x 4.245330 0.000090 0.779730 
#    y 0.000090 3.461110 0.000080 
#    z 0.779730 0.000080 4.487140 
# 
# 
# High freq. dielectric constant tensor:
#      x y z
#    x 1.757710 0.000000 0.009720 
#    y 0.000000 1.732640 0.000000 
#    z 0.009720 0.000000 1.770200 
# 
# From -- ./inp_files/382349.got.cif
#   From: 2010.06.25/outbox.ucp.g09.slc.cvg/sg12_192_cif.got.tgz:382349.got - 2010.06.28 13:50:54.
