data_PCOD8116137
_publ_section_title
;
Structure prediction by ZEFSAII (Michael W. Deem and Ramdas Pophale) SiO2 
 PCOD8116137
Probable space group: C 2/M
;
_chemical_formula_sum "Si O2"
_cell_formula_units_Z 64
_cell_length_a 23.112556
_cell_length_b 9.499054
_cell_length_c 22.639001
_cell_angle_alpha 90.000000
_cell_angle_beta 131.507594
_cell_angle_gamma 90.000000
_cell_volume 3722.123690
_symmetry_space_group_name_H-M "C 2/M"
_symmetry_group_IT_number 12
_symmetry_cell_setting 'monoclinic'
loop_
_space_group_symop_operation_xyz
x,y,z
-x,y,-z
-x,-y,-z
x,-y,z
1/2+x,1/2+y,z
1/2-x,1/2+y,-z
1/2-x,1/2-y,-z
1/2+x,1/2-y,z
loop_
_atom_site_type_symbol
_atom_site_label
_atom_site_fract_x
_atom_site_fract_y
_atom_site_fract_z
Si Si1 0.888357 0.837389 0.344591
Si Si2 0.469230 0.332854 0.747061
Si Si3 0.732549 0.661001 0.072339
Si Si4 0.046043 0.832753 0.395725
Si Si5 0.674438 0.336880 0.570526
Si Si6 0.752204 0.161067 0.786940
Si Si7 0.863396 0.164896 0.103265
Si Si8 0.183442 0.834757 0.292898
O O1 0.878489 0.814032 0.407621
O O2 0.824157 0.754315 0.264729
O O3 0.971534 0.777926 0.381281
O O4 0.879295 0.000000 0.320946
O O5 0.470702 0.500000 0.746118
O O6 0.455928 0.272529 0.672133
O O7 0.550094 0.276819 0.828217
O O8 0.400081 0.280195 0.742402
O O9 0.758375 0.500000 0.079568
O O10 0.704941 0.685113 0.121301
O O11 0.806196 0.757693 0.109362
O O12 0.661155 0.698509 0.980934
O O13 0.124210 0.781972 0.481032
O O14 0.045130 0.000000 0.395384
O O15 0.698196 0.500000 0.580217
O O16 0.751590 0.244800 0.625382
O O17 0.809277 0.202686 0.771787
O O18 0.726011 0.000000 0.761665
O O19 0.858623 0.000000 0.114393
O O20 0.193621 0.000000 0.311939
#
# Coordination Sequence:
#
# PCOD8116137 Si02
#       8
#     8   8   8   8   8   8   8   8
#     4   9  16  27  45  67  88 111 142 179 217 258
#     4   9  17  29  45  64  86 114 148 181 212 250
#     4   9  17  29  46  69  94 115 137 171 216 260
#     4   9  16  26  43  66  88 110 140 181 223 258
#     4   9  17  29  45  65  87 111 142 181 221 257
#     4   9  17  29  44  63  89 118 144 173 213 256
#     4   9  17  30  48  69  91 114 141 174 212 256
#     4   9  18  32  46  60  84 118 150 179 211 249
#
# _framework density 17.194486000000001
#
# number of rings (size 3 to 8) (size 9 to 14) (size 15 to 20)
#    0.000    3.000    0.000    1.125    0.000    3.500 
#    0.000    1.875    0.000    8.250    0.000    0.000 
#    0.000    8.000    0.000    0.000    0.000    0.000 
#
# Total GULP energy -396707.630836 kJ/mol
# GULP energy per Si atom -12397.113464 kJ/mol
# Density = 1.715535 g / cm^3
# Si number density = 17.194486 Si / 1000 Ang^3
#
#
#
# Elastic Constant Matrix: (Units=GPa)
#
#
# Indices 1 2 3 4 5 6 
#
# 1 117.2928 28.6609 82.6353 0.0000 11.1424 0.0000
# 2 28.6609 30.4475 31.9672 0.0000 2.4552 0.0000
# 3 82.6353 31.9672 147.4513 0.0000 -0.8180 0.0000
# 4 0.0000 0.0000 0.0000 20.8823 0.0000 3.5791
# 5 11.1424 2.4552 -0.8180 0.0000 21.7935 0.0000
# 6 0.0000 0.0000 0.0000 3.5791 0.0000 17.6345
#
#
#
# Elastic Compliance Matrix: (Units=1/GPa)
#
#
# Indices 1 2 3 4 5 6 
#
# 1 0.016382 -0.006598 -0.007794 0.000000 -0.007925 0.000000
# 2 -0.006598 0.045763 -0.006235 0.000000 -0.002016 0.000000
# 3 -0.007794 -0.006235 0.012530 0.000000 0.005158 0.000000
# 4 0.000000 0.000000 0.000000 0.049613 0.000000 -0.010070
# 5 -0.007925 -0.002016 0.005158 0.000000 0.050358 0.000000
# 6 0.000000 0.000000 0.000000 -0.010070 0.000000 0.058751
#
#
# Mechanical properties :
#
#
# Convention : Reuss Voigt Hill
#
# Bulk Modulus (GPa) = 29.92159 64.63539 47.27849
# Shear Modulus (GPa) = 17.49519 22.19059 19.84289
#
# Velocity S-wave (km/s) = 3.19327 3.59634 3.40078
# Velocity P-wave (km/s) = 5.57096 7.41062 6.55564
#
# Compressibility (1/GPa) = 0.03342068
#
# Stress axis : x y z
#
# Youngs Moduli (GPa) = 61.04181 21.85167 79.80613
#
# Poissons Ratio (x) = 0.14419 0.62204
# Poissons Ratio (y) = 0.40278 0.49756
# Poissons Ratio (z) = 0.47579 0.13624
#
# Static dielectric constant tensor:
#      x y z
#    x 3.253780 0.000000 -0.080440 
#    y 0.000000 2.974420 0.000000 
#    z -0.080440 0.000000 3.397140 
# 
# 
# High freq. dielectric constant tensor:
#      x y z
#    x 1.655570 0.000000 -0.009780 
#    y 0.000000 1.633460 0.000000 
#    z -0.009780 0.000000 1.668930 
# 
# From -- ./inp_files/320986.got.cif
#   From: 2010.06.25/outbox.cif.g09.slc.cpg/sg12_161_cif.got.tgz:320986.got - 2010.06.28 00:19:55.
