data_PCOD8116879
_publ_section_title
;
Structure prediction by ZEFSAII (Michael W. Deem and Ramdas Pophale) SiO2 
 PCOD8116879
Probable space group: P 2/C
;
_chemical_formula_sum "Si O2"
_cell_formula_units_Z 20
_cell_length_a 8.812204
_cell_length_b 9.611408
_cell_length_c 20.879973
_cell_angle_alpha 90.000000
_cell_angle_beta 141.559967
_cell_angle_gamma 90.000000
_cell_volume 1099.458911
_symmetry_space_group_name_H-M "P 2/C"
_symmetry_group_IT_number 13
_symmetry_cell_setting 'monoclinic'
loop_
_space_group_symop_operation_xyz
x,y,z
-x,y,1/2-z
-x,-y,-z
x,-y,1/2+z
loop_
_atom_site_type_symbol
_atom_site_label
_atom_site_fract_x
_atom_site_fract_y
_atom_site_fract_z
Si Si1 0.569073 0.422333 0.116634
Si Si2 0.737937 0.131904 0.140224
Si Si3 0.831138 0.367313 0.613515
Si Si4 0.402834 0.655251 0.287271
Si Si5 0.495858 0.847232 0.433204
O O1 0.672019 0.267927 0.160064
O O2 0.774236 0.516731 0.148647
O O3 0.520471 0.497436 0.168566
O O4 0.308561 0.419101 0.995657
O O5 0.000000 0.080452 0.250000
O O6 0.549233 0.009439 0.095771
O O7 0.724265 0.166148 0.058921
O O8 0.733862 0.218126 0.605049
O O9 0.111044 0.338815 0.691380
O O10 0.500000 0.694491 0.250000
O O11 0.533762 0.763207 0.379787
#
# Coordination Sequence:
#
# PCOD8116879 Si02
#       5
#     4   4   4   4   4
#     4   9  18  31  51  75  95 126 171 212 249 287
#     4  10  17  30  56  80  98 121 167 224 254 281
#     4   9  17  33  52  71  98 129 169 212 244 289
#     4  11  21  33  50  73 106 141 166 197 249 310
#     4   9  19  33  53  78  98 130 172 204 250 304
#
# _framework density 18.190767000000001
#
# number of rings (size 3 to 8) (size 9 to 14) (size 15 to 20)
#    0.000    2.400    0.000    6.000    0.000    0.800 
#    0.000    1.000    0.000   16.800    0.000    0.000 
#    0.000    0.000    0.000    0.000    0.000    0.000 
#
# Total GULP energy -247841.779207 kJ/mol
# GULP energy per Si atom -12392.088960 kJ/mol
# Density = 1.814936 g / cm^3
# Si number density = 18.190767 Si / 1000 Ang^3
#
#
#
# Elastic Constant Matrix: (Units=GPa)
#
#
# Indices 1 2 3 4 5 6 
#
# 1 68.5458 21.7263 47.4124 0.0000 -18.9268 0.0000
# 2 21.7263 114.9088 22.8620 0.0000 -10.6672 0.0000
# 3 47.4124 22.8620 113.1523 0.0000 -9.5394 0.0000
# 4 0.0000 0.0000 0.0000 27.1260 0.0000 -4.6045
# 5 -18.9268 -10.6672 -9.5394 0.0000 24.3183 0.0000
# 6 0.0000 0.0000 0.0000 -4.6045 0.0000 13.2715
#
#
#
# Elastic Compliance Matrix: (Units=1/GPa)
#
#
# Indices 1 2 3 4 5 6 
#
# 1 0.025777 -0.001589 -0.009150 0.000000 0.015776 0.000000
# 2 -0.001589 0.009440 -0.001031 0.000000 0.002500 0.000000
# 3 -0.009150 -0.001031 0.012660 0.000000 -0.002607 0.000000
# 4 0.000000 0.000000 0.000000 0.039172 0.000000 0.013590
# 5 0.015776 0.002500 -0.002607 0.000000 0.053474 0.000000
# 6 0.000000 0.000000 0.000000 0.013590 0.000000 0.080065
#
#
# Mechanical properties :
#
#
# Convention : Reuss Voigt Hill
#
# Bulk Modulus (GPa) = 41.08763 53.40093 47.24428
# Shear Modulus (GPa) = 19.82239 26.58358 23.20298
#
# Velocity S-wave (km/s) = 3.30463 3.82694 3.57534
# Velocity P-wave (km/s) = 6.09893 6.99622 6.56293
#
# Compressibility (1/GPa) = 0.02433823
#
# Stress axis : x y z
#
# Youngs Moduli (GPa) = 38.79353 105.93077 78.98822
#
# Poissons Ratio (x) = 0.16831 0.72275
# Poissons Ratio (y) = 0.06164 0.08142
# Poissons Ratio (z) = 0.35496 0.10920
#
# Static dielectric constant tensor:
#      x y z
#    x 2.805840 0.000000 -0.166250 
#    y 0.000000 3.528470 0.000000 
#    z -0.166250 0.000000 3.662090 
# 
# 
# High freq. dielectric constant tensor:
#      x y z
#    x 1.632170 0.000000 -0.007170 
#    y 0.000000 1.718710 0.000000 
#    z -0.007170 0.000000 1.729310 
# 
# From -- ./inp_files/45703.got.cif
#   From: 2010.06.25/outbox.cif.g09.slc.cpg/sg13_23_cif.got.tgz:45703.got - 2010.06.28 04:50:58.
