data_PCOD8116419
_publ_section_title
;
Structure prediction by ZEFSAII (Michael W. Deem and Ramdas Pophale) SiO2 
 PCOD8116419
Probable space group: C 2/M
;
_chemical_formula_sum "Si O2"
_cell_formula_units_Z 32
_cell_length_a 30.000000
_cell_length_b 9.000000
_cell_length_c 24.000000
_cell_angle_alpha 90.000000
_cell_angle_beta 30.000000
_cell_angle_gamma 90.000000
_cell_volume 3240.000000
_symmetry_space_group_name_H-M "C 2/M"
_symmetry_group_IT_number 12
_symmetry_cell_setting 'monoclinic'
loop_
_space_group_symop_operation_xyz
x,y,z
-x,y,-z
-x,-y,-z
x,-y,z
1/2+x,1/2+y,z
1/2-x,1/2+y,-z
1/2-x,1/2-y,-z
1/2+x,1/2-y,z
loop_
_atom_site_type_symbol
_atom_site_label
_atom_site_fract_x
_atom_site_fract_y
_atom_site_fract_z
Si Si1 0.479548 0.174403 0.960581
Si Si2 0.481744 0.323997 0.454382
Si Si3 0.102116 0.178068 0.144147
Si Si4 0.177473 0.679013 0.950899
Si Si5 0.345726 0.827246 0.295885
Si Si6 0.355613 0.820376 0.785089
Si Si7 0.671146 0.172641 0.447887
Si Si8 0.083022 0.329271 0.662486
O O1 0.559748 0.217401 0.832922
O O2 0.471247 0.000000 0.977170
O O3 0.500000 0.244947 0.000000
O O4 0.387455 0.228484 0.030237
O O5 0.500000 0.293163 0.500000
O O6 0.488689 0.500000 0.434092
O O7 0.552849 0.230833 0.342213
O O8 0.385343 0.263969 0.537494
O O9 0.146955 0.255756 0.149397
O O10 0.998029 0.215047 0.252787
O O11 0.116196 0.000000 0.131602
O O12 0.146793 0.246961 0.041460
O O13 0.180809 0.500000 0.952622
O O14 0.275870 0.748010 0.834506
O O15 0.271619 0.734100 0.342811
O O16 0.353117 0.790089 0.354016
O O17 0.323434 0.000000 0.310906
O O18 0.349937 0.000000 0.792353
O O19 0.635097 0.193675 0.549107
O O20 0.671890 0.000000 0.429321
O O21 0.048420 0.500000 0.706168
#
# Coordination Sequence:
#
# PCOD8116419 Si02
#       8
#     8   8   8   8   8   8   8   8
#     4   9  19  37  62  89 117 157 207 255 300 350
#     4  11  25  45  67  91 120 161 213 259 303 363
#     4  12  23  37  62  93 125 162 205 252 311 372
#     4  11  22  40  64  91 127 165 207 255 308 367
#     4  10  20  37  61  89 124 163 204 249 304 366
#     4  12  25  42  64  93 128 161 202 252 313 375
#     4  11  23  38  61  92 126 161 201 250 309 368
#     4  10  20  37  60  89 123 162 200 248 309 369
#
# _framework density 9.8765429999999999
#
# number of rings (size 3 to 8) (size 9 to 14) (size 15 to 20)
#    0.000    1.250    2.500    4.125    0.000    3.000 
#    0.000    2.500    0.000    2.625    0.000    0.000 
#    0.000    0.000    0.000    0.000    0.000    0.000 
#
# Total GULP energy -396759.515869 kJ/mol
# GULP energy per Si atom -12398.734871 kJ/mol
# Density = 0.985406 g / cm^3
# Si number density = 9.876543 Si / 1000 Ang^3
#
#
#
# Elastic Constant Matrix: (Units=GPa)
#
#
# Indices 1 2 3 4 5 6 
#
# 1 183.4494 51.8071 36.0664 -0.0055 -14.5543 0.0018
# 2 51.8071 134.3981 23.3850 0.0062 -9.5220 -0.0011
# 3 36.0664 23.3850 46.9873 -0.0045 -15.6832 0.0039
# 4 -0.0055 0.0062 -0.0045 34.8390 0.0004 -7.0810
# 5 -14.5543 -9.5220 -15.6832 0.0004 45.3968 0.0013
# 6 0.0018 -0.0011 0.0039 -7.0810 0.0013 37.2240
#
#
#
# Elastic Compliance Matrix: (Units=1/GPa)
#
#
# Indices 1 2 3 4 5 6 
#
# 1 0.006834 -0.001880 -0.004194 0.000001 0.000348 0.000000
# 2 -0.001880 0.008668 -0.002787 -0.000002 0.000253 0.000000
# 3 -0.004194 -0.002787 0.028535 0.000003 0.007929 -0.000003
# 4 0.000001 -0.000002 0.000003 0.029858 0.000000 0.005680
# 5 0.000348 0.000253 0.007929 0.000000 0.024932 -0.000002
# 6 0.000000 0.000000 -0.000003 0.005680 -0.000002 0.027945
#
#
# Mechanical properties :
#
#
# Convention : Reuss Voigt Hill
#
# Bulk Modulus (GPa) = 37.99985 65.26132 51.63058
# Shear Modulus (GPa) = 32.62332 40.39703 36.51017
#
# Velocity S-wave (km/s) = 4.06834 4.52718 4.30388
# Velocity P-wave (km/s) = 6.43022 7.77415 7.13390
#
# Compressibility (1/GPa) = 0.02631589
#
# Stress axis : x y z
#
# Youngs Moduli (GPa) = 146.32376 115.36631 35.04486
#
# Poissons Ratio (x) = 0.21689 0.14698
# Poissons Ratio (y) = 0.27509 0.09766
# Poissons Ratio (z) = 0.61368 0.32148
#
# Static dielectric constant tensor:
#      x y z
#    x 4.178940 -0.000020 -0.155670 
#    y -0.000020 3.722190 0.000050 
#    z -0.155670 0.000050 3.702640 
# 
# 
# High freq. dielectric constant tensor:
#      x y z
#    x 1.805530 0.000000 -0.010920 
#    y 0.000000 1.775500 0.000000 
#    z -0.010920 0.000000 1.769710 
# 
# From -- ./inp_files/353384.got.cif
#   From: 2010.06.25/outbox.ucp.g09.slc.cvg/sg12_177_cif.got.tgz:353384.got - 2010.06.28 13:50:54.
