data_PCOD8116781
_publ_section_title
;
Structure prediction by ZEFSAII (Michael W. Deem and Ramdas Pophale) SiO2 
 PCOD8116781
Probable space group: P 2/C
;
_chemical_formula_sum "Si O2"
_cell_formula_units_Z 22
_cell_length_a 10.083008
_cell_length_b 6.925114
_cell_length_c 22.432967
_cell_angle_alpha 90.000000
_cell_angle_beta 55.534417
_cell_angle_gamma 90.000000
_cell_volume 1291.447189
_symmetry_space_group_name_H-M "P 2/C"
_symmetry_group_IT_number 13
_symmetry_cell_setting 'monoclinic'
loop_
_space_group_symop_operation_xyz
x,y,z
-x,y,1/2-z
-x,-y,-z
x,-y,1/2+z
loop_
_atom_site_type_symbol
_atom_site_label
_atom_site_fract_x
_atom_site_fract_y
_atom_site_fract_z
Si Si1 0.000000 0.639908 0.750000
Si Si2 0.667107 0.555416 0.357107
Si Si3 0.724557 0.877798 0.432494
Si Si4 0.401404 0.880471 0.215842
Si Si5 0.957920 0.990698 0.195832
Si Si6 0.483636 0.149326 0.092859
O O1 0.846786 0.505603 0.795669
O O2 0.974860 0.776499 0.697992
O O3 0.669548 0.675303 0.417919
O O4 0.594954 0.684602 0.322715
O O5 0.548058 0.376004 0.394438
O O6 0.654849 0.887544 0.517059
O O7 0.659891 0.054603 0.408795
O O8 0.917580 0.904524 0.384559
O O9 0.500000 0.842849 0.250000
O O10 0.219952 0.936826 0.279545
O O11 0.485442 0.054081 0.157675
O O12 0.000000 0.895520 0.250000
#
# Coordination Sequence:
#
# PCOD8116781 Si02
#       6
#     2   4   4   4   4   4
#     4  10  16  30  58  84 102 136 180 232 260 306
#     4  11  17  32  53  83 111 133 179 222 274 311
#     4  10  19  31  56  83 110 135 172 230 275 310
#     4  11  23  37  55  78 112 148 180 216 263 325
#     4  10  16  37  54  80 106 140 182 221 268 303
#     4  10  19  34  53  82 111 137 176 222 273 319
#
# _framework density 17.035153000000001
#
# number of rings (size 3 to 8) (size 9 to 14) (size 15 to 20)
#    0.545    1.091    7.273    1.636    0.000    0.727 
#    0.000    0.909    0.000    1.091    0.000    0.000 
#    0.000    0.000    0.000    0.000    0.000    0.000 
#
# Total GULP energy -272768.502492 kJ/mol
# GULP energy per Si atom -12398.568295 kJ/mol
# Density = 1.699638 g / cm^3
# Si number density = 17.035153 Si / 1000 Ang^3
#
#
#
# Elastic Constant Matrix: (Units=GPa)
#
#
# Indices 1 2 3 4 5 6 
#
# 1 78.4600 21.9592 39.0278 0.0000 -6.5139 0.0000
# 2 21.9592 105.5028 29.2819 0.0000 -0.0362 0.0000
# 3 39.0278 29.2819 108.2241 0.0000 -19.9543 0.0000
# 4 0.0000 0.0000 0.0000 18.0196 0.0000 -6.1124
# 5 -6.5139 -0.0362 -19.9543 0.0000 21.0388 0.0000
# 6 0.0000 0.0000 0.0000 -6.1124 0.0000 13.2721
#
#
#
# Elastic Compliance Matrix: (Units=1/GPa)
#
#
# Indices 1 2 3 4 5 6 
#
# 1 0.015859 -0.001850 -0.005228 0.000000 -0.000052 0.000000
# 2 -0.001850 0.010641 -0.002805 0.000000 -0.003214 0.000000
# 3 -0.005228 -0.002805 0.014040 0.000000 0.011693 0.000000
# 4 0.000000 0.000000 0.000000 0.065770 0.000000 0.030290
# 5 -0.000052 -0.003214 0.011693 0.000000 0.058600 0.000000
# 6 0.000000 0.000000 0.000000 0.030290 0.000000 0.089296
#
#
# Mechanical properties :
#
#
# Convention : Reuss Voigt Hill
#
# Bulk Modulus (GPa) = 48.13482 52.52497 50.32990
# Shear Modulus (GPa) = 17.80015 23.92730 20.86373
#
# Velocity S-wave (km/s) = 3.23601 3.75184 3.50343
# Velocity P-wave (km/s) = 6.50230 7.04760 6.78043
#
# Compressibility (1/GPa) = 0.02077498
#
# Stress axis : x y z
#
# Youngs Moduli (GPa) = 63.05384 93.97825 71.22370
#
# Poissons Ratio (x) = 0.17385 0.37237
# Poissons Ratio (y) = 0.11664 0.19975
# Poissons Ratio (z) = 0.32966 0.26357
#
# Static dielectric constant tensor:
#      x y z
#    x 2.743330 0.000000 -0.217800 
#    y 0.000000 3.286940 0.000000 
#    z -0.217800 0.000000 3.219960 
# 
# 
# High freq. dielectric constant tensor:
#      x y z
#    x 1.609260 0.000000 -0.029020 
#    y 0.000000 1.670860 0.000000 
#    z -0.029020 0.000000 1.656360 
# 
# From -- ./inp_files/81301.got.cif
#   From: 2010.06.25/outbox.cif.g09.slc.cpg/sg13_41_cif.got.tgz:81301.got - 2010.06.28 04:50:58.
