data_PCOD8116827
_publ_section_title
;
Structure prediction by ZEFSAII (Michael W. Deem and Ramdas Pophale) SiO2 
 PCOD8116827
Probable space group: P 2/C
;
_chemical_formula_sum "Si O2"
_cell_formula_units_Z 30
_cell_length_a 20.406158
_cell_length_b 17.258462
_cell_length_c 8.634159
_cell_angle_alpha 90.000000
_cell_angle_beta 145.443721
_cell_angle_gamma 90.000000
_cell_volume 1724.770997
_symmetry_space_group_name_H-M "P 2/C"
_symmetry_group_IT_number 13
_symmetry_cell_setting 'monoclinic'
loop_
_space_group_symop_operation_xyz
x,y,z
-x,y,1/2-z
-x,-y,-z
x,-y,1/2+z
loop_
_atom_site_type_symbol
_atom_site_label
_atom_site_fract_x
_atom_site_fract_y
_atom_site_fract_z
Si Si1 0.617825 0.961932 0.168361
Si Si2 0.679234 0.270423 0.116742
Si Si3 0.500000 0.839762 0.750000
Si Si4 0.133530 0.395713 0.000895
Si Si5 0.605061 0.563232 0.039078
Si Si6 0.508254 0.287873 0.511751
Si Si7 0.639761 0.897907 0.524320
Si Si8 0.240866 0.477441 0.924520
O O1 0.684022 0.921445 0.439009
O O2 0.685751 0.034394 0.226957
O O3 0.602195 0.897099 0.003574
O O4 0.500000 0.000000 0.000000
O O5 0.798209 0.316409 0.335619
O O6 0.700857 0.180721 0.202109
O O7 0.616572 0.266423 0.829154
O O8 0.600181 0.313186 0.092540
O O9 0.534015 0.786153 0.670168
O O10 0.164566 0.455986 0.196408
O O11 0.160904 0.428242 0.883086
O O12 0.000000 0.375013 0.750000
O O13 0.549759 0.644205 0.981173
O O14 0.651585 0.514907 0.274163
O O15 0.707084 0.576420 0.110962
O O16 0.500000 0.516223 0.750000
O O17 0.500000 0.886325 0.250000
#
# Coordination Sequence:
#
# PCOD8116827 Si02
#       8
#     4   4   2   4   4   4   4   4
#     4  10  17  26  43  70 104 145 178 201 244 308
#     4  11  21  35  51  76 108 145 174 212 274 316
#     4  12  18  28  48  72 114 150 174 202 250 320
#     4  11  23  41  60  78 101 138 188 232 269 308
#     4  11  20  35  51  81 112 143 171 207 270 333
#     4  11  21  31  49  77 116 145 164 215 263 332
#     4  10  17  29  45  72 108 141 174 208 257 317
#     4  10  23  38  57  78 103 137 183 227 265 316
#
# _framework density 17.393612999999998
#
# number of rings (size 3 to 8) (size 9 to 14) (size 15 to 20)
#    0.000    1.333    6.667    2.400    0.000    1.067 
#    0.000    0.000    0.000    0.000    0.000    0.933 
#    0.000    0.000    0.000    0.000    0.000    0.000 
#
# Total GULP energy -371819.603381 kJ/mol
# GULP energy per Si atom -12393.986779 kJ/mol
# Density = 1.735402 g / cm^3
# Si number density = 17.393613 Si / 1000 Ang^3
#
#
#
# Elastic Constant Matrix: (Units=GPa)
#
#
# Indices 1 2 3 4 5 6 
#
# 1 92.5101 54.2460 46.1452 0.0000 -11.9930 0.0000
# 2 54.2460 110.6704 36.8322 0.0000 0.1428 0.0000
# 3 46.1452 36.8322 71.4492 0.0000 1.4277 0.0000
# 4 0.0000 0.0000 0.0000 12.3143 0.0000 -13.0729
# 5 -11.9930 0.1428 1.4277 0.0000 25.4072 0.0000
# 6 0.0000 0.0000 0.0000 -13.0729 0.0000 20.7267
#
#
#
# Elastic Compliance Matrix: (Units=1/GPa)
#
#
# Indices 1 2 3 4 5 6 
#
# 1 0.021638 -0.007118 -0.010522 0.000000 0.010845 0.000000
# 2 -0.007118 0.013250 -0.002167 0.000000 -0.003313 0.000000
# 3 -0.010522 -0.002167 0.022033 0.000000 -0.006193 0.000000
# 4 0.000000 0.000000 0.000000 0.245765 0.000000 0.155010
# 5 0.010845 -0.003313 -0.006193 0.000000 0.044845 0.000000
# 6 0.000000 0.000000 0.000000 0.155010 0.000000 0.146016
#
#
# Mechanical properties :
#
#
# Convention : Reuss Voigt Hill
#
# Bulk Modulus (GPa) = 57.78319 61.00849 59.39584
# Shear Modulus (GPa) = 9.27763 20.85006 15.06385
#
# Velocity S-wave (km/s) = 2.31204 3.46601 2.94608
# Velocity P-wave (km/s) = 6.35770 7.15325 6.76718
#
# Compressibility (1/GPa) = 0.01730607
#
# Stress axis : x y z
#
# Youngs Moduli (GPa) = 46.21464 75.46927 45.38739
#
# Poissons Ratio (x) = 0.53721 0.47757
# Poissons Ratio (y) = 0.32897 0.09836
# Poissons Ratio (z) = 0.48628 0.16355
#
# Static dielectric constant tensor:
#      x y z
#    x 3.408170 0.000000 -0.457360 
#    y 0.000000 3.426900 0.000000 
#    z -0.457360 0.000000 3.014240 
# 
# 
# High freq. dielectric constant tensor:
#      x y z
#    x 1.672090 0.000000 -0.048980 
#    y 0.000000 1.680100 0.000000 
#    z -0.048980 0.000000 1.623090 
# 
# From -- ./inp_files/23657.got.cif
#   From: 2010.06.25/outbox.cif.g09.slc.cpg/sg13_12_cif.got.tgz:23657.got - 2010.06.28 04:50:58.
