data_PCOD8116375
_publ_section_title
;
Structure prediction by ZEFSAII (Michael W. Deem and Ramdas Pophale) SiO2 
 PCOD8116375
Probable space group: C 2/M
;
_chemical_formula_sum "Si O2"
_cell_formula_units_Z 28
_cell_length_a 21.000000
_cell_length_b 9.000000
_cell_length_c 30.000000
_cell_angle_alpha 90.000000
_cell_angle_beta 30.000000
_cell_angle_gamma 90.000000
_cell_volume 2835.000000
_symmetry_space_group_name_H-M "C 2/M"
_symmetry_group_IT_number 12
_symmetry_cell_setting 'monoclinic'
loop_
_space_group_symop_operation_xyz
x,y,z
-x,y,-z
-x,-y,-z
x,-y,z
1/2+x,1/2+y,z
1/2-x,1/2+y,-z
1/2-x,1/2-y,-z
1/2+x,1/2-y,z
loop_
_atom_site_type_symbol
_atom_site_label
_atom_site_fract_x
_atom_site_fract_y
_atom_site_fract_z
Si Si1 0.080513 0.672830 0.559931
Si Si2 0.545828 0.826803 0.206939
Si Si3 0.874407 0.673884 0.229831
Si Si4 0.867133 0.172222 0.381501
Si Si5 0.081187 0.321545 0.895728
Si Si6 0.319564 0.676131 0.082331
Si Si7 0.090982 0.823586 0.406049
O O1 0.047666 0.500000 0.578011
O O2 0.084181 0.724391 0.608489
O O3 0.221695 0.707471 0.454767
O O4 0.966708 0.758649 0.604505
O O5 0.498541 0.789346 0.185142
O O6 0.457825 0.713222 0.286334
O O7 0.693726 0.790233 0.128489
O O8 0.517908 0.000000 0.235176
O O9 0.860650 0.500000 0.234720
O O10 0.893813 0.737553 0.168889
O O11 0.734789 0.733905 0.329980
O O12 0.880789 0.000000 0.386686
O O13 0.089158 0.500000 0.896621
O O14 0.187737 0.241349 0.862690
O O15 0.938226 0.266462 0.991084
O O16 0.346003 0.500000 0.067479
O O17 0.000000 0.763183 0.500000
O O18 0.086189 0.000000 0.404841
#
# Coordination Sequence:
#
# PCOD8116375 Si02
#       7
#     8   8   8   8   8   8   8
#     4  10  21  36  54  79 110 148 191 238 289 335
#     4  10  21  38  59  83 114 150 187 233 287 340
#     4   9  20  37  57  84 115 151 193 236 281 338
#     4  10  21  36  55  80 112 146 189 236 282 339
#     4  10  20  37  60  84 113 150 191 233 280 341
#     4  10  21  37  59  86 115 146 184 236 292 340
#     4  10  20  35  57  82 111 152 196 236 282 337
#
# _framework density 9.8765429999999999
#
# number of rings (size 3 to 8) (size 9 to 14) (size 15 to 20)
#    0.000    2.143    0.000    3.429    2.000    4.857 
#    0.000    2.857    0.000    0.000    0.000    0.000 
#    0.000    0.000    0.000    0.000    0.000    0.000 
#
# Total GULP energy -346942.179517 kJ/mol
# GULP energy per Si atom -12390.792126 kJ/mol
# Density = 0.985406 g / cm^3
# Si number density = 9.876543 Si / 1000 Ang^3
#
#
#
# Elastic Constant Matrix: (Units=GPa)
#
#
# Indices 1 2 3 4 5 6 
#
# 1 163.0399 26.2786 59.0909 0.0031 -29.6656 -0.0124
# 2 26.2786 54.2095 14.2794 0.0059 -5.2018 -0.0117
# 3 59.0909 14.2794 66.7806 0.0013 -5.3593 0.0000
# 4 0.0031 0.0059 0.0013 22.5797 0.0008 -4.4527
# 5 -29.6656 -5.2018 -5.3593 0.0008 35.4676 -0.0003
# 6 -0.0124 -0.0117 0.0000 -4.4527 -0.0003 30.0027
#
#
#
# Elastic Compliance Matrix: (Units=1/GPa)
#
#
# Indices 1 2 3 4 5 6 
#
# 1 0.011020 -0.002339 -0.008644 0.000000 0.007568 0.000004
# 2 -0.002339 0.020226 -0.002201 -0.000004 0.000677 0.000006
# 3 -0.008644 -0.002201 0.022763 0.000000 -0.004113 -0.000005
# 4 0.000000 -0.000004 0.000000 0.045623 -0.000002 0.006771
# 5 0.007568 0.000677 -0.004113 -0.000002 0.034003 0.000003
# 6 0.000004 0.000006 -0.000005 0.006771 0.000003 0.034335
#
#
# Mechanical properties :
#
#
# Convention : Reuss Voigt Hill
#
# Bulk Modulus (GPa) = 36.17663 53.70308 44.93985
# Shear Modulus (GPa) = 24.56383 29.90209 27.23296
#
# Velocity S-wave (km/s) = 3.53022 3.89497 3.71707
# Velocity P-wave (km/s) = 5.91361 6.89013 6.42046
#
# Compressibility (1/GPa) = 0.02764216
#
# Stress axis : x y z
#
# Youngs Moduli (GPa) = 90.74090 49.44248 43.93018
#
# Poissons Ratio (x) = 0.11565 0.37973
# Poissons Ratio (y) = 0.21225 0.09667
# Poissons Ratio (z) = 0.78435 0.10880
#
# Static dielectric constant tensor:
#      x y z
#    x 4.052410 0.000000 -0.103610 
#    y 0.000000 3.493090 0.000000 
#    z -0.103610 0.000000 3.685890 
# 
# 
# High freq. dielectric constant tensor:
#      x y z
#    x 1.790820 0.000000 -0.017130 
#    y 0.000000 1.764290 0.000000 
#    z -0.017130 0.000000 1.761080 
# 
# From -- ./inp_files/380635.got.cif
#   From: 2010.06.25/outbox.ucp.g09.slc.cvg/sg12_191_cif.got.tgz:380635.got - 2010.06.28 13:50:54.
