data_PCOD8116088
_publ_section_title
;
Structure prediction by ZEFSAII (Michael W. Deem and Ramdas Pophale) SiO2 
 PCOD8116088
Probable space group: C 2/M
;
_chemical_formula_sum "Si O2"
_cell_formula_units_Z 56
_cell_length_a 12.392795
_cell_length_b 29.094915
_cell_length_c 12.445361
_cell_angle_alpha 90.000000
_cell_angle_beta 49.399671
_cell_angle_gamma 90.000000
_cell_volume 3407.130027
_symmetry_space_group_name_H-M "C 2/M"
_symmetry_group_IT_number 12
_symmetry_cell_setting 'monoclinic'
loop_
_space_group_symop_operation_xyz
x,y,z
-x,y,-z
-x,-y,-z
x,-y,z
1/2+x,1/2+y,z
1/2-x,1/2+y,-z
1/2-x,1/2-y,-z
1/2+x,1/2-y,z
loop_
_atom_site_type_symbol
_atom_site_label
_atom_site_fract_x
_atom_site_fract_y
_atom_site_fract_z
Si Si1 0.054734 0.836373 0.712811
Si Si2 0.658061 0.369563 0.435250
Si Si3 0.619020 0.281168 0.339640
Si Si4 0.162720 0.552639 0.778254
Si Si5 0.348560 0.707035 0.139864
Si Si6 0.120604 0.883346 0.004275
Si Si7 0.332230 0.947730 0.979838
O O1 0.161394 0.861426 0.561136
O O2 0.146222 0.809740 0.741330
O O3 0.960047 0.799296 0.713424
O O4 0.954077 0.874112 0.833411
O O5 0.500000 0.382035 0.500000
O O6 0.705311 0.322806 0.342288
O O7 0.756509 0.412914 0.351747
O O8 0.500000 0.260916 0.500000
O O9 0.725583 0.244446 0.219616
O O10 0.210382 0.500000 0.727067
O O11 0.998939 0.558359 0.853530
O O12 0.198591 0.566922 0.877356
O O13 0.500000 0.727630 0.000000
O O14 0.311696 0.663687 0.087137
O O15 0.247048 0.918715 0.945868
O O16 0.000000 0.902718 0.000000
O O17 0.285352 0.000000 0.992465
#
# Coordination Sequence:
#
# PCOD8116088 Si02
#       7
#     8   8   8   8   8   8   8
#     4   8  17  33  49  64 101 127 153 207 245 281
#     4   9  17  30  49  71  98 131 162 196 249 296
#     4   9  18  32  48  70  99 129 163 203 248 296
#     4   9  18  32  50  76 104 127 156 201 253 298
#     4   9  19  34  48  70  98 130 168 206 245 284
#     4   9  18  33  53  70  95 131 169 204 243 284
#     4   9  17  32  51  73 103 128 158 204 249 292
#
# _framework density 16.436122000000001
#
# number of rings (size 3 to 8) (size 9 to 14) (size 15 to 20)
#    0.000    3.714    0.000    2.571    0.000    5.143 
#   10.286    0.714    0.000    0.857    0.000    8.000 
#    0.000    0.000    0.000    0.000    0.000    0.000 
#
# Total GULP energy -346955.571348 kJ/mol
# GULP energy per Si atom -12391.270405 kJ/mol
# Density = 1.639871 g / cm^3
# Si number density = 16.436122 Si / 1000 Ang^3
#
#
#
# Elastic Constant Matrix: (Units=GPa)
#
#
# Indices 1 2 3 4 5 6 
#
# 1 73.3819 50.8767 39.5879 0.0000 2.9964 0.0000
# 2 50.8767 93.9366 58.7985 0.0000 -5.3409 0.0000
# 3 39.5879 58.7985 96.0941 0.0000 6.8584 0.0000
# 4 0.0000 0.0000 0.0000 28.9552 0.0000 -14.3464
# 5 2.9964 -5.3409 6.8584 0.0000 21.8311 0.0000
# 6 0.0000 0.0000 0.0000 -14.3464 0.0000 28.7794
#
#
#
# Elastic Compliance Matrix: (Units=1/GPa)
#
#
# Indices 1 2 3 4 5 6 
#
# 1 0.022849 -0.011374 -0.002078 0.000000 -0.005266 0.000000
# 2 -0.011374 0.024285 -0.010955 0.000000 0.010944 0.000000
# 3 -0.002078 -0.010955 0.018552 0.000000 -0.008223 0.000000
# 4 0.000000 0.000000 0.000000 0.045864 0.000000 0.022863
# 5 -0.005266 0.010944 -0.008223 0.000000 0.051790 0.000000
# 6 0.000000 0.000000 0.000000 0.022863 0.000000 0.046144
#
#
# Mechanical properties :
#
#
# Convention : Reuss Voigt Hill
#
# Bulk Modulus (GPa) = 59.26565 62.43766 60.85166
# Shear Modulus (GPa) = 18.94493 23.52311 21.23402
#
# Velocity S-wave (km/s) = 3.39874 3.78720 3.59822
# Velocity P-wave (km/s) = 7.17902 7.56270 7.37336
#
# Compressibility (1/GPa) = 0.01687318
#
# Stress axis : x y z
#
# Youngs Moduli (GPa) = 43.76538 41.17731 53.90115
#
# Poissons Ratio (x) = 0.46836 0.11199
# Poissons Ratio (y) = 0.49780 0.59049
# Poissons Ratio (z) = 0.09093 0.45110
#
# Static dielectric constant tensor:
#      x y z
#    x 2.934470 0.000000 0.158280 
#    y 0.000000 2.969410 0.000000 
#    z 0.158280 0.000000 3.212690 
# 
# 
# High freq. dielectric constant tensor:
#      x y z
#    x 1.620070 0.000000 0.010160 
#    y 0.000000 1.621200 0.000000 
#    z 0.010160 0.000000 1.632800 
# 
# From -- ./inp_files/136542.got.cif
#   From: 2010.06.25/outbox.cif.g09.slc.cpg/sg12_69_cif.got.tgz:136542.got - 2010.06.28 00:19:55.
