data_PCOD8116388
_publ_section_title
;
Structure prediction by ZEFSAII (Michael W. Deem and Ramdas Pophale) SiO2 
 PCOD8116388
Probable space group: C 2/M
;
_chemical_formula_sum "Si O2"
_cell_formula_units_Z 32
_cell_length_a 24.000000
_cell_length_b 9.000000
_cell_length_c 30.000000
_cell_angle_alpha 90.000000
_cell_angle_beta 30.000000
_cell_angle_gamma 90.000000
_cell_volume 3240.000000
_symmetry_space_group_name_H-M "C 2/M"
_symmetry_group_IT_number 12
_symmetry_cell_setting 'monoclinic'
loop_
_space_group_symop_operation_xyz
x,y,z
-x,y,-z
-x,-y,-z
x,-y,z
1/2+x,1/2+y,z
1/2-x,1/2+y,-z
1/2-x,1/2-y,-z
1/2+x,1/2-y,z
loop_
_atom_site_type_symbol
_atom_site_label
_atom_site_fract_x
_atom_site_fract_y
_atom_site_fract_z
Si Si1 0.841252 0.324630 0.829464
Si Si2 0.307863 0.323352 0.503440
Si Si3 0.631305 0.172607 0.011702
Si Si4 0.044348 0.170998 0.919784
Si Si5 0.709922 0.823771 0.667790
Si Si6 0.272895 0.170806 0.714867
Si Si7 0.455724 0.825343 0.659028
Si Si8 0.961765 0.324257 0.832442
O O1 0.833630 0.500000 0.837676
O O2 0.886061 0.274163 0.750655
O O3 0.919131 0.259522 0.814959
O O4 0.718562 0.263751 0.922323
O O5 0.297395 0.500000 0.505101
O O6 0.250000 0.250000 0.500000
O O7 0.256964 0.272541 0.586692
O O8 0.435082 0.273820 0.416975
O O9 0.511819 0.213305 0.074727
O O10 0.625397 0.219463 0.068047
O O11 0.657197 0.000000 0.988529
O O12 0.175060 0.200293 0.819281
O O13 0.013563 0.000000 0.930149
O O14 0.000000 0.209310 0.000000
O O15 0.771730 0.760295 0.668964
O O16 0.584235 0.760185 0.757289
O O17 0.717492 0.000000 0.666193
O O18 0.386402 0.210745 0.662399
O O19 0.271300 0.000000 0.701616
O O20 0.485657 0.000000 0.641501
O O21 0.972749 0.500000 0.821744
#
# Coordination Sequence:
#
# PCOD8116388 Si02
#       8
#     8   8   8   8   8   8   8   8
#     4  10  20  37  59  80 112 160 201 240 294 356
#     4  11  24  42  67  95 122 155 196 243 299 360
#     4  11  21  33  52  83 118 150 192 247 300 348
#     4  10  20  36  57  80 112 157 206 246 287 349
#     4  10  21  40  63  86 118 159 197 241 302 364
#     4  10  21  37  59  88 118 155 203 251 296 346
#     4  10  22  41  63  87 120 158 198 245 298 353
#     4   9  18  34  56  81 112 151 195 238 289 351
#
# _framework density 9.8765429999999999
#
# number of rings (size 3 to 8) (size 9 to 14) (size 15 to 20)
#    0.000    1.875    1.250    2.625    0.000    6.750 
#    0.000    5.000    0.000    0.000    0.000    0.000 
#    0.000    0.000    0.000    0.000    0.000    0.000 
#
# Total GULP energy -396663.607165 kJ/mol
# GULP energy per Si atom -12395.737724 kJ/mol
# Density = 0.985406 g / cm^3
# Si number density = 9.876543 Si / 1000 Ang^3
#
#
#
# Elastic Constant Matrix: (Units=GPa)
#
#
# Indices 1 2 3 4 5 6 
#
# 1 134.2532 36.4301 50.5255 0.0850 14.3968 -0.1398
# 2 36.4301 39.0446 37.3868 0.0699 7.9620 -0.0240
# 3 50.5255 37.3868 122.6823 -0.0019 13.3464 -0.0522
# 4 0.0850 0.0699 -0.0019 29.0285 -0.0135 0.1928
# 5 14.3968 7.9620 13.3464 -0.0135 42.6648 0.0919
# 6 -0.1398 -0.0240 -0.0522 0.1928 0.0919 34.0749
#
#
#
# Elastic Compliance Matrix: (Units=1/GPa)
#
#
# Indices 1 2 3 4 5 6 
#
# 1 0.010354 -0.007663 -0.001765 -0.000013 -0.001512 0.000039
# 2 -0.007663 0.042324 -0.009487 -0.000081 -0.002345 -0.000009
# 3 -0.001765 -0.009487 0.011917 0.000028 -0.001362 0.000008
# 4 -0.000013 -0.000081 0.000028 0.034450 0.000022 -0.000195
# 5 -0.001512 -0.002345 -0.001362 0.000022 0.024813 -0.000077
# 6 0.000039 -0.000009 0.000008 -0.000195 -0.000077 0.029349
#
#
# Mechanical properties :
#
#
# Convention : Reuss Voigt Hill
#
# Bulk Modulus (GPa) = 37.36015 60.51830 48.93923
# Shear Modulus (GPa) = 25.00522 32.59617 28.80069
#
# Velocity S-wave (km/s) = 3.56179 4.06665 3.82257
# Velocity P-wave (km/s) = 5.98914 7.26320 6.65672
#
# Compressibility (1/GPa) = 0.02676648
#
# Stress axis : x y z
#
# Youngs Moduli (GPa) = 96.57888 23.62720 83.91257
#
# Poissons Ratio (x) = 0.18105 0.14807
# Poissons Ratio (y) = 0.74007 0.79608
# Poissons Ratio (z) = 0.17042 0.22415
#
# Static dielectric constant tensor:
#      x y z
#    x 3.869470 -0.000040 0.164960 
#    y -0.000040 3.376980 0.000020 
#    z 0.164960 0.000020 3.751770 
# 
# 
# High freq. dielectric constant tensor:
#      x y z
#    x 1.789420 0.000000 0.012710 
#    y 0.000000 1.749690 0.000000 
#    z 0.012710 0.000000 1.781790 
# 
# From -- ./inp_files/238731.got.cif
#   From: 2010.06.25/outbox.ucp.g09.slc.cvg/sg12_120_cif.got.tgz:238731.got - 2010.06.28 13:50:54.
