data_PCOD8116519
_publ_section_title
;
Structure prediction by ZEFSAII (Michael W. Deem and Ramdas Pophale) SiO2 
 PCOD8116519
Probable space group: C 2/M
;
_chemical_formula_sum "Si O2"
_cell_formula_units_Z 24
_cell_length_a 27.000000
_cell_length_b 9.000000
_cell_length_c 15.000000
_cell_angle_alpha 90.000000
_cell_angle_beta 140.000000
_cell_angle_gamma 90.000000
_cell_volume 2342.960837
_symmetry_space_group_name_H-M "C 2/M"
_symmetry_group_IT_number 12
_symmetry_cell_setting 'monoclinic'
loop_
_space_group_symop_operation_xyz
x,y,z
-x,y,-z
-x,-y,-z
x,-y,z
1/2+x,1/2+y,z
1/2-x,1/2+y,-z
1/2-x,1/2-y,-z
1/2+x,1/2-y,z
loop_
_atom_site_type_symbol
_atom_site_label
_atom_site_fract_x
_atom_site_fract_y
_atom_site_fract_z
Si Si1 0.962321 0.327122 0.361714
Si Si2 0.233658 0.326870 0.570377
Si Si3 0.309398 0.177806 0.839709
Si Si4 0.529228 0.673532 0.942022
Si Si5 0.444032 0.828113 0.675917
Si Si6 0.283233 0.174253 0.131721
O O1 0.983354 0.500000 0.390023
O O2 0.872952 0.296651 0.245420
O O3 0.000000 0.250036 0.500000
O O4 0.000946 0.261835 0.325762
O O5 0.257939 0.500000 0.601273
O O6 0.250000 0.250000 0.500000
O O7 0.286893 0.239410 0.712580
O O8 0.144577 0.310009 0.475237
O O9 0.249063 0.244344 0.826379
O O10 0.306544 0.000000 0.838524
O O11 0.395345 0.232407 0.980306
O O12 0.546994 0.500000 0.953363
O O13 0.459798 0.727017 0.783472
O O14 0.500000 0.709657 0.000000
O O15 0.462486 0.000000 0.723675
O O16 0.263153 0.000000 0.108950
O O17 0.250000 0.250000 0.000000
#
# Coordination Sequence:
#
# PCOD8116519 Si02
#       6
#     8   8   8   8   8   8
#     4   9  18  35  59  85 113 149 193 238 288 349
#     4  11  23  40  63  91 124 161 202 250 303 362
#     4  12  25  41  62  88 122 164 208 252 300 360
#     4  11  24  41  62  88 119 155 198 252 309 362
#     4  10  21  38  62  90 119 155 198 244 299 363
#     4  11  22  38  62  90 121 157 199 251 308 365
#
# _framework density 10.243449
#
# number of rings (size 3 to 8) (size 9 to 14) (size 15 to 20)
#    0.000    1.333    0.000    6.000    0.000    9.333 
#    0.000    0.833    0.000    3.500    0.000    0.000 
#    0.000    0.000    0.000    0.000    0.000    0.000 
#
# Total GULP energy -297680.057925 kJ/mol
# GULP energy per Si atom -12403.335747 kJ/mol
# Density = 1.022013 g / cm^3
# Si number density = 10.243449 Si / 1000 Ang^3
#
#
#
# Elastic Constant Matrix: (Units=GPa)
#
#
# Indices 1 2 3 4 5 6 
#
# 1 98.7157 41.0659 8.0281 0.0000 -5.3027 0.0000
# 2 41.0659 122.5248 37.9968 0.0000 4.6333 0.0000
# 3 8.0281 37.9968 82.3285 0.0000 -13.7245 0.0000
# 4 0.0000 0.0000 0.0000 30.8622 0.0000 0.1212
# 5 -5.3027 4.6333 -13.7245 0.0000 33.8381 0.0000
# 6 0.0000 0.0000 0.0000 0.1212 0.0000 34.7777
#
#
#
# Elastic Compliance Matrix: (Units=1/GPa)
#
#
# Indices 1 2 3 4 5 6 
#
# 1 0.012106 -0.004635 0.001481 0.000000 0.003133 0.000000
# 2 -0.004635 0.011659 -0.005701 0.000000 -0.004635 0.000000
# 3 0.001481 -0.005701 0.015876 0.000000 0.007452 0.000000
# 4 0.000000 0.000000 0.000000 0.032403 0.000000 -0.000113
# 5 0.003133 -0.004635 0.007452 0.000000 0.033700 0.000000
# 6 0.000000 0.000000 0.000000 -0.000113 0.000000 0.028754
#
#
# Mechanical properties :
#
#
# Convention : Reuss Voigt Hill
#
# Bulk Modulus (GPa) = 45.60179 53.08340 49.34259
# Shear Modulus (GPa) = 31.34422 34.32749 32.83586
#
# Velocity S-wave (km/s) = 3.91572 4.09783 4.00781
# Velocity P-wave (km/s) = 6.53843 6.95390 6.74937
#
# Compressibility (1/GPa) = 0.02192896
#
# Stress axis : x y z
#
# Youngs Moduli (GPa) = 82.60221 85.77368 62.98945
#
# Poissons Ratio (x) = 0.39759 -0.09329
# Poissons Ratio (y) = 0.38289 0.35913
# Poissons Ratio (z) = -0.12233 0.48903
#
# Static dielectric constant tensor:
#      x y z
#    x 3.960340 0.000000 -0.084170 
#    y 0.000000 3.724250 0.000000 
#    z -0.084170 0.000000 3.816620 
# 
# 
# High freq. dielectric constant tensor:
#      x y z
#    x 1.822180 0.000000 0.001920 
#    y 0.000000 1.795180 0.000000 
#    z 0.001920 0.000000 1.810560 
# 
# From -- ./inp_files/244765.got.cif
#   From: 2010.06.25/outbox.ucp.g09.slc.cvg/sg12_123_cif.got.tgz:244765.got - 2010.06.28 13:50:54.
