data_PCOD8116420
_publ_section_title
;
Structure prediction by ZEFSAII (Michael W. Deem and Ramdas Pophale) SiO2 
 PCOD8116420
Probable space group: C 2/M
;
_chemical_formula_sum "Si O2"
_cell_formula_units_Z 24
_cell_length_a 15.000000
_cell_length_b 18.000000
_cell_length_c 18.000000
_cell_angle_alpha 90.000000
_cell_angle_beta 30.000000
_cell_angle_gamma 90.000000
_cell_volume 2430.000000
_symmetry_space_group_name_H-M "C 2/M"
_symmetry_group_IT_number 12
_symmetry_cell_setting 'monoclinic'
loop_
_space_group_symop_operation_xyz
x,y,z
-x,y,-z
-x,-y,-z
x,-y,z
1/2+x,1/2+y,z
1/2-x,1/2+y,-z
1/2-x,1/2-y,-z
1/2+x,1/2-y,z
loop_
_atom_site_type_symbol
_atom_site_label
_atom_site_fract_x
_atom_site_fract_y
_atom_site_fract_z
Si Si1 0.290036 0.325339 0.922478
Si Si2 0.190617 0.310396 0.831312
Si Si3 0.191416 0.858456 0.823449
Si Si4 0.952991 0.586720 0.360805
Si Si5 0.429575 0.911854 0.206812
Si Si6 0.353775 0.414088 0.302325
O O1 0.318398 0.313740 0.812337
O O2 0.473006 0.361818 0.818024
O O3 0.250000 0.250000 0.000000
O O4 0.130066 0.383246 0.049365
O O5 0.197564 0.227506 0.793655
O O6 0.213042 0.368671 0.745335
O O7 0.000000 0.330927 0.000000
O O8 0.356538 0.873969 0.760080
O O9 0.218627 0.907197 0.729661
O O10 0.000000 0.876746 0.000000
O O11 0.989137 0.500000 0.343985
O O12 0.885346 0.604759 0.325678
O O13 0.799089 0.612860 0.529512
O O14 0.418165 0.000000 0.197952
O O15 0.403803 0.500000 0.282383
#
# Coordination Sequence:
#
# PCOD8116420 Si02
#       6
#     8   8   8   8   8   8
#     4  11  21  38  61  86 117 151 193 242 289 347
#     4   9  20  36  57  85 115 145 187 244 292 339
#     4  11  21  37  60  86 116 152 196 244 295 351
#     4  10  22  39  57  83 120 155 191 239 294 355
#     4  10  20  37  61  85 112 151 197 242 289 346
#     4  11  23  38  58  86 120 155 190 238 300 354
#
# _framework density 9.8765429999999999
#
# number of rings (size 3 to 8) (size 9 to 14) (size 15 to 20)
#    0.000    1.667    0.000    6.500    0.000    7.667 
#    0.000   10.000    0.000    3.000    0.000    0.000 
#    0.000    0.000    0.000    0.000    0.000    0.000 
#
# Total GULP energy -297443.061957 kJ/mol
# GULP energy per Si atom -12393.460915 kJ/mol
# Density = 0.985406 g / cm^3
# Si number density = 9.876543 Si / 1000 Ang^3
#
#
#
# Elastic Constant Matrix: (Units=GPa)
#
#
# Indices 1 2 3 4 5 6 
#
# 1 154.2327 50.4147 38.4270 0.0048 20.3696 -0.0013
# 2 50.4147 112.7856 43.0490 0.0174 6.4085 -0.0122
# 3 38.4270 43.0490 100.5195 0.0185 15.3195 -0.0274
# 4 0.0048 0.0174 0.0185 26.8528 -0.0219 4.2466
# 5 20.3696 6.4085 15.3195 -0.0219 38.2763 0.0087
# 6 -0.0013 -0.0122 -0.0274 4.2466 0.0087 43.5867
#
#
#
# Elastic Compliance Matrix: (Units=1/GPa)
#
#
# Indices 1 2 3 4 5 6 
#
# 1 0.008236 -0.002970 -0.001368 -0.000001 -0.003338 -0.000001
# 2 -0.002970 0.011670 -0.004053 -0.000003 0.001249 0.000001
# 3 -0.001368 -0.004053 0.012772 -0.000010 -0.003705 0.000009
# 4 -0.000001 -0.000003 -0.000010 0.037823 0.000028 -0.003685
# 5 -0.003338 0.001249 -0.003705 0.000028 0.029176 -0.000011
# 6 -0.000001 0.000001 0.000009 -0.003685 -0.000011 0.023302
#
#
# Mechanical properties :
#
#
# Convention : Reuss Voigt Hill
#
# Bulk Modulus (GPa) = 62.90632 70.14659 66.52646
# Shear Modulus (GPa) = 34.46891 37.45296 35.96093
#
# Velocity S-wave (km/s) = 4.18184 4.35910 4.27139
# Velocity P-wave (km/s) = 7.43186 7.80541 7.62092
#
# Compressibility (1/GPa) = 0.01589665
#
# Stress axis : x y z
#
# Youngs Moduli (GPa) = 121.41595 85.69143 78.29874
#
# Poissons Ratio (x) = 0.25448 0.10711
# Poissons Ratio (y) = 0.36057 0.31733
# Poissons Ratio (z) = 0.16609 0.34729
#
# Static dielectric constant tensor:
#      x y z
#    x 4.359740 -0.000020 0.292440 
#    y -0.000020 3.759710 0.000080 
#    z 0.292440 0.000080 3.599160 
# 
# 
# High freq. dielectric constant tensor:
#      x y z
#    x 1.804940 0.000000 0.016620 
#    y 0.000000 1.786030 0.000010 
#    z 0.016620 0.000010 1.759570 
# 
# From -- ./inp_files/105061.got.cif
#   From: 2010.06.25/outbox.ucp.g09.slc.cvg/sg12_53_cif.got.tgz:105061.got - 2010.06.28 13:50:54.
