data_PCOD8116749
_publ_section_title
;
Structure prediction by ZEFSAII (Michael W. Deem and Ramdas Pophale) SiO2 
 PCOD8116749
Probable space group: P 2/C
;
_chemical_formula_sum "Si O2"
_cell_formula_units_Z 20
_cell_length_a 8.842972
_cell_length_b 22.204846
_cell_length_c 5.176517
_cell_angle_alpha 90.000000
_cell_angle_beta 78.678659
_cell_angle_gamma 90.000000
_cell_volume 996.666099
_symmetry_space_group_name_H-M "P 2/C"
_symmetry_group_IT_number 13
_symmetry_cell_setting 'monoclinic'
loop_
_space_group_symop_operation_xyz
x,y,z
-x,y,1/2-z
-x,-y,-z
x,-y,1/2+z
loop_
_atom_site_type_symbol
_atom_site_label
_atom_site_fract_x
_atom_site_fract_y
_atom_site_fract_z
Si Si1 0.321959 0.343758 0.321239
Si Si2 0.321880 0.732328 0.324986
Si Si3 0.181041 0.468480 0.226861
Si Si4 0.098038 0.840600 0.470178
Si Si5 0.172726 0.026040 0.967714
O O1 0.500000 0.363711 0.250000
O O2 0.278553 0.314411 0.611169
O O3 0.216818 0.401218 0.303689
O O4 0.283380 0.296219 0.113006
O O5 0.500000 0.750959 0.250000
O O6 0.222890 0.792245 0.337576
O O7 0.251656 0.513024 0.424565
O O8 0.000000 0.476637 0.250000
O O9 0.179215 0.902863 0.522838
O O10 0.000000 0.854823 0.250000
O O11 0.000000 0.817073 0.750000
O O12 0.259425 0.007969 0.674143
O O13 0.000000 0.000000 0.000000
#
# Coordination Sequence:
#
# PCOD8116749 Si02
#       5
#     4   4   4   4   4
#     4  10  21  39  59  78 108 152 191 225 269 331
#     4  10  23  40  55  78 116 153 183 230 289 327
#     4  10  21  36  56  84 114 143 175 226 286 325
#     4  12  21  33  57  87 107 140 193 232 271 332
#     4  10  16  30  49  77 108 139 169 228 277 322
#
# _framework density 20.066901000000001
#
# number of rings (size 3 to 8) (size 9 to 14) (size 15 to 20)
#    0.000    1.600    4.000    2.400    0.000    3.200 
#    0.000    0.000    0.000    1.200    0.000    0.000 
#    0.000    0.000    0.000    0.000    0.000    0.000 
#
# Total GULP energy -247933.017392 kJ/mol
# GULP energy per Si atom -12396.650870 kJ/mol
# Density = 2.002123 g / cm^3
# Si number density = 20.066901 Si / 1000 Ang^3
#
#
#
# Elastic Constant Matrix: (Units=GPa)
#
#
# Indices 1 2 3 4 5 6 
#
# 1 26.3438 34.2098 30.9508 0.0000 8.9740 0.0000
# 2 34.2098 100.8177 18.3973 0.0000 2.2878 0.0000
# 3 30.9508 18.3973 134.3768 0.0000 21.0906 0.0000
# 4 0.0000 0.0000 0.0000 23.6371 0.0000 3.8446
# 5 8.9740 2.2878 21.0906 0.0000 19.4552 0.0000
# 6 0.0000 0.0000 0.0000 3.8446 0.0000 2.0250
#
#
#
# Elastic Compliance Matrix: (Units=1/GPa)
#
#
# Indices 1 2 3 4 5 6 
#
# 1 0.111969 -0.034323 -0.016410 0.000000 -0.029822 0.000000
# 2 -0.034323 0.020696 0.003578 0.000000 0.009519 0.000000
# 3 -0.016410 0.003578 0.011580 0.000000 -0.005405 0.000000
# 4 0.000000 0.000000 0.000000 0.061206 0.000000 -0.116200
# 5 -0.029822 0.009519 -0.005405 0.000000 0.069895 0.000000
# 6 0.000000 0.000000 0.000000 -0.116200 0.000000 0.714425
#
#
# Mechanical properties :
#
#
# Convention : Reuss Voigt Hill
#
# Bulk Modulus (GPa) = 20.02556 47.62823 33.82689
# Shear Modulus (GPa) = 4.54245 20.88884 12.71564
#
# Velocity S-wave (km/s) = 1.50618 3.22989 2.52000
# Velocity P-wave (km/s) = 3.60913 6.13969 5.03595
#
# Compressibility (1/GPa) = 0.04993619
#
# Stress axis : x y z
#
# Youngs Moduli (GPa) = 8.93100 48.31749 86.35654
#
# Poissons Ratio (x) = 1.65838 1.41712
# Poissons Ratio (y) = 0.30654 -0.30897
# Poissons Ratio (z) = 0.14656 -0.17287
#
# Static dielectric constant tensor:
#      x y z
#    x 2.973740 0.000000 -0.882720 
#    y 0.000000 3.495080 0.000000 
#    z -0.882720 0.000000 0.489950 
# 
# 
# High freq. dielectric constant tensor:
#      x y z
#    x 1.736180 0.000000 0.021710 
#    y 0.000000 1.787450 0.000000 
#    z 0.021710 0.000000 1.814370 
# 
# From -- ./inp_files/1550.got.cif
#   From: 2010.06.25/outbox.cif.g09.slc.cpg/sg13_1_cif.got.tgz:1550.got - 2010.06.28 04:50:58.
