data_PCOD8116489
_publ_section_title
;
Structure prediction by ZEFSAII (Michael W. Deem and Ramdas Pophale) SiO2 
 PCOD8116489
Probable space group: C 2/M
;
_chemical_formula_sum "Si O2"
_cell_formula_units_Z 32
_cell_length_a 18.000000
_cell_length_b 9.000000
_cell_length_c 30.000000
_cell_angle_alpha 90.000000
_cell_angle_beta 140.000000
_cell_angle_gamma 90.000000
_cell_volume 3123.947783
_symmetry_space_group_name_H-M "C 2/M"
_symmetry_group_IT_number 12
_symmetry_cell_setting 'monoclinic'
loop_
_space_group_symop_operation_xyz
x,y,z
-x,y,-z
-x,-y,-z
x,-y,z
1/2+x,1/2+y,z
1/2-x,1/2+y,-z
1/2-x,1/2-y,-z
1/2+x,1/2-y,z
loop_
_atom_site_type_symbol
_atom_site_label
_atom_site_fract_x
_atom_site_fract_y
_atom_site_fract_z
Si Si1 0.535077 0.171389 0.430514
Si Si2 0.541447 0.659894 0.348270
Si Si3 0.221874 0.660463 0.587838
Si Si4 0.801942 0.828986 0.338549
Si Si5 0.169959 0.174508 0.199593
Si Si6 0.184969 0.172604 0.805519
Si Si7 0.748875 0.173199 0.066650
Si Si8 0.917702 0.174425 0.066542
O O1 0.567813 0.209703 0.395086
O O2 0.639749 0.214328 0.510539
O O3 0.433107 0.279059 0.397054
O O4 0.499534 0.000000 0.417424
O O5 0.505628 0.500000 0.354384
O O6 0.653475 0.628780 0.372390
O O7 0.444341 0.709103 0.268836
O O8 0.175953 0.500000 0.586169
O O9 0.237513 0.791116 0.630121
O O10 0.726052 0.741914 0.268805
O O11 0.787941 0.000000 0.321632
O O12 0.234252 0.220233 0.184871
O O13 0.042232 0.238478 0.135544
O O14 0.172032 0.000000 0.206826
O O15 0.199207 0.222980 0.862686
O O16 0.217611 0.000000 0.813356
O O17 0.839957 0.226071 0.071913
O O18 0.725192 0.000000 0.054015
O O19 0.627774 0.254148 0.000451
O O20 0.920550 0.000000 0.061028
#
# Coordination Sequence:
#
# PCOD8116489 Si02
#       8
#     8   8   8   8   8   8   8   8
#     4  11  22  39  62  87 118 154 197 244 294 353
#     4  10  21  38  61  87 119 157 195 241 293 349
#     4  10  23  40  61  88 117 155 197 242 297 353
#     4  12  25  40  59  86 118 155 199 247 298 351
#     4  11  23  39  61  85 116 156 195 243 294 345
#     4  10  21  37  59  86 118 156 195 235 285 347
#     4   9  19  37  61  88 118 153 189 232 285 341
#     4   9  20  38  61  88 116 152 193 234 284 340
#
# _framework density 10.243449
#
# number of rings (size 3 to 8) (size 9 to 14) (size 15 to 20)
#    0.000    1.750    1.250    2.625    1.750    5.000 
#    0.000    2.500    0.000    0.000    0.000    0.000 
#    0.000    0.000    0.000    0.000    0.000    0.000 
#
# Total GULP energy -396632.354749 kJ/mol
# GULP energy per Si atom -12394.761086 kJ/mol
# Density = 1.022013 g / cm^3
# Si number density = 10.243449 Si / 1000 Ang^3
#
#
#
# Elastic Constant Matrix: (Units=GPa)
#
#
# Indices 1 2 3 4 5 6 
#
# 1 65.9001 37.9367 58.5094 0.0000 -5.0039 0.0000
# 2 37.9367 49.7719 54.6199 0.0000 -3.7401 0.0000
# 3 58.5094 54.6199 215.6609 0.0000 -3.6012 0.0000
# 4 0.0000 0.0000 0.0000 31.2108 0.0000 -6.2557
# 5 -5.0039 -3.7401 -3.6012 0.0000 32.0049 0.0000
# 6 0.0000 0.0000 0.0000 -6.2557 0.0000 24.5981
#
#
#
# Elastic Compliance Matrix: (Units=1/GPa)
#
#
# Indices 1 2 3 4 5 6 
#
# 1 0.028570 -0.018222 -0.003103 0.000000 0.001988 0.000000
# 2 -0.018222 0.039642 -0.005076 0.000000 0.001212 0.000000
# 3 -0.003103 -0.005076 0.006759 0.000000 -0.000318 0.000000
# 4 0.000000 0.000000 0.000000 0.033761 0.000000 0.008586
# 5 0.001988 0.001212 -0.000318 0.000000 0.031662 0.000000
# 6 0.000000 0.000000 0.000000 0.008586 0.000000 0.042837
#
#
# Mechanical properties :
#
#
# Convention : Reuss Voigt Hill
#
# Bulk Modulus (GPa) = 45.10708 70.38502 57.74605
# Shear Modulus (GPa) = 20.54029 29.58056 25.06042
#
# Velocity S-wave (km/s) = 3.16983 3.80396 3.50128
# Velocity P-wave (km/s) = 5.95503 7.32968 6.67782
#
# Compressibility (1/GPa) = 0.02216947
#
# Stress axis : x y z
#
# Youngs Moduli (GPa) = 35.00144 25.22551 147.94901
#
# Poissons Ratio (x) = 0.45966 0.45908
# Poissons Ratio (y) = 0.63779 0.75102
# Poissons Ratio (z) = 0.10861 0.12805
#
# Static dielectric constant tensor:
#      x y z
#    x 3.595270 0.000000 -0.105270 
#    y 0.000000 4.024630 0.000000 
#    z -0.105270 0.000000 4.016340 
# 
# 
# High freq. dielectric constant tensor:
#      x y z
#    x 1.774610 0.000000 -0.001280 
#    y 0.000000 1.788850 0.000000 
#    z -0.001280 0.000000 1.808720 
# 
# From -- ./inp_files/378354.got.cif
#   From: 2010.06.25/outbox.ucp.g09.slc.cvg/sg12_190_cif.got.tgz:378354.got - 2010.06.28 13:50:54.
