data_PCOD8116675
_publ_section_title
;
Structure prediction by ZEFSAII (Michael W. Deem and Ramdas Pophale) SiO2 
 PCOD8116675
Probable space group: P 2/C
;
_chemical_formula_sum "Si O2"
_cell_formula_units_Z 28
_cell_length_a 22.498369
_cell_length_b 17.427913
_cell_length_c 5.299151
_cell_angle_alpha 90.000000
_cell_angle_beta 83.490059
_cell_angle_gamma 90.000000
_cell_volume 2064.397873
_symmetry_space_group_name_H-M "P 2/C"
_symmetry_group_IT_number 13
_symmetry_cell_setting 'monoclinic'
loop_
_space_group_symop_operation_xyz
x,y,z
-x,y,1/2-z
-x,-y,-z
x,-y,1/2+z
loop_
_atom_site_type_symbol
_atom_site_label
_atom_site_fract_x
_atom_site_fract_y
_atom_site_fract_z
Si Si1 0.352939 0.549417 0.842294
Si Si2 0.167042 0.414550 0.931018
Si Si3 0.782278 0.413665 0.093443
Si Si4 0.428674 0.957518 0.284202
Si Si5 0.428884 0.697797 0.784456
Si Si6 0.428887 0.784245 0.284480
Si Si7 0.025377 0.585633 0.487736
O O1 0.360452 0.490892 0.608345
O O2 0.288885 0.590393 0.857166
O O3 0.404340 0.612082 0.793433
O O4 0.194123 0.371585 0.672152
O O5 0.194079 0.499550 0.933934
O O6 0.096251 0.416478 0.951379
O O7 0.189324 0.371674 0.174861
O O8 0.500000 0.958080 0.250000
O O9 0.403930 0.870828 0.295807
O O10 0.404300 0.999952 0.546024
O O11 0.500000 0.692639 0.750000
O O12 0.405322 0.741931 0.547151
O O13 0.405250 0.741472 0.045334
O O14 0.500000 0.785570 0.250000
O O15 0.000000 0.628347 0.250000
O O16 0.000000 0.500000 0.500000
O O17 0.000000 0.628318 0.750000
#
# Coordination Sequence:
#
# PCOD8116675 Si02
#       7
#     4   4   4   4   4   4   4
#     4  12  21  33  45  57  69  83 123 170 199 234
#     4  10  16  25  38  48  67  86 104 131 182 221
#     4  10  16  27  37  51  61  82 107 144 188 217
#     4   9  15  23  40  64  83  99 117 135 151 182
#     4  10  21  33  45  57  73  99 118 145 198 241
#     4   9  17  31  44  58  81 101 117 133 166 226
#     4  10  16  22  31  49  68  86 104 122 149 211
#
# _framework density 13.563276
#
# number of rings (size 3 to 8) (size 9 to 14) (size 15 to 20)
#    0.000    2.000    2.857    6.000    0.000    4.000 
#    0.000    0.000    0.000    0.000    0.000    0.000 
#    0.000    0.000    0.000    0.000    0.000    0.000 
#
# Total GULP energy -347041.031973 kJ/mol
# GULP energy per Si atom -12394.322570 kJ/mol
# Density = 1.353241 g / cm^3
# Si number density = 13.563276 Si / 1000 Ang^3
#
#
#
# Elastic Constant Matrix: (Units=GPa)
#
#
# Indices 1 2 3 4 5 6 
#
# 1 35.7292 17.4881 22.4419 0.0000 3.1748 0.0000
# 2 17.4881 40.2975 25.1020 0.0000 -1.0032 0.0000
# 3 22.4419 25.1020 130.8543 0.0000 15.9246 0.0000
# 4 0.0000 0.0000 0.0000 11.4105 0.0000 2.9846
# 5 3.1748 -1.0032 15.9246 0.0000 18.6006 0.0000
# 6 0.0000 0.0000 0.0000 2.9846 0.0000 1.1143
#
#
#
# Elastic Compliance Matrix: (Units=1/GPa)
#
#
# Indices 1 2 3 4 5 6 
#
# 1 0.037387 -0.014406 -0.003100 0.000000 -0.004504 0.000000
# 2 -0.014406 0.034541 -0.005226 0.000000 0.008796 0.000000
# 3 -0.003100 -0.005226 0.010210 0.000000 -0.008494 0.000000
# 4 0.000000 0.000000 0.000000 0.292721 0.000000 -0.784063
# 5 -0.004504 0.008796 -0.008494 0.000000 0.062277 0.000000
# 6 0.000000 0.000000 0.000000 -0.784063 0.000000 2.997601
#
#
# Mechanical properties :
#
#
# Convention : Reuss Voigt Hill
#
# Bulk Modulus (GPa) = 27.26712 37.43831 32.35271
# Shear Modulus (GPa) = 1.43167 15.68166 8.55667
#
# Velocity S-wave (km/s) = 1.02851 3.40396 2.51444
# Velocity P-wave (km/s) = 4.64303 6.56597 5.68637
#
# Compressibility (1/GPa) = 0.03667421
#
# Stress axis : x y z
#
# Youngs Moduli (GPa) = 26.74721 28.95071 97.94334
#
# Poissons Ratio (x) = 0.41706 0.30366
# Poissons Ratio (y) = 0.38532 0.51184
# Poissons Ratio (z) = 0.08293 0.15129
#
# Static dielectric constant tensor:
#      x y z
#    x 2.529180 0.000000 0.104700 
#    y 0.000000 3.266340 0.000000 
#    z 0.104700 0.000000 2.688000 
# 
# 
# High freq. dielectric constant tensor:
#      x y z
#    x 1.491740 0.000000 0.016890 
#    y 0.000000 1.448830 0.000000 
#    z 0.016890 0.000000 1.553240 
# 
# From -- ./inp_files/6995.got.cif
#   From: 2010.06.25/outbox.cif.g09.slc.cpg/sg13_4_cif.got.tgz:6995.got - 2010.06.28 04:50:58.
