data_PCOD8116255
_publ_section_title
;
Structure prediction by ZEFSAII (Michael W. Deem and Ramdas Pophale) SiO2 
 PCOD8116255
Probable space group: C 2/M
;
_chemical_formula_sum "Si O2"
_cell_formula_units_Z 24
_cell_length_a 21.000000
_cell_length_b 9.000000
_cell_length_c 27.000000
_cell_angle_alpha 90.000000
_cell_angle_beta 150.000000
_cell_angle_gamma 90.000000
_cell_volume 2551.500000
_symmetry_space_group_name_H-M "C 2/M"
_symmetry_group_IT_number 12
_symmetry_cell_setting 'monoclinic'
loop_
_space_group_symop_operation_xyz
x,y,z
-x,y,-z
-x,-y,-z
x,-y,z
1/2+x,1/2+y,z
1/2-x,1/2+y,-z
1/2-x,1/2-y,-z
1/2+x,1/2-y,z
loop_
_atom_site_type_symbol
_atom_site_label
_atom_site_fract_x
_atom_site_fract_y
_atom_site_fract_z
Si Si1 0.499055 0.323683 0.055354
Si Si2 0.754774 0.322083 0.057022
Si Si3 0.250216 0.176460 0.279517
Si Si4 0.008832 0.177654 0.728002
Si Si5 0.251616 0.324402 0.610098
Si Si6 0.496539 0.823427 0.382332
O O1 0.505650 0.500000 0.058108
O O2 0.624111 0.260531 0.167418
O O3 0.500000 0.259710 0.000000
O O4 0.371761 0.273228 0.998255
O O5 0.764811 0.500000 0.059793
O O6 0.876136 0.256953 0.166626
O O7 0.750000 0.250000 0.000000
O O8 0.251834 0.241943 0.336471
O O9 0.376744 0.225768 0.335306
O O10 0.244502 0.000000 0.277804
O O11 0.877576 0.229331 0.665904
O O12 0.009162 0.233555 0.672224
O O13 0.025279 0.000000 0.741044
O O14 0.251735 0.500000 0.613701
O O15 0.125312 0.271632 0.496419
O O16 0.494448 0.000000 0.370402
#
# Coordination Sequence:
#
# PCOD8116255 Si02
#       6
#     8   8   8   8   8   8
#     4   9  17  30  51  79 107 137 175 218 262 309
#     4  11  22  37  58  82 109 140 177 220 264 313
#     4   9  16  29  52  80 106 133 174 226 270 309
#     4  11  22  36  54  77 110 146 177 213 261 319
#     4   9  18  32  52  79 107 139 180 223 265 312
#     4  10  19  33  56  82 105 133 176 227 272 314
#
# _framework density 9.4062319999999993
#
# number of rings (size 3 to 8) (size 9 to 14) (size 15 to 20)
#    0.000    2.167    0.000    4.000    0.000    7.333 
#    0.000    0.833    0.000   17.000    0.000    0.000 
#    0.000    0.000    0.000    0.000    0.000    0.000 
#
# Total GULP energy -297599.937676 kJ/mol
# GULP energy per Si atom -12399.997403 kJ/mol
# Density = 0.938482 g / cm^3
# Si number density = 9.406232 Si / 1000 Ang^3
#
#
#
# Elastic Constant Matrix: (Units=GPa)
#
#
# Indices 1 2 3 4 5 6 
#
# 1 208.8924 39.1013 107.5503 0.0000 1.4899 0.0000
# 2 39.1013 51.3046 34.7955 -0.0002 0.8463 -0.0007
# 3 107.5503 34.7955 206.1281 -0.0007 4.6409 -0.0002
# 4 0.0000 -0.0002 -0.0007 26.3155 -0.0001 -1.6085
# 5 1.4899 0.8463 4.6409 -0.0001 49.8494 0.0000
# 6 0.0000 -0.0007 -0.0002 -1.6085 0.0000 31.3144
#
#
#
# Elastic Compliance Matrix: (Units=1/GPa)
#
#
# Indices 1 2 3 4 5 6 
#
# 1 0.006988 -0.003222 -0.003105 0.000000 0.000135 0.000000
# 2 -0.003222 0.023497 -0.002283 0.000000 -0.000090 0.000001
# 3 -0.003105 -0.002283 0.006868 0.000000 -0.000508 0.000000
# 4 0.000000 0.000000 0.000000 0.038120 0.000000 0.001958
# 5 0.000135 -0.000090 -0.000508 0.000000 0.020105 0.000000
# 6 0.000000 0.000001 0.000000 0.001958 0.000000 0.032035
#
#
# Mechanical properties :
#
#
# Convention : Reuss Voigt Hill
#
# Bulk Modulus (GPa) = 49.67110 92.13547 70.90329
# Shear Modulus (GPa) = 32.99335 40.48774 36.74054
#
# Velocity S-wave (km/s) = 4.19239 4.64419 4.42406
# Velocity P-wave (km/s) = 7.06367 8.82270 7.99173
#
# Compressibility (1/GPa) = 0.02013243
#
# Stress axis : x y z
#
# Youngs Moduli (GPa) = 143.10058 42.55844 145.59376
#
# Poissons Ratio (x) = 0.13713 0.45211
# Poissons Ratio (y) = 0.46108 0.33242
# Poissons Ratio (z) = 0.44437 0.09717
#
# Static dielectric constant tensor:
#      x y z
#    x 3.899550 0.000000 -0.076580 
#    y 0.000000 3.072270 0.000000 
#    z -0.076580 0.000000 4.156460 
# 
# 
# High freq. dielectric constant tensor:
#      x y z
#    x 1.762180 0.000000 0.002150 
#    y 0.000000 1.685100 0.000000 
#    z 0.002150 0.000000 1.760290 
# 
# From -- ./inp_files/365541.got.cif
#   From: 2010.06.25/outbox.ucp.g09.slc.cvg/sg12_183_cif.got.tgz:365541.got - 2010.06.28 13:50:54.
