data_PCOD8116319
_publ_section_title
;
Structure prediction by ZEFSAII (Michael W. Deem and Ramdas Pophale) SiO2 
 PCOD8116319
Probable space group: C 2/M
;
_chemical_formula_sum "Si O2"
_cell_formula_units_Z 16
_cell_length_a 15.000000
_cell_length_b 15.000000
_cell_length_c 21.000000
_cell_angle_alpha 90.000000
_cell_angle_beta 160.000000
_cell_angle_gamma 90.000000
_cell_volume 1616.045177
_symmetry_space_group_name_H-M "C 2/M"
_symmetry_group_IT_number 12
_symmetry_cell_setting 'monoclinic'
loop_
_space_group_symop_operation_xyz
x,y,z
-x,y,-z
-x,-y,-z
x,-y,z
1/2+x,1/2+y,z
1/2-x,1/2+y,-z
1/2-x,1/2-y,-z
1/2+x,1/2-y,z
loop_
_atom_site_type_symbol
_atom_site_label
_atom_site_fract_x
_atom_site_fract_y
_atom_site_fract_z
Si Si1 0.427166 0.000000 0.307656
Si Si2 0.424861 0.500000 0.052627
Si Si3 0.065347 0.901421 0.355417
Si Si4 0.332124 0.394785 0.329514
Si Si5 0.245353 0.153810 0.967733
O O1 0.617361 0.087653 0.435138
O O2 0.229799 0.000000 0.235510
O O3 0.262740 0.000000 0.133393
O O4 0.362233 0.586554 0.051703
O O5 0.964480 0.857493 0.353597
O O6 0.960886 0.841210 0.228195
O O7 0.936576 0.000000 0.261352
O O8 0.500000 0.352902 0.500000
O O9 0.365846 0.500000 0.352956
O O10 0.029590 0.370478 0.131851
O O11 0.250000 0.250000 0.000000
#
# Coordination Sequence:
#
# PCOD8116319 Si02
#       5
#     4   4   8   8   8
#     4   9  21  40  71  88 115 179 207 261 323 361
#     4  11  21  44  63  86 133 161 215 261 312 378
#     4   9  19  39  67  92 116 161 212 257 313 369
#     4  10  19  38  68  92 119 159 210 267 316 363
#     4  12  24  39  62  95 129 167 207 258 317 375
#
# _framework density 9.9007129999999997
#
# number of rings (size 3 to 8) (size 9 to 14) (size 15 to 20)
#    0.750    1.000    2.500    2.250    0.000    4.000 
#   13.500    2.500    0.000    0.000    0.000    0.000 
#    0.000    0.000    0.000    0.000    0.000    0.000 
#
# Total GULP energy -198324.422602 kJ/mol
# GULP energy per Si atom -12395.276413 kJ/mol
# Density = 0.987818 g / cm^3
# Si number density = 9.900713 Si / 1000 Ang^3
#
#
#
# Elastic Constant Matrix: (Units=GPa)
#
#
# Indices 1 2 3 4 5 6 
#
# 1 174.9721 66.8918 93.7374 -0.0145 17.6617 0.0234
# 2 66.8918 67.2439 21.7056 -0.1352 -8.9748 0.0295
# 3 93.7374 21.7056 154.6900 -0.3395 12.3051 -0.0156
# 4 -0.0145 -0.1352 -0.3395 2.5676 0.0625 4.2296
# 5 17.6617 -8.9748 12.3051 0.0625 52.5198 0.0065
# 6 0.0234 0.0295 -0.0156 4.2296 0.0065 5.5055
#
#
#
# Elastic Compliance Matrix: (Units=1/GPa)
#
#
# Indices 1 2 3 4 5 6 
#
# 1 0.015178 -0.013671 -0.006802 0.005218 -0.005852 -0.004013
# 2 -0.013671 0.028446 0.003592 -0.006936 0.008624 0.005234
# 3 -0.006802 0.003592 0.010027 -0.005279 0.000558 0.004093
# 4 0.005218 -0.006936 -0.005279 -1.463020 -0.000100 1.123960
# 5 -0.005852 0.008624 0.000558 -0.000100 0.022352 0.000031
# 6 -0.004013 0.005234 0.004093 1.123960 0.000031 -0.681840
#
#
# Mechanical properties :
#
#
# Convention : Reuss Voigt Hill
#
# Bulk Modulus (GPa) = 50.28165 84.61953 67.45059
# Shear Modulus (GPa) = -2.46492 26.42332 11.97920
#
# Velocity S-wave (km/s) = -1.11692 3.65693 2.46228
# Velocity P-wave (km/s) = 4.87696 7.78830 6.49778
#
# Compressibility (1/GPa) = 0.01988797
#
# Stress axis : x y z
#
# Youngs Moduli (GPa) = 65.88678 35.15403 99.73155
#
# Poissons Ratio (x) = 0.48060 0.67840
# Poissons Ratio (y) = 0.90075 -0.35825
# Poissons Ratio (z) = 0.44818 -0.12628
#
# Static dielectric constant tensor:
#      x y z
#    x 4.210940 0.000440 0.344880 
#    y 0.000440 3.176950 0.000440 
#    z 0.344880 0.000440 4.148820 
# 
# 
# High freq. dielectric constant tensor:
#      x y z
#    x 1.795670 0.000000 0.002900 
#    y 0.000000 1.727670 -0.000020 
#    z 0.002900 -0.000020 1.788820 
# 
# From -- ./inp_files/58245.got.cif
#   From: 2010.06.25/outbox.ucp.g09.slc.cvg/sg12_30_cif.got.tgz:58245.got - 2010.06.28 13:50:54.
