data_PCOD8116898
_publ_section_title
;
Structure prediction by ZEFSAII (Michael W. Deem and Ramdas Pophale) SiO2 
 PCOD8116898
Probable space group: P 2/C
;
_chemical_formula_sum "Si O2"
_cell_formula_units_Z 32
_cell_length_a 24.050066
_cell_length_b 9.471791
_cell_length_c 20.922927
_cell_angle_alpha 90.000000
_cell_angle_beta 157.813035
_cell_angle_gamma 90.000000
_cell_volume 1799.854782
_symmetry_space_group_name_H-M "P 2/C"
_symmetry_group_IT_number 13
_symmetry_cell_setting 'monoclinic'
loop_
_space_group_symop_operation_xyz
x,y,z
-x,y,1/2-z
-x,-y,-z
x,-y,1/2+z
loop_
_atom_site_type_symbol
_atom_site_label
_atom_site_fract_x
_atom_site_fract_y
_atom_site_fract_z
Si Si1 0.287543 0.724392 0.910754
Si Si2 0.838219 0.674664 0.595940
Si Si3 0.374388 0.305097 0.749674
Si Si4 0.829008 0.810420 0.838192
Si Si5 0.844569 0.261864 0.804010
Si Si6 0.887531 0.471033 0.751411
Si Si7 0.344082 0.934482 0.317281
Si Si8 0.805587 0.503717 0.861602
O O1 0.229533 0.773338 0.919260
O O2 0.243312 0.837237 0.809234
O O3 0.201703 0.581581 0.798938
O O4 0.459501 0.689016 0.097173
O O5 0.731560 0.683014 0.423162
O O6 0.850336 0.512424 0.637707
O O7 0.000000 0.731592 0.750000
O O8 0.346674 0.157596 0.756020
O O9 0.338784 0.436556 0.758546
O O10 0.767182 0.662281 0.799365
O O11 0.769279 0.938681 0.817718
O O12 0.004601 0.822707 0.023275
O O13 0.836879 0.314033 0.721219
O O14 0.709114 0.162694 0.679454
O O15 0.856026 0.405282 0.856981
O O16 0.062047 0.491295 0.946336
O O17 0.500000 0.000000 0.500000
#
# Coordination Sequence:
#
# PCOD8116898 Si02
#       8
#     4   4   4   4   4   4   4   4
#     4  10  19  31  55  80 113 138 184 224 282 326
#     4  10  19  35  57  84 106 137 191 244 274 326
#     4  11  21  34  54  85 113 149 186 232 283 338
#     4  11  19  36  53  86 114 151 183 228 283 342
#     4  10  18  34  56  81 111 146 189 223 283 335
#     4   9  17  32  55  84 104 137 181 244 278 317
#     4  11  24  35  52  82 125 152 184 230 286 338
#     4  10  17  31  57  82 111 139 181 233 280 329
#
# _framework density 17.779212000000001
#
# number of rings (size 3 to 8) (size 9 to 14) (size 15 to 20)
#    0.750    1.000    5.000    1.500    1.750    1.500 
#    0.000    0.000    0.000    1.500    0.000    0.000 
#    0.000    0.000    0.000    0.000    0.000    0.000 
#
# Total GULP energy -396466.619448 kJ/mol
# GULP energy per Si atom -12389.581858 kJ/mol
# Density = 1.773875 g / cm^3
# Si number density = 17.779212 Si / 1000 Ang^3
#
#
#
# Elastic Constant Matrix: (Units=GPa)
#
#
# Indices 1 2 3 4 5 6 
#
# 1 97.2342 37.6968 49.9133 0.0000 8.7881 0.0000
# 2 37.6968 84.8855 22.4017 0.0000 4.6167 0.0000
# 3 49.9133 22.4017 83.2692 0.0000 8.5910 0.0000
# 4 0.0000 0.0000 0.0000 21.7208 0.0000 0.6656
# 5 8.7881 4.6167 8.5910 0.0000 37.6626 0.0000
# 6 0.0000 0.0000 0.0000 0.6656 0.0000 22.0714
#
#
#
# Elastic Compliance Matrix: (Units=1/GPa)
#
#
# Indices 1 2 3 4 5 6 
#
# 1 0.016775 -0.005123 -0.008539 0.000000 -0.001338 0.000000
# 2 -0.005123 0.014269 -0.000728 0.000000 -0.000388 0.000000
# 3 -0.008539 -0.000728 0.017521 0.000000 -0.001915 0.000000
# 4 0.000000 0.000000 0.000000 0.046081 0.000000 -0.001390
# 5 -0.001338 -0.000388 -0.001915 0.000000 0.027348 0.000000
# 6 0.000000 0.000000 0.000000 -0.001390 0.000000 0.045349
#
#
# Mechanical properties :
#
#
# Convention : Reuss Voigt Hill
#
# Bulk Modulus (GPa) = 50.54326 53.93473 52.23900
# Shear Modulus (GPa) = 24.66475 26.64945 25.65710
#
# Velocity S-wave (km/s) = 3.72866 3.87578 3.80293
# Velocity P-wave (km/s) = 6.85764 7.10145 6.98061
#
# Compressibility (1/GPa) = 0.01978503
#
# Stress axis : x y z
#
# Youngs Moduli (GPa) = 59.61275 70.08239 57.07462
#
# Poissons Ratio (x) = 0.35906 0.48735
# Poissons Ratio (y) = 0.30542 0.04153
# Poissons Ratio (z) = 0.50902 0.05100
#
# Static dielectric constant tensor:
#      x y z
#    x 3.360020 0.000000 0.169140 
#    y 0.000000 3.157160 0.000000 
#    z 0.169140 0.000000 3.198650 
# 
# 
# High freq. dielectric constant tensor:
#      x y z
#    x 1.684420 0.000000 0.018140 
#    y 0.000000 1.660630 0.000000 
#    z 0.018140 0.000000 1.686260 
# 
# From -- ./inp_files/89522.got.cif
#   From: 2010.06.25/outbox.cif.g09.slc.cpg/sg13_45_cif.got.tgz:89522.got - 2010.06.28 04:50:58.
