data_PCOD8116333
_publ_section_title
;
Structure prediction by ZEFSAII (Michael W. Deem and Ramdas Pophale) SiO2 
 PCOD8116333
Probable space group: C 2/M
;
_chemical_formula_sum "Si O2"
_cell_formula_units_Z 28
_cell_length_a 27.000000
_cell_length_b 9.000000
_cell_length_c 18.000000
_cell_angle_alpha 90.000000
_cell_angle_beta 40.000000
_cell_angle_gamma 90.000000
_cell_volume 2811.553005
_symmetry_space_group_name_H-M "C 2/M"
_symmetry_group_IT_number 12
_symmetry_cell_setting 'monoclinic'
loop_
_space_group_symop_operation_xyz
x,y,z
-x,y,-z
-x,-y,-z
x,-y,z
1/2+x,1/2+y,z
1/2-x,1/2+y,-z
1/2-x,1/2-y,-z
1/2+x,1/2-y,z
loop_
_atom_site_type_symbol
_atom_site_label
_atom_site_fract_x
_atom_site_fract_y
_atom_site_fract_z
Si Si1 0.335854 0.325724 0.301482
Si Si2 0.588071 0.836551 0.914577
Si Si3 0.834277 0.830878 0.736577
Si Si4 0.659526 0.167638 0.984890
Si Si5 0.090252 0.172121 0.199284
Si Si6 0.678355 0.176184 0.408245
Si Si7 0.085199 0.173594 0.636006
O O1 0.332985 0.500000 0.313304
O O2 0.390652 0.282418 0.171624
O O3 0.252655 0.263451 0.370091
O O4 0.371262 0.264048 0.339210
O O5 0.610193 0.771382 0.970563
O O6 0.629170 0.000000 0.858780
O O7 0.500000 0.862404 0.000000
O O8 0.749136 0.820062 0.866001
O O9 0.892569 0.769505 0.735214
O O10 0.834822 0.737472 0.659678
O O11 0.856632 0.000000 0.690138
O O12 0.632715 0.000000 0.030705
O O13 0.647502 0.257571 0.073981
O O14 0.006187 0.201308 0.260579
O O15 0.110139 0.000000 0.179979
O O16 0.608323 0.230845 0.538271
O O17 0.681609 0.000000 0.397734
O O18 0.104503 0.000000 0.602813
#
# Coordination Sequence:
#
# PCOD8116333 Si02
#       7
#     8   8   8   8   8   8   8
#     4  10  21  37  57  83 113 146 188 231 278 334
#     4  10  20  33  53  83 117 152 186 223 275 336
#     4  10  21  39  60  83 113 151 190 229 280 339
#     4  10  20  35  56  83 115 150 186 227 280 332
#     4  10  22  38  59  85 112 148 192 232 278 337
#     4  11  23  38  59  87 112 145 193 237 280 333
#     4  10  22  40  59  82 114 150 186 232 287 337
#
# _framework density 9.9589090000000002
#
# number of rings (size 3 to 8) (size 9 to 14) (size 15 to 20)
#    0.000    1.857    1.429    2.143    0.000    4.286 
#    0.000    2.857    0.000    0.000    0.000    0.000 
#    0.000    0.000    0.000    0.000    0.000    0.000 
#
# Total GULP energy -346910.188527 kJ/mol
# GULP energy per Si atom -12389.649590 kJ/mol
# Density = 0.993624 g / cm^3
# Si number density = 9.958909 Si / 1000 Ang^3
#
#
#
# Elastic Constant Matrix: (Units=GPa)
#
#
# Indices 1 2 3 4 5 6 
#
# 1 187.2956 38.0171 38.7074 -0.0083 33.3085 0.0063
# 2 38.0171 25.4481 27.9783 -0.0114 9.1145 0.0275
# 3 38.7074 27.9783 67.3092 0.0064 25.1097 0.0094
# 4 -0.0083 -0.0114 0.0064 41.7313 0.0048 9.2214
# 5 33.3085 9.1145 25.1097 0.0048 35.7283 -0.0040
# 6 0.0063 0.0275 0.0094 9.2214 -0.0040 33.8311
#
#
#
# Elastic Compliance Matrix: (Units=1/GPa)
#
#
# Indices 1 2 3 4 5 6 
#
# 1 0.008812 -0.014657 0.003653 -0.000004 -0.007043 0.000010
# 2 -0.014657 0.097098 -0.037663 0.000045 0.015364 -0.000076
# 3 0.003653 -0.037663 0.035371 -0.000018 -0.018656 0.000023
# 4 -0.000004 0.000045 -0.000018 0.025499 0.000001 -0.006950
# 5 -0.007043 0.015364 -0.018656 0.000001 0.043747 -0.000001
# 6 0.000010 -0.000076 0.000023 -0.006950 -0.000001 0.031453
#
#
# Mechanical properties :
#
#
# Convention : Reuss Voigt Hill
#
# Bulk Modulus (GPa) = 22.75562 54.38428 38.56995
# Shear Modulus (GPa) = 14.12576 33.94817 24.03696
#
# Velocity S-wave (km/s) = 2.66597 4.13293 3.47768
# Velocity P-wave (km/s) = 4.57451 7.08085 5.96090
#
# Compressibility (1/GPa) = 0.04394519
#
# Stress axis : x y z
#
# Youngs Moduli (GPa) = 113.48206 10.29891 28.27159
#
# Poissons Ratio (x) = 0.15096 -0.10326
# Poissons Ratio (y) = 1.66336 1.06479
# Poissons Ratio (z) = -0.41450 0.38789
#
# Static dielectric constant tensor:
#      x y z
#    x 4.351010 -0.000020 -0.013470 
#    y -0.000020 3.516430 0.000010 
#    z -0.013470 0.000010 3.537720 
# 
# 
# High freq. dielectric constant tensor:
#      x y z
#    x 1.822940 0.000000 0.008230 
#    y 0.000000 1.760230 0.000000 
#    z 0.008230 0.000000 1.760000 
# 
# From -- ./inp_files/292377.got.cif
#   From: 2010.06.25/outbox.ucp.g09.slc.cvg/sg12_147_cif.got.tgz:292377.got - 2010.06.28 13:50:54.
