data_PCOD8116482
_publ_section_title
;
Structure prediction by ZEFSAII (Michael W. Deem and Ramdas Pophale) SiO2 
 PCOD8116482
Probable space group: C 2/M
;
_chemical_formula_sum "Si O2"
_cell_formula_units_Z 20
_cell_length_a 21.000000
_cell_length_b 9.000000
_cell_length_c 30.000000
_cell_angle_alpha 90.000000
_cell_angle_beta 20.000000
_cell_angle_gamma 90.000000
_cell_volume 1939.254213
_symmetry_space_group_name_H-M "C 2/M"
_symmetry_group_IT_number 12
_symmetry_cell_setting 'monoclinic'
loop_
_space_group_symop_operation_xyz
x,y,z
-x,y,-z
-x,-y,-z
x,-y,z
1/2+x,1/2+y,z
1/2-x,1/2+y,-z
1/2-x,1/2-y,-z
1/2+x,1/2-y,z
loop_
_atom_site_type_symbol
_atom_site_label
_atom_site_fract_x
_atom_site_fract_y
_atom_site_fract_z
Si Si1 0.699320 0.675269 0.885989
Si Si2 0.900209 0.672289 0.612176
Si Si3 0.181267 0.164781 0.105593
Si Si4 0.573546 0.175104 0.590317
Si Si5 0.551317 0.165651 0.806471
O O1 0.683593 0.500000 0.897020
O O2 0.740979 0.730305 0.907575
O O3 0.875441 0.726822 0.740787
O O4 0.500000 0.741410 0.000000
O O5 0.847908 0.500000 0.653506
O O6 0.704403 0.761393 0.739033
O O7 0.000000 0.703548 0.500000
O O8 0.043234 0.721047 0.557948
O O9 0.991006 0.233424 0.209404
O O10 0.126806 0.000000 0.159057
O O11 0.350286 0.150607 0.960561
O O12 0.750000 0.250000 0.500000
O O13 0.606123 0.000000 0.573997
O O14 0.621119 0.000000 0.747058
#
# Coordination Sequence:
#
# PCOD8116482 Si02
#       5
#     8   8   8   8   8
#     4  10  21  38  61  87 119 159 204 251 305 363
#     4  10  22  40  62  87 118 158 204 247 297 357
#     4  10  21  36  58  87 119 155 196 247 302 358
#     4  10  23  41  61  89 125 164 201 248 306 364
#     4  10  21  37  58  87 120 153 195 246 303 358
#
# _framework density 10.313243
#
# number of rings (size 3 to 8) (size 9 to 14) (size 15 to 20)
#    0.000    2.000    0.000    2.400    2.800    6.400 
#    0.000    0.000    0.000    0.000    0.000    0.000 
#    0.000    0.000    0.000    0.000    0.000    0.000 
#
# Total GULP energy -247836.586830 kJ/mol
# GULP energy per Si atom -12391.829342 kJ/mol
# Density = 1.028977 g / cm^3
# Si number density = 10.313243 Si / 1000 Ang^3
#
#
#
# Elastic Constant Matrix: (Units=GPa)
#
#
# Indices 1 2 3 4 5 6 
#
# 1 164.7548 19.0257 59.2091 -0.0860 -44.3590 0.0977
# 2 19.0257 38.1699 46.9825 -0.0589 -19.6432 0.0261
# 3 59.2091 46.9825 96.9216 -0.0536 -34.2823 0.0070
# 4 -0.0860 -0.0589 -0.0536 29.4268 -0.0477 -9.7432
# 5 -44.3590 -19.6432 -34.2823 -0.0477 44.8974 -0.0236
# 6 0.0977 0.0261 0.0070 -9.7432 -0.0236 36.7618
#
#
#
# Elastic Compliance Matrix: (Units=1/GPa)
#
#
# Indices 1 2 3 4 5 6 
#
# 1 0.009748 0.007634 -0.006943 0.000039 0.007670 -0.000015
# 2 0.007634 0.072133 -0.035345 0.000113 0.012113 -0.000027
# 3 -0.006943 -0.035345 0.032601 -0.000016 0.002570 0.000035
# 4 0.000039 0.000113 -0.000016 0.037252 0.000120 0.009873
# 5 0.007670 0.012113 0.002570 0.000120 0.037113 0.000026
# 6 -0.000015 -0.000027 0.000035 0.009873 0.000026 0.029819
#
#
# Mechanical properties :
#
#
# Convention : Reuss Voigt Hill
#
# Bulk Modulus (GPa) = 22.13629 61.14230 41.63930
# Shear Modulus (GPa) = 16.49984 33.85914 25.17949
#
# Velocity S-wave (km/s) = 2.83138 4.05598 3.49769
# Velocity P-wave (km/s) = 4.63079 7.18621 6.04508
#
# Compressibility (1/GPa) = 0.04517469
#
# Stress axis : x y z
#
# Youngs Moduli (GPa) = 102.58268 13.86326 30.67354
#
# Poissons Ratio (x) = -0.10583 0.21295
# Poissons Ratio (y) = -0.78310 1.08416
# Poissons Ratio (z) = 0.71219 0.49000
#
# Static dielectric constant tensor:
#      x y z
#    x 4.057350 -0.000110 -0.251660 
#    y -0.000110 3.901200 0.000270 
#    z -0.251660 0.000270 3.846200 
# 
# 
# High freq. dielectric constant tensor:
#      x y z
#    x 1.828380 0.000000 -0.024750 
#    y 0.000000 1.803710 0.000020 
#    z -0.024750 0.000020 1.809230 
# 
# From -- ./inp_files/229644.got.cif
#   From: 2010.06.25/outbox.ucp.g09.slc.cvg/sg12_115_cif.got.tgz:229644.got - 2010.06.28 13:50:54.
