data_PCOD8116158
_publ_section_title
;
Structure prediction by ZEFSAII (Michael W. Deem and Ramdas Pophale) SiO2 
 PCOD8116158
Probable space group: C 2/M
;
_chemical_formula_sum "Si O2"
_cell_formula_units_Z 64
_cell_length_a 14.936219
_cell_length_b 9.493867
_cell_length_c 27.084269
_cell_angle_alpha 90.000000
_cell_angle_beta 106.446858
_cell_angle_gamma 90.000000
_cell_volume 3683.468951
_symmetry_space_group_name_H-M "C 2/M"
_symmetry_group_IT_number 12
_symmetry_cell_setting 'monoclinic'
loop_
_space_group_symop_operation_xyz
x,y,z
-x,y,-z
-x,-y,-z
x,-y,z
1/2+x,1/2+y,z
1/2-x,1/2+y,-z
1/2-x,1/2-y,-z
1/2+x,1/2-y,z
loop_
_atom_site_type_symbol
_atom_site_label
_atom_site_fract_x
_atom_site_fract_y
_atom_site_fract_z
Si Si1 0.398285 0.835574 0.006273
Si Si2 0.296923 0.664589 0.073106
Si Si3 0.461469 0.663287 0.742519
Si Si4 0.527256 0.332418 0.557838
Si Si5 0.397871 0.663155 0.624829
Si Si6 0.658566 0.332978 0.810361
Si Si7 0.724435 0.336785 0.626324
Si Si8 0.212104 0.663394 0.255947
O O1 0.371113 0.747720 0.050715
O O2 0.403627 0.000000 0.021231
O O3 0.500000 0.788004 0.000000
O O4 0.312731 0.806468 0.955064
O O5 0.319993 0.500000 0.070571
O O6 0.313681 0.719786 0.131051
O O7 0.447168 0.500000 0.753186
O O8 0.459927 0.687589 0.683418
O O9 0.557368 0.724115 0.779267
O O10 0.382233 0.749898 0.757364
O O11 0.500000 0.271360 0.500000
O O12 0.527891 0.500000 0.557665
O O13 0.453828 0.278187 0.586673
O O14 0.628343 0.276745 0.589623
O O15 0.371660 0.500000 0.614915
O O16 0.303851 0.750690 0.611433
O O17 0.658041 0.500000 0.807350
O O18 0.732292 0.275569 0.782152
O O19 0.738807 0.500000 0.615779
O O20 0.726009 0.312304 0.685423
O O21 0.186489 0.500000 0.245740
#
# Coordination Sequence:
#
# PCOD8116158 Si02
#       8
#     8   8   8   8   8   8   8   8
#     4   9  18  33  51  69  92 122 153 187 227 267
#     4   9  18  32  49  70  93 119 154 189 222 265
#     4   9  17  30  47  67  91 119 151 185 223 268
#     4   9  17  29  46  67  89 117 154 189 223 270
#     4   9  17  30  48  67  88 117 151 186 225 269
#     4   9  17  30  48  68  93 123 151 183 223 268
#     4   9  17  30  48  68  90 118 152 188 224 266
#     4   9  17  30  48  69  92 120 153 185 222 270
#
# _framework density 17.374927
#
# number of rings (size 3 to 8) (size 9 to 14) (size 15 to 20)
#    0.000    3.000    0.000    0.750    0.000    4.750 
#    0.000    3.750    0.000    6.750    0.000    0.000 
#    0.000    0.000    0.000    0.000    0.000    0.000 
#
# Total GULP energy -396716.872501 kJ/mol
# GULP energy per Si atom -12397.402266 kJ/mol
# Density = 1.733538 g / cm^3
# Si number density = 17.374927 Si / 1000 Ang^3
#
#
#
# Elastic Constant Matrix: (Units=GPa)
#
#
# Indices 1 2 3 4 5 6 
#
# 1 159.8680 50.2542 100.5548 0.0000 -16.9337 0.0000
# 2 50.2542 39.1197 40.3278 0.0000 -6.1678 0.0000
# 3 100.5548 40.3278 143.1294 0.0000 -12.9343 0.0000
# 4 0.0000 0.0000 0.0000 17.6900 0.0000 -2.4644
# 5 -16.9337 -6.1678 -12.9343 0.0000 10.8264 0.0000
# 6 0.0000 0.0000 0.0000 -2.4644 0.0000 27.3677
#
#
#
# Elastic Compliance Matrix: (Units=1/GPa)
#
#
# Indices 1 2 3 4 5 6 
#
# 1 0.014647 -0.010741 -0.006442 0.000000 0.009094 0.000000
# 2 -0.010741 0.044780 -0.004802 0.000000 0.002974 0.000000
# 3 -0.006442 -0.004802 0.013125 0.000000 0.002868 0.000000
# 4 0.000000 0.000000 0.000000 0.057247 0.000000 0.005155
# 5 0.009094 0.002974 0.002868 0.000000 0.111712 0.000000
# 6 0.000000 0.000000 0.000000 0.005155 0.000000 0.037004
#
#
# Mechanical properties :
#
#
# Convention : Reuss Voigt Hill
#
# Bulk Modulus (GPa) = 34.98805 80.48786 57.73795
# Shear Modulus (GPa) = 15.05971 21.24216 18.15093
#
# Velocity S-wave (km/s) = 2.94725 3.50033 3.23563
# Velocity P-wave (km/s) = 5.63583 7.92219 6.87472
#
# Compressibility (1/GPa) = 0.02858119
#
# Stress axis : x y z
#
# Youngs Moduli (GPa) = 68.27544 22.33131 76.19265
#
# Poissons Ratio (x) = 0.23986 0.49081
# Poissons Ratio (y) = 0.73334 0.36591
# Poissons Ratio (z) = 0.43981 0.10725
#
# Static dielectric constant tensor:
#      x y z
#    x 3.338090 0.000000 0.019680 
#    y 0.000000 2.957400 0.000000 
#    z 0.019680 0.000000 3.389800 
# 
# 
# High freq. dielectric constant tensor:
#      x y z
#    x 1.678030 0.000000 0.000370 
#    y 0.000000 1.640590 0.000000 
#    z 0.000370 0.000000 1.673480 
# 
# From -- ./inp_files/335177.got.cif
#   From: 2010.06.25/outbox.cif.g09.slc.cpg/sg12_168_cif.got.tgz:335177.got - 2010.06.28 00:19:55.
