data_PCOD8116186
_publ_section_title
;
Structure prediction by ZEFSAII (Michael W. Deem and Ramdas Pophale) SiO2 
 PCOD8116186
Probable space group: C 2/M
;
_chemical_formula_sum "Si O2"
_cell_formula_units_Z 20
_cell_length_a 24.000000
_cell_length_b 9.000000
_cell_length_c 21.000000
_cell_angle_alpha 90.000000
_cell_angle_beta 30.000000
_cell_angle_gamma 90.000000
_cell_volume 2268.000000
_symmetry_space_group_name_H-M "C 2/M"
_symmetry_group_IT_number 12
_symmetry_cell_setting 'monoclinic'
loop_
_space_group_symop_operation_xyz
x,y,z
-x,y,-z
-x,-y,-z
x,-y,z
1/2+x,1/2+y,z
1/2-x,1/2+y,-z
1/2-x,1/2-y,-z
1/2+x,1/2-y,z
loop_
_atom_site_type_symbol
_atom_site_label
_atom_site_fract_x
_atom_site_fract_y
_atom_site_fract_z
Si Si1 0.891880 0.825130 0.075130
Si Si2 0.657187 0.175326 0.354748
Si Si3 0.406635 0.831733 0.801696
Si Si4 0.149595 0.830258 0.022739
Si Si5 0.991810 0.824187 0.601872
O O1 0.787612 0.790050 0.223262
O O2 0.906838 0.000000 0.052299
O O3 0.875675 0.759492 0.020913
O O4 0.000000 0.751222 0.000000
O O5 0.612281 0.268419 0.459056
O O6 0.600700 0.234761 0.346298
O O7 0.631956 0.000000 0.386153
O O8 0.418086 0.772978 0.861906
O O9 0.481443 0.722149 0.685288
O O10 0.451174 0.000000 0.753271
O O11 0.280557 0.820308 0.903636
O O12 0.109006 0.000000 0.070323
O O13 0.978112 0.000000 0.606053
#
# Coordination Sequence:
#
# PCOD8116186 Si02
#       5
#     8   8   8   8   8
#     4   9  17  31  52  75 100 130 164 199 238 289
#     4  10  18  31  49  72 100 130 164 200 242 293
#     4  10  18  30  48  72  99 130 160 200 249 295
#     4   9  17  30  47  72 100 128 161 198 242 292
#     4  11  20  30  47  72 101 131 161 203 250 291
#
# _framework density 8.8183419999999995
#
# number of rings (size 3 to 8) (size 9 to 14) (size 15 to 20)
#    0.000    2.200    2.000    4.200    0.000    0.800 
#    0.000    0.000    0.000    6.600    0.000    0.000 
#    0.000    0.000    0.000    0.000    0.000    0.000 
#
# Total GULP energy -247924.326865 kJ/mol
# GULP energy per Si atom -12396.216343 kJ/mol
# Density = 0.879827 g / cm^3
# Si number density = 8.818342 Si / 1000 Ang^3
#
#
#
# Elastic Constant Matrix: (Units=GPa)
#
#
# Indices 1 2 3 4 5 6 
#
# 1 48.6113 12.9732 33.9809 0.0004 4.6232 -0.0002
# 2 12.9732 84.6294 33.6122 -0.0018 8.8478 0.0008
# 3 33.9809 33.6122 89.1108 -0.0010 9.7089 0.0005
# 4 0.0004 -0.0018 -0.0010 21.2276 0.0008 12.2913
# 5 4.6232 8.8478 9.7089 0.0008 26.5931 -0.0003
# 6 -0.0002 0.0008 0.0005 12.2913 -0.0003 16.2503
#
#
#
# Elastic Compliance Matrix: (Units=1/GPa)
#
#
# Indices 1 2 3 4 5 6 
#
# 1 0.028074 0.000012 -0.010600 -0.000002 -0.001015 0.000002
# 2 0.000012 0.014105 -0.005013 0.000003 -0.002865 -0.000003
# 3 -0.010600 -0.005013 0.017467 0.000002 -0.002866 -0.000002
# 4 -0.000002 0.000003 0.000002 0.083816 -0.000004 -0.063396
# 5 -0.001015 -0.002865 -0.002866 -0.000004 0.039780 0.000004
# 6 0.000002 -0.000003 -0.000002 -0.063396 0.000004 0.109488
#
#
# Mechanical properties :
#
#
# Convention : Reuss Voigt Hill
#
# Bulk Modulus (GPa) = 35.15467 42.60933 38.88200
# Shear Modulus (GPa) = 14.99646 22.26656 18.63151
#
# Velocity S-wave (km/s) = 2.91915 3.55704 3.25377
# Velocity P-wave (km/s) = 5.59803 6.40952 6.01747
#
# Compressibility (1/GPa) = 0.02844573
#
# Stress axis : x y z
#
# Youngs Moduli (GPa) = 35.62007 70.89795 57.25048
#
# Poissons Ratio (x) = -0.00088 0.60683
# Poissons Ratio (y) = -0.00044 0.28699
# Poissons Ratio (z) = 0.37756 0.35540
#
# Static dielectric constant tensor:
#      x y z
#    x 3.160680 0.000000 0.163630 
#    y 0.000000 3.199060 0.000000 
#    z 0.163630 0.000000 3.312470 
# 
# 
# High freq. dielectric constant tensor:
#      x y z
#    x 1.642680 0.000000 0.026960 
#    y 0.000000 1.673870 0.000000 
#    z 0.026960 0.000000 1.673280 
# 
# From -- ./inp_files/171873.got.cif
#   From: 2010.06.25/outbox.ucp.g09.slc.cvg/sg12_86_cif.got.tgz:171873.got - 2010.06.28 13:50:54.
