data_PCOD8116588
_publ_section_title
;
Structure prediction by ZEFSAII (Michael W. Deem and Ramdas Pophale) SiO2 
 PCOD8116588
Probable space group: C 2/M
;
_chemical_formula_sum "Si O2"
_cell_formula_units_Z 20
_cell_length_a 15.000000
_cell_length_b 18.000000
_cell_length_c 21.000000
_cell_angle_alpha 90.000000
_cell_angle_beta 160.000000
_cell_angle_gamma 90.000000
_cell_volume 1939.254213
_symmetry_space_group_name_H-M "C 2/M"
_symmetry_group_IT_number 12
_symmetry_cell_setting 'monoclinic'
loop_
_space_group_symop_operation_xyz
x,y,z
-x,y,-z
-x,-y,-z
x,-y,z
1/2+x,1/2+y,z
1/2-x,1/2+y,-z
1/2-x,1/2-y,-z
1/2+x,1/2-y,z
loop_
_atom_site_type_symbol
_atom_site_label
_atom_site_fract_x
_atom_site_fract_y
_atom_site_fract_z
Si Si1 0.309878 0.914288 0.553591
Si Si2 0.379263 0.712757 0.485940
Si Si3 0.233987 0.415843 0.109101
Si Si4 0.050479 0.814595 0.851993
Si Si5 0.767057 0.173501 0.793230
O O1 0.282395 0.856702 0.593944
O O2 0.550011 0.888284 0.668714
O O3 0.022626 0.911727 0.331449
O O4 0.370226 0.000000 0.615108
O O5 0.500000 0.686143 0.500000
O O6 0.617399 0.746449 0.688381
O O7 0.181013 0.781922 0.346871
O O8 0.156345 0.500000 0.039918
O O9 0.266840 0.372785 0.063942
O O10 0.000000 0.385614 0.000000
O O11 0.907878 0.847682 0.820117
O O12 0.250000 0.750000 0.000000
O O13 0.000000 0.180610 0.000000
#
# Coordination Sequence:
#
# PCOD8116588 Si02
#       5
#     8   8   8   8   8
#     4  11  24  42  66  96 136 180 220 273 339 399
#     4  10  23  41  64  99 130 168 223 277 330 392
#     4  10  24  43  66  96 134 180 224 272 333 405
#     4  11  24  40  68 102 129 173 224 276 337 392
#     4  11  24  42  69 100 132 176 221 278 336 394
#
# _framework density 10.313243
#
# number of rings (size 3 to 8) (size 9 to 14) (size 15 to 20)
#    0.000    1.400    2.000    1.800    8.400    1.600 
#    0.000    5.000    0.000    0.000    0.000    0.000 
#    0.000    0.000    0.000    0.000    0.000    0.000 
#
# Total GULP energy -247765.885301 kJ/mol
# GULP energy per Si atom -12388.294265 kJ/mol
# Density = 1.028977 g / cm^3
# Si number density = 10.313243 Si / 1000 Ang^3
#
#
#
# Elastic Constant Matrix: (Units=GPa)
#
#
# Indices 1 2 3 4 5 6 
#
# 1 194.9747 87.5782 52.7238 0.0219 43.9266 0.0094
# 2 87.5782 129.7343 34.8953 -0.0149 12.4824 -0.0186
# 3 52.7238 34.8953 132.8037 -0.1502 19.9591 -0.0156
# 4 0.0219 -0.0149 -0.1502 32.8295 0.0019 9.6914
# 5 43.9266 12.4824 19.9591 0.0019 50.0173 0.0122
# 6 0.0094 -0.0186 -0.0156 9.6914 0.0122 45.3481
#
#
#
# Elastic Compliance Matrix: (Units=1/GPa)
#
#
# Indices 1 2 3 4 5 6 
#
# 1 0.009297 -0.005307 -0.001350 -0.000014 -0.006302 0.000000
# 2 -0.005307 0.011401 -0.001236 0.000002 0.002309 0.000004
# 3 -0.001350 -0.001236 0.008687 0.000042 -0.001973 -0.000006
# 4 -0.000014 0.000002 0.000042 0.032512 -0.000004 -0.006948
# 5 -0.006302 0.002309 -0.001973 -0.000004 0.025739 -0.000005
# 6 0.000000 0.000004 -0.000006 -0.006948 -0.000005 0.023537
#
#
# Mechanical properties :
#
#
# Convention : Reuss Voigt Hill
#
# Bulk Modulus (GPa) = 73.52518 89.76748 81.64633
# Shear Modulus (GPa) = 38.02554 44.46000 41.24277
#
# Velocity S-wave (km/s) = 4.29829 4.64775 4.47643
# Velocity P-wave (km/s) = 7.76899 8.50982 8.14783
#
# Compressibility (1/GPa) = 0.01360078
#
# Stress axis : x y z
#
# Youngs Moduli (GPa) = 107.55649 87.71304 115.11543
#
# Poissons Ratio (x) = 0.46549 0.15535
# Poissons Ratio (y) = 0.57080 0.14225
# Poissons Ratio (z) = 0.14515 0.10839
#
# Static dielectric constant tensor:
#      x y z
#    x 4.341760 0.000080 0.534350 
#    y 0.000080 3.922140 -0.000200 
#    z 0.534350 -0.000200 4.175930 
# 
# 
# High freq. dielectric constant tensor:
#      x y z
#    x 1.836520 0.000000 0.034420 
#    y 0.000000 1.804270 -0.000030 
#    z 0.034420 -0.000030 1.835310 
# 
# From -- ./inp_files/145267.got.cif
#   From: 2010.06.25/outbox.ucp.g09.slc.cvg/sg12_73_cif.got.tgz:145267.got - 2010.06.28 13:50:54.
