data_PCOD8116695
_publ_section_title
;
Structure prediction by ZEFSAII (Michael W. Deem and Ramdas Pophale) SiO2 
 PCOD8116695
Probable space group: P 2/C
;
_chemical_formula_sum "Si O2"
_cell_formula_units_Z 20
_cell_length_a 21.307843
_cell_length_b 7.106217
_cell_length_c 5.381794
_cell_angle_alpha 90.000000
_cell_angle_beta 97.255077
_cell_angle_gamma 90.000000
_cell_volume 808.377031
_symmetry_space_group_name_H-M "P 2/C"
_symmetry_group_IT_number 13
_symmetry_cell_setting 'monoclinic'
loop_
_space_group_symop_operation_xyz
x,y,z
-x,y,1/2-z
-x,-y,-z
x,-y,1/2+z
loop_
_atom_site_type_symbol
_atom_site_label
_atom_site_fract_x
_atom_site_fract_y
_atom_site_fract_z
Si Si1 0.073354 0.810011 0.786675
Si Si2 0.728476 0.287769 0.614238
Si Si3 0.875685 0.776225 0.187845
Si Si4 0.473743 0.289635 0.486872
Si Si5 0.676099 0.290451 0.088049
O O1 0.091304 0.693164 0.546352
O O2 0.000000 0.865293 0.750000
O O3 0.115312 0.998840 0.807652
O O4 0.091305 0.693164 0.044948
O O5 0.803484 0.283516 0.651741
O O6 0.701737 0.186789 0.350684
O O7 0.703519 0.499961 0.601758
O O8 0.701737 0.186788 0.851053
O O9 0.500000 0.187111 0.750000
O O10 0.500000 0.500000 0.500000
O O11 0.398824 0.291653 0.449412
O O12 0.500000 0.187111 0.250000
#
# Coordination Sequence:
#
# PCOD8116695 Si02
#       5
#     4   4   4   4   4
#     4  10  19  33  50  73  91 106 138 188 236 276
#     4  10  18  29  43  63  91 126 152 173 211 266
#     4  10  18  29  48  70  90 116 143 176 225 277
#     4  10  16  25  41  60  83 120 151 183 222 247
#     4  10  19  30  42  64  95 126 154 180 208 256
#
# _framework density 24.740931
#
# number of rings (size 3 to 8) (size 9 to 14) (size 15 to 20)
#    0.000    2.000    0.000   10.200    0.000    0.000 
#    0.000    0.000    0.000    0.000    0.000   95.200 
#    0.000    0.000    0.000  878.400    0.000    0.000 
#
# Total GULP energy -247811.361276 kJ/mol
# GULP energy per Si atom -12390.568064 kJ/mol
# Density = 2.468462 g / cm^3
# Si number density = 24.740931 Si / 1000 Ang^3
#
#
#
# Elastic Constant Matrix: (Units=GPa)
#
#
# Indices 1 2 3 4 5 6 
#
# 1 222.6396 15.3549 104.3574 0.0000 0.9550 0.0000
# 2 15.3549 30.1074 -8.0244 0.0000 4.1742 0.0000
# 3 104.3574 -8.0244 343.4746 0.0000 -22.5311 0.0000
# 4 0.0000 0.0000 0.0000 -17.9580 0.0000 2.0230
# 5 0.9550 4.1742 -22.5311 0.0000 60.6577 0.0000
# 6 0.0000 0.0000 0.0000 2.0230 0.0000 -6.6273
#
#
#
# Elastic Compliance Matrix: (Units=1/GPa)
#
#
# Indices 1 2 3 4 5 6 
#
# 1 0.005561 -0.003242 -0.001800 0.000000 -0.000533 0.000000
# 2 -0.003242 0.035566 0.001700 0.000000 -0.001765 0.000000
# 3 -0.001800 0.001700 0.003580 0.000000 0.001241 0.000000
# 4 0.000000 0.000000 0.000000 -0.057669 0.000000 -0.017603
# 5 -0.000533 -0.001765 0.001241 0.000000 0.017077 0.000000
# 6 0.000000 0.000000 0.000000 -0.017603 0.000000 -0.156265
#
#
# Mechanical properties :
#
#
# Convention : Reuss Voigt Hill
#
# Bulk Modulus (GPa) = 26.30065 91.06638 58.68351
# Shear Modulus (GPa) = -37.65317 39.51674 0.93178
#
# Velocity S-wave (km/s) = -3.90538 4.00086 0.61436
# Velocity P-wave (km/s) = 3.11168 7.63088 4.92686
#
# Compressibility (1/GPa) = 0.03802187
#
# Stress axis : x y z
#
# Youngs Moduli (GPa) = 179.81172 28.11686 279.36302
#
# Poissons Ratio (x) = 0.09116 0.50297
# Poissons Ratio (y) = 0.58300 -0.47498
# Poissons Ratio (z) = 0.32374 -0.04781
#
# Static dielectric constant tensor:
#      x y z
#    x 4.206650 0.000000 0.285170 
#    y 0.000000 3.443130 0.000000 
#    z 0.285170 0.000000 2.609760 
# 
# 
# High freq. dielectric constant tensor:
#      x y z
#    x 1.987640 0.000000 -0.009180 
#    y 0.000000 1.920670 0.000000 
#    z -0.009180 0.000000 2.039050 
# 
# From -- ./inp_files/3337.got.cif
#   From: 2010.06.25/outbox.cif.g09.slc.cpg/sg13_2_cif.got.tgz:3337.got - 2010.06.28 04:50:58.
