data_PCOD8116670
_publ_section_title
;
Structure prediction by ZEFSAII (Michael W. Deem and Ramdas Pophale) SiO2 
 PCOD8116670
Probable space group: P 2/C
;
_chemical_formula_sum "Si O2"
_cell_formula_units_Z 30
_cell_length_a 10.894486
_cell_length_b 11.339946
_cell_length_c 16.094831
_cell_angle_alpha 90.000000
_cell_angle_beta 47.627008
_cell_angle_gamma 90.000000
_cell_volume 1468.977799
_symmetry_space_group_name_H-M "P 2/C"
_symmetry_group_IT_number 13
_symmetry_cell_setting 'monoclinic'
loop_
_space_group_symop_operation_xyz
x,y,z
-x,y,1/2-z
-x,-y,-z
x,-y,1/2+z
loop_
_atom_site_type_symbol
_atom_site_label
_atom_site_fract_x
_atom_site_fract_y
_atom_site_fract_z
Si Si1 0.690651 0.423376 0.072210
Si Si2 0.810264 0.241173 0.312864
Si Si3 0.875941 0.841763 0.077227
Si Si4 0.798514 0.092040 0.168487
Si Si5 0.990896 0.327919 0.848059
Si Si6 0.500000 0.247956 0.250000
Si Si7 0.880483 0.567165 0.659022
Si Si8 0.749810 0.328909 0.511505
O O1 0.532444 0.337339 0.157484
O O2 0.805877 0.426046 0.101700
O O3 0.628826 0.557255 0.079328
O O4 0.801990 0.369912 0.948113
O O5 0.771953 0.120143 0.279259
O O6 0.772094 0.351230 0.269561
O O7 0.705430 0.259707 0.445803
O O8 0.000000 0.238620 0.250000
O O9 0.737417 0.761580 0.094381
O O10 0.962428 0.781711 0.115929
O O11 0.777090 0.954923 0.157205
O O12 0.016804 0.870186 0.944237
O O13 0.661269 0.166731 0.182418
O O14 0.000000 0.283377 0.750000
O O15 0.119740 0.434424 0.806159
O O16 0.066736 0.615951 0.571568
#
# Coordination Sequence:
#
# PCOD8116670 Si02
#       8
#     4   4   4   4   4   2   4   4
#     4  11  19  34  60  88 117 166 187 241 319 370
#     4  10  17  32  56  93 115 147 194 253 306 351
#     4  11  20  38  58  89 113 154 221 256 292 341
#     4  11  23  37  61  84 117 167 206 250 294 365
#     4  11  19  32  58  92 123 143 196 268 306 342
#     4  12  22  42  60  84 130 166 200 238 312 400
#     4  10  15  30  56  89 121 143 184 248 311 351
#     4  10  17  32  59  86 120 138 198 259 299 351
#
# _framework density 20.422363000000001
#
# number of rings (size 3 to 8) (size 9 to 14) (size 15 to 20)
#    0.000    1.333    8.000    2.800    0.000    0.533 
#    0.000    1.333    0.000    1.600    0.000    0.000 
#    0.000    0.000    0.000    0.000    0.000    0.000 
#
# Total GULP energy -371811.495042 kJ/mol
# GULP energy per Si atom -12393.716501 kJ/mol
# Density = 2.037588 g / cm^3
# Si number density = 20.422363 Si / 1000 Ang^3
#
#
#
# Elastic Constant Matrix: (Units=GPa)
#
#
# Indices 1 2 3 4 5 6 
#
# 1 24.9666 20.7203 21.6397 0.0000 9.4853 0.0000
# 2 20.7203 157.5275 50.9755 0.0000 6.9015 0.0000
# 3 21.6397 50.9755 83.9699 0.0000 24.9266 0.0000
# 4 0.0000 0.0000 0.0000 28.1929 0.0000 0.8202
# 5 9.4853 6.9015 24.9266 0.0000 33.7575 0.0000
# 6 0.0000 0.0000 0.0000 0.8202 0.0000 15.2491
#
#
#
# Elastic Compliance Matrix: (Units=1/GPa)
#
#
# Indices 1 2 3 4 5 6 
#
# 1 0.054212 -0.003733 -0.009489 0.000000 -0.007462 0.000000
# 2 -0.003733 0.008321 -0.004989 0.000000 0.003032 0.000000
# 3 -0.009489 -0.004989 0.020862 0.000000 -0.011718 0.000000
# 4 0.000000 0.000000 0.000000 0.035526 0.000000 -0.001911
# 5 -0.007462 0.003032 -0.011718 0.000000 0.039753 0.000000
# 6 0.000000 0.000000 0.000000 -0.001911 0.000000 0.065681
#
#
# Mechanical properties :
#
#
# Convention : Reuss Voigt Hill
#
# Bulk Modulus (GPa) = 21.28973 50.34835 35.81904
# Shear Modulus (GPa) = 18.08753 26.98177 22.53465
#
# Velocity S-wave (km/s) = 2.97925 3.63876 3.32540
# Velocity P-wave (km/s) = 4.72038 6.50854 5.68520
#
# Compressibility (1/GPa) = 0.04697100
#
# Stress axis : x y z
#
# Youngs Moduli (GPa) = 18.44623 120.18044 47.93429
#
# Poissons Ratio (x) = 0.44864 0.45486
# Poissons Ratio (y) = 0.06886 0.23916
# Poissons Ratio (z) = 0.17504 0.59962
#
# Static dielectric constant tensor:
#      x y z
#    x 3.406210 0.000000 0.329830 
#    y 0.000000 4.088250 0.000000 
#    z 0.329830 0.000000 3.936840 
# 
# 
# High freq. dielectric constant tensor:
#      x y z
#    x 1.763630 0.000000 0.024900 
#    y 0.000000 1.799870 0.000000 
#    z 0.024900 0.000000 1.780920 
# 
# From -- ./inp_files/50865.got.cif
#   From: 2010.06.25/outbox.cif.g09.slc.cpg/sg13_26_cif.got.tgz:50865.got - 2010.06.28 04:50:58.
