data_PCOD8116715
_publ_section_title
;
Structure prediction by ZEFSAII (Michael W. Deem and Ramdas Pophale) SiO2 
 PCOD8116715
Probable space group: P 2/C
;
_chemical_formula_sum "Si O2"
_cell_formula_units_Z 24
_cell_length_a 16.165118
_cell_length_b 13.332689
_cell_length_c 9.091293
_cell_angle_alpha 90.000000
_cell_angle_beta 146.494095
_cell_angle_gamma 90.000000
_cell_volume 1081.631673
_symmetry_space_group_name_H-M "P 2/C"
_symmetry_group_IT_number 13
_symmetry_cell_setting 'monoclinic'
loop_
_space_group_symop_operation_xyz
x,y,z
-x,y,1/2-z
-x,-y,-z
x,-y,1/2+z
loop_
_atom_site_type_symbol
_atom_site_label
_atom_site_fract_x
_atom_site_fract_y
_atom_site_fract_z
Si Si1 0.322654 0.938998 0.982934
Si Si2 0.000000 0.487106 0.250000
Si Si3 0.677895 0.684654 0.009346
Si Si4 0.371516 0.201370 0.790922
Si Si5 0.329986 0.874353 0.676084
Si Si6 0.797452 0.535099 0.696846
Si Si7 0.500000 0.656356 0.250000
O O1 0.500000 0.922421 0.250000
O O2 0.262910 0.858633 0.017022
O O3 0.276617 0.050217 0.967254
O O4 0.258968 0.911081 0.726961
O O5 0.884418 0.422651 0.180622
O O6 0.098944 0.554694 0.507691
O O7 0.500000 0.662153 0.750000
O O8 0.721883 0.761792 0.943242
O O9 0.725056 0.738095 0.232903
O O10 0.771902 0.583672 0.131737
O O11 0.479034 0.278464 0.863833
O O12 0.486836 0.123871 0.044133
O O13 0.641994 0.587987 0.492989
#
# Coordination Sequence:
#
# PCOD8116715 Si02
#       7
#     4   2   4   4   4   4   2
#     4  10  16  28  44  69 121 169 180 227 311 378
#     4  10  26  44  58  84 122 170 206 256 322 370
#     4  10  20  33  53  87 114 152 205 251 297 357
#     4  10  19  30  46  84 118 152 196 247 299 364
#     4  10  18  29  47  76 117 165 191 236 301 379
#     4  11  24  42  63  86 124 165 209 260 310 369
#     4  12  22  36  66  92 120 160 218 260 302 358
#
# _framework density 22.188699
#
# number of rings (size 3 to 8) (size 9 to 14) (size 15 to 20)
#    0.000    1.667    3.333    5.500    4.667    1.333 
#    0.000    0.000    0.000    0.000    0.000    0.000 
#    0.000   45.333    0.000    0.000    0.000    0.000 
#
# Total GULP energy -297420.718979 kJ/mol
# GULP energy per Si atom -12392.529957 kJ/mol
# Density = 2.213820 g / cm^3
# Si number density = 22.188699 Si / 1000 Ang^3
#
#
#
# Elastic Constant Matrix: (Units=GPa)
#
#
# Indices 1 2 3 4 5 6 
#
# 1 88.7124 37.3904 42.3823 0.0000 -27.8367 0.0000
# 2 37.3904 122.3925 36.3050 0.0000 -12.2191 0.0000
# 3 42.3823 36.3050 77.4481 0.0000 -11.8766 0.0000
# 4 0.0000 0.0000 0.0000 6.7618 0.0000 -14.4828
# 5 -27.8367 -12.2191 -11.8766 0.0000 35.1698 0.0000
# 6 0.0000 0.0000 0.0000 -14.4828 0.0000 16.2242
#
#
#
# Elastic Compliance Matrix: (Units=1/GPa)
#
#
# Indices 1 2 3 4 5 6 
#
# 1 0.019930 -0.002541 -0.007837 0.000000 0.012245 0.000000
# 2 -0.002541 0.009935 -0.003212 0.000000 0.000356 0.000000
# 3 -0.007837 -0.003212 0.018544 0.000000 -0.001057 0.000000
# 4 0.000000 0.000000 0.000000 -0.162170 0.000000 -0.144763
# 5 0.012245 0.000356 -0.001057 0.000000 0.037892 0.000000
# 6 0.000000 0.000000 0.000000 -0.144763 0.000000 -0.067588
#
#
# Mechanical properties :
#
#
# Convention : Reuss Voigt Hill
#
# Bulk Modulus (GPa) = 47.10726 57.85649 52.48188
# Shear Modulus (GPa) = -45.78824 23.12952 -11.32936
#
# Velocity S-wave (km/s) = -4.54760 3.23213 -2.26208
# Velocity P-wave (km/s) = 2.50954 6.32931 4.10867
#
# Compressibility (1/GPa) = 0.02122815
#
# Stress axis : x y z
#
# Youngs Moduli (GPa) = 50.17527 100.65357 53.92465
#
# Poissons Ratio (x) = 0.25579 0.42263
# Poissons Ratio (y) = 0.12751 0.17321
# Poissons Ratio (z) = 0.39325 0.32330
#
# Static dielectric constant tensor:
#      x y z
#    x 4.180020 0.000000 -0.575530 
#    y 0.000000 4.006750 0.000000 
#    z -0.575530 0.000000 3.632530 
# 
# 
# High freq. dielectric constant tensor:
#      x y z
#    x 1.868300 0.000000 -0.055970 
#    y 0.000000 1.869190 0.000000 
#    z -0.055970 0.000000 1.823230 
# 
# From -- ./inp_files/19775.got.cif
#   From: 2010.06.25/outbox.cif.g09.slc.cpg/sg13_10_cif.got.tgz:19775.got - 2010.06.28 04:50:58.
