data_PCOD8116763
_publ_section_title
;
Structure prediction by ZEFSAII (Michael W. Deem and Ramdas Pophale) SiO2 
 PCOD8116763
Probable space group: P 2/C
;
_chemical_formula_sum "Si O2"
_cell_formula_units_Z 18
_cell_length_a 9.021328
_cell_length_b 21.303332
_cell_length_c 5.293567
_cell_angle_alpha 90.000000
_cell_angle_beta 120.321980
_cell_angle_gamma 90.000000
_cell_volume 878.170472
_symmetry_space_group_name_H-M "P 2/C"
_symmetry_group_IT_number 13
_symmetry_cell_setting 'monoclinic'
loop_
_space_group_symop_operation_xyz
x,y,z
-x,y,1/2-z
-x,-y,-z
x,-y,1/2+z
loop_
_atom_site_type_symbol
_atom_site_label
_atom_site_fract_x
_atom_site_fract_y
_atom_site_fract_z
Si Si1 0.000000 0.367189 0.250000
Si Si2 0.087660 0.246493 0.079457
Si Si3 0.305811 0.973821 0.850058
Si Si4 0.305226 0.539871 0.069643
Si Si5 0.604025 0.164117 0.088508
O O1 0.069721 0.322430 0.083222
O O2 0.161761 0.407155 0.486758
O O3 0.283350 0.224804 0.246661
O O4 0.000000 0.214496 0.250000
O O5 0.000000 0.221612 0.750000
O O6 0.292116 0.899253 0.882330
O O7 0.211588 0.993918 0.509241
O O8 0.500000 0.000000 0.000000
O O9 0.500000 0.567494 0.250000
O O10 0.276605 0.490344 0.269945
O O11 0.500000 0.148228 0.250000
O O12 0.500000 0.183485 0.750000
#
# Coordination Sequence:
#
# PCOD8116763 Si02
#       5
#     2   4   4   4   4
#     4  10  24  42  66  84 132 170 206 244 318 364
#     4  10  25  43  57  85 125 172 206 243 310 376
#     4  10  16  30  51  90 111 141 191 260 321 373
#     4  10  22  39  65 100 126 156 204 257 305 362
#     4  12  21  36  64  90 116 153 210 269 305 367
#
# _framework density 20.497160000000001
#
# number of rings (size 3 to 8) (size 9 to 14) (size 15 to 20)
#    0.667    0.889    4.444    2.000    3.111    0.889 
#    0.000    0.000    0.000    4.000    0.000    0.000 
#    0.000    0.000    0.000    0.000    0.000    0.000 
#
# Total GULP energy -223055.385626 kJ/mol
# GULP energy per Si atom -12391.965868 kJ/mol
# Density = 2.045051 g / cm^3
# Si number density = 20.497160 Si / 1000 Ang^3
#
#
#
# Elastic Constant Matrix: (Units=GPa)
#
#
# Indices 1 2 3 4 5 6 
#
# 1 55.8987 47.3092 53.6827 0.0000 -0.5762 0.0000
# 2 47.3092 103.1308 44.9620 0.0000 22.1685 0.0000
# 3 53.6827 44.9620 163.0568 0.0000 -19.7144 0.0000
# 4 0.0000 0.0000 0.0000 12.2476 0.0000 3.2615
# 5 -0.5762 22.1685 -19.7144 0.0000 43.0058 0.0000
# 6 0.0000 0.0000 0.0000 3.2615 0.0000 7.3742
#
#
#
# Elastic Compliance Matrix: (Units=1/GPa)
#
#
# Indices 1 2 3 4 5 6 
#
# 1 0.038331 -0.015171 -0.007864 0.000000 0.004729 0.000000
# 2 -0.015171 0.019899 -0.001860 0.000000 -0.011313 0.000000
# 3 -0.007864 -0.001860 0.009886 0.000000 0.005385 0.000000
# 4 0.000000 0.000000 0.000000 0.092549 0.000000 -0.040933
# 5 0.004729 -0.011313 0.005385 0.000000 0.031616 0.000000
# 6 0.000000 0.000000 0.000000 -0.040933 0.000000 0.153712
#
#
# Mechanical properties :
#
#
# Convention : Reuss Voigt Hill
#
# Bulk Modulus (GPa) = 54.57280 68.22156 61.39718
# Shear Modulus (GPa) = 12.44110 24.26766 18.35438
#
# Velocity S-wave (km/s) = 2.46634 3.44459 2.99567
# Velocity P-wave (km/s) = 5.89854 7.01256 6.47954
#
# Compressibility (1/GPa) = 0.01832415
#
# Stress axis : x y z
#
# Youngs Moduli (GPa) = 26.08846 50.25435 101.15319
#
# Poissons Ratio (x) = 0.76243 0.79551
# Poissons Ratio (y) = 0.39580 0.18814
# Poissons Ratio (z) = 0.20517 0.09347
#
# Static dielectric constant tensor:
#      x y z
#    x 3.906580 0.000000 -0.869800 
#    y 0.000000 3.448980 0.000000 
#    z -0.869800 0.000000 5.075380 
# 
# 
# High freq. dielectric constant tensor:
#      x y z
#    x 1.781820 0.000000 -0.024850 
#    y 0.000000 1.786540 0.000000 
#    z -0.024850 0.000000 1.814490 
# 
# From -- ./inp_files/1897.got.cif
#   From: 2010.06.25/outbox.cif.g09.slc.cpg/sg13_1_cif.got.tgz:1897.got - 2010.06.28 04:50:58.
