data_PCOD8116112
_publ_section_title
;
Structure prediction by ZEFSAII (Michael W. Deem and Ramdas Pophale) SiO2 
 PCOD8116112
Probable space group: C 2/M
;
_chemical_formula_sum "Si O2"
_cell_formula_units_Z 48
_cell_length_a 9.087508
_cell_length_b 19.582917
_cell_length_c 18.096070
_cell_angle_alpha 90.000000
_cell_angle_beta 120.144424
_cell_angle_gamma 90.000000
_cell_volume 2784.859012
_symmetry_space_group_name_H-M "C 2/M"
_symmetry_group_IT_number 12
_symmetry_cell_setting 'monoclinic'
loop_
_space_group_symop_operation_xyz
x,y,z
-x,y,-z
-x,-y,-z
x,-y,z
1/2+x,1/2+y,z
1/2-x,1/2+y,-z
1/2-x,1/2-y,-z
1/2+x,1/2-y,z
loop_
_atom_site_type_symbol
_atom_site_label
_atom_site_fract_x
_atom_site_fract_y
_atom_site_fract_z
Si Si1 0.188374 0.821809 0.267168
Si Si2 0.509437 0.577823 0.586049
Si Si3 0.837338 0.577823 0.413950
Si Si4 0.500528 0.322741 0.078746
Si Si5 0.845961 0.178190 0.267168
Si Si6 0.656962 0.822744 0.078747
O O1 0.316521 0.876194 0.335633
O O2 0.120797 0.855024 0.172733
O O3 0.280612 0.749999 0.280613
O O4 0.030643 0.807250 0.280643
O O5 0.500000 0.604580 0.500000
O O6 0.575556 0.500000 0.605472
O O7 0.323828 0.584431 0.573829
O O8 0.645254 0.623805 0.664366
O O9 0.864611 0.500000 0.394527
O O10 0.000000 0.604580 0.500000
O O11 0.582000 0.249997 0.082007
O O12 0.308380 0.315361 0.058381
O O13 0.500000 0.364452 0.000000
O O14 0.724672 0.144973 0.172734
O O15 0.500000 0.864457 0.000000
#
# Coordination Sequence:
#
# PCOD8116112 Si02
#       6
#     8   8   8   8   8   8
#     4   9  18  30  45  67  92 117 145 180 221 260
#     4   9  18  33  50  66  86 115 150 183 217 261
#     4   9  18  33  50  66  86 115 150 183 217 261
#     4   9  15  24  39  60  86 114 143 174 211 254
#     4   9  18  30  45  67  92 117 145 180 221 260
#     4   9  15  24  39  60  86 114 143 174 211 254
#
# _framework density 17.236059999999998
#
# number of rings (size 3 to 8) (size 9 to 14) (size 15 to 20)
#    0.000    3.000    0.000    2.000    0.000    3.333 
#    0.000    3.333    0.000    1.000    0.000    0.000 
#    0.000    0.000    0.000    0.000    0.000    9.000 
#
# Total GULP energy -297352.542971 kJ/mol
# GULP energy per Si atom -12389.689290 kJ/mol
# Density = 1.719683 g / cm^3
# Si number density = 17.236060 Si / 1000 Ang^3
#
#
#
# Elastic Constant Matrix: (Units=GPa)
#
#
# Indices 1 2 3 4 5 6 
#
# 1 62.1897 25.6400 58.2578 0.0000 0.0005 0.0000
# 2 25.6400 56.6694 69.7484 0.0000 0.0001 0.0000
# 3 58.2578 69.7484 195.7585 0.0000 0.0002 0.0000
# 4 0.0000 0.0000 0.0000 8.4956 0.0000 -0.0003
# 5 0.0005 0.0001 0.0002 0.0000 31.5709 0.0000
# 6 0.0000 0.0000 0.0000 -0.0003 0.0000 15.4155
#
#
#
# Elastic Compliance Matrix: (Units=1/GPa)
#
#
# Indices 1 2 3 4 5 6 
#
# 1 0.022674 -0.003480 -0.005508 0.000000 0.000000 0.000000
# 2 -0.003480 0.031963 -0.010353 0.000000 0.000000 0.000000
# 3 -0.005508 -0.010353 0.010436 0.000000 0.000000 0.000000
# 4 0.000000 0.000000 0.000000 0.117708 0.000000 0.000002
# 5 0.000000 0.000000 0.000000 0.000000 0.031675 0.000000
# 6 0.000000 0.000000 0.000000 0.000002 0.000000 0.064870
#
#
# Mechanical properties :
#
#
# Convention : Reuss Voigt Hill
#
# Bulk Modulus (GPa) = 37.88990 69.10111 53.49551
# Shear Modulus (GPa) = 15.29970 21.82782 18.56376
#
# Velocity S-wave (km/s) = 2.98259 3.56252 3.28537
# Velocity P-wave (km/s) = 5.82166 7.55646 6.74507
#
# Compressibility (1/GPa) = 0.02639225
#
# Stress axis : x y z
#
# Youngs Moduli (GPa) = 44.10287 31.28660 95.82050
#
# Poissons Ratio (x) = 0.10887 0.52779
# Poissons Ratio (y) = 0.15346 0.99200
# Poissons Ratio (z) = 0.24292 0.32390
#
# Static dielectric constant tensor:
#      x y z
#    x 3.234850 0.000000 0.000010 
#    y 0.000000 2.856480 0.000000 
#    z 0.000010 0.000000 4.439460 
# 
# 
# High freq. dielectric constant tensor:
#      x y z
#    x 1.667740 0.000000 0.000000 
#    y 0.000000 1.609620 0.000000 
#    z 0.000000 0.000000 1.692850 
# 
# From -- ./inp_files/196473.got.cif
#   From: 2010.06.25/outbox.cif.g09.slc.cpg/sg12_99_cif.got.tgz:196473.got - 2010.06.28 00:19:55.
