data_PCOD8116408
_publ_section_title
;
Structure prediction by ZEFSAII (Michael W. Deem and Ramdas Pophale) SiO2 
 PCOD8116408
Probable space group: C 2/M
;
_chemical_formula_sum "Si O2"
_cell_formula_units_Z 28
_cell_length_a 21.000000
_cell_length_b 21.000000
_cell_length_c 18.000000
_cell_angle_alpha 90.000000
_cell_angle_beta 160.000000
_cell_angle_gamma 90.000000
_cell_volume 2714.955898
_symmetry_space_group_name_H-M "C 2/M"
_symmetry_group_IT_number 12
_symmetry_cell_setting 'monoclinic'
loop_
_space_group_symop_operation_xyz
x,y,z
-x,y,-z
-x,-y,-z
x,-y,z
1/2+x,1/2+y,z
1/2-x,1/2+y,-z
1/2-x,1/2-y,-z
1/2+x,1/2-y,z
loop_
_atom_site_type_symbol
_atom_site_label
_atom_site_fract_x
_atom_site_fract_y
_atom_site_fract_z
Si Si1 0.140797 0.851627 0.215901
Si Si2 0.490495 0.428632 0.330125
Si Si3 0.627267 0.758123 0.046314
Si Si4 0.029284 0.701888 0.646838
Si Si5 0.860665 0.176660 0.414112
Si Si6 0.391498 0.146102 0.108319
Si Si7 0.761358 0.929223 0.537632
O O1 0.358536 0.842838 0.429914
O O2 0.139299 0.897494 0.283700
O O3 0.000000 0.881399 0.000000
O O4 0.060319 0.781837 0.147809
O O5 0.469426 0.500000 0.339265
O O6 0.641774 0.390886 0.546549
O O7 0.573215 0.430649 0.339308
O O8 0.287314 0.396906 0.104605
O O9 0.802669 0.708721 0.228813
O O10 0.665661 0.801646 0.162230
O O11 0.598854 0.798731 0.941616
O O12 0.117683 0.677062 0.820244
O O13 0.940678 0.772172 0.561341
O O14 0.000000 0.168483 0.500000
O O15 0.580507 0.106293 0.308254
O O16 0.696791 0.000000 0.488807
#
# Coordination Sequence:
#
# PCOD8116408 Si02
#       7
#     8   8   8   8   8   8   8
#     4  11  23  36  62  89 113 156 185 232 305 346
#     4  11  23  41  61  80 115 163 198 233 281 337
#     4  11  22  36  58  91 123 146 185 241 293 345
#     4  10  21  36  56  88 121 144 186 239 289 342
#     4  10  20  37  56  88 121 149 185 239 283 341
#     4  11  22  36  64  86 112 157 190 240 291 341
#     4  10  25  43  57  84 117 148 203 245 272 342
#
# _framework density 10.313243
#
# number of rings (size 3 to 8) (size 9 to 14) (size 15 to 20)
#    0.000    1.429    4.286    1.714    4.000    1.714 
#    0.000    0.000    0.000    1.714    0.000    8.000 
#    0.000    0.000    0.000    0.000    0.000    0.000 
#
# Total GULP energy -346976.597325 kJ/mol
# GULP energy per Si atom -12392.021333 kJ/mol
# Density = 1.028977 g / cm^3
# Si number density = 10.313243 Si / 1000 Ang^3
#
#
#
# Elastic Constant Matrix: (Units=GPa)
#
#
# Indices 1 2 3 4 5 6 
#
# 1 35.9075 22.6514 27.6057 -0.0005 -15.7971 -0.0010
# 2 22.6514 58.1652 15.2573 0.0001 -8.2367 0.0002
# 3 27.6057 15.2573 106.4981 -0.0018 -5.5300 -0.0051
# 4 -0.0005 0.0001 -0.0018 22.1462 -0.0007 1.5963
# 5 -15.7971 -8.2367 -5.5300 -0.0007 31.7028 -0.0028
# 6 -0.0010 0.0002 -0.0051 1.5963 -0.0028 25.7692
#
#
#
# Elastic Compliance Matrix: (Units=1/GPa)
#
#
# Indices 1 2 3 4 5 6 
#
# 1 0.055957 -0.015784 -0.011109 0.000001 0.021844 0.000002
# 2 -0.015784 0.022897 0.000718 0.000000 -0.001791 -0.000001
# 3 -0.011109 0.000718 0.011998 0.000001 -0.003256 0.000002
# 4 0.000001 0.000000 0.000001 0.045357 0.000001 -0.002810
# 5 0.021844 -0.001791 -0.003256 0.000001 0.041394 0.000005
# 6 0.000002 -0.000001 0.000002 -0.002810 0.000005 0.038980
#
#
# Mechanical properties :
#
#
# Convention : Reuss Voigt Hill
#
# Bulk Modulus (GPa) = 25.97304 36.84438 31.40871
# Shear Modulus (GPa) = 17.74508 24.92739 21.33623
#
# Velocity S-wave (km/s) = 2.93628 3.48014 3.21971
# Velocity P-wave (km/s) = 4.91071 5.83523 5.39282
#
# Compressibility (1/GPa) = 0.03850146
#
# Stress axis : x y z
#
# Youngs Moduli (GPa) = 17.87076 43.67319 83.35038
#
# Poissons Ratio (x) = 0.68935 0.92596
# Poissons Ratio (y) = 0.28208 -0.05986
# Poissons Ratio (z) = 0.19853 -0.03136
#
# Static dielectric constant tensor:
#      x y z
#    x 3.771970 0.000000 -0.089740 
#    y 0.000000 3.880370 0.000000 
#    z -0.089740 0.000000 4.125750 
# 
# 
# High freq. dielectric constant tensor:
#      x y z
#    x 1.804740 0.000000 -0.001440 
#    y 0.000000 1.785690 0.000000 
#    z -0.001440 0.000000 1.831620 
# 
# From -- ./inp_files/286072.got.cif
#   From: 2010.06.25/outbox.ucp.g09.slc.cvg/sg12_144_cif.got.tgz:286072.got - 2010.06.28 13:50:54.
