data_PCOD8116796
_publ_section_title
;
Structure prediction by ZEFSAII (Michael W. Deem and Ramdas Pophale) SiO2 
 PCOD8116796
Probable space group: P 2/C
;
_chemical_formula_sum "Si O2"
_cell_formula_units_Z 30
_cell_length_a 29.332013
_cell_length_b 11.810057
_cell_length_c 9.885908
_cell_angle_alpha 90.000000
_cell_angle_beta 150.258205
_cell_angle_gamma 90.000000
_cell_volume 1698.919489
_symmetry_space_group_name_H-M "P 2/C"
_symmetry_group_IT_number 13
_symmetry_cell_setting 'monoclinic'
loop_
_space_group_symop_operation_xyz
x,y,z
-x,y,1/2-z
-x,-y,-z
x,-y,1/2+z
loop_
_atom_site_type_symbol
_atom_site_label
_atom_site_fract_x
_atom_site_fract_y
_atom_site_fract_z
Si Si1 0.500000 0.138069 0.750000
Si Si2 0.762295 0.971894 0.778799
Si Si3 0.220439 0.378585 0.281996
Si Si4 0.631634 0.212963 0.879530
Si Si5 0.079264 0.816083 0.346274
Si Si6 0.854918 0.522993 0.648621
Si Si7 0.660152 0.975761 0.260892
Si Si8 0.006358 0.671006 0.921296
O O1 0.538761 0.218331 0.729884
O O2 0.422027 0.058402 0.487649
O O3 0.707943 0.853551 0.665465
O O4 0.724391 0.030556 0.544165
O O5 0.732242 0.052252 0.825637
O O6 0.869503 0.936981 0.046977
O O7 0.326010 0.335659 0.543011
O O8 0.212541 0.437125 0.406921
O O9 0.146433 0.277536 0.083791
O O10 0.205629 0.467327 0.124215
O O11 0.615440 0.142364 0.698336
O O12 0.040193 0.774295 0.101729
O O13 0.000000 0.839127 0.250000
O O14 0.925613 0.435506 0.897972
O O15 0.907592 0.630396 0.721088
O O16 0.000000 0.713768 0.750000
#
# Coordination Sequence:
#
# PCOD8116796 Si02
#       8
#     2   4   4   4   4   4   4   4
#     4  10  16  32  60  86  96 130 160 218 252 318
#     4   8  18  32  49  74 103 139 159 210 256 308
#     4  10  18  32  48  74 103 139 171 212 258 299
#     4   8  18  30  53  76 106 127 162 205 264 310
#     4  10  18  31  49  68 105 142 177 211 255 292
#     4  10  18  27  48  69 101 133 174 217 254 291
#     4   9  17  32  53  80 104 126 165 208 263 309
#     4  10  18  27  44  76  94 127 182 231 245 276
#
# _framework density 17.658283000000001
#
# number of rings (size 3 to 8) (size 9 to 14) (size 15 to 20)
#    0.800    1.867    2.667    0.400    0.000    0.000 
#    0.000    3.333    2.933    0.800    0.000    0.000 
#    0.000    0.000    0.000    0.000    0.000    0.000 
#
# Total GULP energy -371694.503609 kJ/mol
# GULP energy per Si atom -12389.816787 kJ/mol
# Density = 1.761809 g / cm^3
# Si number density = 17.658283 Si / 1000 Ang^3
#
#
#
# Elastic Constant Matrix: (Units=GPa)
#
#
# Indices 1 2 3 4 5 6 
#
# 1 158.2967 44.8832 69.5018 0.0000 -8.3217 0.0000
# 2 44.8832 38.4520 35.8038 0.0000 5.8344 0.0000
# 3 69.5018 35.8038 73.5514 0.0000 -1.2322 0.0000
# 4 0.0000 0.0000 0.0000 12.8166 0.0000 7.0302
# 5 -8.3217 5.8344 -1.2322 0.0000 29.7938 0.0000
# 6 0.0000 0.0000 0.0000 7.0302 0.0000 13.4062
#
#
#
# Elastic Compliance Matrix: (Units=1/GPa)
#
#
# Indices 1 2 3 4 5 6 
#
# 1 0.012075 -0.007748 -0.007562 0.000000 0.004577 0.000000
# 2 -0.007748 0.055907 -0.020127 0.000000 -0.013944 0.000000
# 3 -0.007562 -0.020127 0.030591 0.000000 0.003094 0.000000
# 4 0.000000 0.000000 0.000000 0.109529 0.000000 -0.057437
# 5 0.004577 -0.013944 0.003094 0.000000 0.037701 0.000000
# 6 0.000000 0.000000 0.000000 -0.057437 0.000000 0.104712
#
#
# Mechanical properties :
#
#
# Convention : Reuss Voigt Hill
#
# Bulk Modulus (GPa) = 36.10223 63.40863 49.75543
# Shear Modulus (GPa) = 11.61115 19.21075 15.41095
#
# Velocity S-wave (km/s) = 2.56705 3.30194 2.95741
# Velocity P-wave (km/s) = 5.41070 7.10800 6.31662
#
# Compressibility (1/GPa) = 0.02769912
#
# Stress axis : x y z
#
# Youngs Moduli (GPa) = 82.81765 17.88696 32.68972
#
# Poissons Ratio (x) = 0.13858 0.24719
# Poissons Ratio (y) = 0.64166 0.65794
# Poissons Ratio (z) = 0.62624 0.36001
#
# Static dielectric constant tensor:
#      x y z
#    x 3.491060 0.000000 0.034290 
#    y 0.000000 2.895910 0.000000 
#    z 0.034290 0.000000 3.063020 
# 
# 
# High freq. dielectric constant tensor:
#      x y z
#    x 1.700400 0.000000 -0.006110 
#    y 0.000000 1.634470 0.000000 
#    z -0.006110 0.000000 1.657210 
# 
# From -- ./inp_files/24202.got.cif
#   From: 2010.06.25/outbox.cif.g09.slc.cpg/sg13_13_cif.got.tgz:24202.got - 2010.06.28 04:50:58.
