data_PCOD8116008
_publ_section_title
;
Structure prediction by ZEFSAII (Michael W. Deem and Ramdas Pophale) SiO2 
 PCOD8116008
Probable space group: C 2/M
;
_chemical_formula_sum "Si O2"
_cell_formula_units_Z 64
_cell_length_a 23.064862
_cell_length_b 9.302358
_cell_length_c 18.988948
_cell_angle_alpha 90.000000
_cell_angle_beta 83.202658
_cell_angle_gamma 90.000000
_cell_volume 4045.585462
_symmetry_space_group_name_H-M "C 2/M"
_symmetry_group_IT_number 12
_symmetry_cell_setting 'monoclinic'
loop_
_space_group_symop_operation_xyz
x,y,z
-x,y,-z
-x,-y,-z
x,-y,z
1/2+x,1/2+y,z
1/2-x,1/2+y,-z
1/2-x,1/2-y,-z
1/2+x,1/2-y,z
loop_
_atom_site_type_symbol
_atom_site_label
_atom_site_fract_x
_atom_site_fract_y
_atom_site_fract_z
Si Si1 0.545340 0.328403 0.435423
Si Si2 0.871813 0.830259 0.265323
Si Si3 0.327206 0.331601 0.542581
Si Si4 0.781032 0.833188 0.397370
Si Si5 0.093149 0.669234 0.865781
Si Si6 0.065759 0.660028 0.019136
Si Si7 0.497175 0.665574 0.297508
Si Si8 0.473994 0.666203 0.857062
O O1 0.500000 0.270859 0.500000
O O2 0.546477 0.500000 0.435110
O O3 0.609659 0.270416 0.444724
O O4 0.526129 0.262905 0.362327
O O5 0.819476 0.789944 0.324723
O O6 0.860434 0.745844 0.193120
O O7 0.932582 0.772467 0.290453
O O8 0.875298 0.000000 0.249324
O O9 0.322263 0.500000 0.557641
O O10 0.278813 0.255125 0.597708
O O11 0.317486 0.294113 0.462057
O O12 0.764865 0.000000 0.398818
O O13 0.088940 0.500000 0.850087
O O14 0.031834 0.743690 0.860387
O O15 0.108643 0.694542 0.946565
O O16 0.078080 0.500000 0.045822
O O17 0.075655 0.769392 0.083389
O O18 0.000000 0.672035 0.000000
O O19 0.487611 0.500000 0.317270
O O20 0.540918 0.683811 0.223980
O O21 0.484434 0.500000 0.874760
#
# Coordination Sequence:
#
# PCOD8116008 Si02
#       8
#     8   8   8   8   8   8   8   8
#     4   9  15  24  41  62  82 104 132 167 200 229
#     4   9  16  26  40  57  78 106 136 163 197 239
#     4   9  17  28  44  64  80 102 137 167 196 237
#     4   9  17  29  43  59  82 107 131 165 203 235
#     4   9  16  24  34  51  76 103 130 163 199 233
#     4   8  14  23  33  47  71 102 132 161 194 231
#     4   8  14  23  35  55  80 102 130 168 200 227
#     4   9  15  22  34  51  73 103 135 164 194 232
#
# _framework density 15.819713
#
# number of rings (size 3 to 8) (size 9 to 14) (size 15 to 20)
#    0.000    3.250    0.000    3.000    0.000    6.250 
#    0.000    0.000    0.000    4.125    0.000    0.000 
#    0.000    1.000    0.000    2.250    0.000    4.875 
#
# Total GULP energy -396468.004726 kJ/mol
# GULP energy per Si atom -12389.625148 kJ/mol
# Density = 1.578371 g / cm^3
# Si number density = 15.819713 Si / 1000 Ang^3
#
#
#
# Elastic Constant Matrix: (Units=GPa)
#
#
# Indices 1 2 3 4 5 6 
#
# 1 72.7549 25.7262 50.4148 0.0000 -11.1897 0.0000
# 2 25.7262 54.2224 53.0926 0.0000 -10.9812 0.0000
# 3 50.4148 53.0926 145.3370 0.0000 -21.1047 0.0000
# 4 0.0000 0.0000 0.0000 22.7222 0.0000 -8.0830
# 5 -11.1897 -10.9812 -21.1047 0.0000 17.9068 0.0000
# 6 0.0000 0.0000 0.0000 -8.0830 0.0000 13.2723
#
#
#
# Elastic Compliance Matrix: (Units=1/GPa)
#
#
# Indices 1 2 3 4 5 6 
#
# 1 0.018855 -0.003569 -0.004637 0.000000 0.004128 0.000000
# 2 -0.003569 0.029996 -0.008895 0.000000 0.005681 0.000000
# 3 -0.004637 -0.008895 0.012699 0.000000 0.006614 0.000000
# 4 0.000000 0.000000 0.000000 0.056181 0.000000 0.034215
# 5 0.004128 0.005681 0.006614 0.000000 0.069704 0.000000
# 6 0.000000 0.000000 0.000000 0.034215 0.000000 0.096182
#
#
# Mechanical properties :
#
#
# Convention : Reuss Voigt Hill
#
# Bulk Modulus (GPa) = 36.56617 58.97573 47.77095
# Shear Modulus (GPa) = 15.29353 20.31897 17.80625
#
# Velocity S-wave (km/s) = 3.11262 3.58775 3.35860
# Velocity P-wave (km/s) = 6.00686 7.38400 6.73074
#
# Compressibility (1/GPa) = 0.02734768
#
# Stress axis : x y z
#
# Youngs Moduli (GPa) = 53.03615 33.33788 78.74730
#
# Poissons Ratio (x) = 0.11900 0.36516
# Poissons Ratio (y) = 0.18931 0.70042
# Poissons Ratio (z) = 0.24593 0.29653
#
# Static dielectric constant tensor:
#      x y z
#    x 2.664140 0.000000 -0.155420 
#    y 0.000000 2.911510 0.000000 
#    z -0.155420 0.000000 3.759500 
# 
# 
# High freq. dielectric constant tensor:
#      x y z
#    x 1.545870 0.000000 -0.015820 
#    y 0.000000 1.588840 0.000000 
#    z -0.015820 0.000000 1.625600 
# 
# From -- ./inp_files/323381.got.cif
#   From: 2010.06.25/outbox.cif.g09.slc.cpg/sg12_162_cif.got.tgz:323381.got - 2010.06.28 00:19:55.
