data_PCOD8116989
_publ_section_title
;
Structure prediction by ZEFSAII (Michael W. Deem and Ramdas Pophale) SiO2 
 PCOD8116989
Probable space group: P 2/C
;
_chemical_formula_sum "Si O2"
_cell_formula_units_Z 24
_cell_length_a 16.859370
_cell_length_b 14.613114
_cell_length_c 9.566688
_cell_angle_alpha 90.000000
_cell_angle_beta 150.865667
_cell_angle_gamma 90.000000
_cell_volume 1147.489760
_symmetry_space_group_name_H-M "P 2/C"
_symmetry_group_IT_number 13
_symmetry_cell_setting 'monoclinic'
loop_
_space_group_symop_operation_xyz
x,y,z
-x,y,1/2-z
-x,-y,-z
x,-y,1/2+z
loop_
_atom_site_type_symbol
_atom_site_label
_atom_site_fract_x
_atom_site_fract_y
_atom_site_fract_z
Si Si1 0.817917 0.354138 0.920705
Si Si2 0.888603 0.538071 0.949458
Si Si3 0.683141 0.695355 0.500914
Si Si4 0.309266 0.979971 0.217493
Si Si5 0.119281 0.831770 0.067123
Si Si6 0.180200 0.107309 0.243866
O O1 0.758477 0.454258 0.777069
O O2 0.821905 0.272634 0.809639
O O3 0.705832 0.317332 0.871349
O O4 0.000000 0.376811 0.250000
O O5 0.796288 0.629125 0.764077
O O6 0.000000 0.567855 0.250000
O O7 0.000000 0.500000 0.000000
O O8 0.718487 0.799665 0.594477
O O9 0.500000 0.669848 0.250000
O O10 0.275222 0.893065 0.266846
O O11 0.500000 0.000000 0.500000
O O12 0.212345 0.064194 0.140637
O O13 0.241264 0.963041 0.957635
O O14 0.000000 0.825264 0.750000
O O15 0.013807 0.873484 0.032913
#
# Coordination Sequence:
#
# PCOD8116989 Si02
#       6
#     4   4   4   4   4   4
#     4  10  17  38  65  87 121 168 210 251 321 381
#     4  11  21  40  68  96 126 171 217 260 314 388
#     4  12  23  39  67  98 130 168 216 268 323 378
#     4  11  21  35  59  89 119 154 204 258 312 369
#     4   9  17  35  60  85 111 163 207 240 303 386
#     4  11  22  40  62  88 121 167 208 257 318 385
#
# _framework density 20.915220000000001
#
# number of rings (size 3 to 8) (size 9 to 14) (size 15 to 20)
#    0.000    1.333    8.333    2.000    0.000    0.667 
#    0.000    5.833    0.000    0.000    0.000    0.000 
#    0.000    0.000    0.000    0.000    0.000    0.000 
#
# Total GULP energy -297441.552177 kJ/mol
# GULP energy per Si atom -12393.398007 kJ/mol
# Density = 2.086762 g / cm^3
# Si number density = 20.915220 Si / 1000 Ang^3
#
#
#
# Elastic Constant Matrix: (Units=GPa)
#
#
# Indices 1 2 3 4 5 6 
#
# 1 112.8437 57.3895 47.4360 0.0000 14.6374 0.0000
# 2 57.3895 141.9853 35.9313 0.0000 -9.7263 0.0000
# 3 47.4360 35.9313 58.7447 0.0000 6.7296 0.0000
# 4 0.0000 0.0000 0.0000 20.1060 0.0000 -7.8171
# 5 14.6374 -9.7263 6.7296 0.0000 29.8543 0.0000
# 6 0.0000 0.0000 0.0000 -7.8171 0.0000 28.7427
#
#
#
# Elastic Compliance Matrix: (Units=1/GPa)
#
#
# Indices 1 2 3 4 5 6 
#
# 1 0.016086 -0.004646 -0.009311 0.000000 -0.007301 0.000000
# 2 -0.004646 0.010158 -0.003184 0.000000 0.006305 0.000000
# 3 -0.009311 -0.003184 0.026777 0.000000 -0.002508 0.000000
# 4 0.000000 0.000000 0.000000 0.055617 0.000000 0.015126
# 5 -0.007301 0.006305 -0.002508 0.000000 0.039695 0.000000
# 6 0.000000 0.000000 0.000000 0.015126 0.000000 0.038905
#
#
# Mechanical properties :
#
#
# Convention : Reuss Voigt Hill
#
# Bulk Modulus (GPa) = 53.36652 66.12082 59.74367
# Shear Modulus (GPa) = 21.95222 27.26172 24.60697
#
# Velocity S-wave (km/s) = 3.24324 3.61423 3.43375
# Velocity P-wave (km/s) = 6.29252 7.00709 6.65940
#
# Compressibility (1/GPa) = 0.01873834
#
# Stress axis : x y z
#
# Youngs Moduli (GPa) = 62.16725 98.44004 37.34590
#
# Poissons Ratio (x) = 0.45731 0.34774
# Poissons Ratio (y) = 0.28880 0.11893
# Poissons Ratio (z) = 0.57885 0.31348
#
# Static dielectric constant tensor:
#      x y z
#    x 4.055330 0.000000 0.112340 
#    y 0.000000 4.622240 0.000000 
#    z 0.112340 0.000000 3.248790 
# 
# 
# High freq. dielectric constant tensor:
#      x y z
#    x 1.830900 0.000000 0.011390 
#    y 0.000000 1.847320 0.000000 
#    z 0.011390 0.000000 1.756440 
# 
# From -- ./inp_files/19761.got.cif
#   From: 2010.06.25/outbox.cif.g09.slc.cpg/sg13_10_cif.got.tgz:19761.got - 2010.06.28 04:50:58.
