data_PCOD8116752
_publ_section_title
;
Structure prediction by ZEFSAII (Michael W. Deem and Ramdas Pophale) SiO2 
 PCOD8116752
Probable space group: P 2/C
;
_chemical_formula_sum "Si O2"
_cell_formula_units_Z 22
_cell_length_a 27.859359
_cell_length_b 8.394823
_cell_length_c 5.202419
_cell_angle_alpha 90.000000
_cell_angle_beta 106.033379
_cell_angle_gamma 90.000000
_cell_volume 1169.383600
_symmetry_space_group_name_H-M "P 2/C"
_symmetry_group_IT_number 13
_symmetry_cell_setting 'monoclinic'
loop_
_space_group_symop_operation_xyz
x,y,z
-x,y,1/2-z
-x,-y,-z
x,-y,1/2+z
loop_
_atom_site_type_symbol
_atom_site_label
_atom_site_fract_x
_atom_site_fract_y
_atom_site_fract_z
Si Si1 0.000000 0.605562 0.750000
Si Si2 0.704597 0.098297 0.807136
Si Si3 0.892093 0.607467 0.568769
Si Si4 0.521882 0.678278 0.032308
Si Si5 0.821409 0.902068 0.466074
Si Si6 0.364569 0.603055 0.280386
O O1 0.946685 0.698335 0.667612
O O2 0.000000 0.500000 0.500000
O O3 0.676882 0.264554 0.737967
O O4 0.688877 0.984913 0.549093
O O5 0.763030 0.136953 0.887198
O O6 0.886120 0.521112 0.286358
O O7 0.849293 0.736181 0.536641
O O8 0.500000 0.768327 0.250000
O O9 0.581317 0.682657 0.116418
O O10 0.500000 0.768374 0.750000
O O11 0.500000 0.500000 0.000000
O O12 0.837051 0.983374 0.222492
O O13 0.357602 0.470522 0.488402
#
# Coordination Sequence:
#
# PCOD8116752 Si02
#       6
#     2   4   4   4   4   4
#     4   8  16  30  48  76 110 142 170 210 280 322
#     4  10  23  41  55  74 113 150 170 212 280 330
#     4  10  19  33  56  81 108 141 181 227 263 313
#     4  10  16  30  49  78 105 131 159 210 263 304
#     4  10  21  38  56  75 106 147 181 215 273 324
#     4  12  21  33  59  88 101 133 183 226 249 307
#
# _framework density 18.813329
#
# number of rings (size 3 to 8) (size 9 to 14) (size 15 to 20)
#    0.000    1.818    3.636    2.182    0.000    1.455 
#    0.000    0.909    0.000    3.273    0.000    0.000 
#    0.000    0.000    0.000    0.000    0.000    0.000 
#
# Total GULP energy -272694.462125 kJ/mol
# GULP energy per Si atom -12395.202824 kJ/mol
# Density = 1.877051 g / cm^3
# Si number density = 18.813329 Si / 1000 Ang^3
#
#
#
# Elastic Constant Matrix: (Units=GPa)
#
#
# Indices 1 2 3 4 5 6 
#
# 1 79.7505 40.7858 34.8012 0.0000 1.6866 0.0000
# 2 40.7858 50.8964 18.8559 0.0000 15.2001 0.0000
# 3 34.8012 18.8559 123.0627 0.0000 -11.9803 0.0000
# 4 0.0000 0.0000 0.0000 11.3812 0.0000 -4.0192
# 5 1.6866 15.2001 -11.9803 0.0000 22.7674 0.0000
# 6 0.0000 0.0000 0.0000 -4.0192 0.0000 -1.1277
#
#
#
# Elastic Compliance Matrix: (Units=1/GPa)
#
#
# Indices 1 2 3 4 5 6 
#
# 1 0.024935 -0.022684 -0.002404 0.000000 0.012032 0.000000
# 2 -0.022684 0.049562 -0.004465 0.000000 -0.033758 0.000000
# 3 -0.002404 -0.004465 0.010327 0.000000 0.008593 0.000000
# 4 0.000000 0.000000 0.000000 0.038902 0.000000 -0.138646
# 5 0.012032 -0.033758 0.008593 0.000000 0.070091 0.000000
# 6 0.000000 0.000000 0.000000 -0.138646 0.000000 -0.392603
#
#
# Mechanical properties :
#
#
# Convention : Reuss Voigt Hill
#
# Bulk Modulus (GPa) = 38.88712 49.17727 44.03220
# Shear Modulus (GPa) = -38.13728 17.22194 -10.45767
#
# Velocity S-wave (km/s) = -4.50726 3.02886 -2.36024
# Velocity P-wave (km/s) = 2.52436 6.19906 4.00350
#
# Compressibility (1/GPa) = 0.02571546
#
# Stress axis : x y z
#
# Youngs Moduli (GPa) = 40.10417 20.17670 96.83695
#
# Poissons Ratio (x) = 0.45770 0.23283
# Poissons Ratio (y) = 0.90974 0.43242
# Poissons Ratio (z) = 0.09642 0.09010
#
# Static dielectric constant tensor:
#      x y z
#    x 3.603220 0.000000 0.285220 
#    y 0.000000 2.871360 0.000000 
#    z 0.285220 0.000000 3.155230 
# 
# 
# High freq. dielectric constant tensor:
#      x y z
#    x 1.746120 0.000000 -0.006910 
#    y 0.000000 1.680230 0.000000 
#    z -0.006910 0.000000 1.764400 
# 
# From -- ./inp_files/7305.got.cif
#   From: 2010.06.25/outbox.cif.g09.slc.cpg/sg13_4_cif.got.tgz:7305.got - 2010.06.28 04:50:58.
