data_PCOD8116745
_publ_section_title
;
Structure prediction by ZEFSAII (Michael W. Deem and Ramdas Pophale) SiO2 
 PCOD8116745
Probable space group: P 2/C
;
_chemical_formula_sum "Si O2"
_cell_formula_units_Z 12
_cell_length_a 6.207702
_cell_length_b 13.776112
_cell_length_c 5.456666
_cell_angle_alpha 90.000000
_cell_angle_beta 78.109854
_cell_angle_gamma 90.000000
_cell_volume 456.631059
_symmetry_space_group_name_H-M "P 2/C"
_symmetry_group_IT_number 13
_symmetry_cell_setting 'monoclinic'
loop_
_space_group_symop_operation_xyz
x,y,z
-x,y,1/2-z
-x,-y,-z
x,-y,1/2+z
loop_
_atom_site_type_symbol
_atom_site_label
_atom_site_fract_x
_atom_site_fract_y
_atom_site_fract_z
Si Si1 0.633604 0.748661 0.470249
Si Si2 0.750869 0.038897 0.937980
Si Si3 0.245430 0.461089 0.459258
O O1 0.500000 0.736428 0.250000
O O2 0.778617 0.845139 0.416940
O O3 0.777374 0.652089 0.471432
O O4 0.500000 0.763400 0.750000
O O5 0.865759 0.000809 0.659862
O O6 0.500000 0.000000 0.000000
O O7 0.360462 0.520711 0.661635
O O8 0.000000 0.500000 0.500000
#
# Coordination Sequence:
#
# PCOD8116745 Si02
#       3
#     4   4   4
#     4  12  21  32  58  90 116 149 188 236 285 334
#     4  10  16  30  48  78 125 143 168 221 281 351
#     4  10  23  42  57  76 112 161 196 232 282 338
#
# _framework density 26.279419000000001
#
# number of rings (size 3 to 8) (size 9 to 14) (size 15 to 20)
#    0.000    1.333    6.667    2.000    0.000    4.000 
#    0.000    0.000    0.000    0.000    0.000   28.000 
#    0.000    0.000    0.000    0.000    0.000    0.000 
#
# Total GULP energy -148785.776455 kJ/mol
# GULP energy per Si atom -12398.814705 kJ/mol
# Density = 2.621961 g / cm^3
# Si number density = 26.279419 Si / 1000 Ang^3
#
#
#
# Elastic Constant Matrix: (Units=GPa)
#
#
# Indices 1 2 3 4 5 6 
#
# 1 75.3488 43.6702 91.4383 0.0000 17.2055 0.0000
# 2 43.6702 296.5908 95.3520 0.0000 22.4798 0.0000
# 3 91.4383 95.3520 316.2431 0.0000 11.3531 0.0000
# 4 0.0000 0.0000 0.0000 55.1645 0.0000 13.6575
# 5 17.2055 22.4798 11.3531 0.0000 51.6413 0.0000
# 6 0.0000 0.0000 0.0000 13.6575 0.0000 9.9393
#
#
#
# Elastic Compliance Matrix: (Units=1/GPa)
#
#
# Indices 1 2 3 4 5 6 
#
# 1 0.022387 -0.000938 -0.005984 0.000000 -0.005735 0.000000
# 2 -0.000938 0.003874 -0.000854 0.000000 -0.001186 0.000000
# 3 -0.005984 -0.000854 0.005105 0.000000 0.001243 0.000000
# 4 0.000000 0.000000 0.000000 0.027474 0.000000 -0.037752
# 5 -0.005735 -0.001186 0.001243 0.000000 0.021518 0.000000
# 6 0.000000 0.000000 0.000000 -0.037752 0.000000 0.152487
#
#
# Mechanical properties :
#
#
# Convention : Reuss Voigt Hill
#
# Bulk Modulus (GPa) = 63.23659 127.67817 95.45738
# Shear Modulus (GPa) = 19.71068 53.86382 36.78725
#
# Velocity S-wave (km/s) = 2.74166 4.53223 3.74552
# Velocity P-wave (km/s) = 5.84275 8.72229 7.42348
#
# Compressibility (1/GPa) = 0.01581363
#
# Stress axis : x y z
#
# Youngs Moduli (GPa) = 44.66943 258.10930 195.87070
#
# Poissons Ratio (x) = 0.24202 1.17214
# Poissons Ratio (y) = 0.04188 0.16736
# Poissons Ratio (z) = 0.26731 0.22055
#
# Static dielectric constant tensor:
#      x y z
#    x 6.841970 0.000000 -3.425950 
#    y 0.000000 5.162470 0.000000 
#    z -3.425950 0.000000 12.851600 
# 
# 
# High freq. dielectric constant tensor:
#      x y z
#    x 2.082500 0.000000 0.003480 
#    y 0.000000 2.050820 0.000000 
#    z 0.003480 0.000000 2.122870 
# 
# From -- ./inp_files/758.got.cif
#   From: 2010.06.25/outbox.cif.g09.slc.cpg/sg13_1_cif.got.tgz:758.got - 2010.06.28 04:50:58.
