data_PCOD8116841
_publ_section_title
;
Structure prediction by ZEFSAII (Michael W. Deem and Ramdas Pophale) SiO2 
 PCOD8116841
Probable space group: P 2/C
;
_chemical_formula_sum "Si O2"
_cell_formula_units_Z 30
_cell_length_a 11.367209
_cell_length_b 17.362135
_cell_length_c 8.642995
_cell_angle_alpha 90.000000
_cell_angle_beta 103.113136
_cell_angle_gamma 90.000000
_cell_volume 1661.293225
_symmetry_space_group_name_H-M "P 2/C"
_symmetry_group_IT_number 13
_symmetry_cell_setting 'monoclinic'
loop_
_space_group_symop_operation_xyz
x,y,z
-x,y,1/2-z
-x,-y,-z
x,-y,1/2+z
loop_
_atom_site_type_symbol
_atom_site_label
_atom_site_fract_x
_atom_site_fract_y
_atom_site_fract_z
Si Si1 0.123439 0.036886 0.098563
Si Si2 0.360466 0.399684 0.730398
Si Si3 0.985545 0.717054 0.996590
Si Si4 0.912179 0.558704 0.887651
Si Si5 0.753201 0.508440 0.570006
Si Si6 0.000000 0.842450 0.750000
Si Si7 0.853298 0.897293 0.207226
Si Si8 0.809848 0.269692 0.710271
O O1 0.107652 0.100341 0.230577
O O2 0.193271 0.964149 0.191720
O O3 0.191493 0.077705 0.977174
O O4 0.000000 0.000000 0.000000
O O5 0.500000 0.382811 0.750000
O O6 0.344330 0.472031 0.841981
O O7 0.301469 0.420040 0.545035
O O8 0.306042 0.322835 0.793423
O O9 0.967239 0.643043 0.884253
O O10 0.030332 0.789491 0.907335
O O11 0.859193 0.732227 0.048375
O O12 0.088207 0.695457 0.148663
O O13 0.873243 0.534449 0.702366
O O14 0.793593 0.558745 0.963004
O O15 0.000000 0.500000 0.000000
O O16 0.784785 0.820051 0.241677
O O17 0.000000 0.883046 0.250000
#
# Coordination Sequence:
#
# PCOD8116841 Si02
#       8
#     4   4   4   4   4   2   4   4
#     4  10  17  28  45  70 105 148 177 204 255 326
#     4  11  23  41  60  78 104 142 195 243 277 315
#     4  11  22  32  49  78 118 146 171 221 271 339
#     4  11  22  34  52  80 113 149 179 216 273 340
#     4  10  22  38  57  78 103 142 191 230 274 327
#     4  12  20  28  48  76 116 150 176 212 262 328
#     4  10  17  30  47  71 108 143 176 209 264 334
#     4  11  21  35  51  77 108 147 177 221 278 323
#
# _framework density 18.058221
#
# number of rings (size 3 to 8) (size 9 to 14) (size 15 to 20)
#    0.000    1.333    6.000    3.200    5.600    0.000 
#    0.000    0.000    0.000    0.000    0.000    0.933 
#    0.000    0.000    0.000    0.000    0.000    0.000 
#
# Total GULP energy -371705.246399 kJ/mol
# GULP energy per Si atom -12390.174880 kJ/mol
# Density = 1.801712 g / cm^3
# Si number density = 18.058221 Si / 1000 Ang^3
#
#
#
# Elastic Constant Matrix: (Units=GPa)
#
#
# Indices 1 2 3 4 5 6 
#
# 1 55.6494 37.4326 34.5607 0.0000 -6.0807 0.0000
# 2 37.4326 136.6714 45.4216 0.0000 -7.3230 0.0000
# 3 34.5607 45.4216 101.8119 0.0000 -14.7519 0.0000
# 4 0.0000 0.0000 0.0000 29.6234 0.0000 -9.1847
# 5 -6.0807 -7.3230 -14.7519 0.0000 19.5789 0.0000
# 6 0.0000 0.0000 0.0000 -9.1847 0.0000 17.7367
#
#
#
# Elastic Compliance Matrix: (Units=1/GPa)
#
#
# Indices 1 2 3 4 5 6 
#
# 1 0.025186 -0.004754 -0.006233 0.000000 0.001347 0.000000
# 2 -0.004754 0.009490 -0.002604 0.000000 0.000111 0.000000
# 3 -0.006233 -0.002604 0.014232 0.000000 0.007813 0.000000
# 4 0.000000 0.000000 0.000000 0.040214 0.000000 0.020824
# 5 0.001347 0.000111 0.007813 0.000000 0.057422 0.000000
# 6 0.000000 0.000000 0.000000 0.020824 0.000000 0.067164
#
#
# Mechanical properties :
#
#
# Convention : Reuss Voigt Hill
#
# Bulk Modulus (GPa) = 46.03000 58.77360 52.40180
# Shear Modulus (GPa) = 20.15052 25.16898 22.65975
#
# Velocity S-wave (km/s) = 3.34408 3.73737 3.54618
# Velocity P-wave (km/s) = 6.36047 7.15830 6.77115
#
# Compressibility (1/GPa) = 0.02172496
#
# Stress axis : x y z
#
# Youngs Moduli (GPa) = 39.70454 105.37030 70.26545
#
# Poissons Ratio (x) = 0.50097 0.43798
# Poissons Ratio (y) = 0.18877 0.18297
# Poissons Ratio (z) = 0.24749 0.27438
#
# Static dielectric constant tensor:
#      x y z
#    x 2.894510 0.000000 -0.376320 
#    y 0.000000 3.594320 0.000000 
#    z -0.376320 0.000000 3.658910 
# 
# 
# High freq. dielectric constant tensor:
#      x y z
#    x 1.627910 0.000000 -0.041120 
#    y 0.000000 1.712560 0.000000 
#    z -0.041120 0.000000 1.711360 
# 
# From -- ./inp_files/17090.got.cif
#   From: 2010.06.25/outbox.cif.g09.slc.cpg/sg13_9_cif.got.tgz:17090.got - 2010.06.28 04:50:58.
