data_PCOD8116265
_publ_section_title
;
Structure prediction by ZEFSAII (Michael W. Deem and Ramdas Pophale) SiO2 
 PCOD8116265
Probable space group: C 2/M
;
_chemical_formula_sum "Si O2"
_cell_formula_units_Z 28
_cell_length_a 30.000000
_cell_length_b 9.000000
_cell_length_c 18.000000
_cell_angle_alpha 90.000000
_cell_angle_beta 40.000000
_cell_angle_gamma 90.000000
_cell_volume 3123.947783
_symmetry_space_group_name_H-M "C 2/M"
_symmetry_group_IT_number 12
_symmetry_cell_setting 'monoclinic'
loop_
_space_group_symop_operation_xyz
x,y,z
-x,y,-z
-x,-y,-z
x,-y,z
1/2+x,1/2+y,z
1/2-x,1/2+y,-z
1/2-x,1/2-y,-z
1/2+x,1/2-y,z
loop_
_atom_site_type_symbol
_atom_site_label
_atom_site_fract_x
_atom_site_fract_y
_atom_site_fract_z
Si Si1 0.911940 0.827023 0.339885
Si Si2 0.058456 0.829488 0.201369
Si Si3 0.295263 0.821195 0.007842
Si Si4 0.803530 0.677482 0.754157
Si Si5 0.062262 0.169220 0.367102
Si Si6 0.702361 0.322455 0.395653
Si Si7 0.202131 0.824371 0.622064
O O1 0.859038 0.768713 0.470752
O O2 0.877932 0.795906 0.301679
O O3 0.990461 0.762670 0.245066
O O4 0.920071 0.000000 0.344478
O O5 0.036827 0.822968 0.315125
O O6 0.075639 0.000000 0.156348
O O7 0.124588 0.727470 0.098883
O O8 0.263509 0.757372 0.124600
O O9 0.289842 0.000000 0.011518
O O10 0.250000 0.750000 0.000000
O O11 0.793494 0.500000 0.766762
O O12 0.872645 0.720181 0.710961
O O13 0.814705 0.743587 0.658963
O O14 0.000000 0.222969 0.500000
O O15 0.084348 0.000000 0.360016
O O16 0.707231 0.500000 0.381757
O O17 0.777275 0.257785 0.327642
O O18 0.250000 0.750000 0.500000
O O19 0.216872 0.000000 0.608592
#
# Coordination Sequence:
#
# PCOD8116265 Si02
#       7
#     8   8   8   8   8   8   8
#     4   8  16  31  54  82 112 146 180 213 263 326
#     4  10  19  34  56  79 106 142 182 222 262 317
#     4  12  24  40  58  77 102 139 184 230 274 322
#     4  12  24  37  55  79 107 141 182 229 273 320
#     4  10  20  34  54  79 110 147 178 211 264 324
#     4  10  19  34  55  81 112 147 183 222 271 328
#     4   9  16  29  50  79 113 148 183 220 263 321
#
# _framework density 8.9630179999999999
#
# number of rings (size 3 to 8) (size 9 to 14) (size 15 to 20)
#    0.000    1.857    1.429    5.143    0.000    2.571 
#    0.000    5.714    0.000    0.857    0.000    6.000 
#    0.000    0.000    0.000    0.000    0.000    0.000 
#
# Total GULP energy -347052.022253 kJ/mol
# GULP energy per Si atom -12394.715080 kJ/mol
# Density = 0.894262 g / cm^3
# Si number density = 8.963018 Si / 1000 Ang^3
#
#
#
# Elastic Constant Matrix: (Units=GPa)
#
#
# Indices 1 2 3 4 5 6 
#
# 1 101.5057 33.2428 21.0697 0.0043 -30.4024 0.0011
# 2 33.2428 121.6946 28.9572 0.0150 -13.3743 -0.0046
# 3 21.0697 28.9572 82.4108 0.0137 -25.3682 -0.0054
# 4 0.0043 0.0150 0.0137 28.6726 -0.0033 -1.1601
# 5 -30.4024 -13.3743 -25.3682 -0.0033 28.1477 -0.0040
# 6 0.0011 -0.0046 -0.0054 -1.1601 -0.0040 32.0079
#
#
#
# Elastic Compliance Matrix: (Units=1/GPa)
#
#
# Indices 1 2 3 4 5 6 
#
# 1 0.015586 -0.002904 0.002481 0.000000 0.017691 0.000002
# 2 -0.002904 0.009587 -0.003030 -0.000003 -0.001312 0.000001
# 3 0.002481 -0.003030 0.017917 -0.000005 0.017388 0.000004
# 4 0.000000 -0.000003 -0.000005 0.034928 -0.000002 0.001266
# 5 0.017691 -0.001312 0.017388 -0.000002 0.069683 0.000011
# 6 0.000002 0.000001 0.000004 0.001266 0.000011 0.031288
#
#
# Mechanical properties :
#
#
# Convention : Reuss Voigt Hill
#
# Bulk Modulus (GPa) = 27.63535 52.46118 40.04826
# Shear Modulus (GPa) = 25.25795 32.58840 28.92317
#
# Velocity S-wave (km/s) = 3.75775 4.26835 4.02116
# Velocity P-wave (km/s) = 5.85469 7.32261 6.62941
#
# Compressibility (1/GPa) = 0.03618554
#
# Stress axis : x y z
#
# Youngs Moduli (GPa) = 64.15826 104.30390 55.81217
#
# Poissons Ratio (x) = 0.30288 -0.13849
# Poissons Ratio (y) = 0.18630 0.16912
# Poissons Ratio (z) = -0.15920 0.31607
#
# Static dielectric constant tensor:
#      x y z
#    x 3.729150 -0.000020 -0.175440 
#    y -0.000020 3.505090 0.000020 
#    z -0.175440 0.000020 3.289700 
# 
# 
# High freq. dielectric constant tensor:
#      x y z
#    x 1.705190 0.000000 -0.011570 
#    y 0.000000 1.696040 0.000000 
#    z -0.011570 0.000000 1.675010 
# 
# From -- ./inp_files/295083.got.cif
#   From: 2010.06.25/outbox.ucp.g09.slc.cvg/sg12_148_cif.got.tgz:295083.got - 2010.06.28 13:50:54.
