data_PCOD8116784
_publ_section_title
;
Structure prediction by ZEFSAII (Michael W. Deem and Ramdas Pophale) SiO2 
 PCOD8116784
Probable space group: P 2/C
;
_chemical_formula_sum "Si O2"
_cell_formula_units_Z 30
_cell_length_a 9.746176
_cell_length_b 8.811286
_cell_length_c 21.323238
_cell_angle_alpha 90.000000
_cell_angle_beta 117.749788
_cell_angle_gamma 90.000000
_cell_volume 1620.558643
_symmetry_space_group_name_H-M "P 2/C"
_symmetry_group_IT_number 13
_symmetry_cell_setting 'monoclinic'
loop_
_space_group_symop_operation_xyz
x,y,z
-x,y,1/2-z
-x,-y,-z
x,-y,1/2+z
loop_
_atom_site_type_symbol
_atom_site_label
_atom_site_fract_x
_atom_site_fract_y
_atom_site_fract_z
Si Si1 0.500000 0.454627 0.250000
Si Si2 0.640248 0.150176 0.469705
Si Si3 0.266637 0.884091 0.200837
Si Si4 0.056911 0.204084 0.458538
Si Si5 0.268297 0.217900 0.152071
Si Si6 0.970250 0.850249 0.071976
Si Si7 0.604569 0.797283 0.486923
Si Si8 0.485787 0.272325 0.832634
O O1 0.351677 0.350566 0.206843
O O2 0.538829 0.557826 0.198103
O O3 0.657185 0.195298 0.400956
O O4 0.791842 0.203515 0.542678
O O5 0.489340 0.228733 0.468521
O O6 0.616853 0.970929 0.468583
O O7 0.362925 0.801581 0.166682
O O8 0.335103 0.831821 0.282722
O O9 0.085320 0.832002 0.156128
O O10 0.283456 0.064711 0.196073
O O11 0.220663 0.267902 0.466955
O O12 0.909969 0.275268 0.391039
O O13 0.046953 0.241652 0.530423
O O14 0.039871 0.025371 0.447651
O O15 0.509452 0.713265 0.411829
#
# Coordination Sequence:
#
# PCOD8116784 Si02
#       8
#     2   4   4   4   4   4   4   4
#     4  10  22  32  48  72 104 122 176 214 232 284
#     4   9  18  26  52  77 105 119 157 203 251 292
#     4   9  15  27  52  70  98 124 165 197 250 282
#     4   8  14  24  48  68 100 121 158 201 243 277
#     4  10  17  32  50  79  90 128 166 210 237 279
#     4   8  12  25  42  76  97 120 152 208 238 282
#     4  10  16  31  47  79 103 128 152 198 256 304
#     4  10  19  30  47  75  98 134 155 208 245 287
#
# _framework density 18.512136000000002
#
# number of rings (size 3 to 8) (size 9 to 14) (size 15 to 20)
#    0.000    2.933    2.667    2.400    0.000    0.000 
#    0.000    2.000    0.000    0.800    6.933    0.000 
#    0.000    0.000    0.000    0.000    0.000    0.000 
#
# Total GULP energy -371667.987771 kJ/mol
# GULP energy per Si atom -12388.932926 kJ/mol
# Density = 1.847000 g / cm^3
# Si number density = 18.512136 Si / 1000 Ang^3
#
#
#
# Elastic Constant Matrix: (Units=GPa)
#
#
# Indices 1 2 3 4 5 6 
#
# 1 100.3404 20.8960 45.8163 0.0000 27.0189 0.0000
# 2 20.8960 61.6127 39.3739 0.0000 11.4622 0.0000
# 3 45.8163 39.3739 99.2877 0.0000 35.1251 0.0000
# 4 0.0000 0.0000 0.0000 18.4803 0.0000 -3.3883
# 5 27.0189 11.4622 35.1251 0.0000 28.3164 0.0000
# 6 0.0000 0.0000 0.0000 -3.3883 0.0000 2.5064
#
#
#
# Elastic Compliance Matrix: (Units=1/GPa)
#
#
# Indices 1 2 3 4 5 6 
#
# 1 0.014002 -0.001352 -0.002481 0.000000 -0.009736 0.000000
# 2 -0.001352 0.022053 -0.009658 0.000000 0.004344 0.000000
# 3 -0.002481 -0.009658 0.022856 0.000000 -0.022076 0.000000
# 4 0.000000 0.000000 0.000000 0.071944 0.000000 0.097257
# 5 -0.009736 0.004344 -0.022076 0.000000 0.070230 0.000000
# 6 0.000000 0.000000 0.000000 0.097257 0.000000 0.530452
#
#
# Mechanical properties :
#
#
# Convention : Reuss Voigt Hill
#
# Bulk Modulus (GPa) = 31.31960 52.60146 41.96053
# Shear Modulus (GPa) = 6.50058 20.20424 13.35241
#
# Velocity S-wave (km/s) = 1.87594 3.30723 2.68858
# Velocity P-wave (km/s) = 4.65267 6.56201 5.68803
#
# Compressibility (1/GPa) = 0.03192889
#
# Stress axis : x y z
#
# Youngs Moduli (GPa) = 71.41846 45.34520 43.75165
#
# Poissons Ratio (x) = 0.06132 0.10853
# Poissons Ratio (y) = 0.09658 0.42256
# Poissons Ratio (z) = 0.17717 0.43795
#
# Static dielectric constant tensor:
#      x y z
#    x 3.530000 0.000000 0.466770 
#    y 0.000000 3.021980 0.000000 
#    z 0.466770 0.000000 3.593310 
# 
# 
# High freq. dielectric constant tensor:
#      x y z
#    x 1.693060 0.000000 0.032750 
#    y 0.000000 1.674630 0.000000 
#    z 0.032750 0.000000 1.720050 
# 
# From -- ./inp_files/91167.got.cif
#   From: 2010.06.25/outbox.cif.g09.slc.cpg/sg13_46_cif.got.tgz:91167.got - 2010.06.28 04:50:58.
