data_PCOD8116478
_publ_section_title
;
Structure prediction by ZEFSAII (Michael W. Deem and Ramdas Pophale) SiO2 
 PCOD8116478
Probable space group: C 2/M
;
_chemical_formula_sum "Si O2"
_cell_formula_units_Z 32
_cell_length_a 18.000000
_cell_length_b 9.000000
_cell_length_c 30.000000
_cell_angle_alpha 90.000000
_cell_angle_beta 40.000000
_cell_angle_gamma 90.000000
_cell_volume 3123.947783
_symmetry_space_group_name_H-M "C 2/M"
_symmetry_group_IT_number 12
_symmetry_cell_setting 'monoclinic'
loop_
_space_group_symop_operation_xyz
x,y,z
-x,y,-z
-x,-y,-z
x,-y,z
1/2+x,1/2+y,z
1/2-x,1/2+y,-z
1/2-x,1/2-y,-z
1/2+x,1/2-y,z
loop_
_atom_site_type_symbol
_atom_site_label
_atom_site_fract_x
_atom_site_fract_y
_atom_site_fract_z
Si Si1 0.647964 0.325920 0.787338
Si Si2 0.255851 0.168623 0.860862
Si Si3 0.127267 0.832409 0.313336
Si Si4 0.657276 0.833475 0.692328
Si Si5 0.542914 0.822895 0.913188
Si Si6 0.914311 0.831421 0.572947
Si Si7 0.688041 0.331171 0.987804
Si Si8 0.976301 0.835258 0.727343
O O1 0.628951 0.500000 0.802495
O O2 0.770812 0.273760 0.751628
O O3 0.639142 0.282774 0.740126
O O4 0.552867 0.231383 0.857390
O O5 0.133517 0.236623 0.902368
O O6 0.272116 0.160616 0.906701
O O7 0.353111 0.280962 0.800213
O O8 0.267207 0.000000 0.836256
O O9 0.080106 0.759209 0.380567
O O10 0.024532 0.842737 0.325736
O O11 0.177953 0.000000 0.299962
O O12 0.785062 0.822717 0.613364
O O13 0.573326 0.784725 0.692036
O O14 0.627853 0.000000 0.721654
O O15 0.555906 0.000000 0.912584
O O16 0.415846 0.768503 0.984101
O O17 0.000000 0.744533 0.500000
O O18 0.958578 0.000000 0.557438
O O19 0.651350 0.500000 0.018651
O O20 0.750000 0.250000 0.000000
O O21 0.001434 0.000000 0.735388
#
# Coordination Sequence:
#
# PCOD8116478 Si02
#       8
#     8   8   8   8   8   8   8   8
#     4  11  21  35  58  85 113 149 193 240 290 346
#     4  11  24  42  63  87 116 153 197 244 294 350
#     4   9  18  34  56  85 117 150 191 238 284 339
#     4  10  21  36  56  83 119 154 194 243 292 345
#     4  12  24  40  63  88 117 152 195 240 293 356
#     4   8  15  32  59  86 113 153 200 240 284 342
#     4  11  26  45  63  86 118 153 195 246 298 353
#     4  11  22  36  57  85 120 156 194 243 295 347
#
# _framework density 10.243449
#
# number of rings (size 3 to 8) (size 9 to 14) (size 15 to 20)
#    0.000    1.625    1.250    4.875    1.750    4.000 
#    0.000    0.625    0.000    9.375    0.000    0.000 
#    0.000    0.000    0.000    0.000    0.000    0.000 
#
# Total GULP energy -396547.051128 kJ/mol
# GULP energy per Si atom -12392.095348 kJ/mol
# Density = 1.022013 g / cm^3
# Si number density = 10.243449 Si / 1000 Ang^3
#
#
#
# Elastic Constant Matrix: (Units=GPa)
#
#
# Indices 1 2 3 4 5 6 
#
# 1 92.2973 33.9743 28.0361 0.0004 -7.2104 0.0009
# 2 33.9743 101.4561 13.3514 0.0013 4.4032 0.0006
# 3 28.0361 13.3514 64.8757 0.0003 6.3472 -0.0002
# 4 0.0004 0.0013 0.0003 3.3797 0.0001 -0.7418
# 5 -7.2104 4.4032 6.3472 0.0001 6.0475 0.0002
# 6 0.0009 0.0006 -0.0002 -0.7418 0.0002 32.9665
#
#
#
# Elastic Compliance Matrix: (Units=1/GPa)
#
#
# Indices 1 2 3 4 5 6 
#
# 1 0.019968 -0.006980 -0.011166 0.000000 0.040609 -0.000001
# 2 -0.006980 0.012755 0.002356 -0.000003 -0.020082 0.000000
# 3 -0.011166 0.002356 0.023654 0.000000 -0.039854 0.000001
# 4 0.000000 -0.000003 0.000000 0.297355 -0.000003 0.006691
# 5 0.040609 -0.020082 -0.039854 -0.000003 0.270228 -0.000002
# 6 -0.000001 0.000000 0.000001 0.006691 -0.000002 0.030484
#
#
# Mechanical properties :
#
#
# Convention : Reuss Voigt Hill
#
# Bulk Modulus (GPa) = 40.32585 45.48365 42.90475
# Shear Modulus (GPa) = 7.20161 20.69654 13.94907
#
# Velocity S-wave (km/s) = 1.87693 3.18186 2.61219
# Velocity P-wave (km/s) = 4.94202 5.97901 5.48508
#
# Compressibility (1/GPa) = 0.02479799
#
# Stress axis : x y z
#
# Youngs Moduli (GPa) = 50.08064 78.39938 42.27660
#
# Poissons Ratio (x) = 0.54719 0.47205
# Poissons Ratio (y) = 0.34954 -0.09960
# Poissons Ratio (z) = 0.55919 -0.18470
#
# Static dielectric constant tensor:
#      x y z
#    x 3.700260 0.000000 0.169570 
#    y 0.000000 3.749440 0.000000 
#    z 0.169570 0.000000 3.788700 
# 
# 
# High freq. dielectric constant tensor:
#      x y z
#    x 1.792870 0.000000 0.011850 
#    y 0.000000 1.799360 0.000000 
#    z 0.011850 0.000000 1.773500 
# 
# From -- ./inp_files/377986.got.cif
#   From: 2010.06.25/outbox.ucp.g09.slc.cvg/sg12_189_cif.got.tgz:377986.got - 2010.06.28 13:50:54.
