data_PCOD8116072
_publ_section_title
;
Structure prediction by ZEFSAII (Michael W. Deem and Ramdas Pophale) SiO2 
 PCOD8116072
Probable space group: C 2/M
;
_chemical_formula_sum "Si O2"
_cell_formula_units_Z 56
_cell_length_a 36.820124
_cell_length_b 9.308806
_cell_length_c 22.971523
_cell_angle_alpha 90.000000
_cell_angle_beta 155.284269
_cell_angle_gamma 90.000000
_cell_volume 3292.049207
_symmetry_space_group_name_H-M "C 2/M"
_symmetry_group_IT_number 12
_symmetry_cell_setting 'monoclinic'
loop_
_space_group_symop_operation_xyz
x,y,z
-x,y,-z
-x,-y,-z
x,-y,z
1/2+x,1/2+y,z
1/2-x,1/2+y,-z
1/2-x,1/2-y,-z
1/2+x,1/2-y,z
loop_
_atom_site_type_symbol
_atom_site_label
_atom_site_fract_x
_atom_site_fract_y
_atom_site_fract_z
Si Si1 0.941088 0.331042 0.736683
Si Si2 0.745614 0.669307 0.933411
Si Si3 0.176600 0.833856 0.359129
Si Si4 0.095159 0.830027 0.629490
Si Si5 0.704871 0.162664 0.569965
Si Si6 0.716802 0.670310 0.705307
Si Si7 0.634282 0.829852 0.994264
O O1 0.940427 0.500000 0.750135
O O2 0.913783 0.244352 0.755663
O O3 0.875243 0.294156 0.588520
O O4 0.036184 0.273358 0.857527
O O5 0.750412 0.500000 0.951669
O O6 0.655536 0.713707 0.771523
O O7 0.825007 0.721892 0.007789
O O8 0.750000 0.750000 0.000000
O O9 0.250000 0.750000 0.500000
O O10 0.202462 0.822170 0.328687
O O11 0.173963 0.000000 0.374857
O O12 0.137279 0.776188 0.630239
O O13 0.000000 0.760029 0.500000
O O14 0.088016 0.000000 0.616034
O O15 0.705299 0.265892 0.625141
O O16 0.692122 0.000000 0.573010
O O17 0.716645 0.500000 0.699116
O O18 0.806800 0.724328 0.865862
O O19 0.636363 0.000000 0.997488
#
# Coordination Sequence:
#
# PCOD8116072 Si02
#       7
#     8   8   8   8   8   8   8
#     4   9  17  31  50  68  89 120 156 191 227 269
#     4   9  17  30  48  68  92 121 152 188 230 275
#     4   9  17  30  47  68  94 122 152 186 228 272
#     4   8  15  29  47  66  90 120 152 187 226 265
#     4   9  18  30  45  67  93 118 142 180 234 274
#     4   9  17  30  49  68  87 119 158 188 218 266
#     4   8  16  32  49  65  90 124 156 186 226 273
#
# _framework density 17.010680000000001
#
# number of rings (size 3 to 8) (size 9 to 14) (size 15 to 20)
#    0.000    3.286    0.000    3.000    0.000    4.000 
#    0.000    5.000    0.000    5.143    0.000    0.000 
#    0.000    0.000    0.000    0.000    0.000    0.000 
#
# Total GULP energy -346981.363523 kJ/mol
# GULP energy per Si atom -12392.191554 kJ/mol
# Density = 1.697196 g / cm^3
# Si number density = 17.010680 Si / 1000 Ang^3
#
#
#
# Elastic Constant Matrix: (Units=GPa)
#
#
# Indices 1 2 3 4 5 6 
#
# 1 133.7972 48.1920 81.9814 0.0000 10.8158 0.0000
# 2 48.1920 49.2038 33.3653 0.0000 2.5539 0.0000
# 3 81.9814 33.3653 112.4002 0.0000 24.3733 0.0000
# 4 0.0000 0.0000 0.0000 16.2367 0.0000 -4.6056
# 5 10.8158 2.5539 24.3733 0.0000 29.5153 0.0000
# 6 0.0000 0.0000 0.0000 -4.6056 0.0000 33.3791
#
#
#
# Elastic Compliance Matrix: (Units=1/GPa)
#
#
# Indices 1 2 3 4 5 6 
#
# 1 0.017006 -0.009971 -0.010086 0.000000 0.002960 0.000000
# 2 -0.009971 0.031891 -0.002909 0.000000 0.003297 0.000000
# 3 -0.010086 -0.002909 0.019807 0.000000 -0.012409 0.000000
# 4 0.000000 0.000000 0.000000 0.064097 0.000000 0.008844
# 5 0.002960 0.003297 -0.012409 0.000000 0.042758 0.000000
# 6 0.000000 0.000000 0.000000 0.008844 0.000000 0.031179
#
#
# Mechanical properties :
#
#
# Convention : Reuss Voigt Hill
#
# Bulk Modulus (GPa) = 43.91124 69.16430 56.53777
# Shear Modulus (GPa) = 19.21156 24.61707 21.91431
#
# Velocity S-wave (km/s) = 3.36427 3.80827 3.59314
# Velocity P-wave (km/s) = 6.40008 7.75144 7.10795
#
# Compressibility (1/GPa) = 0.02277321
#
# Stress axis : x y z
#
# Youngs Moduli (GPa) = 58.80368 31.35699 50.48660
#
# Poissons Ratio (x) = 0.31265 0.50918
# Poissons Ratio (y) = 0.58631 0.14687
# Poissons Ratio (z) = 0.59307 0.09122
#
# Static dielectric constant tensor:
#      x y z
#    x 3.545020 0.000000 0.515800 
#    y 0.000000 2.940460 0.000000 
#    z 0.515800 0.000000 3.528090 
# 
# 
# High freq. dielectric constant tensor:
#      x y z
#    x 1.662030 0.000000 0.014570 
#    y 0.000000 1.628150 0.000000 
#    z 0.014570 0.000000 1.644960 
# 
# From -- ./inp_files/313281.got.cif
#   From: 2010.06.25/outbox.cif.g09.slc.cpg/sg12_157_cif.got.tgz:313281.got - 2010.06.28 00:19:55.
