data_PCOD8116555
_publ_section_title
;
Structure prediction by ZEFSAII (Michael W. Deem and Ramdas Pophale) SiO2 
 PCOD8116555
Probable space group: C 2/M
;
_chemical_formula_sum "Si O2"
_cell_formula_units_Z 32
_cell_length_a 18.000000
_cell_length_b 9.000000
_cell_length_c 30.000000
_cell_angle_alpha 90.000000
_cell_angle_beta 40.000000
_cell_angle_gamma 90.000000
_cell_volume 3123.947783
_symmetry_space_group_name_H-M "C 2/M"
_symmetry_group_IT_number 12
_symmetry_cell_setting 'monoclinic'
loop_
_space_group_symop_operation_xyz
x,y,z
-x,y,-z
-x,-y,-z
x,-y,z
1/2+x,1/2+y,z
1/2-x,1/2+y,-z
1/2-x,1/2-y,-z
1/2+x,1/2-y,z
loop_
_atom_site_type_symbol
_atom_site_label
_atom_site_fract_x
_atom_site_fract_y
_atom_site_fract_z
Si Si1 0.779731 0.323501 0.939393
Si Si2 0.373685 0.674231 0.568431
Si Si3 0.776324 0.167857 0.295276
Si Si4 0.295079 0.176774 0.433992
Si Si5 0.532038 0.671788 0.297009
Si Si6 0.758425 0.171169 0.203800
Si Si7 0.473592 0.331206 0.801461
Si Si8 0.634972 0.828602 0.929138
O O1 0.769009 0.500000 0.948456
O O2 0.909114 0.279033 0.865079
O O3 0.694529 0.262501 0.940991
O O4 0.750000 0.250000 0.000000
O O5 0.500000 0.741599 0.500000
O O6 0.382100 0.500000 0.570241
O O7 0.326819 0.733188 0.637508
O O8 0.292645 0.720999 0.564819
O O9 0.816284 0.184776 0.225545
O O10 0.893366 0.213861 0.266589
O O11 0.738965 0.000000 0.322844
O O12 0.250000 0.250000 0.500000
O O13 0.417147 0.243341 0.363597
O O14 0.305000 0.000000 0.435687
O O15 0.520303 0.500000 0.316977
O O16 0.635967 0.755923 0.273041
O O17 0.574745 0.684525 0.226111
O O18 0.834655 0.259668 0.132871
O O19 0.745053 0.000000 0.194158
O O20 0.460836 0.500000 0.825310
O O21 0.676784 0.000000 0.911042
O O22 0.500000 0.816617 0.000000
#
# Coordination Sequence:
#
# PCOD8116555 Si02
#       8
#     8   8   8   8   8   8   8   8
#     4  12  26  43  67  96 129 168 213 262 317 378
#     4  10  23  42  62  89 124 163 205 253 308 369
#     4  10  23  42  64  93 124 162 207 255 309 370
#     4  11  24  41  63  92 127 164 210 260 312 377
#     4  11  22  40  67  91 123 165 208 261 316 370
#     4  11  24  41  64  96 128 164 210 257 314 376
#     4  10  21  41  66  92 125 163 209 260 313 372
#     4  11  25  45  66  93 129 169 214 262 317 379
#
# _framework density 10.243449
#
# number of rings (size 3 to 8) (size 9 to 14) (size 15 to 20)
#    0.000    1.250    2.500    2.625    3.500    3.750 
#    0.000    0.000    0.000    0.000    0.000    0.000 
#    0.000    0.000    0.000    0.000    0.000    0.000 
#
# Total GULP energy -396761.888233 kJ/mol
# GULP energy per Si atom -12398.809007 kJ/mol
# Density = 1.022013 g / cm^3
# Si number density = 10.243449 Si / 1000 Ang^3
#
#
#
# Elastic Constant Matrix: (Units=GPa)
#
#
# Indices 1 2 3 4 5 6 
#
# 1 48.2798 33.1501 32.1375 0.0006 6.7693 0.0031
# 2 33.1501 128.1522 61.1267 0.0013 5.2976 0.0029
# 3 32.1375 61.1267 145.7178 -0.0002 9.9217 -0.0002
# 4 0.0006 0.0013 -0.0002 47.6018 0.0000 3.4830
# 5 6.7693 5.2976 9.9217 0.0000 34.1728 0.0006
# 6 0.0031 0.0029 -0.0002 3.4830 0.0006 26.7568
#
#
#
# Elastic Compliance Matrix: (Units=1/GPa)
#
#
# Indices 1 2 3 4 5 6 
#
# 1 0.027137 -0.005168 -0.003576 0.000000 -0.003536 -0.000003
# 2 -0.005168 0.010743 -0.003390 0.000000 0.000343 -0.000001
# 3 -0.003576 -0.003390 0.009171 0.000000 -0.001429 0.000001
# 4 0.000000 0.000000 0.000000 0.021210 0.000000 -0.002761
# 5 -0.003536 0.000343 -0.001429 0.000000 0.030325 0.000000
# 6 -0.000003 -0.000001 0.000001 -0.002761 0.000000 0.037733
#
#
# Mechanical properties :
#
#
# Convention : Reuss Voigt Hill
#
# Bulk Modulus (GPa) = 43.89362 63.88649 53.89005
# Shear Modulus (GPa) = 29.72979 34.75532 32.24256
#
# Velocity S-wave (km/s) = 3.81354 4.12329 3.97144
# Velocity P-wave (km/s) = 6.39238 7.34305 6.88415
#
# Compressibility (1/GPa) = 0.02278236
#
# Stress axis : x y z
#
# Youngs Moduli (GPa) = 36.84959 93.08514 109.04248
#
# Poissons Ratio (x) = 0.48104 0.38999
# Poissons Ratio (y) = 0.19043 0.36966
# Poissons Ratio (z) = 0.13179 0.31557
#
# Static dielectric constant tensor:
#      x y z
#    x 3.768880 0.000000 0.019710 
#    y 0.000000 3.817810 0.000000 
#    z 0.019710 0.000000 3.868520 
# 
# 
# High freq. dielectric constant tensor:
#      x y z
#    x 1.800230 0.000000 0.002720 
#    y 0.000000 1.808220 0.000000 
#    z 0.002720 0.000000 1.822550 
# 
# From -- ./inp_files/378008.got.cif
#   From: 2010.06.25/outbox.ucp.g09.slc.cvg/sg12_190_cif.got.tgz:378008.got - 2010.06.28 13:50:54.
