data_PCOD8116038
_publ_section_title
;
Structure prediction by ZEFSAII (Michael W. Deem and Ramdas Pophale) SiO2 
 PCOD8116038
Probable space group: C 2/M
;
_chemical_formula_sum "Si O2"
_cell_formula_units_Z 64
_cell_length_a 9.188637
_cell_length_b 19.329342
_cell_length_c 27.865568
_cell_angle_alpha 90.000000
_cell_angle_beta 131.261647
_cell_angle_gamma 90.000000
_cell_volume 3720.351241
_symmetry_space_group_name_H-M "C 2/M"
_symmetry_group_IT_number 12
_symmetry_cell_setting 'monoclinic'
loop_
_space_group_symop_operation_xyz
x,y,z
-x,y,-z
-x,-y,-z
x,-y,z
1/2+x,1/2+y,z
1/2-x,1/2+y,-z
1/2-x,1/2-y,-z
1/2+x,1/2-y,z
loop_
_atom_site_type_symbol
_atom_site_label
_atom_site_fract_x
_atom_site_fract_y
_atom_site_fract_z
Si Si1 0.173451 0.420280 0.251520
Si Si2 0.835106 0.082566 0.499999
Si Si3 0.167373 0.420280 0.748481
Si Si4 0.394435 0.322845 0.861972
Si Si5 0.667096 0.320369 1.000000
Si Si6 0.553450 0.177154 0.861972
Si Si7 0.081789 0.582330 0.623142
Si Si8 0.410781 0.417670 0.623142
O O1 0.183880 0.500000 0.237812
O O2 0.382158 0.391653 0.312809
O O3 0.029953 0.410628 0.264977
O O4 0.106473 0.377113 0.190572
O O5 0.627505 0.111449 0.437747
O O6 0.876511 0.111447 0.562251
O O7 0.000000 0.110807 0.500000
O O8 0.835168 0.000000 0.499998
O O9 0.232635 0.500000 0.762189
O O10 0.344186 0.377112 0.809428
O O11 0.130929 0.391655 0.687192
O O12 0.455351 0.249999 0.852676
O O13 0.207408 0.308821 0.853704
O O14 0.568820 0.357728 0.932293
O O15 0.839649 0.357729 0.067707
O O16 0.500000 0.300136 0.000000
O O17 0.750000 0.250000 0.000000
O O18 0.077344 0.500000 0.621093
O O19 0.242984 0.611122 0.621491
O O20 0.407053 0.500000 0.621100
#
# Coordination Sequence:
#
# PCOD8116038 Si02
#       8
#     8   8   8   8   8   8   8   8
#     4   9  17  29  43  61  88 119 147 177 218 265
#     4   9  15  23  37  57  82 113 146 179 216 257
#     4   9  17  29  43  61  88 119 147 177 218 265
#     4   9  17  29  46  66  87 113 146 183 220 260
#     4   8  14  26  43  63  85 109 141 180 220 258
#     4   9  17  29  46  66  87 113 146 183 220 260
#     4   9  16  25  38  58  84 113 145 181 218 255
#     4   9  16  25  38  58  84 113 145 181 218 255
#
# _framework density 17.202677000000001
#
# number of rings (size 3 to 8) (size 9 to 14) (size 15 to 20)
#    0.000    3.125    0.000    1.125    0.000    5.500 
#    0.000    0.625    0.000    3.750    0.000    0.875 
#    0.000   14.000    0.000    0.000    0.000    0.000 
#
# Total GULP energy -396506.891132 kJ/mol
# GULP energy per Si atom -12390.840348 kJ/mol
# Density = 1.716352 g / cm^3
# Si number density = 17.202677 Si / 1000 Ang^3
#
#
#
# Elastic Constant Matrix: (Units=GPa)
#
#
# Indices 1 2 3 4 5 6 
#
# 1 82.7622 23.2666 75.6581 0.0000 0.6705 0.0000
# 2 23.2666 35.9501 50.6277 0.0000 0.4279 0.0000
# 3 75.6581 50.6277 210.0522 -0.0001 1.3207 -0.0001
# 4 0.0000 0.0000 -0.0001 8.6035 0.0000 -0.0851
# 5 0.6705 0.4279 1.3207 0.0000 24.9993 0.0000
# 6 0.0000 0.0000 -0.0001 -0.0851 0.0000 14.0269
#
#
#
# Elastic Compliance Matrix: (Units=1/GPa)
#
#
# Indices 1 2 3 4 5 6 
#
# 1 0.018367 -0.003891 -0.005677 0.000000 -0.000126 0.000000
# 2 -0.003891 0.042934 -0.008946 0.000000 -0.000158 0.000000
# 3 -0.005677 -0.008946 0.008963 0.000000 -0.000168 0.000000
# 4 0.000000 0.000000 0.000000 0.116238 0.000000 0.000705
# 5 -0.000126 -0.000158 -0.000168 0.000000 0.040016 0.000000
# 6 0.000000 0.000000 0.000000 0.000705 0.000000 0.071296
#
#
# Mechanical properties :
#
#
# Convention : Reuss Voigt Hill
#
# Bulk Modulus (GPa) = 30.08679 69.76327 49.92503
# Shear Modulus (GPa) = 14.45415 21.47342 17.96378
#
# Velocity S-wave (km/s) = 2.90181 3.53691 3.23498
# Velocity P-wave (km/s) = 5.36236 7.57109 6.56035
#
# Compressibility (1/GPa) = 0.03323718
#
# Stress axis : x y z
#
# Youngs Moduli (GPa) = 54.44400 23.29130 111.57232
#
# Poissons Ratio (x) = 0.09062 0.63342
# Poissons Ratio (y) = 0.21183 0.99811
# Poissons Ratio (z) = 0.30909 0.20836
#
# Static dielectric constant tensor:
#      x y z
#    x 2.736830 0.000000 0.017220 
#    y 0.000000 2.601510 0.000000 
#    z 0.017220 0.000000 3.836430 
# 
# 
# High freq. dielectric constant tensor:
#      x y z
#    x 1.668970 0.000000 0.000330 
#    y 0.000000 1.591890 0.000000 
#    z 0.000330 0.000000 1.690020 
# 
# From -- ./inp_files/319089.got.cif
#   From: 2010.06.25/outbox.cif.g09.slc.cpg/sg12_160_cif.got.tgz:319089.got - 2010.06.28 00:19:55.
