data_PCOD8116746
_publ_section_title
;
Structure prediction by ZEFSAII (Michael W. Deem and Ramdas Pophale) SiO2 
 PCOD8116746
Probable space group: P 2/C
;
_chemical_formula_sum "Si O2"
_cell_formula_units_Z 20
_cell_length_a 21.330801
_cell_length_b 10.216520
_cell_length_c 9.615989
_cell_angle_alpha 90.000000
_cell_angle_beta 142.585390
_cell_angle_gamma 90.000000
_cell_volume 1273.228731
_symmetry_space_group_name_H-M "P 2/C"
_symmetry_group_IT_number 13
_symmetry_cell_setting 'monoclinic'
loop_
_space_group_symop_operation_xyz
x,y,z
-x,y,1/2-z
-x,-y,-z
x,-y,1/2+z
loop_
_atom_site_type_symbol
_atom_site_label
_atom_site_fract_x
_atom_site_fract_y
_atom_site_fract_z
Si Si1 0.872168 0.885329 0.873513
Si Si2 0.758610 0.622971 0.664364
Si Si3 0.889416 0.128163 0.724656
Si Si4 0.776252 0.388383 0.519345
Si Si5 0.428109 0.527699 0.745311
O O1 0.795759 0.768830 0.691132
O O2 0.841223 0.016782 0.738182
O O3 0.861313 0.910972 0.018097
O O4 0.989145 0.850248 0.039572
O O5 0.819515 0.518532 0.673536
O O6 0.635128 0.603055 0.418091
O O7 0.785983 0.590742 0.871781
O O8 0.839285 0.264055 0.681850
O O9 0.656832 0.365364 0.356062
O O10 0.500000 0.584358 0.750000
O O11 0.500000 0.500000 0.000000
#
# Coordination Sequence:
#
# PCOD8116746 Si02
#       5
#     4   4   4   4   4
#     4   9  18  33  50  69  98 131 157 188 235 281
#     4   9  18  30  48  74  95 124 156 197 234 278
#     4   9  18  33  50  69  98 130 158 190 231 283
#     4   9  18  30  48  74  95 123 157 198 233 278
#     4  10  16  30  49  70  93 123 155 194 243 282
#
# _framework density 15.708098
#
# number of rings (size 3 to 8) (size 9 to 14) (size 15 to 20)
#    1.200    1.600    2.000    0.000    0.000    2.400 
#    0.000    0.000    0.000    2.400    0.000    0.000 
#    0.000    0.000    0.000    0.000    0.000    0.000 
#
# Total GULP energy -247797.078226 kJ/mol
# GULP energy per Si atom -12389.853911 kJ/mol
# Density = 1.567235 g / cm^3
# Si number density = 15.708098 Si / 1000 Ang^3
#
#
#
# Elastic Constant Matrix: (Units=GPa)
#
#
# Indices 1 2 3 4 5 6 
#
# 1 53.0370 21.4304 16.4644 0.0000 -8.3485 0.0000
# 2 21.4304 79.5553 44.0193 0.0000 -6.7629 0.0000
# 3 16.4644 44.0193 68.7403 0.0000 -5.5745 0.0000
# 4 0.0000 0.0000 0.0000 19.0163 0.0000 -9.1113
# 5 -8.3485 -6.7629 -5.5745 0.0000 20.6852 0.0000
# 6 0.0000 0.0000 0.0000 -9.1113 0.0000 22.6655
#
#
#
# Elastic Compliance Matrix: (Units=1/GPa)
#
#
# Indices 1 2 3 4 5 6 
#
# 1 0.022330 -0.004294 -0.002026 0.000000 0.007063 0.000000
# 2 -0.004294 0.020486 -0.011949 0.000000 0.001745 0.000000
# 3 -0.002026 -0.011949 0.022800 0.000000 0.001420 0.000000
# 4 0.000000 0.000000 0.000000 0.065131 0.000000 0.026182
# 5 0.007063 0.001745 0.001420 0.000000 0.052147 0.000000
# 6 0.000000 0.000000 0.000000 0.026182 0.000000 0.054645
#
#
# Mechanical properties :
#
#
# Convention : Reuss Voigt Hill
#
# Bulk Modulus (GPa) = 34.38939 40.57342 37.48140
# Shear Modulus (GPa) = 17.61987 20.43464 19.02725
#
# Velocity S-wave (km/s) = 3.35282 3.61071 3.48415
# Velocity P-wave (km/s) = 6.07691 6.57789 6.33236
#
# Compressibility (1/GPa) = 0.02907874
#
# Stress axis : x y z
#
# Youngs Moduli (GPa) = 44.78190 48.81278 43.86013
#
# Poissons Ratio (x) = 0.20959 0.08887
# Poissons Ratio (y) = 0.19229 0.52408
# Poissons Ratio (z) = 0.09073 0.58326
#
# Static dielectric constant tensor:
#      x y z
#    x 2.850140 0.000000 -0.042270 
#    y 0.000000 2.861890 0.000000 
#    z -0.042270 0.000000 2.944640 
# 
# 
# High freq. dielectric constant tensor:
#      x y z
#    x 1.606820 0.000000 -0.011670 
#    y 0.000000 1.579370 0.000000 
#    z -0.011670 0.000000 1.600170 
# 
# From -- ./inp_files/20783.got.cif
#   From: 2010.06.25/outbox.cif.g09.slc.cpg/sg13_11_cif.got.tgz:20783.got - 2010.06.28 04:50:58.
