data_PCOD8116167
_publ_section_title
;
Structure prediction by ZEFSAII (Michael W. Deem and Ramdas Pophale) SiO2 
 PCOD8116167
Probable space group: C 2/M
;
_chemical_formula_sum "Si O2"
_cell_formula_units_Z 40
_cell_length_a 28.930243
_cell_length_b 14.324975
_cell_length_c 9.464038
_cell_angle_alpha 90.000000
_cell_angle_beta 27.105822
_cell_angle_gamma 90.000000
_cell_volume 1787.062955
_symmetry_space_group_name_H-M "C 2/M"
_symmetry_group_IT_number 12
_symmetry_cell_setting 'monoclinic'
loop_
_space_group_symop_operation_xyz
x,y,z
-x,y,-z
-x,-y,-z
x,-y,z
1/2+x,1/2+y,z
1/2-x,1/2+y,-z
1/2-x,1/2-y,-z
1/2+x,1/2-y,z
loop_
_atom_site_type_symbol
_atom_site_label
_atom_site_fract_x
_atom_site_fract_y
_atom_site_fract_z
Si Si1 0.505568 0.610026 0.146461
Si Si2 0.947830 0.600395 0.497905
Si Si3 0.198917 0.889210 0.800840
Si Si4 0.417034 0.109420 0.121225
Si Si5 0.601247 0.294541 0.318007
O O1 0.490803 0.500000 0.188623
O O2 0.415390 0.651780 0.488712
O O3 0.500000 0.647368 0.000000
O O4 0.613197 0.640472 0.921051
O O5 0.899444 0.500000 0.575022
O O6 0.868057 0.686232 0.728264
O O7 0.000000 0.576402 0.500000
O O8 0.041948 0.634154 0.144926
O O9 0.304975 0.849598 0.451355
O O10 0.196733 0.000000 0.828056
O O11 0.186403 0.843459 0.990460
O O12 0.409125 0.000000 0.169380
O O13 0.500000 0.154602 0.000000
O O14 0.500000 0.294359 0.500000
#
# Coordination Sequence:
#
# PCOD8116167 Si02
#       5
#     8   8   8   8   8
#     4   9  17  30  50  79 114 146 177 221 276 329
#     4   9  18  34  54  75 105 144 182 225 274 319
#     4   9  17  32  55  81 109 143 182 222 269 326
#     4   9  18  34  55  77 104 142 186 228 269 319
#     4   9  17  31  51  78 108 142 180 221 271 328
#
# _framework density 22.383095000000001
#
# number of rings (size 3 to 8) (size 9 to 14) (size 15 to 20)
#    0.000    3.000    0.000    0.600    0.000    3.200 
#    0.000   12.000    0.000    9.600    0.000    5.600 
#    0.000    0.800    0.000    0.000    0.000    1.000 
#
# Total GULP energy -247776.649286 kJ/mol
# GULP energy per Si atom -12388.832464 kJ/mol
# Density = 2.233215 g / cm^3
# Si number density = 22.383095 Si / 1000 Ang^3
#
#
#
# Elastic Constant Matrix: (Units=GPa)
#
#
# Indices 1 2 3 4 5 6 
#
# 1 102.0879 23.2721 71.1400 0.0000 29.8675 0.0000
# 2 23.2721 84.4827 40.5294 0.0000 13.0449 0.0000
# 3 71.1400 40.5294 127.0536 0.0000 31.8607 0.0000
# 4 0.0000 0.0000 0.0000 25.7961 0.0000 8.4095
# 5 29.8675 13.0449 31.8607 0.0000 42.1851 0.0000
# 6 0.0000 0.0000 0.0000 8.4095 0.0000 14.8404
#
#
#
# Elastic Compliance Matrix: (Units=1/GPa)
#
#
# Indices 1 2 3 4 5 6 
#
# 1 0.017235 0.000105 -0.008161 0.000000 -0.006071 0.000000
# 2 0.000105 0.014024 -0.004227 0.000000 -0.001219 0.000000
# 3 -0.008161 -0.004227 0.014818 0.000000 -0.004106 0.000000
# 4 0.000000 0.000000 0.000000 0.047549 0.000000 -0.026945
# 5 -0.006071 -0.001219 -0.004106 0.000000 0.031482 0.000000
# 6 0.000000 0.000000 0.000000 -0.026945 0.000000 0.082652
#
#
# Mechanical properties :
#
#
# Convention : Reuss Voigt Hill
#
# Bulk Modulus (GPa) = 46.48746 64.83414 55.66080
# Shear Modulus (GPa) = 20.87710 28.47650 24.67680
#
# Velocity S-wave (km/s) = 3.05736 3.57071 3.32396
# Velocity P-wave (km/s) = 5.76865 6.78443 6.29705
#
# Compressibility (1/GPa) = 0.02151118
#
# Stress axis : x y z
#
# Youngs Moduli (GPa) = 58.02163 71.30799 67.48348
#
# Poissons Ratio (x) = -0.00749 0.55075
# Poissons Ratio (y) = -0.00610 0.28523
# Poissons Ratio (z) = 0.47353 0.30140
#
# Static dielectric constant tensor:
#      x y z
#    x 3.888220 0.000000 0.252660 
#    y 0.000000 4.179340 0.000000 
#    z 0.252660 0.000000 4.037920 
# 
# 
# High freq. dielectric constant tensor:
#      x y z
#    x 1.861730 0.000000 0.032900 
#    y 0.000000 1.889030 0.000000 
#    z 0.032900 0.000000 1.869730 
# 
# From -- ./inp_files/111841.got.cif
#   From: 2010.06.25/outbox.cif.g09.slc.cpg/sg12_56_cif.got.tgz:111841.got - 2010.06.28 00:19:55.
