data_PCOD8116777
_publ_section_title
;
Structure prediction by ZEFSAII (Michael W. Deem and Ramdas Pophale) SiO2 
 PCOD8116777
Probable space group: P 2/C
;
_chemical_formula_sum "Si O2"
_cell_formula_units_Z 28
_cell_length_a 13.777152
_cell_length_b 16.746095
_cell_length_c 8.992764
_cell_angle_alpha 90.000000
_cell_angle_beta 40.139405
_cell_angle_gamma 90.000000
_cell_volume 1337.487958
_symmetry_space_group_name_H-M "P 2/C"
_symmetry_group_IT_number 13
_symmetry_cell_setting 'monoclinic'
loop_
_space_group_symop_operation_xyz
x,y,z
-x,y,1/2-z
-x,-y,-z
x,-y,1/2+z
loop_
_atom_site_type_symbol
_atom_site_label
_atom_site_fract_x
_atom_site_fract_y
_atom_site_fract_z
Si Si1 0.740182 0.799530 0.623747
Si Si2 0.954057 0.311947 0.050027
Si Si3 0.828486 0.908468 0.769112
Si Si4 0.500000 0.297663 0.250000
Si Si5 0.167544 0.557946 0.601206
Si Si6 0.888503 0.922635 0.251444
Si Si7 0.000000 0.195671 0.250000
Si Si8 0.244760 0.594839 0.184794
O O1 0.863594 0.733802 0.526825
O O2 0.718082 0.865533 0.780338
O O3 0.582663 0.757872 0.774496
O O4 0.795877 0.844441 0.408765
O O5 0.838492 0.367335 0.278678
O O6 0.034712 0.250746 0.067337
O O7 0.087354 0.363918 0.822033
O O8 0.845852 0.856700 0.899982
O O9 0.005568 0.903235 0.511621
O O10 0.778964 0.000769 0.848246
O O11 0.383508 0.350770 0.476553
O O12 0.258060 0.580357 0.345997
O O13 0.254663 0.487457 0.582672
O O14 0.000000 0.530943 0.750000
O O15 0.000000 0.951772 0.250000
#
# Coordination Sequence:
#
# PCOD8116777 Si02
#       8
#     4   4   4   2   4   4   2   4
#     4  10  24  39  59  92 126 172 212 266 321 380
#     4  10  20  39  69  97 121 159 214 277 330 368
#     4   9  18  31  60  92 122 151 206 264 321 370
#     4  12  30  42  58  90 138 178 222 254 326 400
#     4  10  21  42  69 100 123 161 223 279 330 384
#     4   9  17  33  57  94 120 154 202 269 322 367
#     4  10  16  30  56  98 126 140 192 264 326 364
#     4  11  25  42  65  93 132 169 216 268 327 394
#
# _framework density 20.934767000000001
#
# number of rings (size 3 to 8) (size 9 to 14) (size 15 to 20)
#    0.000    2.000    2.857    1.714   12.000    0.571 
#    0.000    0.714    0.000    0.000    0.000    0.000 
#    0.000    0.000    0.000    0.000    0.000    0.000 
#
# Total GULP energy -347070.750862 kJ/mol
# GULP energy per Si atom -12395.383959 kJ/mol
# Density = 2.088712 g / cm^3
# Si number density = 20.934767 Si / 1000 Ang^3
#
#
#
# Elastic Constant Matrix: (Units=GPa)
#
#
# Indices 1 2 3 4 5 6 
#
# 1 86.0936 64.6037 45.8494 0.0000 -0.1649 0.0000
# 2 64.6037 158.4050 49.6235 0.0000 2.3605 0.0000
# 3 45.8494 49.6235 72.2206 0.0000 5.7968 0.0000
# 4 0.0000 0.0000 0.0000 27.4185 0.0000 4.4261
# 5 -0.1649 2.3605 5.7968 0.0000 14.6451 0.0000
# 6 0.0000 0.0000 0.0000 4.4261 0.0000 34.0149
#
#
#
# Elastic Compliance Matrix: (Units=1/GPa)
#
#
# Indices 1 2 3 4 5 6 
#
# 1 0.021120 -0.005557 -0.009998 0.000000 0.005091 0.000000
# 2 -0.005557 0.009519 -0.002979 0.000000 -0.000418 0.000000
# 3 -0.009998 -0.002979 0.022940 0.000000 -0.008712 0.000000
# 4 0.000000 0.000000 0.000000 0.037254 0.000000 -0.004848
# 5 0.005091 -0.000418 -0.008712 0.000000 0.071855 0.000000
# 6 0.000000 0.000000 0.000000 -0.004848 0.000000 0.030030
#
#
# Mechanical properties :
#
#
# Convention : Reuss Voigt Hill
#
# Bulk Modulus (GPa) = 60.56951 70.76362 65.66657
# Shear Modulus (GPa) = 21.25047 25.65855 23.45451
#
# Velocity S-wave (km/s) = 3.18949 3.50472 3.35081
# Velocity P-wave (km/s) = 6.52373 7.08892 6.81219
#
# Compressibility (1/GPa) = 0.01650996
#
# Stress axis : x y z
#
# Youngs Moduli (GPa) = 47.34957 105.05526 43.59209
#
# Poissons Ratio (x) = 0.58381 0.43583
# Poissons Ratio (y) = 0.26313 0.12986
# Poissons Ratio (z) = 0.47340 0.31296
#
# Static dielectric constant tensor:
#      x y z
#    x 3.723070 0.000000 0.444960 
#    y 0.000000 4.206310 0.000000 
#    z 0.444960 0.000000 3.551750 
# 
# 
# High freq. dielectric constant tensor:
#      x y z
#    x 1.799230 0.000000 0.044600 
#    y 0.000000 1.850710 0.000000 
#    z 0.044600 0.000000 1.775070 
# 
# From -- ./inp_files/20094.got.cif
#   From: 2010.06.25/outbox.cif.g09.slc.cpg/sg13_11_cif.got.tgz:20094.got - 2010.06.28 04:50:58.
