data_PCOD8116233
_publ_section_title
;
Structure prediction by ZEFSAII (Michael W. Deem and Ramdas Pophale) SiO2 
 PCOD8116233
Probable space group: C 2/M
;
_chemical_formula_sum "Si O2"
_cell_formula_units_Z 32
_cell_length_a 30.000000
_cell_length_b 9.000000
_cell_length_c 15.000000
_cell_angle_alpha 90.000000
_cell_angle_beta 50.000000
_cell_angle_gamma 90.000000
_cell_volume 3102.479995
_symmetry_space_group_name_H-M "C 2/M"
_symmetry_group_IT_number 12
_symmetry_cell_setting 'monoclinic'
loop_
_space_group_symop_operation_xyz
x,y,z
-x,y,-z
-x,-y,-z
x,-y,z
1/2+x,1/2+y,z
1/2-x,1/2+y,-z
1/2-x,1/2-y,-z
1/2+x,1/2-y,z
loop_
_atom_site_type_symbol
_atom_site_label
_atom_site_fract_x
_atom_site_fract_y
_atom_site_fract_z
Si Si1 0.480348 0.171941 0.310824
Si Si2 0.888567 0.830414 0.552632
Si Si3 0.203072 0.834473 0.903440
Si Si4 0.113089 0.330447 0.705415
Si Si5 0.316018 0.334700 0.274576
Si Si6 0.108034 0.666436 0.120301
Si Si7 0.671314 0.167808 0.221720
Si Si8 0.705561 0.669907 0.468592
O O1 0.442188 0.252340 0.434184
O O2 0.451750 0.192546 0.249007
O O3 0.545222 0.240749 0.222082
O O4 0.482671 0.000000 0.336086
O O5 0.878057 0.757667 0.662087
O O6 0.826341 0.811715 0.585351
O O7 0.907128 0.000000 0.540602
O O8 0.208720 0.833552 0.791308
O O9 0.263489 0.761031 0.860838
O O10 0.197203 0.000000 0.950829
O O11 0.143230 0.750108 0.999161
O O12 0.132321 0.500000 0.668576
O O13 0.125583 0.271244 0.790099
O O14 0.156528 0.218035 0.600730
O O15 0.331917 0.500000 0.285459
O O16 0.262405 0.272873 0.403392
O O17 0.095655 0.500000 0.102648
O O18 0.150996 0.669452 0.147466
O O19 0.674709 0.000000 0.256069
O O20 0.724508 0.500000 0.459479
#
# Coordination Sequence:
#
# PCOD8116233 Si02
#       8
#     8   8   8   8   8   8   8   8
#     4   9  20  39  58  79 111 149 187 227 274 325
#     4  10  20  33  55  86 115 147 183 225 273 325
#     4  10  22  38  57  82 113 146 179 225 283 331
#     4  10  20  34  54  78 108 145 183 223 270 323
#     4  11  21  34  53  79 111 144 181 221 271 330
#     4  10  22  39  61  83 105 144 192 233 273 324
#     4  10  20  37  59  84 114 145 180 224 280 337
#     4  10  19  32  51  79 113 145 180 220 270 326
#
# _framework density 10.314329000000001
#
# number of rings (size 3 to 8) (size 9 to 14) (size 15 to 20)
#    0.000    2.000    1.250    2.250    0.000    4.500 
#    0.000    3.125    0.000    3.750    0.000    0.000 
#    0.000    0.000    0.000    0.000    0.000    0.000 
#
# Total GULP energy -396537.576218 kJ/mol
# GULP energy per Si atom -12391.799257 kJ/mol
# Density = 1.029085 g / cm^3
# Si number density = 10.314329 Si / 1000 Ang^3
#
#
#
# Elastic Constant Matrix: (Units=GPa)
#
#
# Indices 1 2 3 4 5 6 
#
# 1 45.9246 30.7754 40.7623 0.0001 -9.6294 -0.0002
# 2 30.7754 74.1915 39.4372 -0.0001 -13.1780 -0.0002
# 3 40.7623 39.4372 71.1335 0.0000 -31.1758 0.0001
# 4 0.0001 -0.0001 0.0000 26.3733 0.0000 -2.0512
# 5 -9.6294 -13.1780 -31.1758 0.0000 24.5320 0.0000
# 6 -0.0002 -0.0002 0.0001 -2.0512 0.0000 25.1221
#
#
#
# Elastic Compliance Matrix: (Units=1/GPa)
#
#
# Indices 1 2 3 4 5 6 
#
# 1 0.063209 -0.006305 -0.052673 0.000000 -0.045514 0.000001
# 2 -0.006305 0.020323 -0.008926 0.000000 -0.002901 0.000000
# 3 -0.052673 -0.008926 0.085834 0.000000 0.083609 -0.000001
# 4 0.000000 0.000000 0.000000 0.038159 0.000000 0.003116
# 5 -0.045514 -0.002901 0.083609 0.000000 0.127592 -0.000001
# 6 0.000001 0.000000 -0.000001 0.003116 -0.000001 0.040060
#
#
# Mechanical properties :
#
#
# Convention : Reuss Voigt Hill
#
# Bulk Modulus (GPa) = 29.79866 45.91105 37.85486
# Shear Modulus (GPa) = 9.57539 20.55714 15.06627
#
# Velocity S-wave (km/s) = 2.15682 3.16022 2.70544
# Velocity P-wave (km/s) = 4.54743 5.96827 5.30563
#
# Compressibility (1/GPa) = 0.03355855
#
# Stress axis : x y z
#
# Youngs Moduli (GPa) = 15.82053 49.20437 11.65041
#
# Poissons Ratio (x) = 0.31024 0.61366
# Poissons Ratio (y) = 0.09975 0.10399
# Poissons Ratio (z) = 0.83332 0.43918
#
# Static dielectric constant tensor:
#      x y z
#    x 4.099990 0.000000 0.030400 
#    y 0.000000 3.822280 0.000000 
#    z 0.030400 0.000000 3.338350 
# 
# 
# High freq. dielectric constant tensor:
#      x y z
#    x 1.816420 0.000000 -0.000560 
#    y 0.000000 1.796570 0.000000 
#    z -0.000560 0.000000 1.772260 
# 
# From -- ./inp_files/249887.got.cif
#   From: 2010.06.25/outbox.ucp.g09.slc.cvg/sg12_125_cif.got.tgz:249887.got - 2010.06.28 13:50:54.
