data_PCOD8116938
_publ_section_title
;
Structure prediction by ZEFSAII (Michael W. Deem and Ramdas Pophale) SiO2 
 PCOD8116938
Probable space group: P 2/C
;
_chemical_formula_sum "Si O2"
_cell_formula_units_Z 32
_cell_length_a 14.617479
_cell_length_b 12.380945
_cell_length_c 17.404949
_cell_angle_alpha 90.000000
_cell_angle_beta 31.158727
_cell_angle_gamma 90.000000
_cell_volume 1629.800494
_symmetry_space_group_name_H-M "P 2/C"
_symmetry_group_IT_number 13
_symmetry_cell_setting 'monoclinic'
loop_
_space_group_symop_operation_xyz
x,y,z
-x,y,1/2-z
-x,-y,-z
x,-y,1/2+z
loop_
_atom_site_type_symbol
_atom_site_label
_atom_site_fract_x
_atom_site_fract_y
_atom_site_fract_z
Si Si1 0.831654 0.931596 0.598714
Si Si2 0.885323 0.989799 0.900131
Si Si3 0.539155 0.275813 0.542489
Si Si4 0.120863 0.207314 0.296719
Si Si5 0.366653 0.477099 0.914764
Si Si6 0.654518 0.574038 0.418729
Si Si7 0.500586 0.925271 0.160996
Si Si8 0.009416 0.432383 0.332679
O O1 0.833757 0.822077 0.647016
O O2 0.847854 0.921524 0.494237
O O3 0.645934 0.986532 0.754896
O O4 0.000000 0.000000 0.500000
O O5 0.000000 0.044801 0.750000
O O6 0.987302 0.881736 0.856537
O O7 0.697892 0.960917 0.995963
O O8 0.703889 0.222320 0.380059
O O9 0.603325 0.370489 0.554154
O O10 0.385191 0.311571 0.592976
O O11 0.443651 0.183421 0.659166
O O12 0.032473 0.324282 0.365553
O O13 0.500000 0.492976 0.750000
O O14 0.364054 0.579689 0.975049
O O15 0.179374 0.477585 0.005982
O O16 0.500000 0.500000 0.500000
O O17 0.841492 0.522668 0.258405
O O18 0.500000 0.895805 0.250000
O O19 0.000000 0.400727 0.250000
#
# Coordination Sequence:
#
# PCOD8116938 Si02
#       8
#     4   4   4   4   4   4   4   4
#     4   9  22  36  51  87 118 149 185 243 289 344
#     4  10  18  34  58  84 109 151 197 231 284 344
#     4  11  19  33  58  89 118 147 188 244 295 342
#     4  11  18  32  58  88 117 146 189 236 298 340
#     4  10  20  33  56  87 116 143 196 244 287 338
#     4   9  18  34  54  85 115 148 187 233 291 353
#     4  10  20  35  58  86 113 144 193 242 285 335
#     4  10  17  33  60  86 111 151 191 234 287 346
#
# _framework density 19.634305000000001
#
# number of rings (size 3 to 8) (size 9 to 14) (size 15 to 20)
#    0.000    2.000    5.000    1.500    0.000    2.500 
#    0.000    2.500    8.250    2.250   29.250    0.000 
#    0.000    0.000    0.000    0.000    0.000    0.000 
#
# Total GULP energy -396434.028715 kJ/mol
# GULP energy per Si atom -12388.563397 kJ/mol
# Density = 1.958962 g / cm^3
# Si number density = 19.634305 Si / 1000 Ang^3
#
#
#
# Elastic Constant Matrix: (Units=GPa)
#
#
# Indices 1 2 3 4 5 6 
#
# 1 101.3625 52.9062 58.2721 0.0000 -13.7514 0.0000
# 2 52.9062 48.9875 34.7689 0.0000 -6.1880 0.0000
# 3 58.2721 34.7689 128.1887 0.0000 -16.9812 0.0000
# 4 0.0000 0.0000 0.0000 14.7726 0.0000 0.6299
# 5 -13.7514 -6.1880 -16.9812 0.0000 29.7268 0.0000
# 6 0.0000 0.0000 0.0000 0.6299 0.0000 43.7311
#
#
#
# Elastic Compliance Matrix: (Units=1/GPa)
#
#
# Indices 1 2 3 4 5 6 
#
# 1 0.025432 -0.023684 -0.004578 0.000000 0.004219 0.000000
# 2 -0.023684 0.047394 -0.002416 0.000000 -0.002470 0.000000
# 3 -0.004578 -0.002416 0.011024 0.000000 0.003677 0.000000
# 4 0.000000 0.000000 0.000000 0.067734 0.000000 -0.000976
# 5 0.004219 -0.002470 0.003677 0.000000 0.037178 0.000000
# 6 0.000000 0.000000 0.000000 -0.000976 0.000000 0.022881
#
#
# Mechanical properties :
#
#
# Convention : Reuss Voigt Hill
#
# Bulk Modulus (GPa) = 44.45428 63.38144 53.91786
# Shear Modulus (GPa) = 17.82549 26.48554 22.15551
#
# Velocity S-wave (km/s) = 3.01636 3.67678 3.36282
# Velocity P-wave (km/s) = 5.90098 7.09760 6.52677
#
# Compressibility (1/GPa) = 0.02249502
#
# Stress axis : x y z
#
# Youngs Moduli (GPa) = 39.32122 21.09956 90.70770
#
# Poissons Ratio (x) = 0.49972 0.41526
# Poissons Ratio (y) = 0.93127 0.21914
# Poissons Ratio (z) = 0.18001 0.05098
#
# Static dielectric constant tensor:
#      x y z
#    x 21.068150 0.000000 -7.397650 
#    y 0.000000 3.405020 0.000000 
#    z -7.397650 0.000000 7.097450 
# 
# 
# High freq. dielectric constant tensor:
#      x y z
#    x 1.768480 0.000000 -0.009110 
#    y 0.000000 1.718940 0.000000 
#    z -0.009110 0.000000 1.776480 
# 
# From -- ./inp_files/68648.got.cif
#   From: 2010.06.25/outbox.cif.g09.slc.cpg/sg13_35_cif.got.tgz:68648.got - 2010.06.28 04:50:58.
