data_PCOD8116395
_publ_section_title
;
Structure prediction by ZEFSAII (Michael W. Deem and Ramdas Pophale) SiO2 
 PCOD8116395
Probable space group: C 2/M
;
_chemical_formula_sum "Si O2"
_cell_formula_units_Z 28
_cell_length_a 21.000000
_cell_length_b 18.000000
_cell_length_c 21.000000
_cell_angle_alpha 90.000000
_cell_angle_beta 160.000000
_cell_angle_gamma 90.000000
_cell_volume 2714.955898
_symmetry_space_group_name_H-M "C 2/M"
_symmetry_group_IT_number 12
_symmetry_cell_setting 'monoclinic'
loop_
_space_group_symop_operation_xyz
x,y,z
-x,y,-z
-x,-y,-z
x,-y,z
1/2+x,1/2+y,z
1/2-x,1/2+y,-z
1/2-x,1/2-y,-z
1/2+x,1/2-y,z
loop_
_atom_site_type_symbol
_atom_site_label
_atom_site_fract_x
_atom_site_fract_y
_atom_site_fract_z
Si Si1 0.896483 0.585230 0.312709
Si Si2 0.548056 0.413337 0.330723
Si Si3 0.440060 0.412380 0.089634
Si Si4 0.848337 0.415774 0.708461
Si Si5 0.730444 0.085578 0.124307
Si Si6 0.753415 0.652523 0.301059
Si Si7 0.785246 0.823520 0.299210
O O1 0.965649 0.500000 0.374841
O O2 0.772426 0.596659 0.259382
O O3 0.076434 0.639367 0.488469
O O4 0.774517 0.602483 0.134126
O O5 0.517283 0.500000 0.293026
O O6 0.490901 0.379933 0.207964
O O7 0.758128 0.394292 0.554123
O O8 0.413952 0.384655 0.261092
O O9 0.486130 0.500000 0.127399
O O10 0.561908 0.364868 0.155475
O O11 0.782746 0.500000 0.662836
O O12 0.786728 0.360229 0.704751
O O13 0.071944 0.410421 0.920171
O O14 0.689553 0.139467 0.146350
O O15 0.749376 0.000000 0.166495
O O16 0.748521 0.735651 0.268241
O O17 0.000000 0.842483 0.500000
#
# Coordination Sequence:
#
# PCOD8116395 Si02
#       7
#     8   8   8   8   8   8   8
#     4  10  20  36  59  85 112 147 192 244 294 340
#     4   9  19  36  58  86 118 149 188 239 285 338
#     4  10  21  37  61  89 115 151 195 235 287 344
#     4  10  21  37  60  88 116 151 192 236 289 341
#     4  10  21  37  60  89 118 150 192 238 286 341
#     4  11  22  38  56  84 119 151 190 241 290 342
#     4  12  22  37  59  84 119 153 193 238 291 339
#
# _framework density 10.313243
#
# number of rings (size 3 to 8) (size 9 to 14) (size 15 to 20)
#    0.000    1.714    2.857    3.000    0.000    6.286 
#    0.000    5.000    0.000    4.286    0.000    0.000 
#    0.000    0.000    0.000    0.000    0.000    0.000 
#
# Total GULP energy -346996.909029 kJ/mol
# GULP energy per Si atom -12392.746751 kJ/mol
# Density = 1.028977 g / cm^3
# Si number density = 10.313243 Si / 1000 Ang^3
#
#
#
# Elastic Constant Matrix: (Units=GPa)
#
#
# Indices 1 2 3 4 5 6 
#
# 1 49.1760 16.9204 27.8295 0.0070 -22.1109 0.0012
# 2 16.9204 80.9039 36.1784 -0.0535 -7.4285 -0.0352
# 3 27.8295 36.1784 130.6054 0.0934 -36.5779 -0.0285
# 4 0.0070 -0.0535 0.0934 25.1071 0.0374 3.4703
# 5 -22.1109 -7.4285 -36.5779 0.0374 42.6047 0.0040
# 6 0.0012 -0.0352 -0.0285 3.4703 0.0040 16.3027
#
#
#
# Elastic Compliance Matrix: (Units=1/GPa)
#
#
# Indices 1 2 3 4 5 6 
#
# 1 0.028265 -0.004164 -0.001270 -0.000030 0.012853 -0.000010
# 2 -0.004164 0.014766 -0.004065 0.000050 -0.003076 0.000015
# 3 -0.001270 -0.004065 0.011415 -0.000067 0.008432 0.000023
# 4 -0.000030 0.000050 -0.000067 0.041037 -0.000099 -0.008735
# 5 0.012853 -0.003076 0.008432 -0.000099 0.036845 0.000019
# 6 -0.000010 0.000015 0.000023 -0.008735 0.000019 0.063199
#
#
# Mechanical properties :
#
#
# Convention : Reuss Voigt Hill
#
# Bulk Modulus (GPa) = 28.20830 46.94911 37.57870
# Shear Modulus (GPa) = 22.09054 28.78671 25.43863
#
# Velocity S-wave (km/s) = 3.27613 3.73985 3.51565
# Velocity P-wave (km/s) = 5.29303 6.43891 5.89389
#
# Compressibility (1/GPa) = 0.03545055
#
# Stress axis : x y z
#
# Youngs Moduli (GPa) = 35.37897 67.72152 87.60533
#
# Poissons Ratio (x) = 0.28196 0.11124
# Poissons Ratio (y) = 0.14730 0.35609
# Poissons Ratio (z) = 0.04492 0.27527
#
# Static dielectric constant tensor:
#      x y z
#    x 3.657480 0.000000 -0.234170 
#    y 0.000000 3.572350 -0.000180 
#    z -0.234170 -0.000180 4.370550 
# 
# 
# High freq. dielectric constant tensor:
#      x y z
#    x 1.786620 -0.000010 -0.020600 
#    y -0.000010 1.784570 -0.000020 
#    z -0.020600 -0.000020 1.836900 
# 
# From -- ./inp_files/322733.got.cif
#   From: 2010.06.25/outbox.ucp.g09.slc.cvg/sg12_162_cif.got.tgz:322733.got - 2010.06.28 13:50:54.
