data_PCOD8116919
_publ_section_title
;
Structure prediction by ZEFSAII (Michael W. Deem and Ramdas Pophale) SiO2 
 PCOD8116919
Probable space group: P 2/C
;
_chemical_formula_sum "Si O2"
_cell_formula_units_Z 28
_cell_length_a 20.062611
_cell_length_b 14.285149
_cell_length_c 8.254744
_cell_angle_alpha 90.000000
_cell_angle_beta 35.658464
_cell_angle_gamma 90.000000
_cell_volume 1379.141703
_symmetry_space_group_name_H-M "P 2/C"
_symmetry_group_IT_number 13
_symmetry_cell_setting 'monoclinic'
loop_
_space_group_symop_operation_xyz
x,y,z
-x,y,1/2-z
-x,-y,-z
x,-y,1/2+z
loop_
_atom_site_type_symbol
_atom_site_label
_atom_site_fract_x
_atom_site_fract_y
_atom_site_fract_z
Si Si1 0.655410 0.113497 0.286549
Si Si2 0.752576 0.939059 0.256038
Si Si3 0.437670 0.167074 0.540512
Si Si4 0.619134 0.293431 0.567778
Si Si5 0.155293 0.629397 0.935703
Si Si6 0.990430 0.698785 0.016798
Si Si7 0.000000 0.863140 0.750000
Si Si8 0.000000 0.458637 0.250000
O O1 0.522335 0.103402 0.487826
O O2 0.662695 0.214151 0.356061
O O3 0.701381 0.043675 0.336102
O O4 0.735068 0.100665 0.971437
O O5 0.680363 0.884598 0.263359
O O6 0.888091 0.929068 0.948096
O O7 0.397820 0.258527 0.715438
O O8 0.500000 0.195464 0.250000
O O9 0.712276 0.375063 0.373749
O O10 0.500000 0.338591 0.750000
O O11 0.090090 0.705986 0.952914
O O12 0.131818 0.669783 0.163107
O O13 0.108989 0.524639 0.002164
O O14 0.030360 0.609101 0.836344
O O15 0.980733 0.796547 0.942618
#
# Coordination Sequence:
#
# PCOD8116919 Si02
#       8
#     4   4   4   4   4   4   2   2
#     4  10  21  35  51  71  98 136 179 219 252 297
#     4  11  21  34  51  73 102 136 175 217 263 305
#     4   9  19  35  54  72  94 131 181 223 253 294
#     4  10  20  34  53  78 105 133 170 214 260 303
#     4  10  17  32  57  80 105 135 170 210 249 301
#     4   9  19  34  55  80 105 135 171 207 249 303
#     4  11  22  34  49  76 110 136 163 212 268 315
#     4   9  18  34  57  84 106 134 173 206 242 297
#
# _framework density 20.302481
#
# number of rings (size 3 to 8) (size 9 to 14) (size 15 to 20)
#    0.000    2.286    0.000    4.714    0.000    4.571 
#    0.000    2.143    0.000    3.429    0.000    6.000 
#    0.000    0.000    0.000    0.000    0.000    0.000 
#
# Total GULP energy -346881.457590 kJ/mol
# GULP energy per Si atom -12388.623485 kJ/mol
# Density = 2.025627 g / cm^3
# Si number density = 20.302481 Si / 1000 Ang^3
#
#
#
# Elastic Constant Matrix: (Units=GPa)
#
#
# Indices 1 2 3 4 5 6 
#
# 1 76.4553 25.9701 43.0823 0.0000 -10.0736 0.0000
# 2 25.9701 51.3537 27.4157 0.0000 -12.7227 0.0000
# 3 43.0823 27.4157 105.1151 0.0000 -29.2818 0.0000
# 4 0.0000 0.0000 0.0000 20.0669 0.0000 -3.2207
# 5 -10.0736 -12.7227 -29.2818 0.0000 43.5477 0.0000
# 6 0.0000 0.0000 0.0000 -3.2207 0.0000 1.9839
#
#
#
# Elastic Compliance Matrix: (Units=1/GPa)
#
#
# Indices 1 2 3 4 5 6 
#
# 1 0.018688 -0.006453 -0.006518 0.000000 -0.001945 0.000000
# 2 -0.006453 0.025231 -0.002828 0.000000 0.003977 0.000000
# 3 -0.006518 -0.002828 0.015101 0.000000 0.007820 0.000000
# 4 0.000000 0.000000 0.000000 0.067394 0.000000 0.109411
# 5 -0.001945 0.003977 0.007820 0.000000 0.028933 0.000000
# 6 0.000000 0.000000 0.000000 0.109411 0.000000 0.681690
#
#
# Mechanical properties :
#
#
# Convention : Reuss Voigt Hill
#
# Bulk Modulus (GPa) = 36.46730 47.31781 41.89256
# Shear Modulus (GPa) = 5.69621 22.21677 13.95649
#
# Velocity S-wave (km/s) = 1.67683 3.31159 2.62473
# Velocity P-wave (km/s) = 4.66369 6.16273 5.46485
#
# Compressibility (1/GPa) = 0.02742183
#
# Stress axis : x y z
#
# Youngs Moduli (GPa) = 53.50968 39.63350 66.22092
#
# Poissons Ratio (x) = 0.25575 0.43165
# Poissons Ratio (y) = 0.34529 0.18728
# Poissons Ratio (z) = 0.34880 0.11209
#
# Static dielectric constant tensor:
#      x y z
#    x 3.974160 0.000000 0.215540 
#    y 0.000000 3.220150 0.000000 
#    z 0.215540 0.000000 3.873600 
# 
# 
# High freq. dielectric constant tensor:
#      x y z
#    x 1.800730 0.000000 0.011690 
#    y 0.000000 1.750490 0.000000 
#    z 0.011690 0.000000 1.798110 
# 
# From -- ./inp_files/24212.got.cif
#   From: 2010.06.25/outbox.cif.g09.slc.cpg/sg13_13_cif.got.tgz:24212.got - 2010.06.28 04:50:58.
