data_PCOD8116356
_publ_section_title
;
Structure prediction by ZEFSAII (Michael W. Deem and Ramdas Pophale) SiO2 
 PCOD8116356
Probable space group: C 2/M
;
_chemical_formula_sum "Si O2"
_cell_formula_units_Z 24
_cell_length_a 21.000000
_cell_length_b 18.000000
_cell_length_c 21.000000
_cell_angle_alpha 90.000000
_cell_angle_beta 20.000000
_cell_angle_gamma 90.000000
_cell_volume 2714.955898
_symmetry_space_group_name_H-M "C 2/M"
_symmetry_group_IT_number 12
_symmetry_cell_setting 'monoclinic'
loop_
_space_group_symop_operation_xyz
x,y,z
-x,y,-z
-x,-y,-z
x,-y,z
1/2+x,1/2+y,z
1/2-x,1/2+y,-z
1/2-x,1/2-y,-z
1/2+x,1/2-y,z
loop_
_atom_site_type_symbol
_atom_site_label
_atom_site_fract_x
_atom_site_fract_y
_atom_site_fract_z
Si Si1 0.225589 0.342985 0.137910
Si Si2 0.608335 0.588026 0.758442
Si Si3 0.193337 0.835203 0.555060
Si Si4 0.288828 0.695469 0.905052
Si Si5 0.708018 0.080666 0.284466
Si Si6 0.971527 0.587792 0.792066
O O1 0.235007 0.252500 0.131427
O O2 0.208760 0.361555 0.227269
O O3 0.064011 0.375526 0.244548
O O4 0.400733 0.384180 0.942517
O O5 0.630026 0.500000 0.727055
O O6 0.724523 0.632584 0.596875
O O7 0.672792 0.611717 0.768539
O O8 0.250000 0.750000 0.500000
O O9 0.316689 0.887584 0.392906
O O10 0.988037 0.843069 0.720466
O O11 0.250000 0.750000 0.000000
O O12 0.147614 0.626212 0.039622
O O13 0.500000 0.067587 0.500000
O O14 0.789278 0.000000 0.186001
O O15 0.940398 0.500000 0.821648
#
# Coordination Sequence:
#
# PCOD8116356 Si02
#       6
#     8   8   8   8   8   8
#     4  11  19  34  51  70 103 145 175 213 255 307
#     4  11  21  32  50  74 103 140 178 213 252 305
#     4  12  20  34  51  73 103 141 179 214 261 307
#     4  10  20  35  51  73 103 142 174 216 264 308
#     4  10  21  33  46  71 105 141 179 211 247 303
#     4  11  21  33  53  77 104 137 176 219 263 312
#
# _framework density 8.8399230000000006
#
# number of rings (size 3 to 8) (size 9 to 14) (size 15 to 20)
#    0.000    1.167    6.667    3.500    0.000    3.333 
#    0.000    0.000    0.000    0.000    0.000    0.000 
#    0.000   12.667    0.000    0.833    0.000    0.000 
#
# Total GULP energy -297360.691241 kJ/mol
# GULP energy per Si atom -12390.028802 kJ/mol
# Density = 0.881980 g / cm^3
# Si number density = 8.839923 Si / 1000 Ang^3
#
#
#
# Elastic Constant Matrix: (Units=GPa)
#
#
# Indices 1 2 3 4 5 6 
#
# 1 68.6577 55.0666 26.9479 0.0617 7.2853 -0.0060
# 2 55.0666 144.9114 48.9515 -0.0479 14.4688 -0.0282
# 3 26.9479 48.9515 90.3593 -0.1918 -1.1679 0.0286
# 4 0.0617 -0.0479 -0.1918 30.1830 0.0061 6.6584
# 5 7.2853 14.4688 -1.1679 0.0061 14.3231 0.0215
# 6 -0.0060 -0.0282 0.0286 6.6584 0.0215 34.3537
#
#
#
# Elastic Compliance Matrix: (Units=1/GPa)
#
#
# Indices 1 2 3 4 5 6 
#
# 1 0.021601 -0.006833 -0.002796 -0.000076 -0.004312 0.000018
# 2 -0.006833 0.011922 -0.004536 0.000002 -0.008938 0.000018
# 3 -0.002796 -0.004536 0.014451 0.000098 0.007183 -0.000040
# 4 -0.000076 0.000002 0.000098 0.034612 0.000040 -0.006709
# 5 -0.004312 -0.008938 0.007183 0.000040 0.081625 -0.000073
# 6 0.000018 0.000018 -0.000040 -0.006709 -0.000073 0.030409
#
#
# Mechanical properties :
#
#
# Convention : Reuss Voigt Hill
#
# Bulk Modulus (GPa) = 50.90891 62.87338 56.89114
# Shear Modulus (GPa) = 21.78655 27.30280 24.54467
#
# Velocity S-wave (km/s) = 3.51420 3.93401 3.73001
# Velocity P-wave (km/s) = 6.73227 7.50164 7.12734
#
# Compressibility (1/GPa) = 0.01964293
#
# Stress axis : x y z
#
# Youngs Moduli (GPa) = 46.29493 83.87681 69.19743
#
# Poissons Ratio (x) = 0.57315 0.19348
# Poissons Ratio (y) = 0.31635 0.31391
# Poissons Ratio (z) = 0.12944 0.38050
#
# Static dielectric constant tensor:
#      x y z
#    x 2.992480 0.002730 -0.515860 
#    y 0.002730 3.698470 0.002160 
#    z -0.515860 0.002160 3.481670 
# 
# 
# High freq. dielectric constant tensor:
#      x y z
#    x 1.630230 -0.000010 -0.012240 
#    y -0.000010 1.676470 0.000030 
#    z -0.012240 0.000030 1.700990 
# 
# From -- ./inp_files/322529.got.cif
#   From: 2010.06.25/outbox.ucp.g09.slc.cvg/sg12_162_cif.got.tgz:322529.got - 2010.06.28 13:50:54.
