data_PCOD8116583
_publ_section_title
;
Structure prediction by ZEFSAII (Michael W. Deem and Ramdas Pophale) SiO2 
 PCOD8116583
Probable space group: C 2/M
;
_chemical_formula_sum "Si O2"
_cell_formula_units_Z 24
_cell_length_a 27.000000
_cell_length_b 21.000000
_cell_length_c 12.000000
_cell_angle_alpha 90.000000
_cell_angle_beta 20.000000
_cell_angle_gamma 90.000000
_cell_volume 2327.105055
_symmetry_space_group_name_H-M "C 2/M"
_symmetry_group_IT_number 12
_symmetry_cell_setting 'monoclinic'
loop_
_space_group_symop_operation_xyz
x,y,z
-x,y,-z
-x,-y,-z
x,-y,z
1/2+x,1/2+y,z
1/2-x,1/2+y,-z
1/2-x,1/2-y,-z
1/2+x,1/2-y,z
loop_
_atom_site_type_symbol
_atom_site_label
_atom_site_fract_x
_atom_site_fract_y
_atom_site_fract_z
Si Si1 0.165872 0.927460 0.629914
Si Si2 0.956631 0.696024 0.218655
Si Si3 0.159064 0.927090 0.118800
Si Si4 0.174315 0.314685 0.118318
Si Si5 0.207687 0.571984 0.393961
Si Si6 0.744966 0.188081 0.714568
O O1 0.233054 0.915721 0.608514
O O2 0.225141 0.878041 0.413606
O O3 0.194450 0.000000 0.527614
O O4 0.000000 0.913671 0.000000
O O5 0.905556 0.629363 0.383364
O O6 0.852640 0.755822 0.453071
O O7 0.000000 0.683678 0.000000
O O8 0.094134 0.717820 0.996992
O O9 0.000000 0.908289 0.500000
O O10 0.196285 0.000000 0.077396
O O11 0.275681 0.877117 0.919338
O O12 0.167847 0.922513 0.964746
O O13 0.000000 0.308491 0.500000
O O14 0.250000 0.250000 0.000000
O O15 0.234177 0.326280 0.867783
O O16 0.138707 0.500000 0.532940
#
# Coordination Sequence:
#
# PCOD8116583 Si02
#       6
#     8   8   8   8   8   8
#     4  10  23  41  65  99 133 168 211 266 326 382
#     4  12  25  43  65  97 132 167 211 263 326 389
#     4  10  23  43  69  99 131 174 220 266 321 385
#     4  12  26  46  67  95 132 173 223 271 324 386
#     4  10  22  42  67  94 132 171 214 264 320 387
#     4  12  26  42  68  97 130 170 214 269 323 385
#
# _framework density 10.313243
#
# number of rings (size 3 to 8) (size 9 to 14) (size 15 to 20)
#    0.000    1.000    1.667    4.500    4.667    2.000 
#    0.000    0.000    0.000    0.000    0.000    0.000 
#    0.000    0.000    0.000    0.000    0.000    0.000 
#
# Total GULP energy -297476.289845 kJ/mol
# GULP energy per Si atom -12394.845410 kJ/mol
# Density = 1.028977 g / cm^3
# Si number density = 10.313243 Si / 1000 Ang^3
#
#
#
# Elastic Constant Matrix: (Units=GPa)
#
#
# Indices 1 2 3 4 5 6 
#
# 1 108.7393 56.0060 51.9921 0.0013 23.4415 -0.0016
# 2 56.0060 173.2656 78.7876 -0.0034 2.9756 -0.0009
# 3 51.9921 78.7876 139.0131 0.0075 9.0988 -0.0008
# 4 0.0013 -0.0034 0.0075 33.3363 0.0009 1.3699
# 5 23.4415 2.9756 9.0988 0.0009 52.2888 0.0018
# 6 -0.0016 -0.0009 -0.0008 1.3699 0.0018 36.9436
#
#
#
# Elastic Compliance Matrix: (Units=1/GPa)
#
#
# Indices 1 2 3 4 5 6 
#
# 1 0.013212 -0.002815 -0.003003 0.000000 -0.005240 0.000001
# 2 -0.002815 0.008381 -0.003792 0.000002 0.001445 0.000000
# 3 -0.003003 -0.003792 0.010483 -0.000003 -0.000262 0.000000
# 4 0.000000 0.000002 -0.000003 0.030043 0.000000 -0.001114
# 5 -0.005240 0.001445 -0.000262 0.000000 0.021437 -0.000001
# 6 0.000001 0.000000 0.000000 -0.001114 -0.000001 0.027110
#
#
# Mechanical properties :
#
#
# Convention : Reuss Voigt Hill
#
# Bulk Modulus (GPa) = 77.78383 88.28772 83.03578
# Shear Modulus (GPa) = 37.26637 40.12922 38.69780
#
# Velocity S-wave (km/s) = 4.25517 4.41559 4.33612
# Velocity P-wave (km/s) = 7.86985 8.30016 8.08786
#
# Compressibility (1/GPa) = 0.01285614
#
# Stress axis : x y z
#
# Youngs Moduli (GPa) = 75.69116 119.32126 95.39484
#
# Poissons Ratio (x) = 0.33590 0.28645
# Poissons Ratio (y) = 0.21308 0.36170
# Poissons Ratio (z) = 0.22728 0.45242
#
# Static dielectric constant tensor:
#      x y z
#    x 3.878170 0.000000 0.204270 
#    y 0.000000 4.139260 0.000010 
#    z 0.204270 0.000010 3.953490 
# 
# 
# High freq. dielectric constant tensor:
#      x y z
#    x 1.813850 0.000000 0.019870 
#    y 0.000000 1.842980 0.000000 
#    z 0.019870 0.000000 1.821410 
# 
# From -- ./inp_files/184789.got.cif
#   From: 2010.06.25/outbox.ucp.g09.slc.cvg/sg12_93_cif.got.tgz:184789.got - 2010.06.28 13:50:54.
