data_PCOD8116524
_publ_section_title
;
Structure prediction by ZEFSAII (Michael W. Deem and Ramdas Pophale) SiO2 
 PCOD8116524
Probable space group: C 2/M
;
_chemical_formula_sum "Si O2"
_cell_formula_units_Z 32
_cell_length_a 18.000000
_cell_length_b 9.000000
_cell_length_c 30.000000
_cell_angle_alpha 90.000000
_cell_angle_beta 40.000000
_cell_angle_gamma 90.000000
_cell_volume 3123.947783
_symmetry_space_group_name_H-M "C 2/M"
_symmetry_group_IT_number 12
_symmetry_cell_setting 'monoclinic'
loop_
_space_group_symop_operation_xyz
x,y,z
-x,y,-z
-x,-y,-z
x,-y,z
1/2+x,1/2+y,z
1/2-x,1/2+y,-z
1/2-x,1/2-y,-z
1/2+x,1/2-y,z
loop_
_atom_site_type_symbol
_atom_site_label
_atom_site_fract_x
_atom_site_fract_y
_atom_site_fract_z
Si Si1 0.449794 0.174300 0.570677
Si Si2 0.534305 0.828667 0.933432
Si Si3 0.128536 0.676350 0.564036
Si Si4 0.126825 0.176343 0.062853
Si Si5 0.268558 0.165364 0.291872
Si Si6 0.972005 0.330039 0.712513
Si Si7 0.522089 0.832836 0.195089
Si Si8 0.720756 0.330127 0.800770
O O1 0.500000 0.221735 0.500000
O O2 0.542597 0.225082 0.564425
O O3 0.329596 0.257421 0.633785
O O4 0.423935 0.000000 0.585200
O O5 0.451051 0.727859 0.942283
O O6 0.663691 0.765052 0.867056
O O7 0.527342 0.000000 0.921197
O O8 0.500000 0.810406 0.000000
O O9 0.142366 0.500000 0.558674
O O10 0.250000 0.750000 0.500000
O O11 0.076042 0.737961 0.635022
O O12 0.068366 0.225880 0.135678
O O13 0.139740 0.000000 0.056772
O O14 0.250000 0.250000 0.000000
O O15 0.384980 0.155750 0.266455
O O16 0.316564 0.260397 0.228516
O O17 0.226863 0.000000 0.296581
O O18 0.002764 0.500000 0.708599
O O19 0.941966 0.257416 0.774142
O O20 0.857993 0.316653 0.735407
O O21 0.572826 0.000000 0.163686
O O22 0.678600 0.500000 0.824021
#
# Coordination Sequence:
#
# PCOD8116524 Si02
#       8
#     8   8   8   8   8   8   8   8
#     4  10  22  40  61  85 119 160 203 252 308 367
#     4  11  25  44  65  94 130 163 204 260 312 364
#     4  10  21  39  59  84 118 156 196 244 299 359
#     4  12  26  44  66  92 126 168 209 254 310 373
#     4  11  22  37  62  90 121 158 202 256 309 361
#     4   9  20  39  62  87 119 160 201 245 303 365
#     4  10  22  41  63  90 123 161 202 253 310 365
#     4  11  21  39  66  91 120 160 207 253 303 367
#
# _framework density 10.243449
#
# number of rings (size 3 to 8) (size 9 to 14) (size 15 to 20)
#    0.000    1.500    2.500    2.250    3.500    2.250 
#    0.000    1.250    0.000    0.000    0.000    0.000 
#    0.000    0.000    0.000    0.000    0.000    0.000 
#
# Total GULP energy -396659.023927 kJ/mol
# GULP energy per Si atom -12395.594498 kJ/mol
# Density = 1.022013 g / cm^3
# Si number density = 10.243449 Si / 1000 Ang^3
#
#
#
# Elastic Constant Matrix: (Units=GPa)
#
#
# Indices 1 2 3 4 5 6 
#
# 1 63.7481 31.9598 41.4538 0.0001 11.0512 0.0027
# 2 31.9598 109.1129 64.6176 0.0016 5.8128 0.0041
# 3 41.4538 64.6176 158.7989 -0.0001 3.8771 0.0001
# 4 0.0001 0.0016 -0.0001 35.5182 0.0001 -9.2223
# 5 11.0512 5.8128 3.8771 0.0001 29.9512 0.0017
# 6 0.0027 0.0041 0.0001 -9.2223 0.0017 15.4138
#
#
#
# Elastic Compliance Matrix: (Units=1/GPa)
#
#
# Indices 1 2 3 4 5 6 
#
# 1 0.021151 -0.003516 -0.003929 -0.000001 -0.006613 -0.000002
# 2 -0.003516 0.012747 -0.004254 -0.000001 -0.000626 -0.000004
# 3 -0.003929 -0.004254 0.009027 0.000001 0.001107 0.000002
# 4 -0.000001 -0.000001 0.000001 0.033333 -0.000001 0.019943
# 5 -0.006613 -0.000626 0.001107 -0.000001 0.035806 -0.000003
# 6 -0.000002 -0.000004 0.000002 0.019943 -0.000003 0.076809
#
#
# Mechanical properties :
#
#
# Convention : Reuss Voigt Hill
#
# Bulk Modulus (GPa) = 51.21150 67.52471 59.36811
# Shear Modulus (GPa) = 22.85396 29.08521 25.96959
#
# Velocity S-wave (km/s) = 3.34359 3.77198 3.56423
# Velocity P-wave (km/s) = 6.32120 7.21123 6.78084
#
# Compressibility (1/GPa) = 0.01952686
#
# Stress axis : x y z
#
# Youngs Moduli (GPa) = 47.27913 78.44840 110.77972
#
# Poissons Ratio (x) = 0.27583 0.43527
# Poissons Ratio (y) = 0.16624 0.47125
# Poissons Ratio (z) = 0.18577 0.33371
#
# Static dielectric constant tensor:
#      x y z
#    x 3.621300 -0.000690 -0.013640 
#    y -0.000690 8.502270 0.000390 
#    z -0.013640 0.000390 3.855170 
# 
# 
# High freq. dielectric constant tensor:
#      x y z
#    x 1.792760 0.000000 0.002480 
#    y 0.000000 1.788380 0.000000 
#    z 0.002480 0.000000 1.819700 
# 
# From -- ./inp_files/378171.got.cif
#   From: 2010.06.25/outbox.ucp.g09.slc.cvg/sg12_190_cif.got.tgz:378171.got - 2010.06.28 13:50:54.
