data_PCOD8116544
_publ_section_title
;
Structure prediction by ZEFSAII (Michael W. Deem and Ramdas Pophale) SiO2 
 PCOD8116544
Probable space group: C 2/M
;
_chemical_formula_sum "Si O2"
_cell_formula_units_Z 32
_cell_length_a 18.000000
_cell_length_b 30.000000
_cell_length_c 9.000000
_cell_angle_alpha 90.000000
_cell_angle_beta 140.000000
_cell_angle_gamma 90.000000
_cell_volume 3123.947783
_symmetry_space_group_name_H-M "C 2/M"
_symmetry_group_IT_number 12
_symmetry_cell_setting 'monoclinic'
loop_
_space_group_symop_operation_xyz
x,y,z
-x,y,-z
-x,-y,-z
x,-y,z
1/2+x,1/2+y,z
1/2-x,1/2+y,-z
1/2-x,1/2-y,-z
1/2+x,1/2-y,z
loop_
_atom_site_type_symbol
_atom_site_label
_atom_site_fract_x
_atom_site_fract_y
_atom_site_fract_z
Si Si1 0.967505 0.800816 0.789968
Si Si2 0.123798 0.249229 0.620002
Si Si3 0.874176 0.892224 0.593354
Si Si4 0.101776 0.050616 0.896663
Si Si5 0.241772 0.901773 0.885298
Si Si6 0.028654 0.448459 0.874793
Si Si7 0.224435 0.449108 0.575512
Si Si8 0.794805 0.185417 0.008323
O O1 0.894376 0.765419 0.579722
O O2 0.892560 0.845223 0.704480
O O3 0.000000 0.779264 0.000000
O O4 0.080151 0.816835 0.874276
O O5 0.203467 0.293161 0.752562
O O6 0.000000 0.260290 0.500000
O O7 0.193550 0.211863 0.818705
O O8 0.828360 0.881506 0.359581
O O9 0.773245 0.919190 0.518399
O O10 0.993497 0.919236 0.773483
O O11 0.157804 0.059732 0.821495
O O12 0.058324 0.000000 0.837486
O O13 0.205274 0.060504 0.168744
O O14 0.368278 0.919212 0.035267
O O15 0.252647 0.863544 0.026819
O O16 0.066564 0.500000 0.922516
O O17 0.911142 0.438887 0.602021
O O18 0.000000 0.435026 0.000000
O O19 0.237261 0.500000 0.541222
#
# Coordination Sequence:
#
# PCOD8116544 Si02
#       8
#     8   8   8   8   8   8   8   8
#     4  11  22  38  66  97 128 164 206 260 330 392
#     4   9  20  41  68  89 121 166 205 254 324 397
#     4  12  22  37  61  92 130 168 210 261 319 386
#     4  11  24  37  57  93 129 168 213 264 316 373
#     4  12  23  38  63  91 127 165 218 271 313 377
#     4  10  21  40  63  87 123 177 225 264 318 375
#     4  10  22  41  61  84 127 178 217 263 320 379
#     4  10  21  41  63  92 126 163 209 257 325 387
#
# _framework density 10.243449
#
# number of rings (size 3 to 8) (size 9 to 14) (size 15 to 20)
#    0.000    1.375    3.750    2.250    0.000    4.000 
#    2.250    1.875    0.000    3.000    0.000    0.000 
#    0.000    0.000    0.000    0.000    0.000    0.000 
#
# Total GULP energy -396844.404950 kJ/mol
# GULP energy per Si atom -12401.387655 kJ/mol
# Density = 1.022013 g / cm^3
# Si number density = 10.243449 Si / 1000 Ang^3
#
#
#
# Elastic Constant Matrix: (Units=GPa)
#
#
# Indices 1 2 3 4 5 6 
#
# 1 53.5863 18.6835 19.4458 0.0000 -1.1888 0.0000
# 2 18.6835 78.1942 43.3129 0.0000 0.2439 0.0000
# 3 19.4458 43.3129 120.1791 0.0000 -1.1290 0.0000
# 4 0.0000 0.0000 0.0000 28.1102 0.0000 -2.0388
# 5 -1.1888 0.2439 -1.1290 0.0000 41.3384 0.0000
# 6 0.0000 0.0000 0.0000 -2.0388 0.0000 22.6571
#
#
#
# Elastic Compliance Matrix: (Units=1/GPa)
#
#
# Indices 1 2 3 4 5 6 
#
# 1 0.020734 -0.003874 -0.001953 0.000000 0.000566 0.000000
# 2 -0.003874 0.016705 -0.005397 0.000000 -0.000357 0.000000
# 3 -0.001953 -0.005397 0.010585 0.000000 0.000265 0.000000
# 4 0.000000 0.000000 0.000000 0.035808 0.000000 0.003222
# 5 0.000566 -0.000357 0.000265 0.000000 0.024216 0.000000
# 6 0.000000 0.000000 0.000000 0.003222 0.000000 0.044426
#
#
# Mechanical properties :
#
#
# Convention : Reuss Voigt Hill
#
# Bulk Modulus (GPa) = 39.10132 46.09380 42.59756
# Shear Modulus (GPa) = 27.25588 29.78896 28.52242
#
# Velocity S-wave (km/s) = 3.65143 3.81734 3.73530
# Velocity P-wave (km/s) = 6.07492 6.47900 6.28021
#
# Compressibility (1/GPa) = 0.02557458
#
# Stress axis : x y z
#
# Youngs Moduli (GPa) = 48.23104 59.86277 94.47697
#
# Poissons Ratio (x) = 0.23189 0.18455
# Poissons Ratio (y) = 0.18684 0.50990
# Poissons Ratio (z) = 0.09421 0.32308
#
# Static dielectric constant tensor:
#      x y z
#    x 3.619710 0.000000 0.010690 
#    y 0.000000 3.601750 0.000000 
#    z 0.010690 0.000000 3.989040 
# 
# 
# High freq. dielectric constant tensor:
#      x y z
#    x 1.793600 0.000000 0.004700 
#    y 0.000000 1.788330 0.000000 
#    z 0.004700 0.000000 1.818260 
# 
# From -- ./inp_files/80794.got.cif
#   From: 2010.06.25/outbox.ucp.g09.slc.cvg/sg12_41_cif.got.tgz:80794.got - 2010.06.28 13:50:54.
