data_PCOD8116814
_publ_section_title
;
Structure prediction by ZEFSAII (Michael W. Deem and Ramdas Pophale) SiO2 
 PCOD8116814
Probable space group: P 2/C
;
_chemical_formula_sum "Si O2"
_cell_formula_units_Z 18
_cell_length_a 5.346736
_cell_length_b 11.248187
_cell_length_c 14.037878
_cell_angle_alpha 90.000000
_cell_angle_beta 119.904266
_cell_angle_gamma 90.000000
_cell_volume 731.849046
_symmetry_space_group_name_H-M "P 2/C"
_symmetry_group_IT_number 13
_symmetry_cell_setting 'monoclinic'
loop_
_space_group_symop_operation_xyz
x,y,z
-x,y,1/2-z
-x,-y,-z
x,-y,1/2+z
loop_
_atom_site_type_symbol
_atom_site_label
_atom_site_fract_x
_atom_site_fract_y
_atom_site_fract_z
Si Si1 0.470758 0.859970 0.623613
Si Si2 0.008273 0.233425 0.585786
Si Si3 0.024669 0.736087 0.877460
Si Si4 0.843786 0.511897 0.069930
Si Si5 0.500000 0.920635 0.250000
O O1 0.781585 0.801523 0.664773
O O2 0.280986 0.844385 0.491031
O O3 0.293715 0.796727 0.678531
O O4 0.506697 0.998652 0.655931
O O5 0.159023 0.257680 0.510719
O O6 0.217363 0.161583 0.695315
O O7 0.925217 0.356616 0.623990
O O8 0.022597 0.597411 0.843500
O O9 0.500000 0.500000 0.000000
O O10 0.000000 0.500000 0.000000
#
# Coordination Sequence:
#
# PCOD8116814 Si02
#       5
#     4   4   4   4   2
#     4  10  22  41  61  90 129 172 217 259 319 390
#     4   9  22  39  66  95 129 169 217 267 332 378
#     4   9  19  40  66  90 120 169 214 269 332 379
#     4  10  16  35  69  92 117 158 213 270 330 387
#     4  12  24  44  58 100 138 180 220 270 310 400
#
# _framework density 24.595234000000001
#
# number of rings (size 3 to 8) (size 9 to 14) (size 15 to 20)
#    1.333    0.889    2.222    0.667    0.000    1.778 
#    4.000    1.111    0.000    0.000    0.000    0.000 
#    0.000    0.000    0.000    0.000    0.000    0.000 
#
# Total GULP energy -222987.321962 kJ/mol
# GULP energy per Si atom -12388.184553 kJ/mol
# Density = 2.453925 g / cm^3
# Si number density = 24.595234 Si / 1000 Ang^3
#
#
#
# Elastic Constant Matrix: (Units=GPa)
#
#
# Indices 1 2 3 4 5 6 
#
# 1 166.4955 59.0449 41.6768 0.0000 33.0081 0.0000
# 2 59.0449 224.4986 62.1873 0.0000 44.1481 0.0000
# 3 41.6768 62.1873 73.9869 0.0000 33.3040 0.0000
# 4 0.0000 0.0000 0.0000 -2.1852 0.0000 18.6570
# 5 33.0081 44.1481 33.3040 0.0000 37.2984 0.0000
# 6 0.0000 0.0000 0.0000 18.6570 0.0000 41.7352
#
#
#
# Elastic Compliance Matrix: (Units=1/GPa)
#
#
# Indices 1 2 3 4 5 6 
#
# 1 0.007533 -0.000643 -0.001747 0.000000 -0.004346 0.000000
# 2 -0.000643 0.006284 -0.003056 0.000000 -0.004141 0.000000
# 3 -0.001747 -0.003056 0.024653 0.000000 -0.016850 0.000000
# 4 0.000000 0.000000 0.000000 -0.095008 0.000000 0.042472
# 5 -0.004346 -0.004141 -0.016850 0.000000 0.050603 0.000000
# 6 0.000000 0.000000 0.000000 0.042472 0.000000 0.004974
#
#
# Mechanical properties :
#
#
# Convention : Reuss Voigt Hill
#
# Bulk Modulus (GPa) = 36.25917 87.86659 62.06288
# Shear Modulus (GPa) = 261.43619 35.50781 148.47200
#
# Velocity S-wave (km/s) = 10.32115 3.80371 7.77800
# Velocity P-wave (km/s) = 12.52235 7.42250 10.29327
#
# Compressibility (1/GPa) = 0.02757923
#
# Stress axis : x y z
#
# Youngs Moduli (GPa) = 132.75001 159.12806 40.56249
#
# Poissons Ratio (x) = 0.10227 0.07086
# Poissons Ratio (y) = 0.08532 0.12396
# Poissons Ratio (z) = 0.23189 0.48631
#
# Static dielectric constant tensor:
#      x y z
#    x 4.212450 0.000000 0.083620 
#    y 0.000000 4.859090 0.000000 
#    z 0.083620 0.000000 3.951940 
# 
# 
# High freq. dielectric constant tensor:
#      x y z
#    x 1.980670 0.000000 0.004600 
#    y 0.000000 1.984310 0.000000 
#    z 0.004600 0.000000 1.963640 
# 
# From -- ./inp_files/60974.got.cif
#   From: 2010.06.25/outbox.cif.g09.slc.cpg/sg13_31_cif.got.tgz:60974.got - 2010.06.28 04:50:58.
