data_PCOD8116238
_publ_section_title
;
Structure prediction by ZEFSAII (Michael W. Deem and Ramdas Pophale) SiO2 
 PCOD8116238
Probable space group: C 2/M
;
_chemical_formula_sum "Si O2"
_cell_formula_units_Z 28
_cell_length_a 27.000000
_cell_length_b 9.000000
_cell_length_c 18.000000
_cell_angle_alpha 90.000000
_cell_angle_beta 140.000000
_cell_angle_gamma 90.000000
_cell_volume 2811.553005
_symmetry_space_group_name_H-M "C 2/M"
_symmetry_group_IT_number 12
_symmetry_cell_setting 'monoclinic'
loop_
_space_group_symop_operation_xyz
x,y,z
-x,y,-z
-x,-y,-z
x,-y,z
1/2+x,1/2+y,z
1/2-x,1/2+y,-z
1/2-x,1/2-y,-z
1/2+x,1/2-y,z
loop_
_atom_site_type_symbol
_atom_site_label
_atom_site_fract_x
_atom_site_fract_y
_atom_site_fract_z
Si Si1 0.590712 0.827644 0.832106
Si Si2 0.317408 0.674493 0.765947
Si Si3 0.185729 0.330440 0.805745
Si Si4 0.666023 0.331300 0.638431
Si Si5 0.863119 0.168274 0.974402
Si Si6 0.054469 0.169155 0.376904
Si Si7 0.328118 0.673530 0.612673
O O1 0.661505 0.775143 0.860451
O O2 0.516378 0.780081 0.700629
O O3 0.593417 0.000000 0.849448
O O4 0.585980 0.757468 0.908701
O O5 0.303467 0.500000 0.760229
O O6 0.234531 0.748530 0.675239
O O7 0.370617 0.727156 0.897307
O O8 0.353750 0.713129 0.727236
O O9 0.159397 0.500000 0.765145
O O10 0.144116 0.237033 0.693108
O O11 0.276247 0.310967 0.901693
O O12 0.691833 0.500000 0.680621
O O13 0.593141 0.319006 0.501423
O O14 0.891787 0.000000 0.011643
O O15 0.107098 0.227254 0.369609
O O16 0.028183 0.000000 0.331112
O O17 0.313338 0.500000 0.587366
O O18 0.250000 0.750000 0.500000
#
# Coordination Sequence:
#
# PCOD8116238 Si02
#       7
#     8   8   8   8   8   8   8
#     4  11  23  37  54  77 105 143 185 224 266 313
#     4   9  18  33  56  83 109 139 174 217 268 316
#     4   9  20  37  56  79 106 138 180 222 267 322
#     4  10  19  32  53  82 110 138 176 220 266 314
#     4   9  18  35  57  79 105 137 175 221 270 318
#     4  10  22  37  52  77 113 146 177 215 264 322
#     4  10  19  34  57  83 110 140 177 217 261 316
#
# _framework density 9.9589090000000002
#
# number of rings (size 3 to 8) (size 9 to 14) (size 15 to 20)
#    0.000    2.286    1.429    2.143    0.000    5.714 
#    0.000    3.571    0.000    4.286    0.000    0.000 
#    0.000    0.000    0.000    0.000    0.000    0.000 
#
# Total GULP energy -347053.761598 kJ/mol
# GULP energy per Si atom -12394.777200 kJ/mol
# Density = 0.993624 g / cm^3
# Si number density = 9.958909 Si / 1000 Ang^3
#
#
#
# Elastic Constant Matrix: (Units=GPa)
#
#
# Indices 1 2 3 4 5 6 
#
# 1 32.2780 19.6174 11.7587 0.0000 -18.0132 0.0000
# 2 19.6174 23.4471 25.3711 0.0000 -13.5285 0.0000
# 3 11.7587 25.3711 64.1130 0.0000 -24.3280 0.0000
# 4 0.0000 0.0000 0.0000 31.2951 0.0000 -4.1182
# 5 -18.0132 -13.5285 -24.3280 0.0000 28.9493 0.0000
# 6 0.0000 0.0000 0.0000 -4.1182 0.0000 22.9454
#
#
#
# Elastic Compliance Matrix: (Units=1/GPa)
#
#
# Indices 1 2 3 4 5 6 
#
# 1 0.112769 -0.109625 0.043877 0.000000 0.055811 0.000000
# 2 -0.109625 0.185713 -0.068031 0.000000 -0.038596 0.000000
# 3 0.043877 -0.068031 0.048109 0.000000 0.035938 0.000000
# 4 0.000000 0.000000 0.000000 0.032727 0.000000 0.005874
# 5 0.055811 -0.038596 0.035938 0.000000 0.081435 0.000000
# 6 0.000000 0.000000 0.000000 0.005874 0.000000 0.044636
#
#
# Mechanical properties :
#
#
# Convention : Reuss Voigt Hill
#
# Bulk Modulus (GPa) = 12.65306 25.92584 19.28945
# Shear Modulus (GPa) = 6.25554 20.84402 13.54978
#
# Velocity S-wave (km/s) = 1.77412 3.23848 2.61106
# Velocity P-wave (km/s) = 3.25009 5.19888 4.33540
#
# Compressibility (1/GPa) = 0.07903228
#
# Stress axis : x y z
#
# Youngs Moduli (GPa) = 8.86766 5.38466 20.78634
#
# Poissons Ratio (x) = 0.59030 -0.91203
# Poissons Ratio (y) = 0.97212 1.41411
# Poissons Ratio (z) = -0.38908 0.36632
#
# Static dielectric constant tensor:
#      x y z
#    x 3.882310 0.000000 -0.527110 
#    y 0.000000 3.539040 0.000000 
#    z -0.527110 0.000000 3.597240 
# 
# 
# High freq. dielectric constant tensor:
#      x y z
#    x 1.771340 0.000000 -0.033810 
#    y 0.000000 1.762420 0.000000 
#    z -0.033810 0.000000 1.766650 
# 
# From -- ./inp_files/280917.got.cif
#   From: 2010.06.25/outbox.ucp.g09.slc.cvg/sg12_141_cif.got.tgz:280917.got - 2010.06.28 13:50:54.
