data_PCOD8116573
_publ_section_title
;
Structure prediction by ZEFSAII (Michael W. Deem and Ramdas Pophale) SiO2 
 PCOD8116573
Probable space group: C 2/M
;
_chemical_formula_sum "Si O2"
_cell_formula_units_Z 32
_cell_length_a 18.000000
_cell_length_b 9.000000
_cell_length_c 30.000000
_cell_angle_alpha 90.000000
_cell_angle_beta 40.000000
_cell_angle_gamma 90.000000
_cell_volume 3123.947783
_symmetry_space_group_name_H-M "C 2/M"
_symmetry_group_IT_number 12
_symmetry_cell_setting 'monoclinic'
loop_
_space_group_symop_operation_xyz
x,y,z
-x,y,-z
-x,-y,-z
x,-y,z
1/2+x,1/2+y,z
1/2-x,1/2+y,-z
1/2-x,1/2-y,-z
1/2+x,1/2-y,z
loop_
_atom_site_type_symbol
_atom_site_label
_atom_site_fract_x
_atom_site_fract_y
_atom_site_fract_z
Si Si1 0.269558 0.166494 0.074404
Si Si2 0.075210 0.324321 0.700302
Si Si3 0.982540 0.329329 0.581172
Si Si4 0.089682 0.176588 0.295816
Si Si5 0.970852 0.169907 0.931872
Si Si6 0.186289 0.671047 0.422689
Si Si7 0.512184 0.333652 0.173842
Si Si8 0.721102 0.328697 0.841245
O O1 0.149981 0.165838 0.103201
O O2 0.234799 0.267404 0.132217
O O3 0.304983 0.000000 0.073282
O O4 0.368764 0.227362 0.996483
O O5 0.061259 0.500000 0.701542
O O6 0.204989 0.279665 0.627649
O O7 0.989972 0.241043 0.706359
O O8 0.043452 0.279005 0.765393
O O9 0.983224 0.500000 0.596893
O O10 0.958727 0.224361 0.633997
O O11 0.882891 0.303119 0.590994
O O12 0.105817 0.288831 0.502135
O O13 0.218918 0.239041 0.227136
O O14 0.090690 0.000000 0.292715
O O15 0.024463 0.213696 0.858992
O O16 0.083696 0.192007 0.910185
O O17 0.926534 0.000000 0.952974
O O18 0.226861 0.500000 0.407444
O O19 0.468585 0.500000 0.206476
O O20 0.756137 0.500000 0.819172
#
# Coordination Sequence:
#
# PCOD8116573 Si02
#       8
#     8   8   8   8   8   8   8   8
#     4  11  22  38  62  88 119 158 200 253 307 359
#     4  12  25  40  62  91 123 164 208 252 303 362
#     4   9  20  41  68  96 125 163 203 242 297 362
#     4  12  25  41  62  89 124 164 204 256 309 356
#     4  10  23  40  61  87 117 158 204 248 301 366
#     4   9  20  41  68  95 127 163 200 245 298 358
#     4  10  22  41  61  86 120 161 203 249 306 360
#     4  11  23  40  61  87 119 160 205 251 301 364
#
# _framework density 10.243449
#
# number of rings (size 3 to 8) (size 9 to 14) (size 15 to 20)
#    0.000    1.500    1.250    4.500    1.750    5.000 
#    0.000    1.250    0.000    0.000    0.000    0.000 
#    0.000    0.000    0.000    0.000    0.000    0.000 
#
# Total GULP energy -396770.330482 kJ/mol
# GULP energy per Si atom -12399.072828 kJ/mol
# Density = 1.022013 g / cm^3
# Si number density = 10.243449 Si / 1000 Ang^3
#
#
#
# Elastic Constant Matrix: (Units=GPa)
#
#
# Indices 1 2 3 4 5 6 
#
# 1 28.1580 25.2335 14.6944 0.0005 1.8521 0.0027
# 2 25.2335 145.3175 60.5552 0.0005 2.7954 0.0021
# 3 14.6944 60.5552 124.2629 -0.0004 1.4203 -0.0002
# 4 0.0005 0.0005 -0.0004 44.9493 -0.0002 2.1393
# 5 1.8521 2.7954 1.4203 -0.0002 33.1000 -0.0003
# 6 0.0027 0.0021 -0.0002 2.1393 -0.0003 27.0252
#
#
#
# Elastic Compliance Matrix: (Units=1/GPa)
#
#
# Indices 1 2 3 4 5 6 
#
# 1 0.042473 -0.006597 -0.001788 0.000000 -0.001743 -0.000004
# 2 -0.006597 0.009669 -0.003929 0.000000 -0.000279 0.000000
# 3 -0.001788 -0.003929 0.010174 0.000000 -0.000005 0.000001
# 4 0.000000 0.000000 0.000000 0.022331 0.000000 -0.001768
# 5 -0.001743 -0.000279 -0.000005 0.000000 0.030333 0.000001
# 6 -0.000004 0.000000 0.000001 -0.001768 0.000001 0.037143
#
#
# Mechanical properties :
#
#
# Convention : Reuss Voigt Hill
#
# Bulk Modulus (GPa) = 26.53282 55.41166 40.97224
# Shear Modulus (GPa) = 26.41133 34.16525 30.28829
#
# Velocity S-wave (km/s) = 3.59441 4.08813 3.84920
# Velocity P-wave (km/s) = 5.49597 7.02779 6.30855
#
# Compressibility (1/GPa) = 0.03768917
#
# Stress axis : x y z
#
# Youngs Moduli (GPa) = 23.54436 103.41805 98.29433
#
# Poissons Ratio (x) = 0.68221 0.17575
# Poissons Ratio (y) = 0.15531 0.38618
# Poissons Ratio (z) = 0.04210 0.40631
#
# Static dielectric constant tensor:
#      x y z
#    x 3.616930 0.000000 -0.029110 
#    y 0.000000 3.717560 0.000000 
#    z -0.029110 0.000000 3.837220 
# 
# 
# High freq. dielectric constant tensor:
#      x y z
#    x 1.794890 0.000000 0.000840 
#    y 0.000000 1.800690 0.000000 
#    z 0.000840 0.000000 1.822550 
# 
# From -- ./inp_files/377969.got.cif
#   From: 2010.06.25/outbox.ucp.g09.slc.cvg/sg12_189_cif.got.tgz:377969.got - 2010.06.28 13:50:54.
