data_PCOD8116129
_publ_section_title
;
Structure prediction by ZEFSAII (Michael W. Deem and Ramdas Pophale) SiO2 
 PCOD8116129
Probable space group: C 2/M
;
_chemical_formula_sum "Si O2"
_cell_formula_units_Z 64
_cell_length_a 23.291867
_cell_length_b 21.409640
_cell_length_c 9.229784
_cell_angle_alpha 90.000000
_cell_angle_beta 66.654898
_cell_angle_gamma 90.000000
_cell_volume 4225.826093
_symmetry_space_group_name_H-M "C 2/M"
_symmetry_group_IT_number 12
_symmetry_cell_setting 'monoclinic'
loop_
_space_group_symop_operation_xyz
x,y,z
-x,y,-z
-x,-y,-z
x,-y,z
1/2+x,1/2+y,z
1/2-x,1/2+y,-z
1/2-x,1/2-y,-z
1/2+x,1/2-y,z
loop_
_atom_site_type_symbol
_atom_site_label
_atom_site_fract_x
_atom_site_fract_y
_atom_site_fract_z
Si Si1 0.172705 0.071418 0.995327
Si Si2 0.928508 0.172262 0.903504
Si Si3 0.844752 0.260399 0.818767
Si Si4 0.928508 0.172258 0.239485
Si Si5 0.760693 0.344615 0.402827
Si Si6 0.739311 0.844618 0.924210
Si Si7 0.844751 0.739602 0.491736
Si Si8 0.327291 0.571418 0.340739
O O1 0.189709 0.080020 0.810294
O O2 0.158374 0.000000 0.049390
O O3 0.110882 0.110613 0.097968
O O4 0.232344 0.094425 0.026890
O O5 0.905704 0.231886 0.834983
O O6 1.000000 0.157730 0.792578
O O7 0.919824 0.189301 0.080179
O O8 0.790284 0.209641 0.874603
O O9 0.862104 0.279788 0.637898
O O10 0.822050 0.321747 0.927978
O O11 0.905700 0.231878 0.353626
O O12 0.889118 0.110608 0.319729
O O13 0.780129 0.361914 0.219870
O O14 0.822057 0.321747 0.427912
O O15 0.709726 0.290351 0.455146
O O16 0.732346 0.405567 0.508429
O O17 0.341613 0.500000 0.366160
#
# Coordination Sequence:
#
# PCOD8116129 Si02
#       8
#     8   8   8   8   8   8   8   8
#     4   9  17  28  41  58  82 112 144 175 205 239
#     4   9  17  28  41  58  82 112 144 175 205 239
#     4   9  16  26  41  59  78 101 131 169 212 253
#     4   9  17  28  41  58  82 112 144 175 205 239
#     4   9  16  26  41  59  78 101 131 169 212 253
#     4   9  16  26  41  59  78 101 131 169 212 253
#     4   9  16  26  41  59  78 101 131 169 212 253
#     4   9  17  28  41  58  82 112 144 175 205 239
#
# _framework density 15.144966999999999
#
# number of rings (size 3 to 8) (size 9 to 14) (size 15 to 20)
#    0.000    3.000    0.000    1.500    0.000    7.500 
#    0.000    2.500    0.000    0.000    0.000    7.000 
#    0.000    1.000    0.000   10.500    0.000    5.500 
#
# Total GULP energy -396769.382265 kJ/mol
# GULP energy per Si atom -12399.043196 kJ/mol
# Density = 1.511050 g / cm^3
# Si number density = 15.144967 Si / 1000 Ang^3
#
#
#
# Elastic Constant Matrix: (Units=GPa)
#
#
# Indices 1 2 3 4 5 6 
#
# 1 76.7760 59.5964 46.3377 0.0000 10.0556 0.0000
# 2 59.5964 66.1283 53.1492 0.0000 -4.7101 0.0000
# 3 46.3377 53.1492 97.0347 0.0000 4.7359 0.0000
# 4 0.0000 0.0000 0.0000 21.1027 0.0000 2.0175
# 5 10.0556 -4.7101 4.7359 0.0000 18.2197 0.0000
# 6 0.0000 0.0000 0.0000 2.0175 0.0000 18.3405
#
#
#
# Elastic Compliance Matrix: (Units=1/GPa)
#
#
# Indices 1 2 3 4 5 6 
#
# 1 0.097700 -0.107253 0.016282 0.000000 -0.085881 0.000000
# 2 -0.107253 0.147108 -0.034542 0.000000 0.106203 0.000000
# 3 0.016282 -0.034542 0.022611 0.000000 -0.023794 0.000000
# 4 0.000000 0.000000 0.000000 0.047891 0.000000 -0.005268
# 5 -0.085881 0.106203 -0.023794 0.000000 0.135924 0.000000
# 6 0.000000 0.000000 0.000000 -0.005268 0.000000 0.055104
#
#
# Mechanical properties :
#
#
# Convention : Reuss Voigt Hill
#
# Bulk Modulus (GPa) = 60.99938 62.01173 61.50556
# Shear Modulus (GPa) = 6.55455 16.92297 11.73876
#
# Velocity S-wave (km/s) = 2.08261 3.34638 2.78707
# Velocity P-wave (km/s) = 6.79319 7.48100 7.14538
#
# Compressibility (1/GPa) = 0.01639361
#
# Stress axis : x y z
#
# Youngs Moduli (GPa) = 10.23545 6.79771 44.22547
#
# Poissons Ratio (x) = 0.72907 -0.72010
# Poissons Ratio (y) = 1.09778 1.52765
# Poissons Ratio (z) = -0.16666 0.23481
#
# Static dielectric constant tensor:
#      x y z
#    x 2.810300 0.000000 0.146700 
#    y 0.000000 2.735150 0.000000 
#    z 0.146700 0.000000 3.011090 
# 
# 
# High freq. dielectric constant tensor:
#      x y z
#    x 1.558920 0.000000 0.017420 
#    y 0.000000 1.549960 0.000000 
#    z 0.017420 0.000000 1.582780 
# 
# From -- ./inp_files/90372.got.cif
#   From: 2010.06.25/outbox.cif.g09.slc.cpg/sg12_46_cif.got.tgz:90372.got - 2010.06.28 00:19:55.
