data_PCOD8116079
_publ_section_title
;
Structure prediction by ZEFSAII (Michael W. Deem and Ramdas Pophale) SiO2 
 PCOD8116079
Probable space group: C 2/M
;
_chemical_formula_sum "Si O2"
_cell_formula_units_Z 56
_cell_length_a 14.358677
_cell_length_b 9.584170
_cell_length_c 24.678896
_cell_angle_alpha 90.000000
_cell_angle_beta 106.186766
_cell_angle_gamma 90.000000
_cell_volume 3261.578731
_symmetry_space_group_name_H-M "C 2/M"
_symmetry_group_IT_number 12
_symmetry_cell_setting 'monoclinic'
loop_
_space_group_symop_operation_xyz
x,y,z
-x,y,-z
-x,-y,-z
x,-y,z
1/2+x,1/2+y,z
1/2-x,1/2+y,-z
1/2-x,1/2-y,-z
1/2+x,1/2-y,z
loop_
_atom_site_type_symbol
_atom_site_label
_atom_site_fract_x
_atom_site_fract_y
_atom_site_fract_z
Si Si1 0.334355 0.336439 0.353601
Si Si2 0.360723 0.839944 0.067590
Si Si3 0.975777 0.663402 0.645896
Si Si4 0.777249 0.660237 0.555704
Si Si5 0.563834 0.834932 0.142769
Si Si6 0.176858 0.338773 0.058410
Si Si7 0.361882 0.165924 0.731592
O O1 0.356916 0.500000 0.349539
O O2 0.430645 0.249884 0.356843
O O3 0.297820 0.305095 0.408353
O O4 0.247956 0.286214 0.299376
O O5 0.451925 0.794354 0.118361
O O6 0.276761 0.741253 0.073484
O O7 0.331549 0.000000 0.073546
O O8 0.382834 0.818328 0.007129
O O9 0.002859 0.500000 0.651010
O O10 0.887896 0.692688 0.590289
O O11 0.939495 0.715751 0.699103
O O12 0.767193 0.500000 0.537505
O O13 0.750000 0.750000 0.500000
O O14 0.618196 0.774037 0.099121
O O15 0.606715 0.770773 0.205215
O O16 0.575586 0.000000 0.145270
O O17 0.200742 0.500000 0.071953
O O18 0.363607 0.000000 0.731460
#
# Coordination Sequence:
#
# PCOD8116079 Si02
#       7
#     8   8   8   8   8   8   8
#     4   9  18  33  51  70  94 124 155 188 228 270
#     4   9  17  29  45  66  91 118 150 188 229 274
#     4   9  18  33  51  70  94 124 155 188 228 270
#     4   9  19  34  50  71  99 126 153 187 225 268
#     4   9  16  28  48  68  87 119 158 189 223 273
#     4   9  17  29  45  66  91 118 150 188 229 274
#     4   8  16  31  48  67  92 121 154 191 229 270
#
# _framework density 17.169599000000002
#
# number of rings (size 3 to 8) (size 9 to 14) (size 15 to 20)
#    0.000    3.143    0.000    2.143    0.000    4.571 
#    0.000    5.714    0.000    5.143    0.000    0.000 
#    0.000    0.000    0.000    0.000    0.000    0.000 
#
# Total GULP energy -347053.680977 kJ/mol
# GULP energy per Si atom -12394.774321 kJ/mol
# Density = 1.713052 g / cm^3
# Si number density = 17.169599 Si / 1000 Ang^3
#
#
#
# Elastic Constant Matrix: (Units=GPa)
#
#
# Indices 1 2 3 4 5 6 
#
# 1 106.7890 41.7658 47.6757 0.0000 8.9455 0.0000
# 2 41.7658 41.4576 34.4678 0.0000 4.6286 0.0000
# 3 47.6757 34.4678 120.2558 0.0000 11.0841 0.0000
# 4 0.0000 0.0000 0.0000 17.9806 0.0000 0.5302
# 5 8.9455 4.6286 11.0841 0.0000 17.1398 0.0000
# 6 0.0000 0.0000 0.0000 0.5302 0.0000 29.3260
#
#
#
# Elastic Compliance Matrix: (Units=1/GPa)
#
#
# Indices 1 2 3 4 5 6 
#
# 1 0.016072 -0.014152 -0.002015 0.000000 -0.003264 0.000000
# 2 -0.014152 0.044261 -0.007076 0.000000 0.000010 0.000000
# 3 -0.002015 -0.007076 0.011558 0.000000 -0.004512 0.000000
# 4 0.000000 0.000000 0.000000 0.055645 0.000000 -0.001006
# 5 -0.003264 0.000010 -0.004512 0.000000 0.062963 0.000000
# 6 0.000000 0.000000 0.000000 -0.001006 0.000000 0.034118
#
#
# Mechanical properties :
#
#
# Convention : Reuss Voigt Hill
#
# Bulk Modulus (GPa) = 39.36260 57.36900 48.36580
# Shear Modulus (GPa) = 17.88454 22.52881 20.20668
#
# Velocity S-wave (km/s) = 3.23095 3.62627 3.43430
# Velocity P-wave (km/s) = 6.07406 7.14274 6.62997
#
# Compressibility (1/GPa) = 0.02540483
#
# Stress axis : x y z
#
# Youngs Moduli (GPa) = 62.21954 22.59347 86.51691
#
# Poissons Ratio (x) = 0.31975 0.17431
# Poissons Ratio (y) = 0.88055 0.61221
# Poissons Ratio (z) = 0.12535 0.15988
#
# Static dielectric constant tensor:
#      x y z
#    x 3.170610 0.000000 -0.016830 
#    y 0.000000 2.873480 0.000000 
#    z -0.016830 0.000000 3.502890 
# 
# 
# High freq. dielectric constant tensor:
#      x y z
#    x 1.665240 0.000000 0.001330 
#    y 0.000000 1.629850 0.000000 
#    z 0.001330 0.000000 1.669760 
# 
# From -- ./inp_files/359442.got.cif
#   From: 2010.06.25/outbox.cif.g09.slc.cpg/sg12_180_cif.got.tgz:359442.got - 2010.06.28 00:19:55.
