data_PCOD8116916
_publ_section_title
;
Structure prediction by ZEFSAII (Michael W. Deem and Ramdas Pophale) SiO2 
 PCOD8116916
Probable space group: P 2/C
;
_chemical_formula_sum "Si O2"
_cell_formula_units_Z 28
_cell_length_a 5.028357
_cell_length_b 19.615442
_cell_length_c 14.516193
_cell_angle_alpha 90.000000
_cell_angle_beta 109.265650
_cell_angle_gamma 90.000000
_cell_volume 1351.600797
_symmetry_space_group_name_H-M "P 2/C"
_symmetry_group_IT_number 13
_symmetry_cell_setting 'monoclinic'
loop_
_space_group_symop_operation_xyz
x,y,z
-x,y,1/2-z
-x,-y,-z
x,-y,1/2+z
loop_
_atom_site_type_symbol
_atom_site_label
_atom_site_fract_x
_atom_site_fract_y
_atom_site_fract_z
Si Si1 0.194814 0.215295 0.346415
Si Si2 0.345085 0.730053 0.049924
Si Si3 0.136129 0.500483 0.364423
Si Si4 0.715250 0.425514 0.940495
Si Si5 0.500000 0.007730 0.250000
Si Si6 0.140527 0.815631 0.416905
Si Si7 0.000000 0.917371 0.250000
Si Si8 0.289944 0.868242 0.622231
O O1 0.315817 0.267490 0.435185
O O2 0.439020 0.177100 0.316437
O O3 0.000000 0.255727 0.250000
O O4 0.005888 0.156902 0.371962
O O5 0.381290 0.652079 0.082051
O O6 0.619375 0.773451 0.110932
O O7 0.071173 0.759984 0.066863
O O8 0.158970 0.438669 0.441858
O O9 0.451354 0.527148 0.384722
O O10 0.000000 0.477707 0.250000
O O11 0.951887 0.559902 0.390646
O O12 0.280520 0.962549 0.282297
O O13 0.666515 0.053723 0.343123
O O14 0.979607 0.868589 0.335268
O O15 0.285721 0.861831 0.511462
#
# Coordination Sequence:
#
# PCOD8116916 Si02
#       8
#     4   4   4   4   2   4   2   4
#     4  10  17  32  56  83 112 141 179 238 297 337
#     4  10  21  38  60  83 114 154 194 234 283 344
#     4  10  21  39  61  89 129 158 192 252 292 335
#     4  10  21  39  61  90 123 158 203 244 287 349
#     4  12  22  36  62  84 106 146 192 232 286 370
#     4  10  23  42  56  80 119 149 186 245 289 326
#     4  12  26  40  56  80 114 152 188 238 288 324
#     4  10  20  35  58  82 108 140 182 236 290 349
#
# _framework density 20.716176000000001
#
# number of rings (size 3 to 8) (size 9 to 14) (size 15 to 20)
#    0.000    1.714    1.429    3.000    0.000    1.714 
#    7.714    0.000    0.000   10.286    0.000    0.000 
#    0.000    0.000    0.000    0.000    0.000    0.000 
#
# Total GULP energy -347166.808064 kJ/mol
# GULP energy per Si atom -12398.814574 kJ/mol
# Density = 2.066902 g / cm^3
# Si number density = 20.716176 Si / 1000 Ang^3
#
#
#
# Elastic Constant Matrix: (Units=GPa)
#
#
# Indices 1 2 3 4 5 6 
#
# 1 95.8628 13.2644 11.9894 0.0000 1.4585 0.0000
# 2 13.2644 79.2652 14.2086 0.0000 -3.7457 0.0000
# 3 11.9894 14.2086 76.4484 0.0000 0.7297 0.0000
# 4 0.0000 0.0000 0.0000 17.1197 0.0000 1.6146
# 5 1.4585 -3.7457 0.7297 0.0000 24.7594 0.0000
# 6 0.0000 0.0000 0.0000 1.6146 0.0000 18.7596
#
#
#
# Elastic Compliance Matrix: (Units=1/GPa)
#
#
# Indices 1 2 3 4 5 6 
#
# 1 0.010841 -0.001604 -0.001394 0.000000 -0.000840 0.000000
# 2 -0.001604 0.013392 -0.002258 0.000000 0.002187 0.000000
# 3 -0.001394 -0.002258 0.013725 0.000000 -0.000664 0.000000
# 4 0.000000 0.000000 0.000000 0.058890 0.000000 -0.005068
# 5 -0.000840 0.002187 -0.000664 0.000000 0.040789 0.000000
# 6 0.000000 0.000000 0.000000 -0.005068 0.000000 0.053742
#
#
# Mechanical properties :
#
#
# Convention : Reuss Voigt Hill
#
# Bulk Modulus (GPa) = 36.43546 36.72236 36.57891
# Shear Modulus (GPa) = 23.69209 26.26868 24.98039
#
# Velocity S-wave (km/s) = 3.38546 3.56480 3.47629
# Velocity P-wave (km/s) = 5.73654 5.89140 5.81449
#
# Compressibility (1/GPa) = 0.02744579
#
# Stress axis : x y z
#
# Youngs Moduli (GPa) = 92.24548 74.66880 72.85751
#
# Poissons Ratio (x) = 0.11976 0.10156
# Poissons Ratio (y) = 0.14795 0.16454
# Poissons Ratio (z) = 0.12859 0.16863
#
# Static dielectric constant tensor:
#      x y z
#    x 3.893900 0.000000 0.056500 
#    y 0.000000 3.385200 0.000000 
#    z 0.056500 0.000000 3.896430 
# 
# 
# High freq. dielectric constant tensor:
#      x y z
#    x 1.831730 0.000000 0.001840 
#    y 0.000000 1.780260 0.000000 
#    z 0.001840 0.000000 1.811540 
# 
# From -- ./inp_files/44556.got.cif
#   From: 2010.06.25/outbox.cif.g09.slc.cpg/sg13_23_cif.got.tgz:44556.got - 2010.06.28 04:50:58.
