data_PCOD8116786
_publ_section_title
;
Structure prediction by ZEFSAII (Michael W. Deem and Ramdas Pophale) SiO2 
 PCOD8116786
Probable space group: P 2/C
;
_chemical_formula_sum "Si O2"
_cell_formula_units_Z 22
_cell_length_a 23.852895
_cell_length_b 5.112613
_cell_length_c 24.499351
_cell_angle_alpha 90.000000
_cell_angle_beta 155.706733
_cell_angle_gamma 90.000000
_cell_volume 1229.166007
_symmetry_space_group_name_H-M "P 2/C"
_symmetry_group_IT_number 13
_symmetry_cell_setting 'monoclinic'
loop_
_space_group_symop_operation_xyz
x,y,z
-x,y,1/2-z
-x,-y,-z
x,-y,1/2+z
loop_
_atom_site_type_symbol
_atom_site_label
_atom_site_fract_x
_atom_site_fract_y
_atom_site_fract_z
Si Si1 0.039530 0.466351 0.597168
Si Si2 0.720325 0.090401 0.534761
Si Si3 0.000000 0.759870 0.250000
Si Si4 0.909488 0.625225 0.581758
Si Si5 0.634491 0.396642 0.902543
Si Si6 0.875702 0.042982 0.273726
O O1 0.905239 0.504032 0.516392
O O2 0.000000 0.500000 0.500000
O O3 0.149239 0.688820 0.714108
O O4 0.100518 0.179975 0.660365
O O5 0.659979 0.376603 0.469488
O O6 0.864405 0.061997 0.630325
O O7 0.616836 0.872723 0.419998
O O8 0.745618 0.038627 0.621482
O O9 0.005251 0.568004 0.202137
O O10 0.757556 0.641988 0.469264
O O11 0.991847 0.905071 0.649477
O O12 0.500000 0.464400 0.750000
#
# Coordination Sequence:
#
# PCOD8116786 Si02
#       6
#     4   4   2   4   4   4
#     4  10  20  32  49  79 108 127 162 211 269 309
#     4  11  19  33  50  73 104 133 166 210 248 310
#     4  10  16  32  50  82 100 130 160 214 260 308
#     4   9  20  30  53  73 109 128 167 202 259 304
#     4  11  23  33  47  74 108 142 169 198 247 305
#     4  10  18  33  51  78  98 131 165 209 265 295
#
# _framework density 17.898313999999999
#
# number of rings (size 3 to 8) (size 9 to 14) (size 15 to 20)
#    1.091    0.727    1.818    5.455    2.545    0.727 
#    0.000    0.000    0.000    0.000    0.000    7.636 
#    0.000    0.000    0.000    0.000    0.000    0.000 
#
# Total GULP energy -272582.359878 kJ/mol
# GULP energy per Si atom -12390.107267 kJ/mol
# Density = 1.785758 g / cm^3
# Si number density = 17.898314 Si / 1000 Ang^3
#
#
#
# Elastic Constant Matrix: (Units=GPa)
#
#
# Indices 1 2 3 4 5 6 
#
# 1 55.5373 18.7882 32.1584 0.0000 -29.6543 0.0000
# 2 18.7882 116.5541 35.0251 0.0000 -12.4207 0.0000
# 3 32.1584 35.0251 99.4424 0.0000 -18.3177 0.0000
# 4 0.0000 0.0000 0.0000 31.7357 0.0000 -11.4137
# 5 -29.6543 -12.4207 -18.3177 0.0000 31.0421 0.0000
# 6 0.0000 0.0000 0.0000 -11.4137 0.0000 19.4733
#
#
#
# Elastic Compliance Matrix: (Units=1/GPa)
#
#
# Indices 1 2 3 4 5 6 
#
# 1 0.040435 -0.000920 -0.006400 0.000000 0.034483 0.000000
# 2 -0.000920 0.009736 -0.002890 0.000000 0.001311 0.000000
# 3 -0.006400 -0.002890 0.013244 0.000000 0.000545 0.000000
# 4 0.000000 0.000000 0.000000 0.039927 0.000000 0.023402
# 5 0.034483 0.001311 0.000545 0.000000 0.066001 0.000000
# 6 0.000000 0.000000 0.000000 0.023402 0.000000 0.065069
#
#
# Mechanical properties :
#
#
# Convention : Reuss Voigt Hill
#
# Bulk Modulus (GPa) = 23.25879 49.27524 36.26702
# Shear Modulus (GPa) = 18.57598 28.82102 23.69850
#
# Velocity S-wave (km/s) = 3.22508 4.01716 3.64272
# Velocity P-wave (km/s) = 5.18569 7.00766 6.16436
#
# Compressibility (1/GPa) = 0.04299450
#
# Stress axis : x y z
#
# Youngs Moduli (GPa) = 24.73092 102.70869 75.50507
#
# Poissons Ratio (x) = 0.09450 0.48326
# Poissons Ratio (y) = 0.02275 0.21822
# Poissons Ratio (z) = 0.15829 0.29685
#
# Static dielectric constant tensor:
#      x y z
#    x 2.907740 0.000000 -0.244770 
#    y 0.000000 3.499510 0.000000 
#    z -0.244770 0.000000 3.052600 
# 
# 
# High freq. dielectric constant tensor:
#      x y z
#    x 1.643360 0.000000 -0.038430 
#    y 0.000000 1.719800 0.000000 
#    z -0.038430 0.000000 1.667340 
# 
# From -- ./inp_files/89372.got.cif
#   From: 2010.06.25/outbox.cif.g09.slc.cpg/sg13_45_cif.got.tgz:89372.got - 2010.06.28 04:50:58.
