data_PCOD8116276
_publ_section_title
;
Structure prediction by ZEFSAII (Michael W. Deem and Ramdas Pophale) SiO2 
 PCOD8116276
Probable space group: C 2/M
;
_chemical_formula_sum "Si O2"
_cell_formula_units_Z 32
_cell_length_a 30.000000
_cell_length_b 9.000000
_cell_length_c 18.000000
_cell_angle_alpha 90.000000
_cell_angle_beta 40.000000
_cell_angle_gamma 90.000000
_cell_volume 3123.947783
_symmetry_space_group_name_H-M "C 2/M"
_symmetry_group_IT_number 12
_symmetry_cell_setting 'monoclinic'
loop_
_space_group_symop_operation_xyz
x,y,z
-x,y,-z
-x,-y,-z
x,-y,z
1/2+x,1/2+y,z
1/2-x,1/2+y,-z
1/2-x,1/2-y,-z
1/2+x,1/2-y,z
loop_
_atom_site_type_symbol
_atom_site_label
_atom_site_fract_x
_atom_site_fract_y
_atom_site_fract_z
Si Si1 0.048414 0.169708 0.008592
Si Si2 0.213827 0.826223 0.977862
Si Si3 0.819745 0.327330 0.216689
Si Si4 0.208839 0.675990 0.268281
Si Si5 0.955051 0.824281 0.264310
Si Si6 0.820454 0.327199 0.387300
Si Si7 0.428706 0.325423 0.778806
Si Si8 0.077900 0.825606 0.377171
O O1 0.117266 0.267317 0.913460
O O2 0.072903 0.000000 0.989269
O O3 0.000000 0.187182 0.000000
O O4 0.003337 0.227006 0.134782
O O5 0.246743 0.768913 0.859478
O O6 0.225855 0.000000 0.971011
O O7 0.250000 0.750000 0.000000
O O8 0.132127 0.784676 0.085104
O O9 0.809460 0.500000 0.213373
O O10 0.748015 0.243273 0.289489
O O11 0.837014 0.295797 0.280282
O O12 0.205308 0.500000 0.280306
O O13 0.131188 0.740427 0.362872
O O14 0.882379 0.739875 0.357294
O O15 0.996816 0.773625 0.284762
O O16 0.940731 0.000000 0.279250
O O17 0.813859 0.500000 0.413337
O O18 0.750000 0.250000 0.500000
O O19 0.432838 0.500000 0.762464
O O20 0.412996 0.258503 0.717628
O O21 0.000000 0.789516 0.500000
O O22 0.094276 0.000000 0.361638
#
# Coordination Sequence:
#
# PCOD8116276 Si02
#       8
#     8   8   8   8   8   8   8   8
#     4  10  19  34  60  90 120 155 192 236 295 355
#     4  10  19  34  58  86 117 153 192 235 288 350
#     4  11  24  40  61  88 121 158 198 243 295 356
#     4  11  23  38  60  89 119 152 196 245 297 355
#     4  10  20  37  61  87 118 157 196 239 293 353
#     4  11  25  43  62  86 116 154 201 249 295 349
#     4   9  18  34  57  83 114 150 189 234 285 344
#     4  10  21  38  59  82 113 155 200 242 289 347
#
# _framework density 10.243449
#
# number of rings (size 3 to 8) (size 9 to 14) (size 15 to 20)
#    0.000    1.750    2.500    1.875    0.000    6.000 
#    0.000    3.750    0.000    0.000    0.000    0.000 
#    0.000    0.000    0.000    0.000    0.000    0.000 
#
# Total GULP energy -396850.555409 kJ/mol
# GULP energy per Si atom -12401.579857 kJ/mol
# Density = 1.022013 g / cm^3
# Si number density = 10.243449 Si / 1000 Ang^3
#
#
#
# Elastic Constant Matrix: (Units=GPa)
#
#
# Indices 1 2 3 4 5 6 
#
# 1 91.4243 37.4267 17.2838 0.0120 -33.4518 0.0130
# 2 37.4267 70.2506 34.6701 0.0572 -17.8599 -0.0199
# 3 17.2838 34.6701 67.5157 0.0520 -28.6327 -0.0053
# 4 0.0120 0.0572 0.0520 25.3139 -0.0271 -10.8292
# 5 -33.4518 -17.8599 -28.6327 -0.0271 34.5932 0.0083
# 6 0.0130 -0.0199 -0.0053 -10.8292 0.0083 32.8573
#
#
#
# Elastic Compliance Matrix: (Units=1/GPa)
#
#
# Indices 1 2 3 4 5 6 
#
# 1 0.022369 -0.010702 0.010169 0.000012 0.024523 -0.000016
# 2 -0.010702 0.024349 -0.013593 -0.000027 -0.009028 0.000010
# 3 0.010169 -0.013593 0.031407 -0.000016 0.028811 -0.000020
# 4 0.000012 -0.000027 -0.000016 0.045988 0.000017 0.015157
# 5 0.024523 -0.009028 0.028811 0.000017 0.071807 -0.000023
# 6 -0.000016 0.000010 -0.000020 0.015157 -0.000023 0.035430
#
#
# Mechanical properties :
#
#
# Convention : Reuss Voigt Hill
#
# Bulk Modulus (GPa) = 20.05038 45.32798 32.68918
# Shear Modulus (GPa) = 18.10113 27.87354 22.98733
#
# Velocity S-wave (km/s) = 2.97568 3.69257 3.35334
# Velocity P-wave (km/s) = 4.64913 6.35244 5.56632
#
# Compressibility (1/GPa) = 0.04987436
#
# Stress axis : x y z
#
# Youngs Moduli (GPa) = 44.70391 41.06911 31.84047
#
# Poissons Ratio (x) = 0.43950 -0.32378
# Poissons Ratio (y) = 0.47840 0.43280
# Poissons Ratio (z) = -0.45459 0.55824
#
# Static dielectric constant tensor:
#      x y z
#    x 3.897650 0.000070 -0.037930 
#    y 0.000070 3.486680 -0.000130 
#    z -0.037930 -0.000130 3.918750 
# 
# 
# High freq. dielectric constant tensor:
#      x y z
#    x 1.814410 0.000000 -0.009960 
#    y 0.000000 1.777570 0.000000 
#    z -0.009960 0.000000 1.797680 
# 
# From -- ./inp_files/295497.got.cif
#   From: 2010.06.25/outbox.ucp.g09.slc.cvg/sg12_148_cif.got.tgz:295497.got - 2010.06.28 13:50:54.
