data_PCOD8116445
_publ_section_title
;
Structure prediction by ZEFSAII (Michael W. Deem and Ramdas Pophale) SiO2 
 PCOD8116445
Probable space group: C 2/M
;
_chemical_formula_sum "Si O2"
_cell_formula_units_Z 32
_cell_length_a 18.000000
_cell_length_b 9.000000
_cell_length_c 30.000000
_cell_angle_alpha 90.000000
_cell_angle_beta 40.000000
_cell_angle_gamma 90.000000
_cell_volume 3123.947783
_symmetry_space_group_name_H-M "C 2/M"
_symmetry_group_IT_number 12
_symmetry_cell_setting 'monoclinic'
loop_
_space_group_symop_operation_xyz
x,y,z
-x,y,-z
-x,-y,-z
x,-y,z
1/2+x,1/2+y,z
1/2-x,1/2+y,-z
1/2-x,1/2-y,-z
1/2+x,1/2-y,z
loop_
_atom_site_type_symbol
_atom_site_label
_atom_site_fract_x
_atom_site_fract_y
_atom_site_fract_z
Si Si1 0.756714 0.169456 0.373740
Si Si2 0.740500 0.327071 0.725154
Si Si3 0.327866 0.674749 0.501017
Si Si4 0.547432 0.666492 0.350276
Si Si5 0.340848 0.826377 0.866640
Si Si6 0.579806 0.675790 0.001717
Si Si7 0.985066 0.835153 0.733667
Si Si8 0.995447 0.177094 0.867834
O O1 0.708518 0.212452 0.347399
O O2 0.702455 0.276897 0.435193
O O3 0.891664 0.192100 0.300511
O O4 0.729622 0.000000 0.400427
O O5 0.726034 0.500000 0.738157
O O6 0.841481 0.267259 0.709763
O O7 0.619351 0.255266 0.796065
O O8 0.310070 0.500000 0.504751
O O9 0.250000 0.750000 0.500000
O O10 0.460077 0.720007 0.429190
O O11 0.589113 0.500000 0.341472
O O12 0.482389 0.678912 0.333169
O O13 0.208645 0.777752 0.929901
O O14 0.392568 0.783074 0.794505
O O15 0.401932 0.732819 0.876375
O O16 0.358193 0.000000 0.866905
O O17 0.566093 0.500000 0.009481
O O18 0.500000 0.745406 0.000000
O O19 0.539226 0.740936 0.067843
O O20 0.937973 0.000000 0.766644
O O21 0.995148 0.000000 0.867446
#
# Coordination Sequence:
#
# PCOD8116445 Si02
#       8
#     8   8   8   8   8   8   8   8
#     4  10  20  39  61  84 115 150 196 241 282 341
#     4  10  22  38  60  87 114 152 196 237 284 344
#     4  11  22  38  60  86 115 153 194 237 292 345
#     4  10  23  40  58  83 118 153 187 237 295 346
#     4  11  22  35  59  92 117 147 197 247 281 331
#     4   9  20  37  58  86 119 153 191 238 287 337
#     4  10  20  39  61  82 116 157 192 234 292 347
#     4  10  20  39  63  82 114 161 194 229 289 348
#
# _framework density 10.243449
#
# number of rings (size 3 to 8) (size 9 to 14) (size 15 to 20)
#    0.000    1.875    2.500    1.125    1.750    3.500 
#    0.000    3.125    0.000    1.875    0.000    0.000 
#    0.000    0.000    0.000    0.000    0.000    0.000 
#
# Total GULP energy -396641.647870 kJ/mol
# GULP energy per Si atom -12395.051496 kJ/mol
# Density = 1.022013 g / cm^3
# Si number density = 10.243449 Si / 1000 Ang^3
#
#
#
# Elastic Constant Matrix: (Units=GPa)
#
#
# Indices 1 2 3 4 5 6 
#
# 1 45.1307 13.1408 36.0726 0.0004 -6.2806 0.0013
# 2 13.1408 11.1990 36.4329 0.0006 11.5228 0.0016
# 3 36.0726 36.4329 133.7397 0.0001 10.3881 0.0008
# 4 0.0004 0.0006 0.0001 29.7948 0.0000 -0.9176
# 5 -6.2806 11.5228 10.3881 0.0000 14.5039 -0.0004
# 6 0.0013 0.0016 0.0008 -0.9176 -0.0004 20.3054
#
#
#
# Elastic Compliance Matrix: (Units=1/GPa)
#
#
# Indices 1 2 3 4 5 6 
#
# 1 0.020490 0.043843 -0.016364 -0.000001 -0.014238 -0.000004
# 2 0.043843 -0.141881 0.017573 0.000003 0.119118 0.000010
# 3 -0.016364 0.017573 0.009253 0.000000 -0.027675 -0.000001
# 4 -0.000001 0.000003 0.000000 0.033610 -0.000002 0.001519
# 5 -0.014238 0.119118 -0.027675 -0.000002 -0.012031 -0.000008
# 6 -0.000004 0.000010 -0.000001 0.001519 -0.000008 0.049317
#
#
# Mechanical properties :
#
#
# Convention : Reuss Voigt Hill
#
# Bulk Modulus (GPa) = -45.38393 40.15133 -2.61630
# Shear Modulus (GPa) = -36.05159 19.88236 -8.08461
#
# Velocity S-wave (km/s) = -4.19948 3.11865 -1.98867
# Velocity P-wave (km/s) = 6.76128 5.71044 2.55986
#
# Compressibility (1/GPa) = -0.02203423
#
# Stress axis : x y z
#
# Youngs Moduli (GPa) = 48.80317 -7.04815 108.06745
#
# Poissons Ratio (x) = 0.30901 1.76845
# Poissons Ratio (y) = -2.13967 -1.89907
# Poissons Ratio (z) = 0.79863 0.12386
#
# Static dielectric constant tensor:
#      x y z
#    x 3.597340 0.000000 0.132020 
#    y 0.000000 3.433920 0.000000 
#    z 0.132020 0.000000 3.987840 
# 
# 
# High freq. dielectric constant tensor:
#      x y z
#    x 1.790220 0.000000 0.007150 
#    y 0.000000 1.769230 0.000000 
#    z 0.007150 0.000000 1.814240 
# 
# From -- ./inp_files/345998.got.cif
#   From: 2010.06.25/outbox.ucp.g09.slc.cvg/sg12_173_cif.got.tgz:345998.got - 2010.06.28 13:50:54.
