data_PCOD8116703
_publ_section_title
;
Structure prediction by ZEFSAII (Michael W. Deem and Ramdas Pophale) SiO2 
 PCOD8116703
Probable space group: P 2/C
;
_chemical_formula_sum "Si O2"
_cell_formula_units_Z 20
_cell_length_a 18.446660
_cell_length_b 11.603946
_cell_length_c 5.312638
_cell_angle_alpha 90.000000
_cell_angle_beta 81.591624
_cell_angle_gamma 90.000000
_cell_volume 1124.967951
_symmetry_space_group_name_H-M "P 2/C"
_symmetry_group_IT_number 13
_symmetry_cell_setting 'monoclinic'
loop_
_space_group_symop_operation_xyz
x,y,z
-x,y,1/2-z
-x,-y,-z
x,-y,1/2+z
loop_
_atom_site_type_symbol
_atom_site_label
_atom_site_fract_x
_atom_site_fract_y
_atom_site_fract_z
Si Si1 0.796041 0.879115 0.602162
Si Si2 0.046651 0.813345 0.976297
Si Si3 0.578760 0.927399 0.248441
Si Si4 0.735374 0.136788 0.633001
Si Si5 0.918257 0.548855 0.541552
O O1 0.883683 0.898660 0.559113
O O2 0.770717 0.807786 0.863610
O O3 0.754638 0.000824 0.625322
O O4 0.771443 0.807875 0.365364
O O5 0.080314 0.686016 0.959069
O O6 0.000000 0.837323 0.250000
O O7 0.000000 0.837431 0.750000
O O8 0.500000 0.863265 0.250000
O O9 0.583635 0.974797 0.530473
O O10 0.647703 0.157694 0.676650
O O11 0.877680 0.499979 0.812136
O O12 0.000000 0.500000 0.500000
#
# Coordination Sequence:
#
# PCOD8116703 Si02
#       5
#     4   4   4   4   4
#     4  10  20  30  46  57  79 118 142 175 215 245
#     4  12  21  32  45  65  80  99 149 189 207 258
#     4  10  16  25  46  67  80 104 146 178 196 235
#     4  10  17  35  42  57  89 118 144 164 207 253
#     4  10  16  30  48  62  79  98 117 173 231 264
#
# _framework density 17.778283999999999
#
# number of rings (size 3 to 8) (size 9 to 14) (size 15 to 20)
#    0.000    1.600    8.000    1.200    0.000    0.000 
#    0.000   12.000    0.000    0.000    0.000    0.000 
#    0.000    0.000    0.000    0.000    0.000   34.000 
#
# Total GULP energy -247774.052344 kJ/mol
# GULP energy per Si atom -12388.702617 kJ/mol
# Density = 1.773782 g / cm^3
# Si number density = 17.778284 Si / 1000 Ang^3
#
#
#
# Elastic Constant Matrix: (Units=GPa)
#
#
# Indices 1 2 3 4 5 6 
#
# 1 136.5713 3.4877 54.7417 0.0000 0.5267 0.0000
# 2 3.4877 12.9831 -2.1839 0.0000 -0.1830 0.0000
# 3 54.7417 -2.1839 195.3137 0.0000 -1.2485 0.0000
# 4 0.0000 0.0000 0.0000 6.1369 0.0000 -0.0964
# 5 0.5267 -0.1830 -1.2485 0.0000 24.5390 0.0000
# 6 0.0000 0.0000 0.0000 -0.0964 0.0000 1.3630
#
#
#
# Elastic Compliance Matrix: (Units=1/GPa)
#
#
# Indices 1 2 3 4 5 6 
#
# 1 0.008341 -0.002644 -0.002369 0.000000 -0.000319 0.000000
# 2 -0.002644 0.078016 0.001618 0.000000 0.000721 0.000000
# 3 -0.002369 0.001618 0.005804 0.000000 0.000358 0.000000
# 4 0.000000 0.000000 0.000000 0.163129 0.000000 0.011541
# 5 -0.000319 0.000721 0.000358 0.000000 0.040782 0.000000
# 6 0.000000 0.000000 0.000000 0.011541 0.000000 0.734477
#
#
# Mechanical properties :
#
#
# Convention : Reuss Voigt Hill
#
# Bulk Modulus (GPa) = 11.71359 50.77322 31.24340
# Shear Modulus (GPa) = 4.69133 25.66262 15.17698
#
# Velocity S-wave (km/s) = 1.62620 3.80344 2.92495
# Velocity P-wave (km/s) = 3.18262 6.92166 5.38695
#
# Compressibility (1/GPa) = 0.08537095
#
# Stress axis : x y z
#
# Youngs Moduli (GPa) = 119.89550 12.81789 172.28316
#
# Poissons Ratio (x) = 0.03389 0.40818
# Poissons Ratio (y) = 0.31696 -0.27873
# Poissons Ratio (z) = 0.28406 -0.02074
#
# Static dielectric constant tensor:
#      x y z
#    x 3.193100 0.000000 0.028760 
#    y 0.000000 2.689460 0.000000 
#    z 0.028760 0.000000 3.622150 
# 
# 
# High freq. dielectric constant tensor:
#      x y z
#    x 1.672950 0.000000 -0.001080 
#    y 0.000000 1.593240 0.000000 
#    z -0.001080 0.000000 1.738480 
# 
# From -- ./inp_files/6067.got.cif
#   From: 2010.06.25/outbox.cif.g09.slc.cpg/sg13_4_cif.got.tgz:6067.got - 2010.06.28 04:50:58.
