data_PCOD8116421
_publ_section_title
;
Structure prediction by ZEFSAII (Michael W. Deem and Ramdas Pophale) SiO2 
 PCOD8116421
Probable space group: C 2/M
;
_chemical_formula_sum "Si O2"
_cell_formula_units_Z 32
_cell_length_a 21.000000
_cell_length_b 15.000000
_cell_length_c 30.000000
_cell_angle_alpha 90.000000
_cell_angle_beta 160.000000
_cell_angle_gamma 90.000000
_cell_volume 3232.090354
_symmetry_space_group_name_H-M "C 2/M"
_symmetry_group_IT_number 12
_symmetry_cell_setting 'monoclinic'
loop_
_space_group_symop_operation_xyz
x,y,z
-x,y,-z
-x,-y,-z
x,-y,z
1/2+x,1/2+y,z
1/2-x,1/2+y,-z
1/2-x,1/2-y,-z
1/2+x,1/2-y,z
loop_
_atom_site_type_symbol
_atom_site_label
_atom_site_fract_x
_atom_site_fract_y
_atom_site_fract_z
Si Si1 0.970913 0.399043 0.031398
Si Si2 0.931366 0.401932 0.707343
Si Si3 0.038529 0.099538 0.763403
Si Si4 0.654205 0.900328 0.725866
Si Si5 0.334982 0.597900 0.934549
Si Si6 0.759628 0.354010 0.506256
Si Si7 0.540790 0.255835 0.840805
Si Si8 0.397186 0.726428 0.839017
O O1 0.036978 0.500000 0.085957
O O2 0.092229 0.330662 0.140736
O O3 0.753269 0.387212 0.894589
O O4 0.000000 0.372907 0.000000
O O5 0.897848 0.500000 0.705958
O O6 0.763426 0.382943 0.561172
O O7 0.116403 0.398004 0.800060
O O8 0.960697 0.336097 0.768195
O O9 0.000077 0.169984 0.776846
O O10 0.918753 0.111923 0.639159
O O11 0.999871 0.000000 0.756217
O O12 0.827630 0.889426 0.875787
O O13 0.445577 0.888467 0.604965
O O14 0.702111 0.821873 0.722569
O O15 0.668385 0.000000 0.714804
O O16 0.414422 0.500000 0.000298
O O17 0.428559 0.676460 0.023611
O O18 0.750000 0.250000 0.500000
O O19 0.405733 0.282061 0.791867
O O20 0.750000 0.250000 0.000000
#
# Coordination Sequence:
#
# PCOD8116421 Si02
#       8
#     8   8   8   8   8   8   8   8
#     4  10  22  37  57  87 120 156 205 258 314 363
#     4  10  20  37  61  89 120 157 204 260 308 359
#     4  11  23  41  64  91 123 161 203 260 312 364
#     4  10  22  38  59  94 126 157 201 255 312 369
#     4   9  17  31  55  87 118 152 194 244 307 366
#     4  11  22  40  70  94 121 154 205 262 310 363
#     4  12  23  38  55  90 125 169 213 245 297 377
#     4  12  22  34  58  81 127 166 203 241 307 366
#
# _framework density 9.9007129999999997
#
# number of rings (size 3 to 8) (size 9 to 14) (size 15 to 20)
#    0.000    1.375    3.750    3.375    3.500    3.000 
#    0.000    0.625    0.000    1.500    0.000    0.875 
#    0.000    0.000    0.000    0.000    0.000    0.000 
#
# Total GULP energy -396532.175176 kJ/mol
# GULP energy per Si atom -12391.630474 kJ/mol
# Density = 0.987818 g / cm^3
# Si number density = 9.900713 Si / 1000 Ang^3
#
#
#
# Elastic Constant Matrix: (Units=GPa)
#
#
# Indices 1 2 3 4 5 6 
#
# 1 77.9532 31.8490 2.3968 0.0295 -18.5253 -0.0143
# 2 31.8490 133.8704 16.6765 0.0683 -10.2186 0.0251
# 3 2.3968 16.6765 38.2665 -0.0133 -17.1787 -0.0105
# 4 0.0295 0.0683 -0.0133 35.5496 0.0074 0.8335
# 5 -18.5253 -10.2186 -17.1787 0.0074 23.7675 -0.0145
# 6 -0.0143 0.0251 -0.0105 0.8335 -0.0145 20.8869
#
#
#
# Elastic Compliance Matrix: (Units=1/GPa)
#
#
# Indices 1 2 3 4 5 6 
#
# 1 0.018977 -0.004188 0.009575 -0.000009 0.019911 0.000037
# 2 -0.004188 0.008852 -0.004962 -0.000014 -0.003045 -0.000018
# 3 0.009575 -0.004962 0.044540 0.000009 0.037523 0.000061
# 4 -0.000009 -0.000014 0.000009 0.028156 -0.000016 -0.001124
# 5 0.019911 -0.003045 0.037523 -0.000016 0.083406 0.000095
# 6 0.000037 -0.000018 0.000061 -0.001124 0.000095 0.047922
#
#
# Mechanical properties :
#
#
# Convention : Reuss Voigt Hill
#
# Bulk Modulus (GPa) = 13.65765 39.10386 26.38076
# Shear Modulus (GPa) = 19.57650 29.31866 24.44758
#
# Velocity S-wave (km/s) = 3.14768 3.85207 3.51755
# Velocity P-wave (km/s) = 4.48584 6.29091 5.46344
#
# Compressibility (1/GPa) = 0.07321902
#
# Stress axis : x y z
#
# Youngs Moduli (GPa) = 52.69634 112.96957 22.45168
#
# Poissons Ratio (x) = 0.47308 -0.21498
# Poissons Ratio (y) = 0.22067 0.11141
# Poissons Ratio (z) = -0.50457 0.56059
#
# Static dielectric constant tensor:
#      x y z
#    x 3.563290 0.000530 -0.167120 
#    y 0.000530 4.688990 0.007420 
#    z -0.167120 0.007420 3.431770 
# 
# 
# High freq. dielectric constant tensor:
#      x y z
#    x 1.751390 0.000000 -0.005050 
#    y 0.000000 1.794710 -0.000020 
#    z -0.005050 -0.000020 1.762370 
# 
# From -- ./inp_files/381511.got.cif
#   From: 2010.06.25/outbox.ucp.g09.slc.cvg/sg12_191_cif.got.tgz:381511.got - 2010.06.28 13:50:54.
