data_PCOD8116309
_publ_section_title
;
Structure prediction by ZEFSAII (Michael W. Deem and Ramdas Pophale) SiO2 
 PCOD8116309
Probable space group: C 2/M
;
_chemical_formula_sum "Si O2"
_cell_formula_units_Z 32
_cell_length_a 9.000000
_cell_length_b 30.000000
_cell_length_c 15.000000
_cell_angle_alpha 90.000000
_cell_angle_beta 50.000000
_cell_angle_gamma 90.000000
_cell_volume 3102.479995
_symmetry_space_group_name_H-M "C 2/M"
_symmetry_group_IT_number 12
_symmetry_cell_setting 'monoclinic'
loop_
_space_group_symop_operation_xyz
x,y,z
-x,y,-z
-x,-y,-z
x,-y,z
1/2+x,1/2+y,z
1/2-x,1/2+y,-z
1/2-x,1/2-y,-z
1/2+x,1/2-y,z
loop_
_atom_site_type_symbol
_atom_site_label
_atom_site_fract_x
_atom_site_fract_y
_atom_site_fract_z
Si Si1 0.972852 0.246666 0.414034
Si Si2 0.384682 0.926645 0.463353
Si Si3 0.474207 0.330814 0.730440
Si Si4 0.194980 0.299305 0.984907
Si Si5 0.451453 0.410058 0.619176
Si Si6 0.266508 0.625925 0.097790
Si Si7 0.633803 0.156135 0.337742
Si Si8 0.538470 0.049569 0.761664
O O1 0.750000 0.250000 0.500000
O O2 0.000000 0.225421 0.500000
O O3 0.058815 0.215698 0.305454
O O4 0.069239 0.293519 0.358285
O O5 0.500000 0.949690 0.500000
O O6 0.449331 0.874399 0.433371
O O7 0.460004 0.950441 0.345865
O O8 0.154210 0.932739 0.572258
O O9 0.367963 0.322972 0.864439
O O10 0.380141 0.368888 0.706319
O O11 0.697794 0.345679 0.653108
O O12 0.250000 0.250000 0.000000
O O13 0.178047 0.333712 0.073234
O O14 0.000000 0.296675 0.000000
O O15 0.500000 0.394042 0.500000
O O16 0.263625 0.441445 0.701370
O O17 0.236731 0.640908 0.209092
O O18 0.127283 0.582561 0.133841
O O19 0.500000 0.615869 0.000000
O O20 0.484700 0.000000 0.816318
#
# Coordination Sequence:
#
# PCOD8116309 Si02
#       8
#     8   8   8   8   8   8   8   8
#     4  12  24  36  55  87 128 169 208 256 306 374
#     4  10  19  36  66  92 129 168 210 258 320 396
#     4  12  23  38  64  86 124 171 219 264 320 377
#     4  12  27  43  66  96 131 172 226 275 324 376
#     4  10  21  39  64  94 128 170 207 259 327 398
#     4  11  23  45  71  94 124 172 222 276 328 381
#     4  11  22  40  60  91 129 169 218 266 318 376
#     4  10  24  43  65  96 131 166 209 267 334 402
#
# _framework density 10.314329000000001
#
# number of rings (size 3 to 8) (size 9 to 14) (size 15 to 20)
#    0.000    1.000    3.750    3.375    1.750    5.750 
#    0.000    0.000    0.000    3.375    0.000    0.000 
#    0.000    0.000    0.000    0.000    0.000    0.000 
#
# Total GULP energy -396436.082559 kJ/mol
# GULP energy per Si atom -12388.627580 kJ/mol
# Density = 1.029085 g / cm^3
# Si number density = 10.314329 Si / 1000 Ang^3
#
#
#
# Elastic Constant Matrix: (Units=GPa)
#
#
# Indices 1 2 3 4 5 6 
#
# 1 138.5336 50.2829 28.9692 0.0000 -29.9225 0.0000
# 2 50.2829 114.3480 36.0417 0.0000 13.2458 0.0000
# 3 28.9692 36.0417 85.9589 0.0000 -20.5818 0.0000
# 4 0.0000 0.0000 0.0000 20.7685 0.0000 -6.0500
# 5 -29.9225 13.2458 -20.5818 0.0000 18.7376 0.0000
# 6 0.0000 0.0000 0.0000 -6.0500 0.0000 19.5904
#
#
#
# Elastic Compliance Matrix: (Units=1/GPa)
#
#
# Indices 1 2 3 4 5 6 
#
# 1 0.224306 -0.258916 0.220568 0.000000 0.783507 0.000000
# 2 -0.258916 0.314351 -0.266967 0.000000 -0.928931 0.000000
# 3 0.220568 -0.266967 0.242553 0.000000 0.807378 0.000000
# 4 0.000000 0.000000 0.000000 0.052910 0.000000 0.016340
# 5 0.783507 -0.928931 0.807378 0.000000 2.848083 0.000000
# 6 0.000000 0.000000 0.000000 0.016340 0.000000 0.056091
#
#
# Mechanical properties :
#
#
# Convention : Reuss Voigt Hill
#
# Bulk Modulus (GPa) = 5.86238 63.26978 34.56608
# Shear Modulus (GPa) = 1.13487 26.72242 13.92865
#
# Velocity S-wave (km/s) = 0.74252 3.60308 2.60130
# Velocity P-wave (km/s) = 1.89292 6.93159 5.08085
#
# Compressibility (1/GPa) = 0.17057905
#
# Stress axis : x y z
#
# Youngs Moduli (GPa) = 4.45820 3.18115 4.12281
#
# Poissons Ratio (x) = 0.82365 -0.90936
# Poissons Ratio (y) = 1.15430 1.10066
# Poissons Ratio (z) = -0.98334 0.84926
#
# Static dielectric constant tensor:
#      x y z
#    x 4.127090 0.000000 -0.004640 
#    y 0.000000 3.497770 0.000000 
#    z -0.004640 0.000000 3.846310 
# 
# 
# High freq. dielectric constant tensor:
#      x y z
#    x 1.826500 0.000000 -0.008230 
#    y 0.000000 1.794420 0.000000 
#    z -0.008230 0.000000 1.810300 
# 
# From -- ./inp_files/200922.got.cif
#   From: 2010.06.25/outbox.ucp.g09.slc.cvg/sg12_101_cif.got.tgz:200922.got - 2010.06.28 13:50:54.
