data_PCOD8116305
_publ_section_title
;
Structure prediction by ZEFSAII (Michael W. Deem and Ramdas Pophale) SiO2 
 PCOD8116305
Probable space group: C 2/M
;
_chemical_formula_sum "Si O2"
_cell_formula_units_Z 32
_cell_length_a 18.000000
_cell_length_b 9.000000
_cell_length_c 30.000000
_cell_angle_alpha 90.000000
_cell_angle_beta 40.000000
_cell_angle_gamma 90.000000
_cell_volume 3123.947783
_symmetry_space_group_name_H-M "C 2/M"
_symmetry_group_IT_number 12
_symmetry_cell_setting 'monoclinic'
loop_
_space_group_symop_operation_xyz
x,y,z
-x,y,-z
-x,-y,-z
x,-y,z
1/2+x,1/2+y,z
1/2-x,1/2+y,-z
1/2-x,1/2-y,-z
1/2+x,1/2-y,z
loop_
_atom_site_type_symbol
_atom_site_label
_atom_site_fract_x
_atom_site_fract_y
_atom_site_fract_z
Si Si1 0.215704 0.167544 0.919908
Si Si2 0.056575 0.174133 0.070817
Si Si3 0.081779 0.324800 0.699241
Si Si4 0.684251 0.830399 0.422291
Si Si5 0.691143 0.331829 0.831533
Si Si6 0.013724 0.669552 0.419523
Si Si7 0.435568 0.326676 0.833863
Si Si8 0.921413 0.175652 0.700022
O O1 0.155061 0.164925 0.900149
O O2 0.325587 0.269402 0.857340
O O3 0.253065 0.000000 0.917168
O O4 0.134708 0.243329 0.995282
O O5 0.926157 0.234094 0.135083
O O6 0.104892 0.213297 0.097264
O O7 0.050234 0.000000 0.063820
O O8 0.065373 0.500000 0.707749
O O9 0.211629 0.284885 0.626596
O O10 0.048661 0.258046 0.763134
O O11 0.998459 0.255933 0.700993
O O12 0.608644 0.794185 0.500859
O O13 0.612527 0.806495 0.410467
O O14 0.729579 0.000000 0.403917
O O15 0.721227 0.500000 0.801658
O O16 0.790077 0.223632 0.768694
O O17 0.014677 0.500000 0.401639
O O18 0.034830 0.780131 0.369104
O O19 0.458733 0.500000 0.816766
O O20 0.932705 0.000000 0.700398
#
# Coordination Sequence:
#
# PCOD8116305 Si02
#       8
#     8   8   8   8   8   8   8   8
#     4  10  19  36  61  85 114 153 199 247 295 356
#     4   9  20  36  58  87 114 153 201 242 296 360
#     4  12  25  41  61  86 119 162 206 249 298 353
#     4   9  20  41  68  96 124 157 195 240 289 349
#     4  10  20  37  60  85 116 156 200 246 295 354
#     4   9  20  41  68  95 125 159 195 234 291 355
#     4  11  22  37  57  84 120 157 196 246 300 357
#     4  12  25  40  60  88 123 160 202 250 298 350
#
# _framework density 10.243449
#
# number of rings (size 3 to 8) (size 9 to 14) (size 15 to 20)
#    0.000    1.750    1.250    4.125    1.750    3.000 
#    0.000    3.125    0.000    1.500    0.000    0.000 
#    0.000    0.000    0.000    0.000    0.000    0.000 
#
# Total GULP energy -396670.016133 kJ/mol
# GULP energy per Si atom -12395.938004 kJ/mol
# Density = 1.022013 g / cm^3
# Si number density = 10.243449 Si / 1000 Ang^3
#
#
#
# Elastic Constant Matrix: (Units=GPa)
#
#
# Indices 1 2 3 4 5 6 
#
# 1 31.9104 25.4802 23.9621 0.0008 -1.2061 0.0037
# 2 25.4802 117.4441 52.2126 0.0018 1.9184 0.0016
# 3 23.9621 52.2126 131.0612 -0.0003 3.6467 -0.0003
# 4 0.0008 0.0018 -0.0003 36.9528 0.0002 -0.5934
# 5 -1.2061 1.9184 3.6467 0.0002 35.4818 0.0010
# 6 0.0037 0.0016 -0.0003 -0.5934 0.0010 23.2451
#
#
#
# Elastic Compliance Matrix: (Units=1/GPa)
#
#
# Indices 1 2 3 4 5 6 
#
# 1 0.040331 -0.006660 -0.004782 -0.000001 0.002223 -0.000006
# 2 -0.006660 0.011448 -0.003329 0.000000 -0.000503 0.000000
# 3 -0.004782 -0.003329 0.009858 0.000000 -0.000996 0.000001
# 4 -0.000001 0.000000 0.000000 0.027073 0.000000 0.000691
# 5 0.002223 -0.000503 -0.000996 0.000000 0.028389 -0.000002
# 6 -0.000006 0.000000 0.000001 0.000691 -0.000002 0.043038
#
#
# Mechanical properties :
#
#
# Convention : Reuss Voigt Hill
#
# Bulk Modulus (GPa) = 31.15825 53.74727 42.45276
# Shear Modulus (GPa) = 24.95295 31.05331 28.00313
#
# Velocity S-wave (km/s) = 3.49377 3.89751 3.70115
# Velocity P-wave (km/s) = 5.61401 6.82246 6.24752
#
# Compressibility (1/GPa) = 0.03209422
#
# Stress axis : x y z
#
# Youngs Moduli (GPa) = 24.79474 87.35259 101.43773
#
# Poissons Ratio (x) = 0.58180 0.48510
# Poissons Ratio (y) = 0.16514 0.33768
# Poissons Ratio (z) = 0.11858 0.29079
#
# Static dielectric constant tensor:
#      x y z
#    x 3.550740 0.000000 0.069050 
#    y 0.000000 3.512840 0.000000 
#    z 0.069050 0.000000 3.939710 
# 
# 
# High freq. dielectric constant tensor:
#      x y z
#    x 1.789900 0.000000 0.007880 
#    y 0.000000 1.780290 0.000000 
#    z 0.007880 0.000000 1.822370 
# 
# From -- ./inp_files/377968.got.cif
#   From: 2010.06.25/outbox.ucp.g09.slc.cvg/sg12_189_cif.got.tgz:377968.got - 2010.06.28 13:50:54.
