data_PCOD8116747
_publ_section_title
;
Structure prediction by ZEFSAII (Michael W. Deem and Ramdas Pophale) SiO2 
 PCOD8116747
Probable space group: P 2/C
;
_chemical_formula_sum "Si O2"
_cell_formula_units_Z 20
_cell_length_a 13.595887
_cell_length_b 16.886778
_cell_length_c 5.283069
_cell_angle_alpha 90.000000
_cell_angle_beta 75.251571
_cell_angle_gamma 90.000000
_cell_volume 1172.980693
_symmetry_space_group_name_H-M "P 2/C"
_symmetry_group_IT_number 13
_symmetry_cell_setting 'monoclinic'
loop_
_space_group_symop_operation_xyz
x,y,z
-x,y,1/2-z
-x,-y,-z
x,-y,1/2+z
loop_
_atom_site_type_symbol
_atom_site_label
_atom_site_fract_x
_atom_site_fract_y
_atom_site_fract_z
Si Si1 0.613707 0.968696 0.366349
Si Si2 0.614958 0.212433 0.707310
Si Si3 0.724745 0.550993 0.690349
Si Si4 0.043485 0.411356 0.471550
Si Si5 0.619466 0.711753 0.702027
O O1 0.617541 0.880090 0.263427
O O2 0.500000 0.000000 0.500000
O O3 0.667609 0.979209 0.606265
O O4 0.500000 0.242572 0.750000
O O5 0.666551 0.236676 0.405188
O O6 0.669434 0.258162 0.905096
O O7 0.708427 0.492399 0.466926
O O8 0.835473 0.590155 0.605619
O O9 0.641394 0.619572 0.729383
O O10 0.000000 0.367331 0.250000
O O11 0.000000 0.500000 0.500000
O O12 0.000000 0.367312 0.750000
O O13 0.500000 0.726912 0.750000
#
# Coordination Sequence:
#
# PCOD8116747 Si02
#       5
#     4   4   4   4   4
#     4  10  17  24  44  72  83 107 150 203 226 256
#     4  10  18  32  45  59  95 119 155 196 224 282
#     4  12  21  33  52  67  88 115 167 209 230 278
#     4  10  16  30  49  74  87 104 130 201 261 289
#     4  10  23  34  44  62  89 136 161 191 235 260
#
# _framework density 17.050578999999999
#
# number of rings (size 3 to 8) (size 9 to 14) (size 15 to 20)
#    0.000    1.600    6.000    2.400    5.600    0.800 
#    0.000    0.000    0.000    0.000    0.000    0.000 
#    0.000    0.000    0.000    0.000    0.000   70.000 
#
# Total GULP energy -247770.407219 kJ/mol
# GULP energy per Si atom -12388.520361 kJ/mol
# Density = 1.701177 g / cm^3
# Si number density = 17.050579 Si / 1000 Ang^3
#
#
#
# Elastic Constant Matrix: (Units=GPa)
#
#
# Indices 1 2 3 4 5 6 
#
# 1 17.9748 15.8761 25.7450 0.0000 11.7933 0.0000
# 2 15.8761 72.3315 37.2879 0.0000 14.5472 0.0000
# 3 25.7450 37.2879 165.4853 0.0000 42.3709 0.0000
# 4 0.0000 0.0000 0.0000 14.4256 0.0000 3.6522
# 5 11.7933 14.5472 42.3709 0.0000 22.5249 0.0000
# 6 0.0000 0.0000 0.0000 3.6522 0.0000 2.3649
#
#
#
# Elastic Compliance Matrix: (Units=1/GPa)
#
#
# Indices 1 2 3 4 5 6 
#
# 1 0.093847 -0.011919 -0.002517 0.000000 -0.036702 0.000000
# 2 -0.011919 0.017698 -0.001553 0.000000 -0.002269 0.000000
# 3 -0.002517 -0.001553 0.011941 0.000000 -0.020142 0.000000
# 4 0.000000 0.000000 0.000000 0.113826 0.000000 -0.175786
# 5 -0.036702 -0.002269 -0.020142 0.000000 0.102966 0.000000
# 6 0.000000 0.000000 0.000000 -0.175786 0.000000 0.694324
#
#
# Mechanical properties :
#
#
# Convention : Reuss Voigt Hill
#
# Bulk Modulus (GPa) = 10.92798 45.95664 28.44231
# Shear Modulus (GPa) = 4.55754 19.65526 12.10640
#
# Velocity S-wave (km/s) = 1.63669 3.39892 2.66753
# Velocity P-wave (km/s) = 3.16145 6.51269 5.11908
#
# Compressibility (1/GPa) = 0.09150819
#
# Stress axis : x y z
#
# Youngs Moduli (GPa) = 10.65570 56.50324 83.74174
#
# Poissons Ratio (x) = 0.67349 0.21077
# Poissons Ratio (y) = 0.12701 0.13002
# Poissons Ratio (z) = 0.02682 0.08773
#
# Static dielectric constant tensor:
#      x y z
#    x 2.643400 0.000000 0.204210 
#    y 0.000000 2.770410 0.000000 
#    z 0.204210 0.000000 4.913430 
# 
# 
# High freq. dielectric constant tensor:
#      x y z
#    x 1.589570 0.000000 0.033940 
#    y 0.000000 1.627180 0.000000 
#    z 0.033940 0.000000 1.700680 
# 
# From -- ./inp_files/3262.got.cif
#   From: 2010.06.25/outbox.cif.g09.slc.cpg/sg13_2_cif.got.tgz:3262.got - 2010.06.28 04:50:58.
