data_PCOD8116521
_publ_section_title
;
Structure prediction by ZEFSAII (Michael W. Deem and Ramdas Pophale) SiO2 
 PCOD8116521
Probable space group: C 2/M
;
_chemical_formula_sum "Si O2"
_cell_formula_units_Z 28
_cell_length_a 9.000000
_cell_length_b 18.000000
_cell_length_c 27.000000
_cell_angle_alpha 90.000000
_cell_angle_beta 40.000000
_cell_angle_gamma 90.000000
_cell_volume 2811.553005
_symmetry_space_group_name_H-M "C 2/M"
_symmetry_group_IT_number 12
_symmetry_cell_setting 'monoclinic'
loop_
_space_group_symop_operation_xyz
x,y,z
-x,y,-z
-x,-y,-z
x,-y,z
1/2+x,1/2+y,z
1/2-x,1/2+y,-z
1/2-x,1/2-y,-z
1/2+x,1/2-y,z
loop_
_atom_site_type_symbol
_atom_site_label
_atom_site_fract_x
_atom_site_fract_y
_atom_site_fract_z
Si Si1 0.511421 0.087935 0.642937
Si Si2 0.222891 0.822672 0.974338
Si Si3 0.771473 0.916039 0.935647
Si Si4 0.185899 0.411560 0.492379
Si Si5 0.800026 0.911721 0.663909
Si Si6 0.164827 0.322056 0.793369
Si Si7 0.541341 0.333631 0.781047
O O1 0.624648 0.119058 0.563046
O O2 0.650454 0.117725 0.655374
O O3 0.245495 0.111282 0.713992
O O4 0.521448 0.000000 0.639323
O O5 0.438047 0.840330 0.883596
O O6 0.250000 0.750000 0.000000
O O7 0.167556 0.891975 0.024160
O O8 0.000000 0.806128 0.000000
O O9 0.893420 0.865264 0.864074
O O10 0.855673 0.000000 0.906112
O O11 0.500000 0.906914 0.000000
O O12 0.183063 0.500000 0.494025
O O13 0.438406 0.382825 0.411315
O O14 0.000000 0.381308 0.500000
O O15 0.695060 0.882374 0.742249
O O16 0.791884 0.000000 0.669150
O O17 0.384619 0.322511 0.773005
O O18 0.149748 0.243247 0.770723
#
# Coordination Sequence:
#
# PCOD8116521 Si02
#       7
#     8   8   8   8   8   8   8
#     4  10  21  38  63  92 127 168 205 255 312 368
#     4  12  24  42  67  90 122 167 212 255 310 373
#     4  11  24  43  65  93 125 160 205 259 313 366
#     4   9  17  34  61  91 125 166 208 250 306 371
#     4  10  22  39  61  94 129 161 208 260 309 369
#     4  12  25  40  64  90 122 164 209 256 316 372
#     4  12  24  41  62  90 122 163 209 258 308 376
#
# _framework density 9.9589090000000002
#
# number of rings (size 3 to 8) (size 9 to 14) (size 15 to 20)
#    0.000    1.143    2.857    3.857    2.000    4.857 
#    0.000    0.714    0.000    0.000    0.000    0.000 
#    0.000    0.000    0.000    0.000    0.000    0.000 
#
# Total GULP energy -347275.087892 kJ/mol
# GULP energy per Si atom -12402.681710 kJ/mol
# Density = 0.993624 g / cm^3
# Si number density = 9.958909 Si / 1000 Ang^3
#
#
#
# Elastic Constant Matrix: (Units=GPa)
#
#
# Indices 1 2 3 4 5 6 
#
# 1 192.2299 36.5088 74.1286 -0.0060 5.7042 0.0124
# 2 36.5088 43.2954 27.2686 0.0217 3.3499 0.0024
# 3 74.1286 27.2686 151.8040 -0.0026 15.2390 0.0335
# 4 -0.0060 0.0217 -0.0026 24.7607 0.0181 4.9110
# 5 5.7042 3.3499 15.2390 0.0181 43.1007 -0.0132
# 6 0.0124 0.0024 0.0335 4.9110 -0.0132 35.8327
#
#
#
# Elastic Compliance Matrix: (Units=1/GPa)
#
#
# Indices 1 2 3 4 5 6 
#
# 1 0.007046 -0.004262 -0.002711 0.000005 0.000357 0.000000
# 2 -0.004262 0.028628 -0.003001 -0.000027 -0.000600 0.000006
# 3 -0.002711 -0.003001 0.008700 0.000006 -0.002484 -0.000009
# 4 0.000005 -0.000027 0.000006 0.041515 -0.000020 -0.005690
# 5 0.000357 -0.000600 -0.002484 -0.000020 0.024079 0.000014
# 6 0.000000 0.000006 -0.000009 -0.005690 0.000014 0.028687
#
#
# Mechanical properties :
#
#
# Convention : Reuss Voigt Hill
#
# Bulk Modulus (GPa) = 40.94073 73.68237 57.31155
# Shear Modulus (GPa) = 29.98582 37.36703 33.67642
#
# Velocity S-wave (km/s) = 3.88426 4.33605 4.11636
# Velocity P-wave (km/s) = 6.38091 7.88302 7.17140
#
# Compressibility (1/GPa) = 0.02442556
#
# Stress axis : x y z
#
# Youngs Moduli (GPa) = 141.91538 34.93133 114.94545
#
# Poissons Ratio (x) = 0.14888 0.31164
# Poissons Ratio (y) = 0.60484 0.34495
# Poissons Ratio (z) = 0.38476 0.10483
#
# Static dielectric constant tensor:
#      x y z
#    x 4.097560 0.000030 0.158340 
#    y 0.000030 3.474780 0.000030 
#    z 0.158340 0.000030 3.927390 
# 
# 
# High freq. dielectric constant tensor:
#      x y z
#    x 1.798640 0.000000 0.007150 
#    y 0.000000 1.755910 0.000000 
#    z 0.007150 0.000000 1.801240 
# 
# From -- ./inp_files/197534.got.cif
#   From: 2010.06.25/outbox.ucp.g09.slc.cvg/sg12_99_cif.got.tgz:197534.got - 2010.06.28 13:50:54.
