data_PCOD8116394
_publ_section_title
;
Structure prediction by ZEFSAII (Michael W. Deem and Ramdas Pophale) SiO2 
 PCOD8116394
Probable space group: C 2/M
;
_chemical_formula_sum "Si O2"
_cell_formula_units_Z 28
_cell_length_a 21.000000
_cell_length_b 9.000000
_cell_length_c 30.000000
_cell_angle_alpha 90.000000
_cell_angle_beta 150.000000
_cell_angle_gamma 90.000000
_cell_volume 2835.000000
_symmetry_space_group_name_H-M "C 2/M"
_symmetry_group_IT_number 12
_symmetry_cell_setting 'monoclinic'
loop_
_space_group_symop_operation_xyz
x,y,z
-x,y,-z
-x,-y,-z
x,-y,z
1/2+x,1/2+y,z
1/2-x,1/2+y,-z
1/2-x,1/2-y,-z
1/2+x,1/2-y,z
loop_
_atom_site_type_symbol
_atom_site_label
_atom_site_fract_x
_atom_site_fract_y
_atom_site_fract_z
Si Si1 0.373358 0.823470 0.097285
Si Si2 0.650558 0.176480 0.595131
Si Si3 0.142631 0.675902 0.215444
Si Si4 0.650001 0.824048 0.815430
Si Si5 0.866045 0.331540 0.894238
Si Si6 0.564546 0.167139 0.378755
Si Si7 0.317233 0.667046 0.474408
O O1 0.508110 0.773727 0.156573
O O2 0.372381 0.766890 0.147862
O O3 0.358009 0.000000 0.084063
O O4 0.250000 0.750000 0.000000
O O5 0.500000 0.223018 0.500000
O O6 0.732929 0.246814 0.686043
O O7 0.713381 0.236175 0.587732
O O8 0.663952 0.000000 0.606773
O O9 0.159993 0.500000 0.231800
O O10 0.133573 0.721320 0.157473
O O11 0.781225 0.772104 0.873869
O O12 0.539774 0.759546 0.716722
O O13 0.644562 0.000000 0.812667
O O14 0.815288 0.500000 0.865022
O O15 0.000000 0.319855 0.000000
O O16 0.569543 0.261188 0.427524
O O17 0.694831 0.166491 0.431028
O O18 0.527125 0.000000 0.370228
O O19 0.355760 0.500000 0.483652
#
# Coordination Sequence:
#
# PCOD8116394 Si02
#       7
#     8   8   8   8   8   8   8
#     4  10  21  39  63  91 121 156 199 249 305 361
#     4  11  25  41  58  83 119 161 204 252 302 357
#     4  10  22  41  64  89 121 161 206 253 302 361
#     4  10  21  36  58  85 116 151 191 238 292 354
#     4  10  22  40  61  87 120 156 195 244 298 354
#     4   9  19  36  57  83 115 150 187 237 294 346
#     4  10  20  36  59  84 114 151 193 239 288 348
#
# _framework density 9.8765429999999999
#
# number of rings (size 3 to 8) (size 9 to 14) (size 15 to 20)
#    0.000    2.000    0.000    2.571    2.000    7.714 
#    0.000    1.429    0.000    0.000    0.000    0.000 
#    0.000    0.000    0.000    0.000    0.000    0.000 
#
# Total GULP energy -347090.571734 kJ/mol
# GULP energy per Si atom -12396.091848 kJ/mol
# Density = 0.985406 g / cm^3
# Si number density = 9.876543 Si / 1000 Ang^3
#
#
#
# Elastic Constant Matrix: (Units=GPa)
#
#
# Indices 1 2 3 4 5 6 
#
# 1 114.4406 25.1949 43.2310 0.0000 -20.6370 0.0000
# 2 25.1949 55.7132 40.0367 -0.0002 -6.4042 0.0002
# 3 43.2310 40.0367 153.5505 -0.0003 -21.0056 0.0000
# 4 0.0000 -0.0002 -0.0003 39.4994 -0.0001 -2.3715
# 5 -20.6370 -6.4042 -21.0056 -0.0001 42.5057 0.0000
# 6 0.0000 0.0002 0.0000 -2.3715 0.0000 27.0191
#
#
#
# Elastic Compliance Matrix: (Units=1/GPa)
#
#
# Indices 1 2 3 4 5 6 
#
# 1 0.010785 -0.003236 -0.001655 0.000000 0.003931 0.000000
# 2 -0.003236 0.023069 -0.005195 0.000000 -0.000662 0.000000
# 3 -0.001655 -0.005195 0.008704 0.000000 0.002715 0.000000
# 4 0.000000 0.000000 0.000000 0.025451 0.000000 0.002234
# 5 0.003931 -0.000662 0.002715 0.000000 0.026677 0.000000
# 6 0.000000 0.000000 0.000000 0.002234 0.000000 0.037207
#
#
# Mechanical properties :
#
#
# Convention : Reuss Voigt Hill
#
# Bulk Modulus (GPa) = 44.66838 60.06996 52.36917
# Shear Modulus (GPa) = 31.34281 36.15428 33.74855
#
# Velocity S-wave (km/s) = 3.98770 4.28285 4.13791
# Velocity P-wave (km/s) = 6.62305 7.41172 7.02845
#
# Compressibility (1/GPa) = 0.02238720
#
# Stress axis : x y z
#
# Youngs Moduli (GPa) = 92.72542 43.34768 114.88519
#
# Poissons Ratio (x) = 0.14027 0.19012
# Poissons Ratio (y) = 0.30006 0.59679
# Poissons Ratio (z) = 0.15345 0.22518
#
# Static dielectric constant tensor:
#      x y z
#    x 3.767470 0.000000 -0.191440 
#    y 0.000000 3.646730 0.000000 
#    z -0.191440 0.000000 4.003970 
# 
# 
# High freq. dielectric constant tensor:
#      x y z
#    x 1.783970 0.000000 -0.012420 
#    y 0.000000 1.763610 0.000000 
#    z -0.012420 0.000000 1.795850 
# 
# From -- ./inp_files/380711.got.cif
#   From: 2010.06.25/outbox.ucp.g09.slc.cvg/sg12_191_cif.got.tgz:380711.got - 2010.06.28 13:50:54.
