data_PCOD8116221
_publ_section_title
;
Structure prediction by ZEFSAII (Michael W. Deem and Ramdas Pophale) SiO2 
 PCOD8116221
Probable space group: C 2/M
;
_chemical_formula_sum "Si O2"
_cell_formula_units_Z 32
_cell_length_a 24.000000
_cell_length_b 9.000000
_cell_length_c 30.000000
_cell_angle_alpha 90.000000
_cell_angle_beta 30.000000
_cell_angle_gamma 90.000000
_cell_volume 3240.000000
_symmetry_space_group_name_H-M "C 2/M"
_symmetry_group_IT_number 12
_symmetry_cell_setting 'monoclinic'
loop_
_space_group_symop_operation_xyz
x,y,z
-x,y,-z
-x,-y,-z
x,-y,z
1/2+x,1/2+y,z
1/2-x,1/2+y,-z
1/2-x,1/2-y,-z
1/2+x,1/2-y,z
loop_
_atom_site_type_symbol
_atom_site_label
_atom_site_fract_x
_atom_site_fract_y
_atom_site_fract_z
Si Si1 0.269029 0.175366 0.268043
Si Si2 0.463750 0.665867 0.823484
Si Si3 0.097064 0.168644 0.963630
Si Si4 0.678770 0.168850 0.246045
Si Si5 0.229108 0.833153 0.643718
Si Si6 0.474924 0.826030 0.903903
Si Si7 0.281064 0.834899 0.434811
Si Si8 0.544054 0.834177 0.256921
O O1 0.191645 0.230368 0.280968
O O2 0.226289 0.249887 0.343270
O O3 0.398117 0.223561 0.172451
O O4 0.256433 0.000000 0.281155
O O5 0.416660 0.500000 0.860671
O O6 0.596753 0.666041 0.731326
O O7 0.426262 0.761014 0.891830
O O8 0.410874 0.732996 0.814758
O O9 0.211213 0.181356 0.859077
O O10 0.067652 0.000000 0.997676
O O11 0.000000 0.235336 0.000000
O O12 0.105565 0.267616 0.001795
O O13 0.580027 0.226270 0.281229
O O14 0.657130 0.000000 0.276934
O O15 0.274357 0.747098 0.569044
O O16 0.277049 0.000000 0.610834
O O17 0.467304 0.000000 0.904859
O O18 0.250000 0.750000 0.500000
O O19 0.413144 0.840614 0.341599
O O20 0.230691 0.000000 0.471027
O O21 0.595617 0.000000 0.216486
#
# Coordination Sequence:
#
# PCOD8116221 Si02
#       8
#     8   8   8   8   8   8   8   8
#     4  10  19  30  47  73 102 133 169 210 251 293
#     4   9  17  30  50  72  96 127 166 210 253 297
#     4  10  19  31  48  70  97 129 170 216 256 294
#     4  10  20  34  51  71  99 136 171 206 251 300
#     4   9  17  30  50  76 103 131 165 205 247 292
#     4  10  19  30  47  70  98 129 167 214 259 299
#     4  10  19  33  55  82 108 132 161 199 244 293
#     4   9  19  35  53  74 102 133 166 202 244 298
#
# _framework density 9.8765429999999999
#
# number of rings (size 3 to 8) (size 9 to 14) (size 15 to 20)
#    0.000    2.375    1.250    1.875    0.000    5.750 
#    0.000    0.625    0.000    0.750    0.000    5.250 
#    0.000    0.000    0.000    0.000    0.000    0.000 
#
# Total GULP energy -396705.930178 kJ/mol
# GULP energy per Si atom -12397.060318 kJ/mol
# Density = 0.985406 g / cm^3
# Si number density = 9.876543 Si / 1000 Ang^3
#
#
#
# Elastic Constant Matrix: (Units=GPa)
#
#
# Indices 1 2 3 4 5 6 
#
# 1 156.1963 75.3235 15.3351 -0.0471 37.7264 0.0950
# 2 75.3235 121.1775 23.9117 -0.0388 29.5321 0.0367
# 3 15.3351 23.9117 16.2039 -0.0217 23.4319 0.0308
# 4 -0.0471 -0.0388 -0.0217 13.7830 0.0192 8.5821
# 5 37.7264 29.5321 23.4319 0.0192 34.0048 -0.0447
# 6 0.0950 0.0367 0.0308 8.5821 -0.0447 38.3305
#
#
#
# Elastic Compliance Matrix: (Units=1/GPa)
#
#
# Indices 1 2 3 4 5 6 
#
# 1 0.000480 0.002690 -0.077901 -0.000300 0.050811 0.000185
# 2 0.002690 0.007133 0.057320 0.000302 -0.048677 -0.000184
# 3 -0.077901 0.057320 -0.606613 -0.002807 0.454653 0.001784
# 4 -0.000300 0.000302 -0.002807 0.084295 0.001932 -0.018868
# 5 0.050811 -0.048677 0.454653 0.001932 -0.297983 -0.001225
# 6 0.000185 -0.000184 0.001784 -0.018868 -0.001225 0.030310
#
#
# Mechanical properties :
#
#
# Convention : Reuss Voigt Hill
#
# Bulk Modulus (GPa) = -1.57535 58.07981 28.25223
# Shear Modulus (GPa) = -5.21816 29.15748 11.96966
#
# Velocity S-wave (km/s) = -1.62709 3.84617 2.46430
# Velocity P-wave (km/s) = 2.08066 7.01361 4.73612
#
# Compressibility (1/GPa) = -0.63478141
#
# Stress axis : x y z
#
# Youngs Moduli (GPa) = 2081.31280 140.20134 -1.64850
#
# Poissons Ratio (x) = -0.37716 -0.12842
# Poissons Ratio (y) = -5.59907 0.09449
# Poissons Ratio (z) = 162.13573 -8.03634
#
# Static dielectric constant tensor:
#      x y z
#    x 5.301830 -0.001550 0.099200 
#    y -0.001550 3.698590 -0.000270 
#    z 0.099200 -0.000270 2.976710 
# 
# 
# High freq. dielectric constant tensor:
#      x y z
#    x 1.779920 0.000000 0.022310 
#    y 0.000000 1.770500 0.000000 
#    z 0.022310 0.000000 1.716510 
# 
# From -- ./inp_files/281402.got.cif
#   From: 2010.06.25/outbox.ucp.g09.slc.cvg/sg12_141_cif.got.tgz:281402.got - 2010.06.28 13:50:54.
