data_PCOD8116225
_publ_section_title
;
Structure prediction by ZEFSAII (Michael W. Deem and Ramdas Pophale) SiO2 
 PCOD8116225
Probable space group: C 2/M
;
_chemical_formula_sum "Si O2"
_cell_formula_units_Z 24
_cell_length_a 15.000000
_cell_length_b 15.000000
_cell_length_c 24.000000
_cell_angle_alpha 90.000000
_cell_angle_beta 30.000000
_cell_angle_gamma 90.000000
_cell_volume 2700.000000
_symmetry_space_group_name_H-M "C 2/M"
_symmetry_group_IT_number 12
_symmetry_cell_setting 'monoclinic'
loop_
_space_group_symop_operation_xyz
x,y,z
-x,y,-z
-x,-y,-z
x,-y,z
1/2+x,1/2+y,z
1/2-x,1/2+y,-z
1/2-x,1/2-y,-z
1/2+x,1/2-y,z
loop_
_atom_site_type_symbol
_atom_site_label
_atom_site_fract_x
_atom_site_fract_y
_atom_site_fract_z
Si Si1 0.050551 0.102475 0.338450
Si Si2 0.158835 0.277384 0.223977
Si Si3 0.805913 0.318145 0.923611
Si Si4 0.039459 0.095782 0.914429
Si Si5 0.673209 0.896934 0.591387
Si Si6 0.322136 0.898370 0.285819
O O1 0.840297 0.119737 0.460377
O O2 0.131429 0.172576 0.251007
O O3 0.148226 0.121573 0.343791
O O4 0.084071 0.000000 0.300308
O O5 0.192403 0.280057 0.140024
O O6 0.324123 0.321461 0.168650
O O7 0.989226 0.333452 0.337703
O O8 0.003379 0.349712 0.832251
O O9 0.750000 0.250000 0.000000
O O10 0.651051 0.392003 0.012545
O O11 0.119173 0.000000 0.850426
O O12 0.000000 0.087532 0.000000
O O13 0.729031 0.870783 0.623896
O O14 0.611151 0.000000 0.621611
O O15 0.378069 0.000000 0.253413
#
# Coordination Sequence:
#
# PCOD8116225 Si02
#       6
#     8   8   8   8   8   8
#     4  10  19  31  47  69  98 127 153 185 229 283
#     4  10  19  31  48  69  95 123 154 192 233 277
#     4  10  19  31  47  67  93 123 156 191 229 274
#     4   9  17  30  49  70  90 114 149 195 238 268
#     4   9  17  30  50  73  93 117 153 196 238 274
#     4   9  17  30  48  69  91 117 153 195 233 269
#
# _framework density 8.8888890000000007
#
# number of rings (size 3 to 8) (size 9 to 14) (size 15 to 20)
#    0.000    2.500    0.000    3.000    0.000    6.000 
#    0.000    1.667    0.000    6.500    0.000    0.000 
#    0.000   17.333    0.000    0.000    0.000    0.000 
#
# Total GULP energy -297362.530420 kJ/mol
# GULP energy per Si atom -12390.105434 kJ/mol
# Density = 0.886866 g / cm^3
# Si number density = 8.888889 Si / 1000 Ang^3
#
#
#
# Elastic Constant Matrix: (Units=GPa)
#
#
# Indices 1 2 3 4 5 6 
#
# 1 24.4843 19.7976 15.6957 -0.0017 -10.2821 0.0002
# 2 19.7976 104.9863 49.5246 -0.0022 -2.5851 0.0005
# 3 15.6957 49.5246 82.0129 -0.0067 -10.3801 0.0031
# 4 -0.0017 -0.0022 -0.0067 36.9190 0.0019 -3.5028
# 5 -10.2821 -2.5851 -10.3801 0.0019 20.7592 -0.0007
# 6 0.0002 0.0005 0.0031 -3.5028 -0.0007 7.8981
#
#
#
# Elastic Compliance Matrix: (Units=1/GPa)
#
#
# Indices 1 2 3 4 5 6 
#
# 1 0.062341 -0.009966 -0.002308 0.000001 0.028483 0.000003
# 2 -0.009966 0.015037 -0.008072 0.000000 -0.007100 0.000002
# 3 -0.002308 -0.008072 0.018402 0.000002 0.007053 -0.000005
# 4 0.000001 0.000000 0.000002 0.028276 -0.000001 0.012540
# 5 0.028483 -0.007100 0.007053 -0.000001 0.064921 0.000002
# 6 0.000003 0.000002 -0.000005 0.012540 0.000002 0.132174
#
#
# Mechanical properties :
#
#
# Convention : Reuss Voigt Hill
#
# Bulk Modulus (GPa) = 18.15235 42.39105 30.27170
# Shear Modulus (GPa) = 13.15076 21.54631 17.34854
#
# Velocity S-wave (km/s) = 2.72275 3.48513 3.12726
# Velocity P-wave (km/s) = 4.48524 6.33179 5.48675
#
# Compressibility (1/GPa) = 0.05508928
#
# Stress axis : x y z
#
# Youngs Moduli (GPa) = 16.04068 66.50201 54.34264
#
# Poissons Ratio (x) = 0.66275 0.12542
# Poissons Ratio (y) = 0.15986 0.43864
# Poissons Ratio (z) = 0.03702 0.53678
#
# Static dielectric constant tensor:
#      x y z
#    x 2.793730 -0.000030 -0.021720 
#    y -0.000030 3.458310 0.000050 
#    z -0.021720 0.000050 3.149280 
# 
# 
# High freq. dielectric constant tensor:
#      x y z
#    x 1.661410 0.000000 -0.027360 
#    y 0.000000 1.685040 0.000000 
#    z -0.027360 0.000000 1.687540 
# 
# From -- ./inp_files/142702.got.cif
#   From: 2010.06.25/outbox.ucp.g09.slc.cvg/sg12_72_cif.got.tgz:142702.got - 2010.06.28 13:50:54.
