data_PCOD8116014
_publ_section_title
;
Structure prediction by ZEFSAII (Michael W. Deem and Ramdas Pophale) SiO2 
 PCOD8116014
Probable space group: C 2/M
;
_chemical_formula_sum "Si O2"
_cell_formula_units_Z 64
_cell_length_a 28.912895
_cell_length_b 9.218537
_cell_length_c 21.204377
_cell_angle_alpha 90.000000
_cell_angle_beta 132.452356
_cell_angle_gamma 90.000000
_cell_volume 4170.043900
_symmetry_space_group_name_H-M "C 2/M"
_symmetry_group_IT_number 12
_symmetry_cell_setting 'monoclinic'
loop_
_space_group_symop_operation_xyz
x,y,z
-x,y,-z
-x,-y,-z
x,-y,z
1/2+x,1/2+y,z
1/2-x,1/2+y,-z
1/2-x,1/2-y,-z
1/2+x,1/2-y,z
loop_
_atom_site_type_symbol
_atom_site_label
_atom_site_fract_x
_atom_site_fract_y
_atom_site_fract_z
Si Si1 0.973734 0.172129 0.664284
Si Si2 0.301421 0.169767 0.006316
Si Si3 0.890386 0.827540 0.168357
Si Si4 0.186820 0.826935 0.660820
Si Si5 0.949326 0.826871 0.502719
Si Si6 0.791646 0.831947 0.181332
Si Si7 0.753725 0.330894 0.599153
Si Si8 0.844412 0.830922 0.599187
O O1 0.966868 0.235781 0.587569
O O2 0.915398 0.224827 0.653329
O O3 0.038815 0.225023 0.754490
O O4 0.972870 0.000000 0.658786
O O5 0.367597 0.247379 0.082880
O O6 0.304513 0.000000 0.026293
O O7 0.250000 0.250000 0.000000
O O8 0.278010 0.191601 0.912425
O O9 0.846755 0.772079 0.186248
O O10 0.885000 0.000000 0.153923
O O11 0.118277 0.767160 0.580225
O O12 0.206144 0.760991 0.746927
O O13 0.236176 0.774910 0.653064
O O14 0.185906 0.000000 0.660332
O O15 0.000000 0.767039 0.500000
O O16 0.949145 0.000000 0.503623
O O17 0.806631 0.000000 0.203488
O O18 0.768820 0.500000 0.612549
O O19 0.816239 0.249946 0.633868
O O20 0.695308 0.294707 0.499930
O O21 0.842922 0.000000 0.612929
#
# Coordination Sequence:
#
# PCOD8116014 Si02
#       8
#     8   8   8   8   8   8   8   8
#     4   9  15  24  37  57  83 110 136 164 200 240
#     4   9  16  27  42  60  83 109 138 170 204 238
#     4   9  16  26  41  61  85 110 137 166 200 241
#     4   9  14  22  36  58  84 106 131 165 204 240
#     4   9  14  19  31  54  84 111 133 160 194 234
#     4   8  14  23  37  58  83 108 131 162 202 241
#     4   9  16  26  41  59  79 104 135 170 204 239
#     4   9  16  27  41  57  80 107 135 168 204 239
#
# _framework density 15.34756
#
# number of rings (size 3 to 8) (size 9 to 14) (size 15 to 20)
#    0.000    3.125    1.250    1.875    0.000    3.000 
#    0.000    0.625    0.000    3.750    0.000    0.875 
#    0.000   12.500    0.000    0.000    0.000    0.000 
#
# Total GULP energy -396538.264939 kJ/mol
# GULP energy per Si atom -12391.820779 kJ/mol
# Density = 1.531263 g / cm^3
# Si number density = 15.347560 Si / 1000 Ang^3
#
#
#
# Elastic Constant Matrix: (Units=GPa)
#
#
# Indices 1 2 3 4 5 6 
#
# 1 121.7258 22.5665 68.8158 0.0000 7.2805 0.0000
# 2 22.5665 25.2344 28.5537 0.0000 1.0706 0.0000
# 3 68.8158 28.5537 129.1222 0.0000 7.4458 0.0000
# 4 0.0000 0.0000 0.0000 17.2969 0.0000 2.0493
# 5 7.2805 1.0706 7.4458 0.0000 15.1848 0.0000
# 6 0.0000 0.0000 0.0000 2.0493 0.0000 16.4554
#
#
#
# Elastic Compliance Matrix: (Units=1/GPa)
#
#
# Indices 1 2 3 4 5 6 
#
# 1 0.012293 -0.004865 -0.005306 0.000000 -0.002949 0.000000
# 2 -0.004865 0.054842 -0.009721 0.000000 0.003233 0.000000
# 3 -0.005306 -0.009721 0.012901 0.000000 -0.003097 0.000000
# 4 0.000000 0.000000 0.000000 0.058680 0.000000 -0.007308
# 5 -0.002949 0.003233 -0.003097 0.000000 0.068560 0.000000
# 6 0.000000 0.000000 0.000000 -0.007308 0.000000 0.061680
#
#
# Mechanical properties :
#
#
# Convention : Reuss Voigt Hill
#
# Bulk Modulus (GPa) = 24.84352 57.32827 41.08589
# Shear Modulus (GPa) = 15.52045 20.19718 17.85881
#
# Velocity S-wave (km/s) = 3.18349 3.63159 3.41490
# Velocity P-wave (km/s) = 5.45300 7.41748 6.50977
#
# Compressibility (1/GPa) = 0.04025195
#
# Stress axis : x y z
#
# Youngs Moduli (GPa) = 81.34759 18.23431 77.51566
#
# Poissons Ratio (x) = 0.08870 0.41128
# Poissons Ratio (y) = 0.39572 0.75356
# Poissons Ratio (z) = 0.43161 0.17726
#
# Static dielectric constant tensor:
#      x y z
#    x 3.004070 0.000000 -0.016250 
#    y 0.000000 2.593370 0.000000 
#    z -0.016250 0.000000 3.316950 
# 
# 
# High freq. dielectric constant tensor:
#      x y z
#    x 1.572250 0.000000 0.000980 
#    y 0.000000 1.542670 0.000000 
#    z 0.000980 0.000000 1.584160 
# 
# From -- ./inp_files/324779.got.cif
#   From: 2010.06.25/outbox.cif.g09.slc.cpg/sg12_163_cif.got.tgz:324779.got - 2010.06.28 00:19:55.
