data_PCOD8116819
_publ_section_title
;
Structure prediction by ZEFSAII (Michael W. Deem and Ramdas Pophale) SiO2 
 PCOD8116819
Probable space group: P 2/C
;
_chemical_formula_sum "Si O2"
_cell_formula_units_Z 24
_cell_length_a 9.694818
_cell_length_b 8.086426
_cell_length_c 22.026145
_cell_angle_alpha 90.000000
_cell_angle_beta 138.007766
_cell_angle_gamma 90.000000
_cell_volume 1155.261448
_symmetry_space_group_name_H-M "P 2/C"
_symmetry_group_IT_number 13
_symmetry_cell_setting 'monoclinic'
loop_
_space_group_symop_operation_xyz
x,y,z
-x,y,1/2-z
-x,-y,-z
x,-y,1/2+z
loop_
_atom_site_type_symbol
_atom_site_label
_atom_site_fract_x
_atom_site_fract_y
_atom_site_fract_z
Si Si1 0.420182 0.854915 0.657309
Si Si2 0.739428 0.875570 0.101501
Si Si3 0.673671 0.899221 0.473821
Si Si4 0.792865 0.632291 0.760679
Si Si5 0.000000 0.879431 0.750000
Si Si6 0.033478 0.652984 0.556094
Si Si7 0.000000 0.621044 0.250000
O O1 0.500000 0.907119 0.750000
O O2 0.437159 0.704679 0.820401
O O3 0.186218 0.789649 0.578337
O O4 0.425202 0.021037 0.618964
O O5 0.504245 0.824756 0.039960
O O6 0.893955 0.722642 0.160855
O O7 0.798000 0.013234 0.170690
O O8 0.775338 0.949137 0.045624
O O9 0.822788 0.748627 0.504162
O O10 0.853758 0.575844 0.848057
O O11 0.957164 0.773144 0.796079
O O12 0.816324 0.482496 0.721096
O O13 0.000000 0.500000 0.500000
#
# Coordination Sequence:
#
# PCOD8116819 Si02
#       7
#     4   4   4   4   2   4   2
#     4  10  23  42  63  86 122 171 209 253 317 380
#     4  10  22  37  65  96 117 160 206 273 312 378
#     4  11  22  42  64  94 122 157 219 266 315 382
#     4  10  21  42  61  90 125 166 205 261 325 380
#     4  10  16  40  64  84 124 158 198 262 318 366
#     4  11  25  41  62  90 128 169 205 260 318 383
#     4  10  24  36  66  92 126 164 206 270 326 378
#
# _framework density 20.774519000000002
#
# number of rings (size 3 to 8) (size 9 to 14) (size 15 to 20)
#    0.000    1.667    3.333    0.500    4.667    0.000 
#    3.000    1.667    0.000    0.000    0.000    0.000 
#    0.000    0.000    0.000    0.000    0.000    0.000 
#
# Total GULP energy -297504.230673 kJ/mol
# GULP energy per Si atom -12396.009611 kJ/mol
# Density = 2.072724 g / cm^3
# Si number density = 20.774519 Si / 1000 Ang^3
#
#
#
# Elastic Constant Matrix: (Units=GPa)
#
#
# Indices 1 2 3 4 5 6 
#
# 1 95.8538 36.7690 25.0925 0.0000 6.2154 0.0000
# 2 36.7690 83.8349 36.0897 0.0000 -2.9288 0.0000
# 3 25.0925 36.0897 80.5692 0.0000 -3.0376 0.0000
# 4 0.0000 0.0000 0.0000 28.1657 0.0000 -4.1206
# 5 6.2154 -2.9288 -3.0376 0.0000 36.5925 0.0000
# 6 0.0000 0.0000 0.0000 -4.1206 0.0000 32.6103
#
#
#
# Elastic Compliance Matrix: (Units=1/GPa)
#
#
# Indices 1 2 3 4 5 6 
#
# 1 0.013028 -0.004979 -0.001932 0.000000 -0.002772 0.000000
# 2 -0.004979 0.016696 -0.005864 0.000000 0.001695 0.000000
# 3 -0.001932 -0.005864 0.015684 0.000000 0.001161 0.000000
# 4 0.000000 0.000000 0.000000 0.036173 0.000000 0.004571
# 5 -0.002772 0.001695 0.001161 0.000000 0.028031 0.000000
# 6 0.000000 0.000000 0.000000 0.004571 0.000000 0.031243
#
#
# Mechanical properties :
#
#
# Convention : Reuss Voigt Hill
#
# Bulk Modulus (GPa) = 50.35793 50.68447 50.52120
# Shear Modulus (GPa) = 28.89805 30.29415 29.59610
#
# Velocity S-wave (km/s) = 3.73370 3.82283 3.77853
# Velocity P-wave (km/s) = 6.54830 6.62840 6.58847
#
# Compressibility (1/GPa) = 0.01985784
#
# Stress axis : x y z
#
# Youngs Moduli (GPa) = 76.75822 59.89621 63.76068
#
# Poissons Ratio (x) = 0.29824 0.12316
# Poissons Ratio (y) = 0.38219 0.37388
# Poissons Ratio (z) = 0.14826 0.35122
#
# Static dielectric constant tensor:
#      x y z
#    x 3.824650 0.000000 -0.034980 
#    y 0.000000 3.520500 0.000000 
#    z -0.034980 0.000000 3.701940 
# 
# 
# High freq. dielectric constant tensor:
#      x y z
#    x 1.819410 0.000000 -0.001190 
#    y 0.000000 1.793280 0.000000 
#    z -0.001190 0.000000 1.814010 
# 
# From -- ./inp_files/75793.got.cif
#   From: 2010.06.25/outbox.cif.g09.slc.cpg/sg13_38_cif.got.tgz:75793.got - 2010.06.28 04:50:58.
