data_PCOD8116594
_publ_section_title
;
Structure prediction by ZEFSAII (Michael W. Deem and Ramdas Pophale) SiO2 
 PCOD8116594
Probable space group: C 2/M
;
_chemical_formula_sum "Si O2"
_cell_formula_units_Z 28
_cell_length_a 21.000000
_cell_length_b 18.000000
_cell_length_c 21.000000
_cell_angle_alpha 90.000000
_cell_angle_beta 160.000000
_cell_angle_gamma 90.000000
_cell_volume 2714.955898
_symmetry_space_group_name_H-M "C 2/M"
_symmetry_group_IT_number 12
_symmetry_cell_setting 'monoclinic'
loop_
_space_group_symop_operation_xyz
x,y,z
-x,y,-z
-x,-y,-z
x,-y,z
1/2+x,1/2+y,z
1/2-x,1/2+y,-z
1/2-x,1/2-y,-z
1/2+x,1/2-y,z
loop_
_atom_site_type_symbol
_atom_site_label
_atom_site_fract_x
_atom_site_fract_y
_atom_site_fract_z
Si Si1 0.796828 0.417620 0.076453
Si Si2 0.730558 0.774127 0.871856
Si Si3 0.466877 0.363025 0.270200
Si Si4 0.904235 0.712685 0.841304
Si Si5 0.801948 0.584867 0.502942
Si Si6 0.074473 0.328126 0.504659
Si Si7 0.623507 0.413028 0.553381
O O1 0.749920 0.500000 0.060282
O O2 0.717608 0.353376 0.048043
O O3 0.020131 0.408862 0.283342
O O4 0.703948 0.411236 0.919289
O O5 0.599427 0.722833 0.793371
O O6 0.608179 0.785264 0.693106
O O7 0.925687 0.732098 0.045707
O O8 0.641892 0.367967 0.386923
O O9 0.512459 0.390371 0.384637
O O10 0.738820 0.771987 0.678033
O O11 0.816883 0.632429 0.741436
O O12 0.000000 0.712358 0.000000
O O13 0.734211 0.500000 0.432326
O O14 0.850152 0.614312 0.477334
O O15 0.000000 0.367687 0.500000
O O16 0.500000 0.395637 0.500000
O O17 0.674177 0.500000 0.597165
#
# Coordination Sequence:
#
# PCOD8116594 Si02
#       7
#     8   8   8   8   8   8   8
#     4  10  23  42  65  95 135 174 215 267 327 393
#     4  11  24  40  68 101 130 172 227 272 330 396
#     4  12  23  43  69  95 136 177 218 277 330 397
#     4  12  23  41  68  94 129 174 221 275 333 399
#     4  10  24  43  67  99 135 177 222 273 335 398
#     4  11  22  43  68  98 135 172 220 282 331 393
#     4  11  25  45  67  95 132 176 224 278 341 399
#
# _framework density 10.313243
#
# number of rings (size 3 to 8) (size 9 to 14) (size 15 to 20)
#    0.000    1.000    2.857    3.857    2.000    2.857 
#    0.000    1.429    0.000    0.857    0.000    0.000 
#    0.000    0.000    0.000    0.000    0.000    0.000 
#
# Total GULP energy -347083.934520 kJ/mol
# GULP energy per Si atom -12395.854804 kJ/mol
# Density = 1.028977 g / cm^3
# Si number density = 10.313243 Si / 1000 Ang^3
#
#
#
# Elastic Constant Matrix: (Units=GPa)
#
#
# Indices 1 2 3 4 5 6 
#
# 1 150.9465 63.6299 63.7042 -0.0324 2.8368 -0.0129
# 2 63.6299 148.3021 64.1708 -0.0180 4.4371 0.0052
# 3 63.7042 64.1708 154.3180 -0.0701 -17.5107 -0.0505
# 4 -0.0324 -0.0180 -0.0701 26.8795 -0.0080 0.2960
# 5 2.8368 4.4371 -17.5107 -0.0080 42.3360 -0.0089
# 6 -0.0129 0.0052 -0.0505 0.2960 -0.0089 31.4593
#
#
#
# Elastic Compliance Matrix: (Units=1/GPa)
#
#
# Indices 1 2 3 4 5 6 
#
# 1 0.008910 -0.002579 -0.002773 0.000001 -0.001474 -0.000001
# 2 -0.002579 0.009206 -0.002994 -0.000005 -0.002030 -0.000008
# 3 -0.002773 -0.002994 0.009366 0.000020 0.004374 0.000015
# 4 0.000001 -0.000005 0.000020 0.037207 0.000016 -0.000350
# 5 -0.001474 -0.002030 0.004374 0.000016 0.025741 0.000014
# 6 -0.000001 -0.000008 0.000015 -0.000350 0.000014 0.031790
#
#
# Mechanical properties :
#
#
# Convention : Reuss Voigt Hill
#
# Bulk Modulus (GPa) = 92.67576 92.95294 92.81435
# Shear Modulus (GPa) = 35.08569 37.60573 36.34571
#
# Velocity S-wave (km/s) = 4.12879 4.27450 4.20228
# Velocity P-wave (km/s) = 8.23148 8.33813 8.28498
#
# Compressibility (1/GPa) = 0.01079031
#
# Stress axis : x y z
#
# Youngs Moduli (GPa) = 112.23415 108.62861 106.76861
#
# Poissons Ratio (x) = 0.28014 0.29606
# Poissons Ratio (y) = 0.28944 0.31965
# Poissons Ratio (z) = 0.31122 0.32522
#
# Static dielectric constant tensor:
#      x y z
#    x 3.773760 -0.000120 -0.152910 
#    y -0.000120 3.900450 -0.000220 
#    z -0.152910 -0.000220 4.200090 
# 
# 
# High freq. dielectric constant tensor:
#      x y z
#    x 1.808780 -0.000010 -0.010300 
#    y -0.000010 1.814260 -0.000020 
#    z -0.010300 -0.000020 1.840590 
# 
# From -- ./inp_files/322736.got.cif
#   From: 2010.06.25/outbox.ucp.g09.slc.cvg/sg12_162_cif.got.tgz:322736.got - 2010.06.28 13:50:54.
