data_PCOD8116387
_publ_section_title
;
Structure prediction by ZEFSAII (Michael W. Deem and Ramdas Pophale) SiO2 
 PCOD8116387
Probable space group: C 2/M
;
_chemical_formula_sum "Si O2"
_cell_formula_units_Z 32
_cell_length_a 15.000000
_cell_length_b 24.000000
_cell_length_c 18.000000
_cell_angle_alpha 90.000000
_cell_angle_beta 30.000000
_cell_angle_gamma 90.000000
_cell_volume 3240.000000
_symmetry_space_group_name_H-M "C 2/M"
_symmetry_group_IT_number 12
_symmetry_cell_setting 'monoclinic'
loop_
_space_group_symop_operation_xyz
x,y,z
-x,y,-z
-x,-y,-z
x,-y,z
1/2+x,1/2+y,z
1/2-x,1/2+y,-z
1/2-x,1/2-y,-z
1/2+x,1/2-y,z
loop_
_atom_site_type_symbol
_atom_site_label
_atom_site_fract_x
_atom_site_fract_y
_atom_site_fract_z
Si Si1 0.881829 0.275646 0.310697
Si Si2 0.631340 0.130832 0.171298
Si Si3 0.541731 0.934718 0.104859
Si Si4 0.357459 0.624668 0.799033
Si Si5 0.864164 0.343275 0.662730
Si Si6 0.007429 0.163490 0.839978
Si Si7 0.648606 0.564794 0.340548
Si Si8 0.494739 0.730507 0.623990
O O1 0.957188 0.228772 0.200330
O O2 0.669940 0.287785 0.449223
O O3 0.916399 0.258829 0.369891
O O4 0.995485 0.331589 0.220567
O O5 0.594219 0.072291 0.155138
O O6 0.597256 0.126444 0.285098
O O7 0.829760 0.155193 0.016450
O O8 0.344111 0.914676 0.224579
O O9 0.573572 0.000000 0.061479
O O10 0.664688 0.892162 0.969207
O O11 0.494611 0.630884 0.769593
O O12 0.407321 0.576680 0.704462
O O13 0.361541 0.681120 0.745704
O O14 0.669415 0.360107 0.772697
O O15 0.000000 0.363403 0.500000
O O16 0.879942 0.276528 0.662439
O O17 0.500000 0.593930 0.500000
O O18 0.643028 0.500000 0.357661
#
# Coordination Sequence:
#
# PCOD8116387 Si02
#       8
#     8   8   8   8   8   8   8   8
#     4   9  17  33  53  77 117 149 191 236 283 334
#     4  10  22  35  59  87 113 157 203 248 289 350
#     4  10  22  42  63  86 116 152 195 253 315 357
#     4  10  21  36  61  84 114 156 200 238 286 358
#     4  11  21  36  57  83 123 167 196 234 289 346
#     4  10  20  36  54  84 122 157 201 236 280 345
#     4  10  22  38  59  87 117 147 189 250 313 365
#     4   9  19  32  51  84 113 152 193 233 277 338
#
# _framework density 9.8765429999999999
#
# number of rings (size 3 to 8) (size 9 to 14) (size 15 to 20)
#    0.000    2.125    1.250    1.500    3.500    3.500 
#    0.000    3.750    0.000    7.125    0.000    0.000 
#    0.000    0.000    0.000    0.000    0.000    0.000 
#
# Total GULP energy -396432.774892 kJ/mol
# GULP energy per Si atom -12388.524215 kJ/mol
# Density = 0.985406 g / cm^3
# Si number density = 9.876543 Si / 1000 Ang^3
#
#
#
# Elastic Constant Matrix: (Units=GPa)
#
#
# Indices 1 2 3 4 5 6 
#
# 1 108.0369 23.7756 51.1384 0.0380 5.9562 -0.0039
# 2 23.7756 42.3432 38.1475 0.0453 -11.3030 -0.0363
# 3 51.1384 38.1475 130.6231 -0.0124 -1.0791 0.0037
# 4 0.0380 0.0453 -0.0124 26.6710 -0.0448 2.8747
# 5 5.9562 -11.3030 -1.0791 -0.0448 40.7388 0.0231
# 6 -0.0039 -0.0363 0.0037 2.8747 0.0231 27.0631
#
#
#
# Elastic Compliance Matrix: (Units=1/GPa)
#
#
# Indices 1 2 3 4 5 6 
#
# 1 0.012038 -0.004503 -0.003424 -0.000016 -0.003100 0.000001
# 2 -0.004503 0.037097 -0.008983 -0.000048 0.010713 0.000046
# 3 -0.003424 -0.008983 0.011605 0.000024 -0.001684 -0.000015
# 4 -0.000016 -0.000048 0.000024 0.037928 0.000034 -0.004029
# 5 -0.003100 0.010713 -0.001684 0.000034 0.027928 -0.000013
# 6 0.000001 0.000046 -0.000015 -0.004029 -0.000013 0.037379
#
#
# Mechanical properties :
#
#
# Convention : Reuss Voigt Hill
#
# Bulk Modulus (GPa) = 37.14295 56.34734 46.74514
# Shear Modulus (GPa) = 24.18171 30.09071 27.13621
#
# Velocity S-wave (km/s) = 3.50265 3.90724 3.71046
# Velocity P-wave (km/s) = 5.93317 6.99593 6.48636
#
# Compressibility (1/GPa) = 0.02692301
#
# Stress axis : x y z
#
# Youngs Moduli (GPa) = 83.06711 26.95627 86.16699
#
# Poissons Ratio (x) = 0.12137 0.29501
# Poissons Ratio (y) = 0.37402 0.77401
# Poissons Ratio (z) = 0.28439 0.24214
#
# Static dielectric constant tensor:
#      x y z
#    x 3.777160 -0.000100 0.006690 
#    y -0.000100 3.455330 0.000410 
#    z 0.006690 0.000410 3.917080 
# 
# 
# High freq. dielectric constant tensor:
#      x y z
#    x 1.784930 -0.000010 0.004970 
#    y -0.000010 1.735030 0.000040 
#    z 0.004970 0.000040 1.784350 
# 
# From -- ./inp_files/272799.got.cif
#   From: 2010.06.25/outbox.ucp.g09.slc.cvg/sg12_137_cif.got.tgz:272799.got - 2010.06.28 13:50:54.
