data_PCOD8116506
_publ_section_title
;
Structure prediction by ZEFSAII (Michael W. Deem and Ramdas Pophale) SiO2 
 PCOD8116506
Probable space group: C 2/M
;
_chemical_formula_sum "Si O2"
_cell_formula_units_Z 32
_cell_length_a 18.000000
_cell_length_b 9.000000
_cell_length_c 30.000000
_cell_angle_alpha 90.000000
_cell_angle_beta 40.000000
_cell_angle_gamma 90.000000
_cell_volume 3123.947783
_symmetry_space_group_name_H-M "C 2/M"
_symmetry_group_IT_number 12
_symmetry_cell_setting 'monoclinic'
loop_
_space_group_symop_operation_xyz
x,y,z
-x,y,-z
-x,-y,-z
x,-y,z
1/2+x,1/2+y,z
1/2-x,1/2+y,-z
1/2-x,1/2-y,-z
1/2+x,1/2-y,z
loop_
_atom_site_type_symbol
_atom_site_label
_atom_site_fract_x
_atom_site_fract_y
_atom_site_fract_z
Si Si1 0.404175 0.171777 0.205602
Si Si2 0.926457 0.671531 0.790377
Si Si3 0.813419 0.825409 0.572440
Si Si4 0.511394 0.323951 0.921095
Si Si5 0.325747 0.174277 0.656530
Si Si6 0.674222 0.675510 0.925515
Si Si7 0.412738 0.332437 0.343392
Si Si8 0.039170 0.167719 0.579542
O O1 0.483259 0.193661 0.211918
O O2 0.471828 0.237749 0.132509
O O3 0.286475 0.258405 0.268936
O O4 0.375499 0.000000 0.210005
O O5 0.914562 0.500000 0.781184
O O6 0.804664 0.735557 0.864087
O O7 0.964514 0.768492 0.729978
O O8 0.867436 0.745286 0.590382
O O9 0.680913 0.777185 0.634270
O O10 0.876582 0.774099 0.498257
O O11 0.821753 0.000000 0.575569
O O12 0.513809 0.500000 0.910644
O O13 0.611798 0.273511 0.908903
O O14 0.391083 0.270295 0.999516
O O15 0.434621 0.218360 0.636754
O O16 0.309003 0.000000 0.659609
O O17 0.669753 0.500000 0.929346
O O18 0.396398 0.500000 0.332576
O O19 0.393345 0.331650 0.405082
O O20 0.995627 0.000000 0.588685
#
# Coordination Sequence:
#
# PCOD8116506 Si02
#       8
#     8   8   8   8   8   8   8   8
#     4  11  23  38  57  83 120 159 196 243 296 352
#     4  10  21  38  59  82 115 162 203 237 290 355
#     4  11  22  41  65  86 118 160 194 240 304 361
#     4   9  18  36  62  89 118 151 193 247 292 342
#     4  12  25  40  61  88 118 155 203 251 295 352
#     4   8  17  36  61  88 117 152 196 241 292 348
#     4  11  23  39  60  89 121 154 199 250 292 347
#     4  10  24  42  61  88 121 155 195 245 304 358
#
# _framework density 10.243449
#
# number of rings (size 3 to 8) (size 9 to 14) (size 15 to 20)
#    0.000    1.750    1.250    3.750    1.750    4.500 
#    0.000    1.875    0.000    0.000    0.000    0.000 
#    0.000    0.000    0.000    0.000    0.000    0.000 
#
# Total GULP energy -396738.959777 kJ/mol
# GULP energy per Si atom -12398.092493 kJ/mol
# Density = 1.022013 g / cm^3
# Si number density = 10.243449 Si / 1000 Ang^3
#
#
#
# Elastic Constant Matrix: (Units=GPa)
#
#
# Indices 1 2 3 4 5 6 
#
# 1 34.3845 23.6647 26.4579 0.0012 -0.7759 0.0044
# 2 23.6647 92.8916 44.6863 0.0028 1.4913 0.0043
# 3 26.4579 44.6863 133.7925 -0.0004 2.2204 -0.0001
# 4 0.0012 0.0028 -0.0004 34.7873 0.0001 3.9875
# 5 -0.7759 1.4913 2.2204 0.0001 38.7842 0.0015
# 6 0.0044 0.0043 -0.0001 3.9875 0.0015 14.2222
#
#
#
# Elastic Compliance Matrix: (Units=1/GPa)
#
#
# Indices 1 2 3 4 5 6 
#
# 1 0.038045 -0.007248 -0.005125 0.000000 0.001333 -0.000010
# 2 -0.007248 0.014209 -0.003304 -0.000001 -0.000502 -0.000002
# 3 -0.005125 -0.003304 0.009600 0.000000 -0.000525 0.000003
# 4 0.000000 -0.000001 0.000000 0.029701 0.000000 -0.008327
# 5 0.001333 -0.000502 -0.000525 0.000000 0.025860 -0.000003
# 6 -0.000010 -0.000002 0.000003 -0.008327 -0.000003 0.072647
#
#
# Mechanical properties :
#
#
# Convention : Reuss Voigt Hill
#
# Bulk Modulus (GPa) = 32.78703 50.07624 41.43164
# Shear Modulus (GPa) = 21.59056 28.64272 25.11664
#
# Velocity S-wave (km/s) = 3.24986 3.74317 3.50521
# Velocity P-wave (km/s) = 5.48824 6.57099 6.05387
#
# Compressibility (1/GPa) = 0.03049986
#
# Stress axis : x y z
#
# Youngs Moduli (GPa) = 26.28478 70.37631 104.16683
#
# Poissons Ratio (x) = 0.51011 0.53383
# Poissons Ratio (y) = 0.19052 0.34418
# Poissons Ratio (z) = 0.13470 0.23254
#
# Static dielectric constant tensor:
#      x y z
#    x 3.627860 0.000000 -0.059650 
#    y 0.000000 3.577680 0.000000 
#    z -0.059650 0.000000 4.051750 
# 
# 
# High freq. dielectric constant tensor:
#      x y z
#    x 1.788120 0.000000 0.005300 
#    y 0.000000 1.785270 0.000000 
#    z 0.005300 0.000000 1.818960 
# 
# From -- ./inp_files/378140.got.cif
#   From: 2010.06.25/outbox.ucp.g09.slc.cvg/sg12_190_cif.got.tgz:378140.got - 2010.06.28 13:50:54.
