data_PCOD8116751
_publ_section_title
;
Structure prediction by ZEFSAII (Michael W. Deem and Ramdas Pophale) SiO2 
 PCOD8116751
Probable space group: P 2/C
;
_chemical_formula_sum "Si O2"
_cell_formula_units_Z 24
_cell_length_a 31.490186
_cell_length_b 7.512787
_cell_length_c 5.218150
_cell_angle_alpha 90.000000
_cell_angle_beta 109.915940
_cell_angle_gamma 90.000000
_cell_volume 1160.673468
_symmetry_space_group_name_H-M "P 2/C"
_symmetry_group_IT_number 13
_symmetry_cell_setting 'monoclinic'
loop_
_space_group_symop_operation_xyz
x,y,z
-x,y,1/2-z
-x,-y,-z
x,-y,1/2+z
loop_
_atom_site_type_symbol
_atom_site_label
_atom_site_fract_x
_atom_site_fract_y
_atom_site_fract_z
Si Si1 0.449267 0.883951 0.127855
Si Si2 0.949817 0.889455 0.615999
Si Si3 0.224537 0.389934 0.650326
Si Si4 0.361202 0.303970 0.507125
Si Si5 0.322425 0.706847 0.427795
Si Si6 0.872498 0.612324 0.458554
O O1 0.500000 0.806610 0.250000
O O2 0.440991 0.027612 0.334422
O O3 0.415355 0.715609 0.090036
O O4 0.912897 0.743463 0.603025
O O5 0.000000 0.806318 0.750000
O O6 0.943418 0.955328 0.312202
O O7 0.226585 0.447359 0.357481
O O8 0.268426 0.271863 0.794687
O O9 0.176512 0.290919 0.602741
O O10 0.342491 0.504915 0.488873
O O11 0.345548 0.200048 0.731470
O O12 0.337526 0.200254 0.221895
O O13 0.876139 0.545804 0.173926
#
# Coordination Sequence:
#
# PCOD8116751 Si02
#       6
#     4   4   4   4   4   4
#     4  10  21  37  53  69  95 135 174 206 248 303
#     4  10  21  38  58  79 112 155 189 228 290 345
#     4  10  16  30  49  78 104 134 169 206 261 312
#     4  10  18  30  52  75  98 126 164 205 249 297
#     4  10  17  30  50  80  99 127 156 207 255 309
#     4  10  21  33  56  87 110 145 192 238 277 326
#
# _framework density 20.677651000000001
#
# number of rings (size 3 to 8) (size 9 to 14) (size 15 to 20)
#    0.000    2.000    3.333    2.000    0.000    0.667 
#    0.000    3.333    0.000    6.000    0.000    0.000 
#    0.000    0.000    0.000    0.000    0.000    0.000 
#
# Total GULP energy -297329.581992 kJ/mol
# GULP energy per Si atom -12388.732583 kJ/mol
# Density = 2.063059 g / cm^3
# Si number density = 20.677651 Si / 1000 Ang^3
#
#
#
# Elastic Constant Matrix: (Units=GPa)
#
#
# Indices 1 2 3 4 5 6 
#
# 1 155.5414 25.9051 28.6159 0.0000 21.7617 0.0000
# 2 25.9051 16.2876 -2.5907 0.0000 11.8551 0.0000
# 3 28.6159 -2.5907 120.2903 0.0000 -17.3530 0.0000
# 4 0.0000 0.0000 0.0000 6.2641 0.0000 -0.3472
# 5 21.7617 11.8551 -17.3530 0.0000 48.5635 0.0000
# 6 0.0000 0.0000 0.0000 -0.3472 0.0000 14.2613
#
#
#
# Elastic Compliance Matrix: (Units=1/GPa)
#
#
# Indices 1 2 3 4 5 6 
#
# 1 0.009610 -0.014424 -0.002857 0.000000 -0.001806 0.000000
# 2 -0.014424 0.096445 0.003210 0.000000 -0.015933 0.000000
# 3 -0.002857 0.003210 0.009630 0.000000 0.003938 0.000000
# 4 0.000000 0.000000 0.000000 0.159855 0.000000 0.003892
# 5 -0.001806 -0.015933 0.003938 0.000000 0.026698 0.000000
# 6 0.000000 0.000000 0.000000 0.003892 0.000000 0.070215
#
#
# Mechanical properties :
#
#
# Convention : Reuss Voigt Hill
#
# Bulk Modulus (GPa) = 11.42301 43.99775 27.71038
# Shear Modulus (GPa) = 11.63396 29.83039 20.73218
#
# Velocity S-wave (km/s) = 2.37457 3.80233 3.16988
# Velocity P-wave (km/s) = 3.61309 6.37190 5.17955
#
# Compressibility (1/GPa) = 0.08754262
#
# Stress axis : x y z
#
# Youngs Moduli (GPa) = 104.06027 10.36856 103.84056
#
# Poissons Ratio (x) = 0.14956 0.29670
# Poissons Ratio (y) = 1.50098 -0.33333
# Poissons Ratio (z) = 0.29733 -0.03328
#
# Static dielectric constant tensor:
#      x y z
#    x 4.360840 0.000000 -0.382560 
#    y 0.000000 2.885510 0.000000 
#    z -0.382560 0.000000 5.043660 
# 
# 
# High freq. dielectric constant tensor:
#      x y z
#    x 1.835930 0.000000 -0.007240 
#    y 0.000000 1.723940 0.000000 
#    z -0.007240 0.000000 1.847910 
# 
# From -- ./inp_files/8022.got.cif
#   From: 2010.06.25/outbox.cif.g09.slc.cpg/sg13_5_cif.got.tgz:8022.got - 2010.06.28 04:50:58.
