data_PCOD8116213
_publ_section_title
;
Structure prediction by ZEFSAII (Michael W. Deem and Ramdas Pophale) SiO2 
 PCOD8116213
Probable space group: C 2/M
;
_chemical_formula_sum "Si O2"
_cell_formula_units_Z 32
_cell_length_a 21.000000
_cell_length_b 18.000000
_cell_length_c 27.000000
_cell_angle_alpha 90.000000
_cell_angle_beta 160.000000
_cell_angle_gamma 90.000000
_cell_volume 3490.657583
_symmetry_space_group_name_H-M "C 2/M"
_symmetry_group_IT_number 12
_symmetry_cell_setting 'monoclinic'
loop_
_space_group_symop_operation_xyz
x,y,z
-x,y,-z
-x,-y,-z
x,-y,z
1/2+x,1/2+y,z
1/2-x,1/2+y,-z
1/2-x,1/2-y,-z
1/2+x,1/2-y,z
loop_
_atom_site_type_symbol
_atom_site_label
_atom_site_fract_x
_atom_site_fract_y
_atom_site_fract_z
Si Si1 0.027483 0.911600 0.947040
Si Si2 0.722092 0.167012 0.164348
Si Si3 0.237593 0.912101 0.003132
Si Si4 0.277356 0.157064 0.213360
Si Si5 0.855047 0.586847 0.545191
Si Si6 0.013110 0.912348 0.567571
Si Si7 0.424853 0.411749 0.220740
Si Si8 0.375592 0.912616 0.674073
O O1 0.835018 0.868902 0.819514
O O2 0.998170 0.000000 0.929903
O O3 0.090545 0.887247 0.937957
O O4 0.189822 0.887073 0.103163
O O5 0.758235 0.254934 0.191898
O O6 0.812478 0.129953 0.279598
O O7 0.821717 0.131700 0.189222
O O8 0.500000 0.150583 0.000000
O O9 0.444603 0.879087 0.165502
O O10 0.251261 0.000000 0.014500
O O11 0.167739 0.885189 0.898455
O O12 0.495186 0.133813 0.377630
O O13 0.885999 0.500000 0.557091
O O14 0.643198 0.609737 0.377440
O O15 0.895342 0.607629 0.631280
O O16 0.000000 0.894635 0.500000
O O17 0.820153 0.880643 0.449217
O O18 0.040407 0.000000 0.597563
O O19 0.402752 0.500000 0.213901
O O20 0.369581 0.000000 0.678144
#
# Coordination Sequence:
#
# PCOD8116213 Si02
#       8
#     8   8   8   8   8   8   8   8
#     4  10  18  35  61  89 114 150 203 254 294 342
#     4  12  25  40  57  84 127 162 195 239 302 365
#     4   9  18  33  59  90 116 143 190 251 299 342
#     4  11  21  36  59  85 120 155 194 246 297 361
#     4  10  18  35  62  87 112 148 198 247 294 349
#     4  10  22  40  61  85 112 153 209 253 287 343
#     4  10  22  39  58  86 121 155 195 244 299 359
#     4   9  16  31  55  83 109 138 186 244 281 326
#
# _framework density 9.1673270000000002
#
# number of rings (size 3 to 8) (size 9 to 14) (size 15 to 20)
#    0.000    1.875    3.750    1.875    1.750    1.500 
#    0.000    2.500    0.000    3.000    0.000    0.000 
#    0.000    0.000    0.000    0.000    0.000    0.000 
#
# Total GULP energy -396728.679429 kJ/mol
# GULP energy per Si atom -12397.771232 kJ/mol
# Density = 0.914646 g / cm^3
# Si number density = 9.167327 Si / 1000 Ang^3
#
#
#
# Elastic Constant Matrix: (Units=GPa)
#
#
# Indices 1 2 3 4 5 6 
#
# 1 106.1069 39.4620 63.7035 -0.1393 10.0422 -0.0212
# 2 39.4620 79.2742 42.2277 -0.0201 6.8226 -0.0357
# 3 63.7035 42.2277 175.5332 -0.0645 11.8855 -0.0845
# 4 -0.1393 -0.0201 -0.0645 24.2709 -0.0278 5.8948
# 5 10.0422 6.8226 11.8855 -0.0278 41.6129 -0.0005
# 6 -0.0212 -0.0357 -0.0845 5.8948 -0.0005 17.0608
#
#
#
# Elastic Compliance Matrix: (Units=1/GPa)
#
#
# Indices 1 2 3 4 5 6 
#
# 1 0.013497 -0.004631 -0.003686 0.000071 -0.001445 -0.000036
# 2 -0.004631 0.016138 -0.002140 -0.000026 -0.000917 0.000026
# 3 -0.003686 -0.002140 0.007613 -0.000012 -0.000934 0.000033
# 4 0.000071 -0.000026 -0.000012 0.044976 0.000020 -0.015540
# 5 -0.001445 -0.000917 -0.000934 0.000020 0.024797 -0.000015
# 6 -0.000036 0.000026 0.000033 -0.015540 -0.000015 0.063983
#
#
# Mechanical properties :
#
#
# Convention : Reuss Voigt Hill
#
# Bulk Modulus (GPa) = 61.22039 72.41120 66.81580
# Shear Modulus (GPa) = 25.33416 30.95700 28.14558
#
# Velocity S-wave (km/s) = 3.72124 4.11352 3.92229
# Velocity P-wave (km/s) = 7.20601 7.88298 7.55208
#
# Compressibility (1/GPa) = 0.01633443
#
# Stress axis : x y z
#
# Youngs Moduli (GPa) = 74.09295 61.96464 131.35875
#
# Poissons Ratio (x) = 0.28693 0.48423
# Poissons Ratio (y) = 0.34309 0.28108
# Poissons Ratio (z) = 0.27313 0.13259
#
# Static dielectric constant tensor:
#      x y z
#    x 3.563450 -0.000060 0.127980 
#    y -0.000060 3.188840 -0.000550 
#    z 0.127980 -0.000550 3.769840 
# 
# 
# High freq. dielectric constant tensor:
#      x y z
#    x 1.720690 -0.000010 0.014590 
#    y -0.000010 1.688290 -0.000050 
#    z 0.014590 -0.000050 1.730140 
# 
# From -- ./inp_files/366834.got.cif
#   From: 2010.06.25/outbox.ucp.g09.slc.cvg/sg12_184_cif.got.tgz:366834.got - 2010.06.28 13:50:54.
