data_PCOD8116018
_publ_section_title
;
Structure prediction by ZEFSAII (Michael W. Deem and Ramdas Pophale) SiO2 
 PCOD8116018
Probable space group: C 2/M
;
_chemical_formula_sum "Si O2"
_cell_formula_units_Z 64
_cell_length_a 23.041642
_cell_length_b 9.334912
_cell_length_c 23.004215
_cell_angle_alpha 90.000000
_cell_angle_beta 49.742342
_cell_angle_gamma 90.000000
_cell_volume 3776.058919
_symmetry_space_group_name_H-M "C 2/M"
_symmetry_group_IT_number 12
_symmetry_cell_setting 'monoclinic'
loop_
_space_group_symop_operation_xyz
x,y,z
-x,y,-z
-x,-y,-z
x,-y,z
1/2+x,1/2+y,z
1/2-x,1/2+y,-z
1/2-x,1/2-y,-z
1/2+x,1/2-y,z
loop_
_atom_site_type_symbol
_atom_site_label
_atom_site_fract_x
_atom_site_fract_y
_atom_site_fract_z
Si Si1 0.108823 0.337548 0.702406
Si Si2 0.668724 0.668383 0.765812
Si Si3 0.099959 0.336430 0.214456
Si Si4 0.460361 0.665763 0.347468
Si Si5 0.675162 0.835816 0.279477
Si Si6 0.031751 0.833662 0.418319
Si Si7 0.448812 0.157817 0.871627
Si Si8 0.512396 0.667504 0.927399
O O1 0.137406 0.500000 0.675417
O O2 0.167530 0.253483 0.705798
O O3 0.105379 0.259440 0.641466
O O4 0.026233 0.330360 0.784735
O O5 0.668556 0.500000 0.752321
O O6 0.742970 0.719843 0.752669
O O7 0.596604 0.710119 0.852224
O O8 0.066625 0.500000 0.242749
O O9 0.172373 0.319754 0.210524
O O10 0.117587 0.311164 0.133887
O O11 0.041819 0.215015 0.271597
O O12 0.447316 0.500000 0.339847
O O13 0.464163 0.690428 0.414636
O O14 0.608300 0.750150 0.353851
O O15 0.664469 0.000000 0.304832
O O16 0.000000 0.776633 0.500000
O O17 0.054058 0.000000 0.407155
O O18 0.448915 0.267148 0.925113
O O19 0.439409 0.000000 0.904727
O O20 0.498050 0.500000 0.935865
O O21 0.500000 0.729657 0.000000
#
# Coordination Sequence:
#
# PCOD8116018 Si02
#       8
#     8   8   8   8   8   8   8   8
#     4   9  16  26  41  62  87 112 141 179 219 255
#     4   9  17  29  45  65  88 114 146 181 217 258
#     4   8  14  25  40  60  85 109 137 174 215 255
#     4   9  15  24  41  63  85 110 141 176 211 249
#     4   9  17  29  46  67  89 114 144 180 218 256
#     4   9  18  31  46  66  92 119 144 173 213 259
#     4   8  14  24  39  59  81 106 137 173 211 252
#     4   9  17  28  42  61  85 113 144 178 216 257
#
# _framework density 16.948888
#
# number of rings (size 3 to 8) (size 9 to 14) (size 15 to 20)
#    0.000    3.250    0.000    1.500    0.000    4.500 
#    0.000    0.000    0.000    1.500    0.000    0.000 
#    0.000    0.000    0.000    0.000    0.000    5.875 
#
# Total GULP energy -396464.197353 kJ/mol
# GULP energy per Si atom -12389.506167 kJ/mol
# Density = 1.691031 g / cm^3
# Si number density = 16.948888 Si / 1000 Ang^3
#
#
#
# Elastic Constant Matrix: (Units=GPa)
#
#
# Indices 1 2 3 4 5 6 
#
# 1 147.8618 53.8105 50.9658 -0.0001 32.4248 -0.0002
# 2 53.8105 67.4586 33.9130 -0.0001 16.7841 -0.0007
# 3 50.9658 33.9130 59.5745 -0.0001 25.7169 0.0001
# 4 -0.0001 -0.0001 -0.0001 15.6352 0.0000 6.3331
# 5 32.4248 16.7841 25.7169 0.0000 28.3590 0.0001
# 6 -0.0002 -0.0007 0.0001 6.3331 0.0001 26.0481
#
#
#
# Elastic Compliance Matrix: (Units=1/GPa)
#
#
# Indices 1 2 3 4 5 6 
#
# 1 0.011570 -0.005679 -0.003953 0.000000 -0.006283 0.000000
# 2 -0.005679 0.023670 -0.008827 0.000000 0.000489 0.000001
# 3 -0.003953 -0.008827 0.034486 0.000000 -0.021529 0.000000
# 4 0.000000 0.000000 0.000000 0.070945 0.000000 -0.017249
# 5 -0.006283 0.000489 -0.021529 0.000000 0.061680 0.000000
# 6 0.000000 0.000001 0.000000 -0.017249 0.000000 0.042584
#
#
# Mechanical properties :
#
#
# Convention : Reuss Voigt Hill
#
# Bulk Modulus (GPa) = 30.48037 61.36372 45.92204
# Shear Modulus (GPa) = 17.07715 23.08881 20.08298
#
# Velocity S-wave (km/s) = 3.17766 3.69489 3.44599
# Velocity P-wave (km/s) = 5.61125 7.38151 6.55640
#
# Compressibility (1/GPa) = 0.03280800
#
# Stress axis : x y z
#
# Youngs Moduli (GPa) = 86.42929 42.24844 28.99717
#
# Poissons Ratio (x) = 0.23991 0.11464
# Poissons Ratio (y) = 0.49079 0.25595
# Poissons Ratio (z) = 0.34169 0.37292
#
# Static dielectric constant tensor:
#      x y z
#    x 3.535220 0.000000 0.476140 
#    y 0.000000 3.213240 0.000000 
#    z 0.476140 0.000000 2.846460 
# 
# 
# High freq. dielectric constant tensor:
#      x y z
#    x 1.660360 0.000000 0.041980 
#    y 0.000000 1.657320 0.000000 
#    z 0.041980 0.000000 1.597250 
# 
# From -- ./inp_files/345554.got.cif
#   From: 2010.06.25/outbox.cif.g09.slc.cpg/sg12_173_cif.got.tgz:345554.got - 2010.06.28 00:19:55.
