data_PCOD8116808
_publ_section_title
;
Structure prediction by ZEFSAII (Michael W. Deem and Ramdas Pophale) SiO2 
 PCOD8116808
Probable space group: P 2/C
;
_chemical_formula_sum "Si O2"
_cell_formula_units_Z 30
_cell_length_a 11.334634
_cell_length_b 8.789824
_cell_length_c 17.555082
_cell_angle_alpha 90.000000
_cell_angle_beta 63.628716
_cell_angle_gamma 90.000000
_cell_volume 1566.992076
_symmetry_space_group_name_H-M "P 2/C"
_symmetry_group_IT_number 13
_symmetry_cell_setting 'monoclinic'
loop_
_space_group_symop_operation_xyz
x,y,z
-x,y,1/2-z
-x,-y,-z
x,-y,1/2+z
loop_
_atom_site_type_symbol
_atom_site_label
_atom_site_fract_x
_atom_site_fract_y
_atom_site_fract_z
Si Si1 0.864835 0.582332 0.558200
Si Si2 0.025215 0.253075 0.344232
Si Si3 0.756656 0.243297 0.816027
Si Si4 0.000000 0.530992 0.250000
Si Si5 0.387643 0.649257 0.611180
Si Si6 0.194894 0.897242 0.669509
Si Si7 0.330788 0.391045 0.515757
Si Si8 0.650106 0.452883 0.734108
O O1 0.909842 0.734595 0.590852
O O2 0.799086 0.629194 0.497680
O O3 0.757143 0.483537 0.636920
O O4 0.000000 0.500000 0.500000
O O5 0.135330 0.194281 0.256327
O O6 0.986061 0.425256 0.329198
O O7 0.898845 0.138459 0.377249
O O8 0.669021 0.268389 0.916347
O O9 0.674032 0.283530 0.763079
O O10 0.876037 0.360196 0.782252
O O11 0.803132 0.070662 0.805569
O O12 0.338812 0.823710 0.615385
O O13 0.341497 0.559734 0.548398
O O14 0.544878 0.647042 0.573208
O O15 0.326440 0.574252 0.704683
O O16 0.500000 0.462105 0.750000
#
# Coordination Sequence:
#
# PCOD8116808 Si02
#       8
#     4   4   4   2   4   4   4   4
#     4  12  21  36  62  95 117 143 202 267 307 331
#     4  10  19  36  59  87 110 155 207 239 296 359
#     4  11  22  37  58  90 121 157 199 247 311 366
#     4  10  16  34  60  82 108 148 204 252 284 348
#     4  10  19  39  61  82 115 162 204 246 295 367
#     4  10  20  36  60  82 119 160 197 237 300 381
#     4  10  22  35  60  89 115 152 206 257 301 348
#     4  11  21  40  63  88 118 159 208 254 297 363
#
# _framework density 19.144960000000001
#
# number of rings (size 3 to 8) (size 9 to 14) (size 15 to 20)
#    0.000    1.600    4.000    4.800    0.000    0.533 
#    0.000    2.667    2.933    0.000    0.000    0.000 
#    0.000    0.000    0.000    0.000    0.000    0.000 
#
# Total GULP energy -371780.891568 kJ/mol
# GULP energy per Si atom -12392.696386 kJ/mol
# Density = 1.910139 g / cm^3
# Si number density = 19.144960 Si / 1000 Ang^3
#
#
#
# Elastic Constant Matrix: (Units=GPa)
#
#
# Indices 1 2 3 4 5 6 
#
# 1 111.2126 39.5995 32.3202 0.0000 0.6608 0.0000
# 2 39.5995 99.2355 11.2698 0.0000 2.9907 0.0000
# 3 32.3202 11.2698 71.9473 0.0000 -4.9059 0.0000
# 4 0.0000 0.0000 0.0000 10.5823 0.0000 -0.2778
# 5 0.6608 2.9907 -4.9059 0.0000 36.5837 0.0000
# 6 0.0000 0.0000 0.0000 -0.2778 0.0000 21.4734
#
#
#
# Elastic Compliance Matrix: (Units=1/GPa)
#
#
# Indices 1 2 3 4 5 6 
#
# 1 0.011850 -0.004179 -0.004703 0.000000 -0.000503 0.000000
# 2 -0.004179 0.011775 -0.000028 0.000000 -0.000891 0.000000
# 3 -0.004703 -0.000028 0.016170 0.000000 0.002256 0.000000
# 4 0.000000 0.000000 0.000000 0.094529 0.000000 0.001223
# 5 -0.000503 -0.000891 0.002256 0.000000 0.027719 0.000000
# 6 0.000000 0.000000 0.000000 0.001223 0.000000 0.046585
#
#
# Mechanical properties :
#
#
# Convention : Reuss Voigt Hill
#
# Bulk Modulus (GPa) = 45.50701 49.86381 47.68541
# Shear Modulus (GPa) = 21.38839 27.00828 24.19833
#
# Velocity S-wave (km/s) = 3.34605 3.76004 3.55907
# Velocity P-wave (km/s) = 6.22490 6.70466 6.46923
#
# Compressibility (1/GPa) = 0.02197464
#
# Stress axis : x y z
#
# Youngs Moduli (GPa) = 84.39105 84.92737 61.84384
#
# Poissons Ratio (x) = 0.35494 0.29084
# Poissons Ratio (y) = 0.35270 0.00171
# Poissons Ratio (z) = 0.39687 0.00235
#
# Static dielectric constant tensor:
#      x y z
#    x 3.903220 0.000000 0.046050 
#    y 0.000000 3.289320 0.000000 
#    z 0.046050 0.000000 3.623520 
# 
# 
# High freq. dielectric constant tensor:
#      x y z
#    x 1.761030 0.000000 -0.008880 
#    y 0.000000 1.707640 0.000000 
#    z -0.008880 0.000000 1.740920 
# 
# From -- ./inp_files/65997.got.cif
#   From: 2010.06.25/outbox.cif.g09.slc.cpg/sg13_33_cif.got.tgz:65997.got - 2010.06.28 04:50:58.
