data_PCOD8116381
_publ_section_title
;
Structure prediction by ZEFSAII (Michael W. Deem and Ramdas Pophale) SiO2 
 PCOD8116381
Probable space group: C 2/M
;
_chemical_formula_sum "Si O2"
_cell_formula_units_Z 24
_cell_length_a 24.000000
_cell_length_b 9.000000
_cell_length_c 24.000000
_cell_angle_alpha 90.000000
_cell_angle_beta 30.000000
_cell_angle_gamma 90.000000
_cell_volume 2592.000000
_symmetry_space_group_name_H-M "C 2/M"
_symmetry_group_IT_number 12
_symmetry_cell_setting 'monoclinic'
loop_
_space_group_symop_operation_xyz
x,y,z
-x,y,-z
-x,-y,-z
x,-y,z
1/2+x,1/2+y,z
1/2-x,1/2+y,-z
1/2-x,1/2-y,-z
1/2+x,1/2-y,z
loop_
_atom_site_type_symbol
_atom_site_label
_atom_site_fract_x
_atom_site_fract_y
_atom_site_fract_z
Si Si1 0.316644 0.829413 0.716363
Si Si2 0.938272 0.826022 0.769376
Si Si3 0.756885 0.677207 0.330851
Si Si4 0.951715 0.324474 0.429433
Si Si5 0.485230 0.672967 0.172002
Si Si6 0.722068 0.672501 0.918638
O O1 0.268069 0.722975 0.711073
O O2 0.446738 0.792694 0.615598
O O3 0.243386 0.800543 0.834819
O O4 0.305522 0.000000 0.706108
O O5 0.811365 0.765739 0.877328
O O6 0.016641 0.740501 0.658023
O O7 0.991281 0.795605 0.783630
O O8 0.936219 0.000000 0.756746
O O9 0.753410 0.500000 0.339129
O O10 0.661446 0.747408 0.452401
O O11 0.878887 0.733358 0.243730
O O12 0.931559 0.500000 0.440917
O O13 0.459416 0.500000 0.183598
O O14 0.595870 0.722422 0.041941
O O15 0.739649 0.500000 0.919123
#
# Coordination Sequence:
#
# PCOD8116381 Si02
#       6
#     8   8   8   8   8   8
#     4   9  19  37  60  83 108 143 185 226 272 330
#     4  10  20  35  59  88 114 142 181 232 280 320
#     4  12  25  37  54  82 114 147 184 232 284 326
#     4  10  21  39  62  83 108 146 187 226 273 334
#     4  10  22  39  57  80 114 154 189 221 268 332
#     4   9  19  37  61  85 110 147 189 225 268 327
#
# _framework density 9.2592590000000001
#
# number of rings (size 3 to 8) (size 9 to 14) (size 15 to 20)
#    0.000    2.000    0.000    4.500    0.000    8.667 
#    0.000    3.333    0.000    0.000    0.000    0.000 
#    0.000    0.000    0.000    0.000    0.000    0.000 
#
# Total GULP energy -297650.115022 kJ/mol
# GULP energy per Si atom -12402.088126 kJ/mol
# Density = 0.923818 g / cm^3
# Si number density = 9.259259 Si / 1000 Ang^3
#
#
#
# Elastic Constant Matrix: (Units=GPa)
#
#
# Indices 1 2 3 4 5 6 
#
# 1 113.3635 65.0217 70.9156 0.0010 -14.2654 -0.0005
# 2 65.0217 135.3468 69.1158 0.0000 -11.1333 0.0003
# 3 70.9156 69.1158 162.4999 0.0004 -18.0023 0.0001
# 4 0.0010 0.0000 0.0004 34.0937 0.0006 -4.2556
# 5 -14.2654 -11.1333 -18.0023 0.0006 31.4656 -0.0002
# 6 -0.0005 0.0003 0.0001 -4.2556 -0.0002 37.5494
#
#
#
# Elastic Compliance Matrix: (Units=1/GPa)
#
#
# Indices 1 2 3 4 5 6 
#
# 1 0.014285 -0.004616 -0.003987 0.000000 0.002562 0.000000
# 2 -0.004616 0.010967 -0.002618 0.000000 0.000290 0.000000
# 3 -0.003987 -0.002618 0.009293 0.000000 0.002583 0.000000
# 4 0.000000 0.000000 0.000000 0.029752 -0.000001 0.003372
# 5 0.002562 0.000290 0.002583 -0.000001 0.034523 0.000000
# 6 0.000000 0.000000 0.000000 0.003372 0.000000 0.027014
#
#
# Mechanical properties :
#
#
# Convention : Reuss Voigt Hill
#
# Bulk Modulus (GPa) = 82.62014 91.25738 86.93876
# Shear Modulus (GPa) = 32.82778 34.36555 33.59666
#
# Velocity S-wave (km/s) = 4.21491 4.31250 4.26399
# Velocity P-wave (km/s) = 8.27037 8.61295 8.44340
#
# Compressibility (1/GPa) = 0.01210359
#
# Stress axis : x y z
#
# Youngs Moduli (GPa) = 70.00199 91.18525 107.60294
#
# Poissons Ratio (x) = 0.42091 0.42901
# Poissons Ratio (y) = 0.32313 0.28169
# Poissons Ratio (z) = 0.27910 0.23871
#
# Static dielectric constant tensor:
#      x y z
#    x 3.443250 0.000000 -0.024850 
#    y 0.000000 3.525810 0.000000 
#    z -0.024850 0.000000 3.693390 
# 
# 
# High freq. dielectric constant tensor:
#      x y z
#    x 1.726590 0.000000 0.000750 
#    y 0.000000 1.728120 0.000000 
#    z 0.000750 0.000000 1.742160 
# 
# From -- ./inp_files/172183.got.cif
#   From: 2010.06.25/outbox.ucp.g09.slc.cvg/sg12_87_cif.got.tgz:172183.got - 2010.06.28 13:50:54.
