data_PCOD8116002
_publ_section_title
;
Structure prediction by ZEFSAII (Michael W. Deem and Ramdas Pophale) SiO2 
 PCOD8116002
Probable space group: C 2/M
;
_chemical_formula_sum "Si O2"
_cell_formula_units_Z 64
_cell_length_a 23.481695
_cell_length_b 9.852332
_cell_length_c 20.504412
_cell_angle_alpha 90.000000
_cell_angle_beta 57.902896
_cell_angle_gamma 90.000000
_cell_volume 4018.606572
_symmetry_space_group_name_H-M "C 2/M"
_symmetry_group_IT_number 12
_symmetry_cell_setting 'monoclinic'
loop_
_space_group_symop_operation_xyz
x,y,z
-x,y,-z
-x,-y,-z
x,-y,z
1/2+x,1/2+y,z
1/2-x,1/2+y,-z
1/2-x,1/2-y,-z
1/2+x,1/2-y,z
loop_
_atom_site_type_symbol
_atom_site_label
_atom_site_fract_x
_atom_site_fract_y
_atom_site_fract_z
Si Si1 0.680152 0.843766 0.250121
Si Si2 0.964446 0.661555 0.706010
Si Si3 0.202304 0.650852 0.825558
Si Si4 0.685927 0.155698 0.400380
Si Si5 0.457239 0.838627 0.466137
Si Si6 0.946965 0.338364 0.083845
Si Si7 0.451033 0.161503 0.226233
Si Si8 0.302773 0.849253 0.326095
O O1 0.612075 0.790034 0.257358
O O2 0.741187 0.755084 0.183692
O O3 0.671613 0.825070 0.332530
O O4 0.694723 0.000000 0.223668
O O5 0.966851 0.500000 0.702002
O O6 0.012186 0.719542 0.619616
O O7 0.992324 0.716414 0.758364
O O8 0.216838 0.500000 0.845115
O O9 0.128443 0.703121 0.892555
O O10 0.203347 0.643854 0.747498
O O11 0.620354 0.205390 0.479626
O O12 0.747814 0.246210 0.388289
O O13 0.703551 0.000000 0.405110
O O14 0.500000 0.777331 0.500000
O O15 0.462407 0.000000 0.465040
O O16 0.951715 0.500000 0.083086
O O17 0.964021 0.279404 0.145651
O O18 0.000000 0.276742 0.000000
O O19 0.377444 0.204793 0.297985
O O20 0.452312 0.000000 0.221620
O O21 0.290534 0.000000 0.362936
#
# Coordination Sequence:
#
# PCOD8116002 Si02
#       8
#     8   8   8   8   8   8   8   8
#     4   9  15  23  38  59  79 101 131 165 195 225
#     4   9  15  23  37  56  77 101 130 164 198 230
#     4   8  14  24  39  59  80 101 127 159 194 232
#     4   9  15  23  38  58  76  97 131 170 200 227
#     4   9  14  22  35  53  76  99 128 166 200 227
#     4   8  13  23  41  62  79  97 127 164 193 222
#     4   8  14  24  38  57  78 100 128 160 195 233
#     4   8  14  25  39  54  76 103 128 159 198 237
#
# _framework density 15.92592
#
# number of rings (size 3 to 8) (size 9 to 14) (size 15 to 20)
#    0.000    3.500    1.250    1.500    0.000    0.000 
#    0.000    0.625    0.000    3.000    0.000    0.000 
#    0.000    0.000    0.000    0.000    0.000    0.000 
#
# Total GULP energy -396542.552424 kJ/mol
# GULP energy per Si atom -12391.954763 kJ/mol
# Density = 1.588967 g / cm^3
# Si number density = 15.925920 Si / 1000 Ang^3
#
#
#
# Elastic Constant Matrix: (Units=GPa)
#
#
# Indices 1 2 3 4 5 6 
#
# 1 108.9597 30.9014 60.0925 0.0000 -19.6647 -0.0001
# 2 30.9014 35.7195 29.3309 0.0002 -13.8217 -0.0005
# 3 60.0925 29.3309 102.5490 0.0000 -23.3994 0.0000
# 4 0.0000 0.0002 0.0000 13.1265 0.0000 -8.4855
# 5 -19.6647 -13.8217 -23.3994 0.0000 25.4881 0.0000
# 6 -0.0001 -0.0005 0.0000 -8.4855 0.0000 16.3610
#
#
#
# Elastic Compliance Matrix: (Units=1/GPa)
#
#
# Indices 1 2 3 4 5 6 
#
# 1 0.015025 -0.007030 -0.006348 0.000000 0.001952 0.000000
# 2 -0.007030 0.043599 -0.005305 0.000000 0.013349 0.000001
# 3 -0.006348 -0.005305 0.016716 0.000000 0.007572 0.000000
# 4 0.000000 0.000000 0.000000 0.114605 0.000000 0.059439
# 5 0.001952 0.013349 0.007572 0.000000 0.054930 0.000000
# 6 0.000000 0.000001 0.000000 0.059439 0.000000 0.091948
#
#
# Mechanical properties :
#
#
# Convention : Reuss Voigt Hill
#
# Bulk Modulus (GPa) = 26.33361 54.20866 40.27113
# Shear Modulus (GPa) = 12.92498 19.45536 16.19017
#
# Velocity S-wave (km/s) = 2.85190 3.49895 3.19186
# Velocity P-wave (km/s) = 5.23597 7.10179 6.23902
#
# Compressibility (1/GPa) = 0.03797429
#
# Stress axis : x y z
#
# Youngs Moduli (GPa) = 66.55625 22.93629 59.82122
#
# Poissons Ratio (x) = 0.16125 0.37977
# Poissons Ratio (y) = 0.46790 0.31733
# Poissons Ratio (z) = 0.42252 0.12167
#
# Static dielectric constant tensor:
#      x y z
#    x 3.184380 0.000000 -0.188560 
#    y 0.000000 2.714100 0.000000 
#    z -0.188560 0.000000 3.103960 
# 
# 
# High freq. dielectric constant tensor:
#      x y z
#    x 1.606930 0.000000 -0.021940 
#    y 0.000000 1.556250 0.000000 
#    z -0.021940 0.000000 1.593730 
# 
# From -- ./inp_files/282905.got.cif
#   From: 2010.06.25/outbox.cif.g09.slc.cpg/sg12_142_cif.got.tgz:282905.got - 2010.06.28 00:19:55.
