data_PCOD8116393
_publ_section_title
;
Structure prediction by ZEFSAII (Michael W. Deem and Ramdas Pophale) SiO2 
 PCOD8116393
Probable space group: C 2/M
;
_chemical_formula_sum "Si O2"
_cell_formula_units_Z 32
_cell_length_a 30.000000
_cell_length_b 9.000000
_cell_length_c 24.000000
_cell_angle_alpha 90.000000
_cell_angle_beta 30.000000
_cell_angle_gamma 90.000000
_cell_volume 3240.000000
_symmetry_space_group_name_H-M "C 2/M"
_symmetry_group_IT_number 12
_symmetry_cell_setting 'monoclinic'
loop_
_space_group_symop_operation_xyz
x,y,z
-x,y,-z
-x,-y,-z
x,-y,z
1/2+x,1/2+y,z
1/2-x,1/2+y,-z
1/2-x,1/2-y,-z
1/2+x,1/2-y,z
loop_
_atom_site_type_symbol
_atom_site_label
_atom_site_fract_x
_atom_site_fract_y
_atom_site_fract_z
Si Si1 0.752734 0.174967 0.335577
Si Si2 0.318423 0.328042 0.386510
Si Si3 0.067500 0.671063 0.375883
Si Si4 0.273128 0.673604 0.145143
Si Si5 0.395606 0.177245 0.099946
Si Si6 0.510922 0.675118 0.738911
Si Si7 0.066133 0.824055 0.556716
Si Si8 0.814550 0.174612 0.973739
O O1 0.791440 0.209068 0.353750
O O2 0.826326 0.251320 0.217810
O O3 0.653780 0.244045 0.436180
O O4 0.745805 0.000000 0.329063
O O5 0.312655 0.500000 0.407078
O O6 0.250000 0.250000 0.500000
O O7 0.419431 0.271759 0.288873
O O8 0.067623 0.500000 0.355939
O O9 0.171596 0.717289 0.275670
O O10 0.000000 0.694378 0.500000
O O11 0.025590 0.773737 0.373401
O O12 0.290214 0.500000 0.138625
O O13 0.354850 0.763988 0.085472
O O14 0.279512 0.711836 0.073199
O O15 0.389448 0.000000 0.108630
O O16 0.500000 0.225224 0.000000
O O17 0.499352 0.500000 0.751691
O O18 0.552916 0.726426 0.634747
O O19 0.413777 0.743320 0.857176
O O20 0.078676 0.000000 0.536302
O O21 0.813686 0.000000 0.963512
O O22 0.750000 0.250000 0.000000
#
# Coordination Sequence:
#
# PCOD8116393 Si02
#       8
#     8   8   8   8   8   8   8   8
#     4  11  23  38  62  90 119 158 202 250 301 357
#     4  10  20  36  58  86 119 156 196 243 297 353
#     4  10  21  37  57  83 117 151 194 251 304 358
#     4  10  22  40  64  91 121 162 209 259 308 360
#     4  11  26  45  64  89 123 161 203 255 308 361
#     4   9  19  35  55  82 117 154 192 237 294 356
#     4  11  21  35  59  87 119 157 193 241 300 361
#     4  10  21  38  61  88 122 161 205 253 301 359
#
# _framework density 9.8765429999999999
#
# number of rings (size 3 to 8) (size 9 to 14) (size 15 to 20)
#    0.000    1.750    1.250    2.625    1.750    3.750 
#    0.000    1.250    0.000    0.000    0.000    0.000 
#    0.000    0.000    0.000    0.000    0.000    0.000 
#
# Total GULP energy -396635.872061 kJ/mol
# GULP energy per Si atom -12394.871002 kJ/mol
# Density = 0.985406 g / cm^3
# Si number density = 9.876543 Si / 1000 Ang^3
#
#
#
# Elastic Constant Matrix: (Units=GPa)
#
#
# Indices 1 2 3 4 5 6 
#
# 1 120.4603 37.7053 43.7384 -0.0044 -21.3079 0.0012
# 2 37.7053 55.5736 21.4491 0.0099 3.0394 -0.0072
# 3 43.7384 21.4491 140.5343 -0.0049 -16.4835 -0.0014
# 4 -0.0044 0.0099 -0.0049 30.5712 0.0040 -6.9369
# 5 -21.3079 3.0394 -16.4835 0.0040 40.8211 -0.0011
# 6 0.0012 -0.0072 -0.0014 -6.9369 -0.0011 35.2519
#
#
#
# Elastic Compliance Matrix: (Units=1/GPa)
#
#
# Indices 1 2 3 4 5 6 
#
# 1 0.012733 -0.008242 -0.001946 0.000003 0.006475 -0.000001
# 2 -0.008242 0.024750 -0.002029 -0.000008 -0.006965 0.000004
# 3 -0.001946 -0.002029 0.008324 0.000001 0.002497 0.000000
# 4 0.000003 -0.000008 0.000001 0.034239 0.000000 0.006738
# 5 0.006475 -0.006965 0.002497 0.000000 0.029403 -0.000001
# 6 -0.000001 0.000004 0.000000 0.006738 -0.000001 0.029693
#
#
# Mechanical properties :
#
#
# Convention : Reuss Voigt Hill
#
# Bulk Modulus (GPa) = 46.78742 58.03931 52.41336
# Shear Modulus (GPa) = 29.29090 35.57387 32.43238
#
# Velocity S-wave (km/s) = 3.85496 4.24834 4.05642
# Velocity P-wave (km/s) = 6.59938 7.31510 6.96644
#
# Compressibility (1/GPa) = 0.02137327
#
# Stress axis : x y z
#
# Youngs Moduli (GPa) = 78.53558 40.40338 120.13817
#
# Poissons Ratio (x) = 0.33302 0.23373
# Poissons Ratio (y) = 0.64731 0.24378
# Poissons Ratio (z) = 0.15279 0.08199
#
# Static dielectric constant tensor:
#      x y z
#    x 3.820520 -0.000010 -0.261580 
#    y -0.000010 3.504190 0.000050 
#    z -0.261580 0.000050 4.017980 
# 
# 
# High freq. dielectric constant tensor:
#      x y z
#    x 1.789860 0.000000 -0.015040 
#    y 0.000000 1.757450 0.000000 
#    z -0.015040 0.000000 1.794990 
# 
# From -- ./inp_files/353325.got.cif
#   From: 2010.06.25/outbox.ucp.g09.slc.cvg/sg12_177_cif.got.tgz:353325.got - 2010.06.28 13:50:54.
