data_PCOD8116603
_publ_section_title
;
Structure prediction by ZEFSAII (Michael W. Deem and Ramdas Pophale) SiO2 
 PCOD8116603
Probable space group: C 2/M
;
_chemical_formula_sum "Si O2"
_cell_formula_units_Z 28
_cell_length_a 24.000000
_cell_length_b 9.000000
_cell_length_c 18.000000
_cell_angle_alpha 90.000000
_cell_angle_beta 50.000000
_cell_angle_gamma 90.000000
_cell_volume 2978.380795
_symmetry_space_group_name_H-M "C 2/M"
_symmetry_group_IT_number 12
_symmetry_cell_setting 'monoclinic'
loop_
_space_group_symop_operation_xyz
x,y,z
-x,y,-z
-x,-y,-z
x,-y,z
1/2+x,1/2+y,z
1/2-x,1/2+y,-z
1/2-x,1/2-y,-z
1/2+x,1/2-y,z
loop_
_atom_site_type_symbol
_atom_site_label
_atom_site_fract_x
_atom_site_fract_y
_atom_site_fract_z
Si Si1 0.538267 0.665993 0.080540
Si Si2 0.617301 0.825210 0.398768
Si Si3 0.422710 0.170344 0.811694
Si Si4 0.004635 0.328304 0.605683
Si Si5 0.255477 0.828096 0.228626
Si Si6 0.107978 0.165905 0.863835
Si Si7 0.282291 0.326163 0.900424
O O1 0.560098 0.500000 0.088388
O O2 0.567217 0.788347 0.111893
O O3 0.451156 0.678844 0.150524
O O4 0.571404 0.703796 0.973266
O O5 0.581086 0.769849 0.507992
O O6 0.565364 0.763062 0.377637
O O7 0.694285 0.748970 0.328917
O O8 0.630872 0.000000 0.382508
O O9 0.496814 0.197684 0.700924
O O10 0.364771 0.274752 0.821312
O O11 0.396887 0.000000 0.829649
O O12 0.002949 0.500000 0.585844
O O13 0.330296 0.785945 0.204569
O O14 0.258535 0.774885 0.139765
O O15 0.240546 0.000000 0.245007
O O16 0.141079 0.000000 0.837403
O O17 0.276774 0.500000 0.917251
O O18 0.250000 0.250000 0.000000
#
# Coordination Sequence:
#
# PCOD8116603 Si02
#       7
#     8   8   8   8   8   8   8
#     4   9  19  36  55  76  99 130 175 215 249 296
#     4   9  16  32  54  72  97 135 173 206 241 299
#     4  11  20  32  52  78 105 133 165 206 254 302
#     4   8  16  30  51  76  99 130 173 207 240 298
#     4  11  22  33  48  76 107 131 164 212 260 298
#     4   9  19  36  56  73  96 135 177 211 246 299
#     4  11  23  35  47  70 105 140 169 202 248 302
#
# _framework density 9.4010809999999996
#
# number of rings (size 3 to 8) (size 9 to 14) (size 15 to 20)
#    0.000    2.286    1.429    3.857    0.000    5.143 
#    0.000    4.286    0.000    0.857    0.000    0.000 
#    0.000    0.000    0.000    0.000    0.000    0.000 
#
# Total GULP energy -346949.157651 kJ/mol
# GULP energy per Si atom -12391.041345 kJ/mol
# Density = 0.937968 g / cm^3
# Si number density = 9.401081 Si / 1000 Ang^3
#
#
#
# Elastic Constant Matrix: (Units=GPa)
#
#
# Indices 1 2 3 4 5 6 
#
# 1 25.9045 17.6831 -2.7899 -0.0017 -18.2757 0.0004
# 2 17.6831 22.2224 23.9016 -0.0033 -6.5982 0.0053
# 3 -2.7899 23.9016 48.5601 -0.0022 -20.1723 0.0013
# 4 -0.0017 -0.0033 -0.0022 14.6433 0.0000 1.2238
# 5 -18.2757 -6.5982 -20.1723 0.0000 19.5318 -0.0004
# 6 0.0004 0.0053 0.0013 1.2238 -0.0004 17.5908
#
#
#
# Elastic Compliance Matrix: (Units=1/GPa)
#
#
# Indices 1 2 3 4 5 6 
#
# 1 -0.013617 0.035774 -0.032687 0.000003 -0.034415 -0.000009
# 2 0.035774 0.011691 0.020748 0.000010 0.058851 -0.000005
# 3 -0.032687 0.020748 -0.002261 0.000001 -0.025911 -0.000006
# 4 0.000003 0.000010 0.000001 0.068690 0.000007 -0.004779
# 5 -0.034415 0.058851 -0.025911 0.000007 0.012118 -0.000015
# 6 -0.000009 -0.000005 -0.000006 -0.004779 -0.000015 0.057180
#
#
# Mechanical properties :
#
#
# Convention : Reuss Voigt Hill
#
# Bulk Modulus (GPa) = 22.99702 19.36408 21.18055
# Shear Modulus (GPa) = 49.68933 14.21267 31.95100
#
# Velocity S-wave (km/s) = 5.14634 2.75236 4.12676
# Velocity P-wave (km/s) = 6.89715 4.51905 5.83063
#
# Compressibility (1/GPa) = 0.04348389
#
# Stress axis : x y z
#
# Youngs Moduli (GPa) = -73.43737 85.53492 -442.32711
#
# Poissons Ratio (x) = -3.05991 -14.45824
# Poissons Ratio (y) = 2.62713 9.17751
# Poissons Ratio (z) = -2.40043 -1.77470
#
# Static dielectric constant tensor:
#      x y z
#    x 3.345510 -0.000010 -0.115700 
#    y -0.000010 3.250440 0.000000 
#    z -0.115700 0.000000 3.469360 
# 
# 
# High freq. dielectric constant tensor:
#      x y z
#    x 1.692390 0.000000 -0.007260 
#    y 0.000000 1.709300 0.000000 
#    z -0.007260 0.000000 1.721970 
# 
# From -- ./inp_files/288166.got.cif
#   From: 2010.06.25/outbox.ucp.g09.slc.cvg/sg12_145_cif.got.tgz:288166.got - 2010.06.28 13:50:54.
