data_PCOD8116336
_publ_section_title
;
Structure prediction by ZEFSAII (Michael W. Deem and Ramdas Pophale) SiO2 
 PCOD8116336
Probable space group: C 2/M
;
_chemical_formula_sum "Si O2"
_cell_formula_units_Z 28
_cell_length_a 21.000000
_cell_length_b 9.000000
_cell_length_c 30.000000
_cell_angle_alpha 90.000000
_cell_angle_beta 30.000000
_cell_angle_gamma 90.000000
_cell_volume 2835.000000
_symmetry_space_group_name_H-M "C 2/M"
_symmetry_group_IT_number 12
_symmetry_cell_setting 'monoclinic'
loop_
_space_group_symop_operation_xyz
x,y,z
-x,y,-z
-x,-y,-z
x,-y,z
1/2+x,1/2+y,z
1/2-x,1/2+y,-z
1/2-x,1/2-y,-z
1/2+x,1/2-y,z
loop_
_atom_site_type_symbol
_atom_site_label
_atom_site_fract_x
_atom_site_fract_y
_atom_site_fract_z
Si Si1 0.738050 0.177899 0.056276
Si Si2 0.398863 0.323504 0.620664
Si Si3 0.095263 0.824213 0.220858
Si Si4 0.761502 0.672737 0.202188
Si Si5 0.829677 0.175199 0.568761
Si Si6 0.990216 0.825191 0.955863
Si Si7 0.341243 0.178352 0.406944
O O1 0.621691 0.246238 0.156610
O O2 0.720117 0.000000 0.063112
O O3 0.750000 0.250000 0.000000
O O4 0.864940 0.224697 0.005638
O O5 0.405959 0.500000 0.618051
O O6 0.344047 0.262382 0.700052
O O7 0.539682 0.255356 0.529899
O O8 0.311719 0.273161 0.631006
O O9 0.218776 0.795811 0.177246
O O10 0.980627 0.751171 0.319015
O O11 0.069983 0.000000 0.229383
O O12 0.784553 0.500000 0.196159
O O13 0.888051 0.755511 0.141677
O O14 0.714114 0.224662 0.607789
O O15 0.844524 0.000000 0.558172
O O16 0.002276 0.000000 0.948661
O O17 0.000000 0.761084 0.000000
O O18 0.250000 0.250000 0.500000
O O19 0.348706 0.000000 0.409593
#
# Coordination Sequence:
#
# PCOD8116336 Si02
#       7
#     8   8   8   8   8   8   8
#     4  11  24  43  65  90 123 164 204 251 310 371
#     4   8  14  28  50  78 107 139 178 232 287 336
#     4  11  23  39  59  87 121 157 200 251 303 366
#     4  10  20  33  57  88 115 145 194 246 291 351
#     4   8  15  29  50  74 107 143 183 231 285 340
#     4  10  21  39  61  84 115 151 190 240 302 361
#     4  11  22  36  56  84 117 157 200 246 301 364
#
# _framework density 9.8765429999999999
#
# number of rings (size 3 to 8) (size 9 to 14) (size 15 to 20)
#    0.000    2.143    1.429    3.000    0.000    5.429 
#    0.000    1.429    0.000    0.857    0.000    6.000 
#    0.000    0.000    0.000    0.000    0.000    0.000 
#
# Total GULP energy -346935.925559 kJ/mol
# GULP energy per Si atom -12390.568770 kJ/mol
# Density = 0.985406 g / cm^3
# Si number density = 9.876543 Si / 1000 Ang^3
#
#
#
# Elastic Constant Matrix: (Units=GPa)
#
#
# Indices 1 2 3 4 5 6 
#
# 1 101.2770 37.6742 40.1100 -0.0054 9.4525 0.0625
# 2 37.6742 56.5572 32.1377 -0.0188 1.3554 0.0128
# 3 40.1100 32.1377 107.1362 0.0054 13.3481 0.0052
# 4 -0.0054 -0.0188 0.0054 35.4814 0.0005 0.8786
# 5 9.4525 1.3554 13.3481 0.0005 37.7098 -0.0195
# 6 0.0625 0.0128 0.0052 0.8786 -0.0195 24.9892
#
#
#
# Elastic Compliance Matrix: (Units=1/GPa)
#
#
# Indices 1 2 3 4 5 6 
#
# 1 0.014030 -0.007798 -0.002626 -0.000001 -0.002307 -0.000032
# 2 -0.007798 0.025738 -0.005157 0.000013 0.002855 0.000009
# 3 -0.002626 -0.005157 0.012301 -0.000005 -0.003511 0.000004
# 4 -0.000001 0.000013 -0.000005 0.028208 0.000001 -0.000992
# 5 -0.002307 0.002855 -0.003511 0.000001 0.028237 0.000027
# 6 -0.000032 0.000009 0.000004 -0.000992 0.000027 0.040052
#
#
# Mechanical properties :
#
#
# Convention : Reuss Voigt Hill
#
# Bulk Modulus (GPa) = 47.83059 53.86827 50.84943
# Shear Modulus (GPa) = 26.78129 29.97266 28.37698
#
# Velocity S-wave (km/s) = 3.68612 3.89956 3.79434
# Velocity P-wave (km/s) = 6.51026 6.89967 6.70779
#
# Compressibility (1/GPa) = 0.02090712
#
# Stress axis : x y z
#
# Youngs Moduli (GPa) = 71.27486 38.85351 81.29251
#
# Poissons Ratio (x) = 0.30300 0.21347
# Poissons Ratio (y) = 0.55583 0.41920
# Poissons Ratio (z) = 0.18716 0.20035
#
# Static dielectric constant tensor:
#      x y z
#    x 3.912880 -0.000070 0.119610 
#    y -0.000070 3.332990 0.000010 
#    z 0.119610 0.000010 3.745740 
# 
# 
# High freq. dielectric constant tensor:
#      x y z
#    x 1.777020 0.000000 0.008580 
#    y 0.000000 1.745370 0.000000 
#    z 0.008580 0.000000 1.776710 
# 
# From -- ./inp_files/380638.got.cif
#   From: 2010.06.25/outbox.ucp.g09.slc.cvg/sg12_191_cif.got.tgz:380638.got - 2010.06.28 13:50:54.
