data_PCOD8116364
_publ_section_title
;
Structure prediction by ZEFSAII (Michael W. Deem and Ramdas Pophale) SiO2 
 PCOD8116364
Probable space group: C 2/M
;
_chemical_formula_sum "Si O2"
_cell_formula_units_Z 32
_cell_length_a 18.000000
_cell_length_b 9.000000
_cell_length_c 30.000000
_cell_angle_alpha 90.000000
_cell_angle_beta 40.000000
_cell_angle_gamma 90.000000
_cell_volume 3123.947783
_symmetry_space_group_name_H-M "C 2/M"
_symmetry_group_IT_number 12
_symmetry_cell_setting 'monoclinic'
loop_
_space_group_symop_operation_xyz
x,y,z
-x,y,-z
-x,-y,-z
x,-y,z
1/2+x,1/2+y,z
1/2-x,1/2+y,-z
1/2-x,1/2-y,-z
1/2+x,1/2-y,z
loop_
_atom_site_type_symbol
_atom_site_label
_atom_site_fract_x
_atom_site_fract_y
_atom_site_fract_z
Si Si1 0.189728 0.335516 0.685131
Si Si2 0.869806 0.332295 0.059652
Si Si3 0.528635 0.671464 0.828329
Si Si4 0.827962 0.664941 0.178835
Si Si5 0.921409 0.324883 0.576610
Si Si6 0.919686 0.170176 0.667665
Si Si7 0.163001 0.672575 0.126117
Si Si8 0.481881 0.161898 0.721299
O O1 0.235844 0.500000 0.678566
O O2 0.112876 0.269529 0.759511
O O3 0.292582 0.226801 0.625409
O O4 0.112745 0.351597 0.677007
O O5 0.867849 0.500000 0.041267
O O6 0.806006 0.327088 0.136532
O O7 0.796388 0.221030 0.062758
O O8 0.000000 0.272059 0.000000
O O9 0.537992 0.500000 0.812076
O O10 0.573741 0.710771 0.856980
O O11 0.398449 0.729520 0.883641
O O12 0.872440 0.500000 0.170869
O O13 0.714108 0.703674 0.259790
O O14 0.926755 0.500000 0.578240
O O15 0.962750 0.257290 0.604459
O O16 0.000000 0.266478 0.500000
O O17 0.990858 0.221688 0.677581
O O18 0.946472 0.000000 0.647161
O O19 0.149173 0.500000 0.121772
O O20 0.103117 0.716530 0.200453
O O21 0.438091 0.000000 0.724583
#
# Coordination Sequence:
#
# PCOD8116364 Si02
#       8
#     8   8   8   8   8   8   8   8
#     4  10  20  36  57  84 115 148 185 229 283 333
#     4  10  21  38  59  83 115 152 188 230 282 340
#     4  11  21  33  56  85 113 146 187 234 281 331
#     4  10  20  35  55  84 116 145 186 234 278 328
#     4  11  24  40  58  82 114 151 189 231 279 333
#     4  11  21  34  58  86 113 146 186 233 278 328
#     4  10  20  35  56  82 115 150 186 233 283 332
#     4   9  19  34  55  83 114 144 181 231 279 327
#
# _framework density 10.243449
#
# number of rings (size 3 to 8) (size 9 to 14) (size 15 to 20)
#    0.000    1.750    2.500    3.375    0.000    4.750 
#    0.000    1.250    0.000    0.000    0.000    0.000 
#    0.000    0.000    0.000    0.000    0.000    0.000 
#
# Total GULP energy -396619.944714 kJ/mol
# GULP energy per Si atom -12394.373272 kJ/mol
# Density = 1.022013 g / cm^3
# Si number density = 10.243449 Si / 1000 Ang^3
#
#
#
# Elastic Constant Matrix: (Units=GPa)
#
#
# Indices 1 2 3 4 5 6 
#
# 1 51.0456 27.9000 -14.0026 0.0000 -6.7673 0.0006
# 2 27.9000 65.7466 -3.2267 0.0003 6.1605 0.0013
# 3 -14.0026 -3.2267 8.9774 0.0000 -3.3091 -0.0001
# 4 0.0000 0.0003 0.0000 21.0164 -0.0001 -4.4664
# 5 -6.7673 6.1605 -3.3091 -0.0001 15.3388 -0.0002
# 6 0.0006 0.0013 -0.0001 -4.4664 -0.0002 31.0812
#
#
#
# Elastic Compliance Matrix: (Units=1/GPa)
#
#
# Indices 1 2 3 4 5 6 
#
# 1 0.133912 -0.057683 0.237327 0.000002 0.133447 0.000002
# 2 -0.057683 0.040762 -0.098575 -0.000001 -0.063086 -0.000001
# 3 0.237327 -0.098575 0.542456 0.000003 0.261321 0.000003
# 4 0.000002 -0.000001 0.000003 0.049081 0.000002 0.007053
# 5 0.133447 -0.063086 0.261321 0.000002 0.205782 0.000002
# 6 0.000002 -0.000001 0.000003 0.007053 0.000002 0.033187
#
#
# Mechanical properties :
#
#
# Convention : Reuss Voigt Hill
#
# Bulk Modulus (GPa) = 1.13731 16.34567 8.74149
# Shear Modulus (GPa) = 4.40090 21.16054 12.78072
#
# Velocity S-wave (km/s) = 1.46725 3.21733 2.50041
# Velocity P-wave (km/s) = 1.85115 4.66879 3.55136
#
# Compressibility (1/GPa) = 0.87926660
#
# Stress axis : x y z
#
# Youngs Moduli (GPa) = 7.46759 24.53291 1.84347
#
# Poissons Ratio (x) = 1.41514 -0.43750
# Poissons Ratio (y) = 0.43075 0.18172
# Poissons Ratio (z) = -1.77226 2.41833
#
# Static dielectric constant tensor:
#      x y z
#    x 3.899050 0.000000 -0.095390 
#    y 0.000000 3.689640 0.000000 
#    z -0.095390 0.000000 3.446050 
# 
# 
# High freq. dielectric constant tensor:
#      x y z
#    x 1.792610 0.000000 -0.001250 
#    y 0.000000 1.799180 0.000000 
#    z -0.001250 0.000000 1.762110 
# 
# From -- ./inp_files/378194.got.cif
#   From: 2010.06.25/outbox.ucp.g09.slc.cvg/sg12_190_cif.got.tgz:378194.got - 2010.06.28 13:50:54.
