data_PCOD8116144
_publ_section_title
;
Structure prediction by ZEFSAII (Michael W. Deem and Ramdas Pophale) SiO2 
 PCOD8116144
Probable space group: C 2/M
;
_chemical_formula_sum "Si O2"
_cell_formula_units_Z 56
_cell_length_a 9.649910
_cell_length_b 17.943070
_cell_length_c 21.961738
_cell_angle_alpha 90.000000
_cell_angle_beta 116.065262
_cell_angle_gamma 90.000000
_cell_volume 3415.901101
_symmetry_space_group_name_H-M "C 2/M"
_symmetry_group_IT_number 12
_symmetry_cell_setting 'monoclinic'
loop_
_space_group_symop_operation_xyz
x,y,z
-x,y,-z
-x,-y,-z
x,-y,z
1/2+x,1/2+y,z
1/2-x,1/2+y,-z
1/2-x,1/2-y,-z
1/2+x,1/2-y,z
loop_
_atom_site_type_symbol
_atom_site_label
_atom_site_fract_x
_atom_site_fract_y
_atom_site_fract_z
Si Si1 0.579008 0.587493 0.579007
Si Si2 0.976630 0.181537 0.322951
Si Si3 0.461812 0.082496 0.798120
Si Si4 0.916505 0.321235 0.076548
Si Si5 0.169271 0.681538 0.322951
Si Si6 0.736591 0.821235 0.076548
Si Si7 0.134429 0.082496 0.798120
O O1 0.500000 0.605472 0.500000
O O2 0.594314 0.500000 0.594312
O O3 0.476379 0.624498 0.613362
O O4 0.750346 0.624498 0.613362
O O5 0.802609 0.211950 0.302609
O O6 0.982898 0.137591 0.259697
O O7 0.094502 0.250000 0.344502
O O8 0.574175 0.112527 0.872753
O O9 0.463505 0.137591 0.740303
O O10 0.287312 0.077278 0.787312
O O11 0.520351 0.000000 0.790998
O O12 0.845891 0.250000 0.095891
O O13 0.085313 0.298639 0.085313
O O14 0.808902 0.348526 0.000000
O O15 0.828669 0.887473 0.127247
O O16 0.061646 0.000000 0.790998
#
# Coordination Sequence:
#
# PCOD8116144 Si02
#       7
#     8   8   8   8   8   8   8
#     4   9  18  32  52  74  96 126 160 189 226 282
#     4   9  18  30  49  73  95 123 156 193 233 273
#     4   9  16  27  45  66  90 119 153 192 229 274
#     4   9  17  28  43  63  86 115 149 189 233 274
#     4   9  18  30  49  73  95 123 156 193 233 273
#     4   9  17  28  43  63  86 115 149 189 233 274
#     4   9  16  27  45  66  90 119 153 192 229 274
#
# _framework density 16.393917999999999
#
# number of rings (size 3 to 8) (size 9 to 14) (size 15 to 20)
#    0.857    2.143    0.000    1.714    0.000    1.143 
#    0.000    2.857    0.000    6.000    0.000    6.000 
#    0.000    0.000    0.000    0.000    0.000    0.000 
#
# Total GULP energy -346993.628715 kJ/mol
# GULP energy per Si atom -12392.629597 kJ/mol
# Density = 1.635660 g / cm^3
# Si number density = 16.393918 Si / 1000 Ang^3
#
#
#
# Elastic Constant Matrix: (Units=GPa)
#
#
# Indices 1 2 3 4 5 6 
#
# 1 34.0057 40.3413 25.0148 0.0000 0.0002 0.0000
# 2 40.3413 130.9593 70.7219 0.0000 0.0007 0.0000
# 3 25.0148 70.7219 114.8396 0.0000 0.0003 0.0000
# 4 0.0000 0.0000 0.0000 29.4289 0.0000 0.0001
# 5 0.0002 0.0007 0.0003 0.0000 10.3980 0.0000
# 6 0.0000 0.0000 0.0000 0.0001 0.0000 26.0967
#
#
#
# Elastic Compliance Matrix: (Units=1/GPa)
#
#
# Indices 1 2 3 4 5 6 
#
# 1 0.046636 -0.013305 -0.001965 0.000000 0.000000 0.000000
# 2 -0.013305 0.015237 -0.006485 0.000000 -0.000001 0.000000
# 3 -0.001965 -0.006485 0.013129 0.000000 0.000000 0.000000
# 4 0.000000 0.000000 0.000000 0.033980 0.000000 0.000000
# 5 0.000000 -0.000001 0.000000 0.000000 0.096173 0.000000
# 6 0.000000 0.000000 0.000000 0.000000 0.000000 0.038319
#
#
# Mechanical properties :
#
#
# Convention : Reuss Voigt Hill
#
# Bulk Modulus (GPa) = 31.75366 61.32894 46.54130
# Shear Modulus (GPa) = 16.80781 22.76648 19.78714
#
# Velocity S-wave (km/s) = 3.20542 3.73059 3.47793
# Velocity P-wave (km/s) = 5.75420 7.48647 6.67675
#
# Compressibility (1/GPa) = 0.03149243
#
# Stress axis : x y z
#
# Youngs Moduli (GPa) = 21.44273 65.63164 76.16446
#
# Poissons Ratio (x) = 0.87322 0.14965
# Poissons Ratio (y) = 0.28529 0.49393
# Poissons Ratio (z) = 0.04213 0.42562
#
# Static dielectric constant tensor:
#      x y z
#    x 2.677380 0.000000 0.000000 
#    y 0.000000 3.080980 0.000000 
#    z 0.000000 0.000000 3.142710 
# 
# 
# High freq. dielectric constant tensor:
#      x y z
#    x 1.578610 0.000000 0.000000 
#    y 0.000000 1.630070 0.000000 
#    z 0.000000 0.000000 1.639930 
# 
# From -- ./inp_files/336144.got.cif
#   From: 2010.06.25/outbox.cif.g09.slc.cpg/sg12_169_cif.got.tgz:336144.got - 2010.06.28 00:19:55.
