data_PCOD8116572
_publ_section_title
;
Structure prediction by ZEFSAII (Michael W. Deem and Ramdas Pophale) SiO2 
 PCOD8116572
Probable space group: C 2/M
;
_chemical_formula_sum "Si O2"
_cell_formula_units_Z 32
_cell_length_a 9.000000
_cell_length_b 18.000000
_cell_length_c 30.000000
_cell_angle_alpha 90.000000
_cell_angle_beta 40.000000
_cell_angle_gamma 90.000000
_cell_volume 3123.947783
_symmetry_space_group_name_H-M "C 2/M"
_symmetry_group_IT_number 12
_symmetry_cell_setting 'monoclinic'
loop_
_space_group_symop_operation_xyz
x,y,z
-x,y,-z
-x,-y,-z
x,-y,z
1/2+x,1/2+y,z
1/2-x,1/2+y,-z
1/2-x,1/2-y,-z
1/2+x,1/2-y,z
loop_
_atom_site_type_symbol
_atom_site_label
_atom_site_fract_x
_atom_site_fract_y
_atom_site_fract_z
Si Si1 0.977257 0.414872 0.079004
Si Si2 0.372261 0.171764 0.420943
Si Si3 0.253582 0.663317 0.211915
Si Si4 0.132913 0.085055 0.076369
Si Si5 0.747129 0.339349 0.213792
Si Si6 0.197095 0.912122 0.710758
Si Si7 0.479514 0.672447 0.578456
Si Si8 0.190350 0.412262 0.710819
O O1 0.975754 0.500000 0.096197
O O2 0.795825 0.404443 0.081346
O O3 0.915701 0.361693 0.134358
O O4 0.230034 0.394158 0.000641
O O5 0.562699 0.108391 0.368561
O O6 0.496531 0.249507 0.401897
O O7 0.220117 0.181643 0.412004
O O8 0.217068 0.148127 0.499301
O O9 0.413808 0.639635 0.133052
O O10 0.200485 0.750989 0.222423
O O11 0.373013 0.639109 0.230703
O O12 0.027579 0.611560 0.268745
O O13 0.045972 0.000000 0.093556
O O14 0.515281 0.389069 0.271892
O O15 0.864762 0.362081 0.233119
O O16 0.193382 0.000000 0.722301
O O17 0.417514 0.610933 0.630120
O O18 0.198216 0.500000 0.718964
#
# Coordination Sequence:
#
# PCOD8116572 Si02
#       8
#     8   8   8   8   8   8   8   8
#     4   9  18  36  62  90 120 158 204 250 303 363
#     4  10  22  40  65  94 125 162 205 252 307 364
#     4  12  23  39  64  91 123 158 207 259 302 359
#     4   9  18  35  63  92 118 155 205 256 300 358
#     4  12  25  41  62  90 126 164 202 253 309 366
#     4  12  24  41  65  92 120 162 214 253 294 364
#     4  10  22  41  64  92 127 165 202 250 309 367
#     4  12  26  41  59  91 129 162 197 253 316 362
#
# _framework density 10.243449
#
# number of rings (size 3 to 8) (size 9 to 14) (size 15 to 20)
#    0.000    1.250    2.500    5.250    1.750    1.000 
#    0.000    1.875    0.000    3.750    0.000    0.000 
#    0.000    0.000    0.000    0.000    0.000    0.000 
#
# Total GULP energy -396727.869771 kJ/mol
# GULP energy per Si atom -12397.745930 kJ/mol
# Density = 1.022013 g / cm^3
# Si number density = 10.243449 Si / 1000 Ang^3
#
#
#
# Elastic Constant Matrix: (Units=GPa)
#
#
# Indices 1 2 3 4 5 6 
#
# 1 26.6554 24.0637 19.2128 -0.0011 7.7600 0.0028
# 2 24.0637 152.2785 72.0137 0.0011 2.0846 -0.0030
# 3 19.2128 72.0137 148.4277 0.0092 4.9579 -0.0165
# 4 -0.0011 0.0011 0.0092 46.3122 -0.0009 0.1211
# 5 7.7600 2.0846 4.9579 -0.0009 30.2301 -0.0054
# 6 0.0028 -0.0030 -0.0165 0.1211 -0.0054 27.1454
#
#
#
# Elastic Compliance Matrix: (Units=1/GPa)
#
#
# Indices 1 2 3 4 5 6 
#
# 1 0.048516 -0.006127 -0.002921 0.000002 -0.011552 -0.000010
# 2 -0.006127 0.009296 -0.003769 0.000000 0.001550 0.000000
# 3 -0.002921 -0.003769 0.008959 -0.000002 -0.000460 0.000005
# 4 0.000002 0.000000 -0.000002 0.021593 0.000000 -0.000096
# 5 -0.011552 0.001550 -0.000460 0.000000 0.036013 0.000008
# 6 -0.000010 0.000000 0.000005 -0.000096 0.000008 0.036839
#
#
# Mechanical properties :
#
#
# Convention : Reuss Voigt Hill
#
# Bulk Modulus (GPa) = 24.30913 61.99353 43.15133
# Shear Modulus (GPa) = 24.92965 34.87564 29.90265
#
# Velocity S-wave (km/s) = 3.49213 4.13042 3.82461
# Velocity P-wave (km/s) = 5.30579 7.28512 6.37277
#
# Compressibility (1/GPa) = 0.04113680
#
# Stress axis : x y z
#
# Youngs Moduli (GPa) = 20.61177 107.56947 111.61402
#
# Poissons Ratio (x) = 0.65907 0.32608
# Poissons Ratio (y) = 0.12629 0.42068
# Poissons Ratio (z) = 0.06022 0.40543
#
# Static dielectric constant tensor:
#      x y z
#    x 3.542380 -0.000010 0.026620 
#    y -0.000010 3.598890 0.000040 
#    z 0.026620 0.000040 4.107140 
# 
# 
# High freq. dielectric constant tensor:
#      x y z
#    x 1.790340 0.000000 0.004100 
#    y 0.000000 1.797880 0.000000 
#    z 0.004100 0.000000 1.825280 
# 
# From -- ./inp_files/372901.got.cif
#   From: 2010.06.25/outbox.ucp.g09.slc.cvg/sg12_187_cif.got.tgz:372901.got - 2010.06.28 13:50:54.
