data_PCOD8116389
_publ_section_title
;
Structure prediction by ZEFSAII (Michael W. Deem and Ramdas Pophale) SiO2 
 PCOD8116389
Probable space group: C 2/M
;
_chemical_formula_sum "Si O2"
_cell_formula_units_Z 32
_cell_length_a 30.000000
_cell_length_b 9.000000
_cell_length_c 18.000000
_cell_angle_alpha 90.000000
_cell_angle_beta 40.000000
_cell_angle_gamma 90.000000
_cell_volume 3123.947783
_symmetry_space_group_name_H-M "C 2/M"
_symmetry_group_IT_number 12
_symmetry_cell_setting 'monoclinic'
loop_
_space_group_symop_operation_xyz
x,y,z
-x,y,-z
-x,-y,-z
x,-y,z
1/2+x,1/2+y,z
1/2-x,1/2+y,-z
1/2-x,1/2-y,-z
1/2+x,1/2-y,z
loop_
_atom_site_type_symbol
_atom_site_label
_atom_site_fract_x
_atom_site_fract_y
_atom_site_fract_z
Si Si1 0.031597 0.826660 0.082193
Si Si2 0.606447 0.670099 0.520584
Si Si3 0.687810 0.167146 0.539641
Si Si4 0.316396 0.674914 0.878909
Si Si5 0.399759 0.833925 0.209462
Si Si6 0.799364 0.831271 0.731607
Si Si7 0.039715 0.823737 0.239496
Si Si8 0.172131 0.827036 0.822177
O O1 0.029789 0.767606 0.168420
O O2 0.973101 0.748406 0.107013
O O3 0.015939 0.000000 0.097592
O O4 0.106521 0.784565 0.956018
O O5 0.607507 0.500000 0.546990
O O6 0.664502 0.755738 0.493607
O O7 0.629551 0.685519 0.405713
O O8 0.527977 0.733207 0.628475
O O9 0.750000 0.250000 0.500000
O O10 0.621039 0.167583 0.678011
O O11 0.711980 0.000000 0.490403
O O12 0.310925 0.500000 0.900461
O O13 0.317956 0.715892 0.790661
O O14 0.388139 0.741417 0.820641
O O15 0.250000 0.750000 0.000000
O O16 0.337768 0.753596 0.243928
O O17 0.407755 0.000000 0.168243
O O18 0.740552 0.724068 0.776271
O O19 0.771584 0.000000 0.762927
O O20 0.045100 0.000000 0.236856
O O21 0.177750 0.000000 0.799680
#
# Coordination Sequence:
#
# PCOD8116389 Si02
#       8
#     8   8   8   8   8   8   8   8
#     4  10  20  36  57  82 111 148 195 238 282 343
#     4  10  20  37  60  84 113 152 194 240 292 344
#     4  11  23  37  55  81 113 153 198 242 287 343
#     4  10  21  39  62  90 121 153 192 238 289 347
#     4  11  23  37  54  81 115 149 190 239 293 346
#     4  10  22  38  58  87 119 149 190 241 291 341
#     4   9  18  35  61  86 113 150 192 239 288 343
#     4  11  23  37  57  83 114 154 196 237 287 348
#
# _framework density 10.243449
#
# number of rings (size 3 to 8) (size 9 to 14) (size 15 to 20)
#    0.000    1.750    1.250    3.000    0.000    9.500 
#    0.000    3.750    0.000    0.000    0.000    2.625 
#    0.000    0.000    0.000    0.000    0.000    0.000 
#
# Total GULP energy -396860.760428 kJ/mol
# GULP energy per Si atom -12401.898763 kJ/mol
# Density = 1.022013 g / cm^3
# Si number density = 10.243449 Si / 1000 Ang^3
#
#
#
# Elastic Constant Matrix: (Units=GPa)
#
#
# Indices 1 2 3 4 5 6 
#
# 1 107.3622 29.6466 29.6857 0.0072 -13.2535 -0.0102
# 2 29.6466 56.9526 26.1981 0.0406 -2.9136 -0.0155
# 3 29.6857 26.1981 84.5463 0.0382 -2.7710 -0.0168
# 4 0.0072 0.0406 0.0382 25.2219 -0.0192 -4.5201
# 5 -13.2535 -2.9136 -2.7710 -0.0192 38.2566 0.0016
# 6 -0.0102 -0.0155 -0.0168 -4.5201 0.0016 28.0013
#
#
#
# Elastic Compliance Matrix: (Units=1/GPa)
#
#
# Indices 1 2 3 4 5 6 
#
# 1 0.011771 -0.004780 -0.002536 0.000011 0.003530 0.000002
# 2 -0.004780 0.022465 -0.005293 -0.000027 -0.000329 0.000003
# 3 -0.002536 -0.005293 0.014351 -0.000012 -0.000242 0.000003
# 4 0.000011 -0.000027 -0.000012 0.040829 0.000021 0.006591
# 5 0.003530 -0.000329 -0.000242 0.000021 0.027320 0.000003
# 6 0.000002 0.000003 0.000003 0.006591 0.000003 0.036777
#
#
# Mechanical properties :
#
#
# Convention : Reuss Voigt Hill
#
# Bulk Modulus (GPa) = 42.79517 46.65799 44.72658
# Shear Modulus (GPa) = 26.80656 29.18469 27.99563
#
# Velocity S-wave (km/s) = 3.62121 3.77842 3.70065
# Velocity P-wave (km/s) = 6.19827 6.46987 6.33553
#
# Compressibility (1/GPa) = 0.02336712
#
# Stress axis : x y z
#
# Youngs Moduli (GPa) = 84.95223 44.51360 69.68320
#
# Poissons Ratio (x) = 0.21279 0.17673
# Poissons Ratio (y) = 0.40610 0.36887
# Poissons Ratio (z) = 0.21545 0.23563
#
# Static dielectric constant tensor:
#      x y z
#    x 3.755240 -0.000010 0.030310 
#    y -0.000010 3.531920 0.000020 
#    z 0.030310 0.000020 3.865440 
# 
# 
# High freq. dielectric constant tensor:
#      x y z
#    x 1.797080 0.000000 -0.004540 
#    y 0.000000 1.777520 0.000000 
#    z -0.004540 0.000000 1.814700 
# 
# From -- ./inp_files/295446.got.cif
#   From: 2010.06.25/outbox.ucp.g09.slc.cvg/sg12_148_cif.got.tgz:295446.got - 2010.06.28 13:50:54.
