data_PCOD8116058
_publ_section_title
;
Structure prediction by ZEFSAII (Michael W. Deem and Ramdas Pophale) SiO2 
 PCOD8116058
Probable space group: C 2/M
;
_chemical_formula_sum "Si O2"
_cell_formula_units_Z 48
_cell_length_a 25.187310
_cell_length_b 9.200523
_cell_length_c 12.655749
_cell_angle_alpha 90.000000
_cell_angle_beta 91.295633
_cell_angle_gamma 90.000000
_cell_volume 2932.048216
_symmetry_space_group_name_H-M "C 2/M"
_symmetry_group_IT_number 12
_symmetry_cell_setting 'monoclinic'
loop_
_space_group_symop_operation_xyz
x,y,z
-x,y,-z
-x,-y,-z
x,-y,z
1/2+x,1/2+y,z
1/2-x,1/2+y,-z
1/2-x,1/2-y,-z
1/2+x,1/2-y,z
loop_
_atom_site_type_symbol
_atom_site_label
_atom_site_fract_x
_atom_site_fract_y
_atom_site_fract_z
Si Si1 0.936923 0.836250 0.993458
Si Si2 0.741771 0.330915 0.390520
Si Si3 0.141610 0.670209 0.385577
Si Si4 0.565631 0.828607 0.799559
Si Si5 0.358306 0.167864 0.376607
Si Si6 0.443624 0.832087 0.789987
O O1 0.918344 0.759641 0.884582
O O2 0.914644 0.000000 0.994702
O O3 0.914511 0.748969 0.092779
O O4 0.000000 0.833302 0.000000
O O5 0.729392 0.500000 0.408177
O O6 0.750000 0.250000 0.500000
O O7 0.691270 0.254308 0.332171
O O8 0.797744 0.310815 0.331087
O O9 0.155696 0.500000 0.387819
O O10 0.133500 0.731998 0.504579
O O11 0.088579 0.703371 0.317733
O O12 0.601020 0.762391 0.705664
O O13 0.504639 0.790208 0.770727
O O14 0.574163 0.000000 0.815272
O O15 0.373147 0.000000 0.385627
O O16 0.438811 0.000000 0.822054
#
# Coordination Sequence:
#
# PCOD8116058 Si02
#       6
#     8   8   8   8   8   8
#     4   9  17  29  44  62  86 115 147 182 216 253
#     4   9  16  28  45  64  86 115 150 182 213 251
#     4   9  17  29  44  66  93 117 144 177 214 257
#     4   9  16  28  46  66  88 115 145 177 216 259
#     4   8  15  27  44  66  90 114 142 178 216 255
#     4   9  17  28  45  67  89 115 146 178 213 258
#
# _framework density 16.370809000000001
#
# number of rings (size 3 to 8) (size 9 to 14) (size 15 to 20)
#    0.000    3.167    0.000    2.000    0.000    3.333 
#    0.000    7.500    0.000    1.000    0.000    9.333 
#    0.000    0.000    0.000    0.000    0.000    0.000 
#
# Total GULP energy -297423.422846 kJ/mol
# GULP energy per Si atom -12392.642619 kJ/mol
# Density = 1.633355 g / cm^3
# Si number density = 16.370809 Si / 1000 Ang^3
#
#
#
# Elastic Constant Matrix: (Units=GPa)
#
#
# Indices 1 2 3 4 5 6 
#
# 1 87.4574 38.8551 57.6944 0.0000 -11.4006 0.0000
# 2 38.8551 63.9865 39.3929 0.0000 -4.3952 0.0000
# 3 57.6944 39.3929 104.5705 0.0000 -13.8111 0.0000
# 4 0.0000 0.0000 0.0000 15.8941 0.0000 2.5428
# 5 -11.4006 -4.3952 -13.8111 0.0000 9.2317 0.0000
# 6 0.0000 0.0000 0.0000 2.5428 0.0000 21.7951
#
#
#
# Elastic Compliance Matrix: (Units=1/GPa)
#
#
# Indices 1 2 3 4 5 6 
#
# 1 0.021084 -0.007535 -0.007264 0.000000 0.011582 0.000000
# 2 -0.007535 0.023077 -0.005376 0.000000 -0.006362 0.000000
# 3 -0.007264 -0.005376 0.017539 0.000000 0.014708 0.000000
# 4 0.000000 0.000000 0.000000 0.064113 0.000000 -0.007480
# 5 0.011582 -0.006362 0.014708 0.000000 0.141601 0.000000
# 6 0.000000 0.000000 0.000000 -0.007480 0.000000 0.046755
#
#
# Mechanical properties :
#
#
# Convention : Reuss Voigt Hill
#
# Bulk Modulus (GPa) = 46.84244 58.65545 52.74895
# Shear Modulus (GPa) = 13.82610 17.38898 15.60754
#
# Velocity S-wave (km/s) = 2.90928 3.26267 3.09103
# Velocity P-wave (km/s) = 6.32145 7.07816 6.71048
#
# Compressibility (1/GPa) = 0.02134816
#
# Stress axis : x y z
#
# Youngs Moduli (GPa) = 47.43011 43.33367 57.01705
#
# Poissons Ratio (x) = 0.32652 0.41418
# Poissons Ratio (y) = 0.35739 0.30653
# Poissons Ratio (z) = 0.34454 0.23297
#
# Static dielectric constant tensor:
#      x y z
#    x 3.411870 0.000000 -0.037960 
#    y 0.000000 3.130780 0.000000 
#    z -0.037960 0.000000 3.131240 
# 
# 
# High freq. dielectric constant tensor:
#      x y z
#    x 1.616180 0.000000 -0.001660 
#    y 0.000000 1.618970 0.000000 
#    z -0.001660 0.000000 1.611330 
# 
# From -- ./inp_files/108637.got.cif
#   From: 2010.06.25/outbox.cif.g09.slc.cpg/sg12_55_cif.got.tgz:108637.got - 2010.06.28 00:19:55.
