data_PCOD8116834
_publ_section_title
;
Structure prediction by ZEFSAII (Michael W. Deem and Ramdas Pophale) SiO2 
 PCOD8116834
Probable space group: P 2/C
;
_chemical_formula_sum "Si O2"
_cell_formula_units_Z 28
_cell_length_a 25.877486
_cell_length_b 10.083316
_cell_length_c 18.664601
_cell_angle_alpha 90.000000
_cell_angle_beta 160.309829
_cell_angle_gamma 90.000000
_cell_volume 1640.924806
_symmetry_space_group_name_H-M "P 2/C"
_symmetry_group_IT_number 13
_symmetry_cell_setting 'monoclinic'
loop_
_space_group_symop_operation_xyz
x,y,z
-x,y,1/2-z
-x,-y,-z
x,-y,1/2+z
loop_
_atom_site_type_symbol
_atom_site_label
_atom_site_fract_x
_atom_site_fract_y
_atom_site_fract_z
Si Si1 0.001760 0.614666 0.444035
Si Si2 0.008184 0.266826 0.179865
Si Si3 0.525047 0.533853 0.139147
Si Si4 0.080949 0.131505 0.132761
Si Si5 0.749657 0.460008 0.803218
Si Si6 0.610513 0.249008 0.958141
Si Si7 0.751067 0.471077 0.050786
O O1 0.005691 0.755494 0.486143
O O2 0.142672 0.587230 0.573518
O O3 0.000000 0.500000 0.500000
O O4 0.840029 0.603531 0.190889
O O5 0.000000 0.206968 0.250000
O O6 0.052428 0.152198 0.180700
O O7 0.135791 0.382222 0.351064
O O8 0.847532 0.326537 0.941140
O O9 0.655596 0.509912 0.251531
O O10 0.484150 0.692833 0.096955
O O11 0.597871 0.484281 0.309072
O O12 0.375357 0.446282 0.924300
O O13 0.266721 0.133578 0.362031
O O14 0.000000 0.000000 0.000000
O O15 0.500000 0.197923 0.750000
O O16 0.708174 0.379090 0.062398
#
# Coordination Sequence:
#
# PCOD8116834 Si02
#       7
#     4   4   4   4   4   4   4
#     4  11  17  32  53  80 107 134 182 232 266 320
#     4  10  18  33  54  77 102 136 187 222 263 325
#     4  10  17  27  45  84 113 136 169 220 282 324
#     4  11  22  36  59  78 104 148 193 225 271 325
#     4  10  18  26  50  81 109 137 170 224 272 317
#     4   9  17  31  52  79 106 137 181 223 265 324
#     4   9  17  27  51  79 104 137 176 227 263 312
#
# _framework density 17.063548999999998
#
# number of rings (size 3 to 8) (size 9 to 14) (size 15 to 20)
#    0.000    2.000    7.143    0.000    0.000    0.000 
#    0.000    0.000    6.286    0.857    0.000    0.000 
#    0.000    0.000    0.000    0.000    0.000    0.000 
#
# Total GULP energy -346882.850137 kJ/mol
# GULP energy per Si atom -12388.673219 kJ/mol
# Density = 1.702471 g / cm^3
# Si number density = 17.063549 Si / 1000 Ang^3
#
#
#
# Elastic Constant Matrix: (Units=GPa)
#
#
# Indices 1 2 3 4 5 6 
#
# 1 83.4758 33.0696 21.9157 0.0000 -0.5475 0.0000
# 2 33.0696 74.3618 41.1366 0.0000 -9.2800 0.0000
# 3 21.9157 41.1366 115.0359 0.0000 -14.9197 0.0000
# 4 0.0000 0.0000 0.0000 26.1039 0.0000 -3.3174
# 5 -0.5475 -9.2800 -14.9197 0.0000 27.6771 0.0000
# 6 0.0000 0.0000 0.0000 -3.3174 0.0000 13.9220
#
#
#
# Elastic Compliance Matrix: (Units=1/GPa)
#
#
# Indices 1 2 3 4 5 6 
#
# 1 0.014704 -0.006371 -0.000820 0.000000 -0.002287 0.000000
# 2 -0.006371 0.019696 -0.005364 0.000000 0.003586 0.000000
# 3 -0.000820 -0.005364 0.011324 0.000000 0.004289 0.000000
# 4 0.000000 0.000000 0.000000 0.039505 0.000000 0.009413
# 5 -0.002287 0.003586 0.004289 0.000000 0.039600 0.000000
# 6 0.000000 0.000000 0.000000 0.009413 0.000000 0.074072
#
#
# Mechanical properties :
#
#
# Convention : Reuss Voigt Hill
#
# Bulk Modulus (GPa) = 48.51186 51.67971 50.09578
# Shear Modulus (GPa) = 21.65616 25.32403 23.49010
#
# Velocity S-wave (km/s) = 3.56637 3.85658 3.71431
# Velocity P-wave (km/s) = 6.74170 7.08402 6.91498
#
# Compressibility (1/GPa) = 0.02061352
#
# Stress axis : x y z
#
# Youngs Moduli (GPa) = 68.01064 50.77145 88.31036
#
# Poissons Ratio (x) = 0.32346 0.07238
# Poissons Ratio (y) = 0.43329 0.47374
# Poissons Ratio (z) = 0.05574 0.27236
#
# Static dielectric constant tensor:
#      x y z
#    x 3.268500 0.000000 0.229780 
#    y 0.000000 1.681430 0.000000 
#    z 0.229780 0.000000 3.595020 
# 
# 
# High freq. dielectric constant tensor:
#      x y z
#    x 1.665060 0.000000 0.002080 
#    y 0.000000 1.572220 0.000000 
#    z 0.002080 0.000000 1.689190 
# 
# From -- ./inp_files/80872.got.cif
#   From: 2010.06.25/outbox.cif.g09.slc.cpg/sg13_41_cif.got.tgz:80872.got - 2010.06.28 04:50:58.
