data_PCOD8116945
_publ_section_title
;
Structure prediction by ZEFSAII (Michael W. Deem and Ramdas Pophale) SiO2 
 PCOD8116945
Probable space group: P 2/C
;
_chemical_formula_sum "Si O2"
_cell_formula_units_Z 24
_cell_length_a 12.696516
_cell_length_b 13.387516
_cell_length_c 20.585750
_cell_angle_alpha 90.000000
_cell_angle_beta 21.694204
_cell_angle_gamma 90.000000
_cell_volume 1293.436822
_symmetry_space_group_name_H-M "P 2/C"
_symmetry_group_IT_number 13
_symmetry_cell_setting 'monoclinic'
loop_
_space_group_symop_operation_xyz
x,y,z
-x,y,1/2-z
-x,-y,-z
x,-y,1/2+z
loop_
_atom_site_type_symbol
_atom_site_label
_atom_site_fract_x
_atom_site_fract_y
_atom_site_fract_z
Si Si1 0.674287 0.899163 0.712962
Si Si2 0.298589 0.404824 0.614890
Si Si3 0.777477 0.411171 0.127784
Si Si4 0.080745 0.286097 0.851719
Si Si5 0.488117 0.277766 0.395706
Si Si6 0.305266 0.880069 0.304460
O O1 0.500000 0.857032 0.750000
O O2 0.638945 0.828465 0.796707
O O3 0.001620 0.899795 0.509025
O O4 0.569273 0.011934 0.790084
O O5 0.500000 0.500000 0.500000
O O6 0.258990 0.372540 0.712774
O O7 0.458244 0.312067 0.487408
O O8 0.000000 0.431350 0.750000
O O9 0.500000 0.451761 0.250000
O O10 0.666704 0.367997 0.259667
O O11 0.000000 0.500000 0.000000
O O12 0.935760 0.320810 0.001472
O O13 0.287207 0.193896 0.752720
O O14 0.830266 0.256380 0.946864
O O15 0.500000 0.833196 0.250000
#
# Coordination Sequence:
#
# PCOD8116945 Si02
#       6
#     4   4   4   4   4   4
#     4  10  17  34  57  80 113 142 174 221 274 325
#     4  10  22  39  58  77 106 148 183 220 272 323
#     4  10  19  31  50  74 100 130 172 223 265 309
#     4  10  19  36  54  77 108 141 180 217 266 330
#     4  10  18  35  57  76 102 146 182 211 270 326
#     4  10  20  31  54  88 112 137 175 226 274 313
#
# _framework density 18.555216999999999
#
# number of rings (size 3 to 8) (size 9 to 14) (size 15 to 20)
#    0.000    2.000    3.333    1.500    0.000    0.667 
#    3.000    0.833    0.000    0.000    0.000    0.000 
#    0.000    0.000    0.000    0.000    0.000    0.000 
#
# Total GULP energy -297400.798184 kJ/mol
# GULP energy per Si atom -12391.699924 kJ/mol
# Density = 1.851298 g / cm^3
# Si number density = 18.555217 Si / 1000 Ang^3
#
#
#
# Elastic Constant Matrix: (Units=GPa)
#
#
# Indices 1 2 3 4 5 6 
#
# 1 57.4977 30.2096 29.8959 0.0000 -1.0348 0.0000
# 2 30.2096 101.8383 35.3392 0.0000 -9.2448 0.0000
# 3 29.8959 35.3392 74.3353 0.0000 -0.7466 0.0000
# 4 0.0000 0.0000 0.0000 39.7798 0.0000 7.2754
# 5 -1.0348 -9.2448 -0.7466 0.0000 23.2364 0.0000
# 6 0.0000 0.0000 0.0000 7.2754 0.0000 29.5678
#
#
#
# Elastic Compliance Matrix: (Units=1/GPa)
#
#
# Indices 1 2 3 4 5 6 
#
# 1 0.023571 -0.004538 -0.007332 0.000000 -0.000991 0.000000
# 2 -0.004538 0.013123 -0.004365 0.000000 0.004879 0.000000
# 3 -0.007332 -0.004365 0.018462 0.000000 -0.001470 0.000000
# 4 0.000000 0.000000 0.000000 0.026323 0.000000 -0.006477
# 5 -0.000991 0.004879 -0.001470 0.000000 0.044886 0.000000
# 6 0.000000 0.000000 0.000000 -0.006477 0.000000 0.035414
#
#
# Mechanical properties :
#
#
# Convention : Reuss Voigt Hill
#
# Bulk Modulus (GPa) = 44.08017 47.17342 45.62679
# Shear Modulus (GPa) = 24.77580 27.73191 26.25385
#
# Velocity S-wave (km/s) = 3.65807 3.87015 3.76560
# Velocity P-wave (km/s) = 6.45366 6.74160 6.59920
#
# Compressibility (1/GPa) = 0.02268594
#
# Stress axis : x y z
#
# Youngs Moduli (GPa) = 42.42557 76.20153 54.16620
#
# Poissons Ratio (x) = 0.34578 0.39716
# Poissons Ratio (y) = 0.19251 0.23643
# Poissons Ratio (z) = 0.31108 0.33261
#
# Static dielectric constant tensor:
#      x y z
#    x 2.906160 0.000000 0.264820 
#    y 0.000000 3.658170 0.000000 
#    z 0.264820 0.000000 3.653150 
# 
# 
# High freq. dielectric constant tensor:
#      x y z
#    x 1.686960 0.000000 -0.003670 
#    y 0.000000 1.722550 0.000000 
#    z -0.003670 0.000000 1.720890 
# 
# From -- ./inp_files/78710.got.cif
#   From: 2010.06.25/outbox.cif.g09.slc.cpg/sg13_40_cif.got.tgz:78710.got - 2010.06.28 04:50:58.
