data_PCOD8116347
_publ_section_title
;
Structure prediction by ZEFSAII (Michael W. Deem and Ramdas Pophale) SiO2 
 PCOD8116347
Probable space group: C 2/M
;
_chemical_formula_sum "Si O2"
_cell_formula_units_Z 32
_cell_length_a 21.000000
_cell_length_b 24.000000
_cell_length_c 9.000000
_cell_angle_alpha 90.000000
_cell_angle_beta 50.000000
_cell_angle_gamma 90.000000
_cell_volume 3474.777594
_symmetry_space_group_name_H-M "C 2/M"
_symmetry_group_IT_number 12
_symmetry_cell_setting 'monoclinic'
loop_
_space_group_symop_operation_xyz
x,y,z
-x,y,-z
-x,-y,-z
x,-y,z
1/2+x,1/2+y,z
1/2-x,1/2+y,-z
1/2-x,1/2-y,-z
1/2+x,1/2-y,z
loop_
_atom_site_type_symbol
_atom_site_label
_atom_site_fract_x
_atom_site_fract_y
_atom_site_fract_z
Si Si1 0.464772 0.128103 0.251449
Si Si2 0.004548 0.754541 0.162824
Si Si3 0.875989 0.435418 0.975924
Si Si4 0.298123 0.564969 0.610742
Si Si5 0.076712 0.836800 0.484751
Si Si6 0.807897 0.565495 0.504441
Si Si7 0.652401 0.243854 0.164964
Si Si8 0.623792 0.120605 0.331761
O O1 0.459387 0.194170 0.229023
O O2 0.551508 0.103109 0.059038
O O3 0.459848 0.119592 0.439529
O O4 0.613396 0.093810 0.702189
O O5 0.097709 0.748830 0.094591
O O6 0.953970 0.801744 0.327378
O O7 0.000000 0.775812 0.000000
O O8 0.896346 0.500000 0.975960
O O9 0.878302 0.423369 0.797310
O O10 0.784715 0.420200 0.172272
O O11 0.325221 0.500000 0.599053
O O12 0.370390 0.608514 0.546433
O O13 0.275011 0.572813 0.470879
O O14 0.129532 0.793579 0.309525
O O15 0.000000 0.858975 0.500000
O O16 0.826485 0.500000 0.501899
O O17 0.800369 0.598684 0.673096
O O18 0.636299 0.183525 0.259064
O O19 0.750000 0.250000 0.000000
#
# Coordination Sequence:
#
# PCOD8116347 Si02
#       8
#     8   8   8   8   8   8   8   8
#     4  10  21  32  54  80 122 158 198 226 280 342
#     4  11  24  40  60  88 120 156 200 252 300 356
#     4  11  21  32  55  85 120 160 202 238 278 342
#     4  10  23  41  59  88 119 150 195 251 304 355
#     4  10  22  42  65  84 113 153 199 250 306 364
#     4   9  20  35  53  80 118 158 195 235 287 343
#     4  11  22  39  59  87 120 158 199 248 301 352
#     4  10  20  34  54  80 117 163 204 230 278 346
#
# _framework density 9.2092220000000005
#
# number of rings (size 3 to 8) (size 9 to 14) (size 15 to 20)
#    0.750    1.000    2.500    1.875    1.750    1.750 
#    0.000    3.750    0.000    0.375    0.000    0.000 
#    0.000    0.000    0.000    0.000    0.000    0.000 
#
# Total GULP energy -396462.790617 kJ/mol
# GULP energy per Si atom -12389.462207 kJ/mol
# Density = 0.918826 g / cm^3
# Si number density = 9.209222 Si / 1000 Ang^3
#
#
#
# Elastic Constant Matrix: (Units=GPa)
#
#
# Indices 1 2 3 4 5 6 
#
# 1 119.6318 63.8837 33.9072 0.0000 -7.2226 0.0000
# 2 63.8837 143.3810 29.6279 0.0000 -12.9052 0.0000
# 3 33.9072 29.6279 63.6348 0.0000 -5.9338 0.0000
# 4 0.0000 0.0000 0.0000 26.8548 0.0000 -4.4693
# 5 -7.2226 -12.9052 -5.9338 0.0000 31.7433 0.0000
# 6 0.0000 0.0000 0.0000 -4.4693 0.0000 37.9610
#
#
#
# Elastic Compliance Matrix: (Units=1/GPa)
#
#
# Indices 1 2 3 4 5 6 
#
# 1 0.011946 -0.004425 -0.004294 0.000000 0.000116 0.000000
# 2 -0.004425 0.009557 -0.001856 0.000000 0.002532 0.000000
# 3 -0.004294 -0.001856 0.019037 0.000000 0.001827 0.000000
# 4 0.000000 0.000000 0.000000 0.037981 0.000000 0.004472
# 5 0.000116 0.002532 0.001827 0.000000 0.032900 0.000000
# 6 0.000000 0.000000 0.000000 0.004472 0.000000 0.026869
#
#
# Mechanical properties :
#
#
# Convention : Reuss Voigt Hill
#
# Bulk Modulus (GPa) = 51.57171 64.60948 58.09059
# Shear Modulus (GPa) = 30.13773 32.59374 31.36573
#
# Velocity S-wave (km/s) = 4.04948 4.21125 4.13116
# Velocity P-wave (km/s) = 7.06578 7.66818 7.37314
#
# Compressibility (1/GPa) = 0.01939047
#
# Stress axis : x y z
#
# Youngs Moduli (GPa) = 83.71044 104.63247 52.52820
#
# Poissons Ratio (x) = 0.46297 0.22557
# Poissons Ratio (y) = 0.37039 0.09750
# Poissons Ratio (z) = 0.35948 0.19420
#
# Static dielectric constant tensor:
#      x y z
#    x 3.530240 0.000000 0.149200 
#    y 0.000000 3.514730 0.000000 
#    z 0.149200 0.000000 3.396020 
# 
# 
# High freq. dielectric constant tensor:
#      x y z
#    x 1.723780 0.000000 0.019380 
#    y 0.000000 1.731730 0.000000 
#    z 0.019380 0.000000 1.705510 
# 
# From -- ./inp_files/90644.got.cif
#   From: 2010.06.25/outbox.ucp.g09.slc.cvg/sg12_46_cif.got.tgz:90644.got - 2010.06.28 13:50:54.
