data_PCOD8116402
_publ_section_title
;
Structure prediction by ZEFSAII (Michael W. Deem and Ramdas Pophale) SiO2 
 PCOD8116402
Probable space group: C 2/M
;
_chemical_formula_sum "Si O2"
_cell_formula_units_Z 28
_cell_length_a 15.000000
_cell_length_b 15.000000
_cell_length_c 24.000000
_cell_angle_alpha 90.000000
_cell_angle_beta 30.000000
_cell_angle_gamma 90.000000
_cell_volume 2700.000000
_symmetry_space_group_name_H-M "C 2/M"
_symmetry_group_IT_number 12
_symmetry_cell_setting 'monoclinic'
loop_
_space_group_symop_operation_xyz
x,y,z
-x,y,-z
-x,-y,-z
x,-y,z
1/2+x,1/2+y,z
1/2-x,1/2+y,-z
1/2-x,1/2-y,-z
1/2+x,1/2-y,z
loop_
_atom_site_type_symbol
_atom_site_label
_atom_site_fract_x
_atom_site_fract_y
_atom_site_fract_z
Si Si1 0.476096 0.395733 0.302530
Si Si2 0.367361 0.104978 0.291621
Si Si3 0.155124 0.806334 0.308766
Si Si4 0.705825 0.748940 0.459475
Si Si5 0.189347 0.596096 0.951044
Si Si6 0.973537 0.232413 0.073617
Si Si7 0.747271 0.403836 0.956465
O O1 0.424931 0.500000 0.328013
O O2 0.550488 0.371461 0.323475
O O3 0.298295 0.337795 0.383610
O O4 0.624948 0.369644 0.176156
O O5 0.279117 0.134825 0.281292
O O6 0.286008 0.160571 0.386955
O O7 0.579403 0.124550 0.173512
O O8 0.329618 0.000000 0.321792
O O9 0.276615 0.735916 0.207523
O O10 0.011694 0.752741 0.425430
O O11 0.750000 0.750000 0.500000
O O12 0.141738 0.500000 0.948694
O O13 0.032817 0.666856 0.028086
O O14 0.196434 0.579052 0.011854
O O15 0.104590 0.175321 0.040913
O O16 0.000000 0.181071 0.000000
O O17 0.672990 0.500000 0.973939
#
# Coordination Sequence:
#
# PCOD8116402 Si02
#       7
#     8   8   8   8   8   8   8
#     4  10  21  39  64  89 123 162 201 249 302 358
#     4  11  23  41  67  92 122 159 202 257 308 355
#     4  11  23  38  61  94 124 157 202 254 302 361
#     4  10  24  41  59  87 123 156 204 248 301 363
#     4  10  20  36  60  92 122 154 198 248 304 365
#     4  12  23  37  63  90 128 163 195 251 312 359
#     4  10  23  40  61  91 123 163 209 247 299 369
#
# _framework density 10.370369999999999
#
# number of rings (size 3 to 8) (size 9 to 14) (size 15 to 20)
#    0.000    1.429    2.857    2.143    4.000    4.571 
#    0.000    0.714    0.000    1.714    0.000    0.000 
#    0.000    0.000    0.000    0.000    0.000    0.000 
#
# Total GULP energy -346919.002106 kJ/mol
# GULP energy per Si atom -12389.964361 kJ/mol
# Density = 1.034677 g / cm^3
# Si number density = 10.370370 Si / 1000 Ang^3
#
#
#
# Elastic Constant Matrix: (Units=GPa)
#
#
# Indices 1 2 3 4 5 6 
#
# 1 36.7897 26.3804 17.3629 0.0023 6.8352 -0.0007
# 2 26.3804 93.9514 51.3355 -0.0066 -8.6472 0.0045
# 3 17.3629 51.3355 170.5020 0.0168 3.7494 -0.0035
# 4 0.0023 -0.0066 0.0168 41.7532 -0.0072 6.0771
# 5 6.8352 -8.6472 3.7494 -0.0072 34.0919 0.0034
# 6 -0.0007 0.0045 -0.0035 6.0771 0.0034 14.6285
#
#
#
# Elastic Compliance Matrix: (Units=1/GPa)
#
#
# Indices 1 2 3 4 5 6 
#
# 1 0.037309 -0.011342 -0.000157 -0.000007 -0.010340 0.000011
# 2 -0.011342 0.016661 -0.004014 0.000008 0.006941 -0.000011
# 3 -0.000157 -0.004014 0.007128 -0.000005 -0.001771 0.000005
# 4 -0.000007 0.000008 -0.000005 0.025492 0.000010 -0.010590
# 5 -0.010340 0.006941 -0.001771 0.000010 0.033361 -0.000015
# 6 0.000011 -0.000011 0.000005 -0.010590 -0.000015 0.072759
#
#
# Mechanical properties :
#
#
# Convention : Reuss Voigt Hill
#
# Bulk Modulus (GPa) = 33.25269 54.60007 43.92638
# Shear Modulus (GPa) = 21.38946 31.83902 26.61424
#
# Velocity S-wave (km/s) = 3.21483 3.92228 3.58605
# Velocity P-wave (km/s) = 5.46329 6.84796 6.19444
#
# Compressibility (1/GPa) = 0.03007276
#
# Stress axis : x y z
#
# Youngs Moduli (GPa) = 26.80285 60.02218 140.28227
#
# Poissons Ratio (x) = 0.68076 0.02204
# Poissons Ratio (y) = 0.30399 0.56308
# Poissons Ratio (z) = 0.00421 0.24092
#
# Static dielectric constant tensor:
#      x y z
#    x -8.231860 0.006720 1.631440 
#    y 0.006720 4.041910 -0.000880 
#    z 1.631440 -0.000880 4.165020 
# 
# 
# High freq. dielectric constant tensor:
#      x y z
#    x 1.794930 0.000000 0.015150 
#    y 0.000000 1.810660 0.000000 
#    z 0.015150 0.000000 1.833770 
# 
# From -- ./inp_files/340320.got.cif
#   From: 2010.06.25/outbox.ucp.g09.slc.cvg/sg12_171_cif.got.tgz:340320.got - 2010.06.28 13:50:54.
