data_PCOD8116688
_publ_section_title
;
Structure prediction by ZEFSAII (Michael W. Deem and Ramdas Pophale) SiO2 
 PCOD8116688
Probable space group: P 2/C
;
_chemical_formula_sum "Si O2"
_cell_formula_units_Z 26
_cell_length_a 21.992945
_cell_length_b 17.036926
_cell_length_c 5.307303
_cell_angle_alpha 90.000000
_cell_angle_beta 116.697560
_cell_angle_gamma 90.000000
_cell_volume 1776.600781
_symmetry_space_group_name_H-M "P 2/C"
_symmetry_group_IT_number 13
_symmetry_cell_setting 'monoclinic'
loop_
_space_group_symop_operation_xyz
x,y,z
-x,y,1/2-z
-x,-y,-z
x,-y,1/2+z
loop_
_atom_site_type_symbol
_atom_site_label
_atom_site_fract_x
_atom_site_fract_y
_atom_site_fract_z
Si Si1 0.647989 0.408080 0.525168
Si Si2 0.920778 0.716654 0.069857
Si Si3 0.863569 0.548100 0.927672
Si Si4 0.076090 0.030843 0.583493
Si Si5 0.500000 0.551552 0.750000
Si Si6 0.295090 0.582810 0.868841
Si Si7 0.076896 0.210457 0.428131
O O1 0.566960 0.393835 0.374668
O O2 0.664823 0.500663 0.556143
O O3 0.681811 0.369558 0.338311
O O4 0.681975 0.369592 0.838016
O O5 0.909370 0.625145 0.003378
O O6 0.886522 0.744281 0.270599
O O7 0.000000 0.736650 0.250000
O O8 0.888189 0.766157 0.774482
O O9 0.882279 0.501505 0.215553
O O10 0.784838 0.570405 0.780305
O O11 0.078500 0.118865 0.489763
O O12 0.112072 0.979825 0.424844
O O13 0.000000 0.000000 0.500000
O O14 0.500000 0.500000 0.500000
O O15 0.000000 0.240717 0.250000
#
# Coordination Sequence:
#
# PCOD8116688 Si02
#       7
#     4   4   4   4   2   4   4
#     4  10  16  25  36  56  72  94 107 144 201 236
#     4  10  23  34  44  59  76 105 121 160 223 250
#     4  12  21  33  49  57  67  93 140 185 206 244
#     4  10  17  24  44  72  83 102 119 133 156 221
#     4  12  16  20  34  52  78  92 110 122 178 280
#     4  10  16  27  39  53  68  87 119 160 199 221
#     4  10  18  32  45  59  90 100 114 141 186 253
#
# _framework density 14.634690000000001
#
# number of rings (size 3 to 8) (size 9 to 14) (size 15 to 20)
#    0.000    1.538    7.692    1.846    4.308    0.615 
#    0.000    0.000    0.000    0.000    0.000    0.000 
#    0.000    0.000    0.000    0.000    0.000    0.000 
#
# Total GULP energy -322097.840739 kJ/mol
# GULP energy per Si atom -12388.378490 kJ/mol
# Density = 1.460138 g / cm^3
# Si number density = 14.634690 Si / 1000 Ang^3
#
#
#
# Elastic Constant Matrix: (Units=GPa)
#
#
# Indices 1 2 3 4 5 6 
#
# 1 28.4702 16.1020 38.6323 0.0000 -24.2218 0.0000
# 2 16.1020 60.4831 35.1427 0.0000 -16.2584 0.0000
# 3 38.6323 35.1427 115.0120 0.0000 -52.1555 0.0000
# 4 0.0000 0.0000 0.0000 15.5499 0.0000 -9.2485
# 5 -24.2218 -16.2584 -52.1555 0.0000 37.7091 0.0000
# 6 0.0000 0.0000 0.0000 -9.2485 0.0000 5.6619
#
#
#
# Elastic Compliance Matrix: (Units=1/GPa)
#
#
# Indices 1 2 3 4 5 6 
#
# 1 0.083665 -0.006971 -0.007955 0.000000 0.039733 0.000000
# 2 -0.006971 0.020686 -0.005272 0.000000 -0.002850 0.000000
# 3 -0.007955 -0.005272 0.025831 0.000000 0.028345 0.000000
# 4 0.000000 0.000000 0.000000 2.257282 0.000000 3.687159
# 5 0.039733 -0.002850 0.028345 0.000000 0.090015 0.000000
# 6 0.000000 0.000000 0.000000 3.687159 0.000000 6.199413
#
#
# Mechanical properties :
#
#
# Convention : Reuss Voigt Hill
#
# Bulk Modulus (GPa) = 11.13745 42.63546 26.88646
# Shear Modulus (GPa) = 0.57161 19.39009 9.98085
#
# Velocity S-wave (km/s) = 0.62565 3.64392 2.61434
# Velocity P-wave (km/s) = 2.85460 6.84840 5.24640
#
# Compressibility (1/GPa) = 0.08978717
#
# Stress axis : x y z
#
# Youngs Moduli (GPa) = 11.95245 48.34115 38.71274
#
# Poissons Ratio (x) = 0.33698 0.30796
# Poissons Ratio (y) = 0.08332 0.20408
# Poissons Ratio (z) = 0.09508 0.25484
#
# Static dielectric constant tensor:
#      x y z
#    x 3.570990 0.000000 -1.742090 
#    y 0.000000 2.454180 0.000000 
#    z -1.742090 0.000000 5.747660 
# 
# 
# High freq. dielectric constant tensor:
#      x y z
#    x 1.534110 0.000000 -0.043560 
#    y 0.000000 1.498150 0.000000 
#    z -0.043560 0.000000 1.585300 
# 
# From -- ./inp_files/7015.got.cif
#   From: 2010.06.25/outbox.cif.g09.slc.cpg/sg13_4_cif.got.tgz:7015.got - 2010.06.28 04:50:58.
