data_PCOD8116563
_publ_section_title
;
Structure prediction by ZEFSAII (Michael W. Deem and Ramdas Pophale) SiO2 
 PCOD8116563
Probable space group: C 2/M
;
_chemical_formula_sum "Si O2"
_cell_formula_units_Z 24
_cell_length_a 27.000000
_cell_length_b 9.000000
_cell_length_c 15.000000
_cell_angle_alpha 90.000000
_cell_angle_beta 40.000000
_cell_angle_gamma 90.000000
_cell_volume 2342.960837
_symmetry_space_group_name_H-M "C 2/M"
_symmetry_group_IT_number 12
_symmetry_cell_setting 'monoclinic'
loop_
_space_group_symop_operation_xyz
x,y,z
-x,y,-z
-x,-y,-z
x,-y,z
1/2+x,1/2+y,z
1/2-x,1/2+y,-z
1/2-x,1/2-y,-z
1/2+x,1/2-y,z
loop_
_atom_site_type_symbol
_atom_site_label
_atom_site_fract_x
_atom_site_fract_y
_atom_site_fract_z
Si Si1 0.085653 0.829219 0.872966
Si Si2 0.849210 0.175546 0.713747
Si Si3 0.584170 0.826884 0.540874
Si Si4 0.173051 0.828323 0.574314
Si Si5 0.177604 0.673800 0.897893
Si Si6 0.593206 0.827759 0.191890
O O1 0.108840 0.809442 0.738514
O O2 0.147910 0.749250 0.848999
O O3 0.084604 0.000000 0.904108
O O4 0.000000 0.759596 0.000000
O O5 0.909049 0.257778 0.566704
O O6 0.764327 0.223518 0.799393
O O7 0.864658 0.229048 0.792414
O O8 0.861587 0.000000 0.691873
O O9 0.642975 0.746276 0.525841
O O10 0.497213 0.797670 0.690147
O O11 0.604851 0.000000 0.510183
O O12 0.250000 0.750000 0.500000
O O13 0.190935 0.000000 0.529220
O O14 0.172325 0.500000 0.888916
O O15 0.125507 0.723867 0.052468
O O16 0.611687 0.000000 0.186554
#
# Coordination Sequence:
#
# PCOD8116563 Si02
#       6
#     8   8   8   8   8   8
#     4  10  22  39  59  85 115 148 188 234 284 336
#     4  11  23  38  59  87 117 150 190 236 285 340
#     4  11  23  39  60  85 115 152 192 236 285 338
#     4  11  23  39  60  86 117 152 191 236 284 338
#     4  10  22  39  59  85 115 149 190 234 282 337
#     4  10  22  40  60  84 115 151 192 236 284 338
#
# _framework density 10.243449
#
# number of rings (size 3 to 8) (size 9 to 14) (size 15 to 20)
#    0.000    1.500    0.000    4.500    0.000    9.667 
#    0.000    0.000    0.000    0.000    0.000    0.000 
#    0.000    0.000    0.000    0.000    0.000    0.000 
#
# Total GULP energy -297760.765279 kJ/mol
# GULP energy per Si atom -12406.698553 kJ/mol
# Density = 1.022013 g / cm^3
# Si number density = 10.243449 Si / 1000 Ang^3
#
#
#
# Elastic Constant Matrix: (Units=GPa)
#
#
# Indices 1 2 3 4 5 6 
#
# 1 92.3127 33.5937 -9.1184 0.0000 -3.3516 -0.0003
# 2 33.5937 79.9635 21.3764 -0.0027 -9.4093 0.0016
# 3 -9.1184 21.3764 66.4494 -0.0006 -1.4329 0.0004
# 4 0.0000 -0.0027 -0.0006 29.4811 0.0004 3.5137
# 5 -3.3516 -9.4093 -1.4329 0.0004 27.6751 -0.0003
# 6 -0.0003 0.0016 0.0004 3.5137 -0.0003 40.0330
#
#
#
# Elastic Compliance Matrix: (Units=1/GPa)
#
#
# Indices 1 2 3 4 5 6 
#
# 1 0.013741 -0.006926 0.004103 -0.000001 -0.000478 0.000000
# 2 -0.006926 0.017738 -0.006552 0.000002 0.004853 -0.000001
# 3 0.004103 -0.006552 0.017702 0.000000 -0.000814 0.000000
# 4 -0.000001 0.000002 0.000000 0.034279 0.000000 -0.003009
# 5 -0.000478 0.004853 -0.000814 0.000000 0.037683 0.000000
# 6 0.000000 -0.000001 0.000000 -0.003009 0.000000 0.025243
#
#
# Mechanical properties :
#
#
# Convention : Reuss Voigt Hill
#
# Bulk Modulus (GPa) = 32.86004 36.71435 34.78719
# Shear Modulus (GPa) = 28.52574 32.29610 30.41092
#
# Velocity S-wave (km/s) = 3.73552 3.97473 3.85698
# Velocity P-wave (km/s) = 5.88896 6.24696 6.07060
#
# Compressibility (1/GPa) = 0.03043210
#
# Stress axis : x y z
#
# Youngs Moduli (GPa) = 72.77399 56.37623 56.48985
#
# Poissons Ratio (x) = 0.39047 -0.23180
# Poissons Ratio (y) = 0.50404 0.37012
# Poissons Ratio (z) = -0.29862 0.36938
#
# Static dielectric constant tensor:
#      x y z
#    x 3.737110 0.000000 -0.029280 
#    y 0.000000 3.692520 0.000000 
#    z -0.029280 0.000000 3.906460 
# 
# 
# High freq. dielectric constant tensor:
#      x y z
#    x 1.815370 0.000000 -0.000470 
#    y 0.000000 1.800490 0.000000 
#    z -0.000470 0.000000 1.814550 
# 
# From -- ./inp_files/244672.got.cif
#   From: 2010.06.25/outbox.ucp.g09.slc.cvg/sg12_123_cif.got.tgz:244672.got - 2010.06.28 13:50:54.
