data_PCOD8116295
_publ_section_title
;
Structure prediction by ZEFSAII (Michael W. Deem and Ramdas Pophale) SiO2 
 PCOD8116295
Probable space group: C 2/M
;
_chemical_formula_sum "Si O2"
_cell_formula_units_Z 32
_cell_length_a 18.000000
_cell_length_b 9.000000
_cell_length_c 30.000000
_cell_angle_alpha 90.000000
_cell_angle_beta 40.000000
_cell_angle_gamma 90.000000
_cell_volume 3123.947783
_symmetry_space_group_name_H-M "C 2/M"
_symmetry_group_IT_number 12
_symmetry_cell_setting 'monoclinic'
loop_
_space_group_symop_operation_xyz
x,y,z
-x,y,-z
-x,-y,-z
x,-y,z
1/2+x,1/2+y,z
1/2-x,1/2+y,-z
1/2-x,1/2-y,-z
1/2+x,1/2-y,z
loop_
_atom_site_type_symbol
_atom_site_label
_atom_site_fract_x
_atom_site_fract_y
_atom_site_fract_z
Si Si1 0.255852 0.675955 0.713820
Si Si2 0.868069 0.331920 0.059308
Si Si3 0.022228 0.669571 0.796168
Si Si4 0.525411 0.833638 0.696048
Si Si5 0.782709 0.325383 0.939303
Si Si6 0.630882 0.324755 0.565209
Si Si7 0.536461 0.323055 0.435739
Si Si8 0.691665 0.668363 0.212674
O O1 0.242112 0.500000 0.715269
O O2 0.336115 0.734962 0.636499
O O3 0.313495 0.716219 0.733746
O O4 0.127670 0.746698 0.774289
O O5 0.848199 0.500000 0.050671
O O6 0.814341 0.211827 0.051635
O O7 0.816777 0.314710 0.132704
O O8 0.000000 0.290079 0.000000
O O9 0.001616 0.500000 0.819729
O O10 0.901738 0.747266 0.864769
O O11 0.078021 0.676117 0.720940
O O12 0.586193 0.722578 0.634215
O O13 0.395604 0.784542 0.768866
O O14 0.530653 0.000000 0.673970
O O15 0.788567 0.500000 0.943995
O O16 0.750000 0.250000 0.000000
O O17 0.644466 0.500000 0.558687
O O18 0.750000 0.250000 0.500000
O O19 0.547569 0.267831 0.564520
O O20 0.500000 0.253001 0.500000
O O21 0.533420 0.500000 0.440016
O O22 0.645838 0.500000 0.228160
#
# Coordination Sequence:
#
# PCOD8116295 Si02
#       8
#     8   8   8   8   8   8   8   8
#     4   9  17  32  55  82 109 143 188 235 279 329
#     4  10  22  38  60  88 117 155 201 247 299 358
#     4   9  20  35  57  85 114 149 193 239 286 344
#     4  11  21  37  60  86 116 151 190 238 291 347
#     4  11  23  40  59  85 121 159 199 246 299 359
#     4  11  23  39  59  87 116 151 194 239 291 344
#     4   9  18  32  54  82 110 140 184 233 274 326
#     4  10  19  35  60  85 111 146 190 243 291 341
#
# _framework density 10.243449
#
# number of rings (size 3 to 8) (size 9 to 14) (size 15 to 20)
#    0.000    2.000    2.500    1.125    3.500    0.250 
#    0.000    0.000    0.000    4.500    0.000    0.000 
#    0.000    0.000    0.000    0.000    0.000    0.000 
#
# Total GULP energy -396433.376346 kJ/mol
# GULP energy per Si atom -12388.543011 kJ/mol
# Density = 1.022013 g / cm^3
# Si number density = 10.243449 Si / 1000 Ang^3
#
#
#
# Elastic Constant Matrix: (Units=GPa)
#
#
# Indices 1 2 3 4 5 6 
#
# 1 51.2658 25.6600 50.6452 0.0002 -6.6957 0.0045
# 2 25.6600 40.9764 27.7512 0.0010 0.8007 0.0048
# 3 50.6452 27.7512 143.0647 -0.0001 2.6162 -0.0012
# 4 0.0002 0.0010 -0.0001 25.3646 0.0000 3.4556
# 5 -6.6957 0.8007 2.6162 0.0000 29.9653 0.0014
# 6 0.0045 0.0048 -0.0012 3.4556 0.0014 18.9561
#
#
#
# Elastic Compliance Matrix: (Units=1/GPa)
#
#
# Indices 1 2 3 4 5 6 
#
# 1 0.041182 -0.018410 -0.011202 0.000001 0.010672 -0.000007
# 2 -0.018410 0.036328 -0.000437 -0.000001 -0.005046 -0.000004
# 3 -0.011202 -0.000437 0.011104 0.000000 -0.003461 0.000004
# 4 0.000001 -0.000001 0.000000 0.040429 0.000001 -0.007370
# 5 0.010672 -0.005046 -0.003461 0.000001 0.036194 -0.000004
# 6 -0.000007 -0.000004 0.000004 -0.007370 -0.000004 0.054097
#
#
# Mechanical properties :
#
#
# Convention : Reuss Voigt Hill
#
# Bulk Modulus (GPa) = 35.07130 49.26885 42.17007
# Shear Modulus (GPa) = 17.30483 23.60725 20.45604
#
# Velocity S-wave (km/s) = 2.90949 3.39825 3.16332
# Velocity P-wave (km/s) = 5.33319 6.28479 5.82844
#
# Compressibility (1/GPa) = 0.02851334
#
# Stress axis : x y z
#
# Youngs Moduli (GPa) = 24.28266 27.52717 90.06096
#
# Poissons Ratio (x) = 0.50678 1.00890
# Poissons Ratio (y) = 0.44705 0.03937
# Poissons Ratio (z) = 0.27202 0.01203
#
# Static dielectric constant tensor:
#      x y z
#    x 3.812900 -0.000020 -0.038160 
#    y -0.000020 3.263330 -0.000020 
#    z -0.038160 -0.000020 3.827850 
# 
# 
# High freq. dielectric constant tensor:
#      x y z
#    x 1.784780 0.000000 0.003230 
#    y 0.000000 1.750870 0.000000 
#    z 0.003230 0.000000 1.818270 
# 
# From -- ./inp_files/378148.got.cif
#   From: 2010.06.25/outbox.ucp.g09.slc.cvg/sg12_190_cif.got.tgz:378148.got - 2010.06.28 13:50:54.
