data_PCOD8116078
_publ_section_title
;
Structure prediction by ZEFSAII (Michael W. Deem and Ramdas Pophale) SiO2 
 PCOD8116078
Probable space group: C 2/M
;
_chemical_formula_sum "Si O2"
_cell_formula_units_Z 64
_cell_length_a 14.065554
_cell_length_b 9.505827
_cell_length_c 29.144344
_cell_angle_alpha 90.000000
_cell_angle_beta 104.675549
_cell_angle_gamma 90.000000
_cell_volume 3769.609140
_symmetry_space_group_name_H-M "C 2/M"
_symmetry_group_IT_number 12
_symmetry_cell_setting 'monoclinic'
loop_
_space_group_symop_operation_xyz
x,y,z
-x,y,-z
-x,-y,-z
x,-y,z
1/2+x,1/2+y,z
1/2-x,1/2+y,-z
1/2-x,1/2-y,-z
1/2+x,1/2-y,z
loop_
_atom_site_type_symbol
_atom_site_label
_atom_site_fract_x
_atom_site_fract_y
_atom_site_fract_z
Si Si1 0.653708 0.666419 0.000759
Si Si2 0.039136 0.165858 0.074440
Si Si3 0.723250 0.162635 0.429930
Si Si4 0.027226 0.663729 0.755944
Si Si5 0.765526 0.663148 0.259081
Si Si6 0.072425 0.835360 0.180224
Si Si7 0.334000 0.837730 0.678247
Si Si8 0.111180 0.336153 0.507483
O O1 0.674335 0.500000 0.002570
O O2 0.617895 0.719012 0.046539
O O3 0.750000 0.750000 0.000000
O O4 0.570834 0.708919 0.953539
O O5 0.064612 0.226102 0.127745
O O6 0.047090 0.000000 0.076221
O O7 0.673274 0.204021 0.375846
O O8 0.821730 0.252643 0.448362
O O9 0.644189 0.197916 0.459648
O O10 0.753920 0.000000 0.435170
O O11 0.029562 0.500000 0.769779
O O12 0.131000 0.714069 0.748524
O O13 0.006620 0.752744 0.798990
O O14 0.944700 0.695938 0.707689
O O15 0.768841 0.500000 0.272900
O O16 0.682470 0.694658 0.211057
O O17 0.744597 0.748102 0.302855
O O18 0.046412 0.000000 0.179465
O O19 0.307860 0.000000 0.683246
O O20 0.121188 0.500000 0.520487
O O21 0.000000 0.283799 0.500000
#
# Coordination Sequence:
#
# PCOD8116078 Si02
#       8
#     8   8   8   8   8   8   8   8
#     4   9  17  31  49  68  91 121 155 190 229 274
#     4   8  16  31  48  65  92 127 154 181 229 284
#     4   9  18  32  48  68  94 123 154 188 226 268
#     4   9  18  32  48  69  96 122 149 189 236 271
#     4   9  18  31  48  69  92 119 154 192 227 268
#     4   9  17  31  49  68  91 122 158 190 222 272
#     4   9  18  32  48  66  93 125 153 185 228 273
#     4   9  18  32  50  71  94 121 153 188 227 272
#
# _framework density 16.977888
#
# number of rings (size 3 to 8) (size 9 to 14) (size 15 to 20)
#    0.000    3.125    0.000    0.750    0.000    3.250 
#    0.000    6.250    0.000    0.000    0.000    0.000 
#    0.000    0.000    0.000    0.000    0.000    0.000 
#
# Total GULP energy -396791.378499 kJ/mol
# GULP energy per Si atom -12399.730578 kJ/mol
# Density = 1.693925 g / cm^3
# Si number density = 16.977888 Si / 1000 Ang^3
#
#
#
# Elastic Constant Matrix: (Units=GPa)
#
#
# Indices 1 2 3 4 5 6 
#
# 1 146.3668 48.1523 60.9398 0.0000 -9.2699 0.0000
# 2 48.1523 42.8505 41.6850 0.0000 -3.8667 0.0000
# 3 60.9398 41.6850 137.5239 0.0000 -4.2161 0.0000
# 4 0.0000 0.0000 0.0000 23.9736 0.0000 -2.7864
# 5 -9.2699 -3.8667 -4.2161 0.0000 15.2553 0.0000
# 6 0.0000 0.0000 0.0000 -2.7864 0.0000 30.5966
#
#
#
# Elastic Compliance Matrix: (Units=1/GPa)
#
#
# Indices 1 2 3 4 5 6 
#
# 1 0.011284 -0.010769 -0.001623 0.000000 0.003678 0.000000
# 2 -0.010769 0.043866 -0.008456 0.000000 0.002238 0.000000
# 3 -0.001623 -0.008456 0.010547 0.000000 -0.000215 0.000000
# 4 0.000000 0.000000 0.000000 0.042159 0.000000 0.003839
# 5 0.003678 0.002238 -0.000215 0.000000 0.068294 0.000000
# 6 0.000000 0.000000 0.000000 0.003839 0.000000 0.033033
#
#
# Mechanical properties :
#
#
# Convention : Reuss Voigt Hill
#
# Bulk Modulus (GPa) = 41.66440 69.81060 55.73750
# Shear Modulus (GPa) = 19.31407 25.69602 22.50505
#
# Velocity S-wave (km/s) = 3.37649 3.89459 3.64476
# Velocity P-wave (km/s) = 6.30830 7.83783 7.11429
#
# Compressibility (1/GPa) = 0.02400131
#
# Stress axis : x y z
#
# Youngs Moduli (GPa) = 88.62356 22.79678 94.81257
#
# Poissons Ratio (x) = 0.24550 0.15389
# Poissons Ratio (y) = 0.95438 0.80171
# Poissons Ratio (z) = 0.14385 0.19276
#
# Static dielectric constant tensor:
#      x y z
#    x 3.168120 0.000000 -0.016010 
#    y 0.000000 3.024630 0.000000 
#    z -0.016010 0.000000 3.537300 
# 
# 
# High freq. dielectric constant tensor:
#      x y z
#    x 1.654810 0.000000 -0.000570 
#    y 0.000000 1.639060 0.000000 
#    z -0.000570 0.000000 1.658320 
# 
# From -- ./inp_files/357665.got.cif
#   From: 2010.06.25/outbox.cif.g09.slc.cpg/sg12_179_cif.got.tgz:357665.got - 2010.06.28 00:19:55.
