data_PCOD8116902
_publ_section_title
;
Structure prediction by ZEFSAII (Michael W. Deem and Ramdas Pophale) SiO2 
 PCOD8116902
Probable space group: P 2/C
;
_chemical_formula_sum "Si O2"
_cell_formula_units_Z 26
_cell_length_a 15.216073
_cell_length_b 12.425622
_cell_length_c 8.704031
_cell_angle_alpha 90.000000
_cell_angle_beta 122.071954
_cell_angle_gamma 90.000000
_cell_volume 1394.505888
_symmetry_space_group_name_H-M "P 2/C"
_symmetry_group_IT_number 13
_symmetry_cell_setting 'monoclinic'
loop_
_space_group_symop_operation_xyz
x,y,z
-x,y,1/2-z
-x,-y,-z
x,-y,1/2+z
loop_
_atom_site_type_symbol
_atom_site_label
_atom_site_fract_x
_atom_site_fract_y
_atom_site_fract_z
Si Si1 0.851230 0.606824 0.530744
Si Si2 0.500000 0.314019 0.250000
Si Si3 0.196723 0.244586 0.769259
Si Si4 0.405445 0.135571 0.955887
Si Si5 0.903075 0.404721 0.413155
Si Si6 0.000000 0.739127 0.250000
Si Si7 0.500000 0.958695 0.250000
Si Si8 0.284172 0.584943 0.573059
O O1 0.832286 0.722011 0.432767
O O2 0.916942 0.622583 0.747234
O O3 0.743126 0.542653 0.471264
O O4 0.920629 0.531493 0.478564
O O5 0.531749 0.238978 0.422898
O O6 0.594382 0.391883 0.286862
O O7 0.282423 0.152339 0.846314
O O8 0.101756 0.195787 0.785520
O O9 0.242922 0.354873 0.882768
O O10 0.437292 0.116471 0.809234
O O11 0.422679 0.032155 0.078901
O O12 0.783860 0.371763 0.346799
O O13 0.980403 0.332230 0.582204
#
# Coordination Sequence:
#
# PCOD8116902 Si02
#       8
#     4   2   4   4   4   2   2   4
#     4  10  17  32  44  66 103 140 183 215 240 287
#     4   9  16  30  53  72 106 136 167 208 272 295
#     4  10  19  33  49  74 106 134 181 216 253 289
#     4   9  19  34  59  82 103 126 164 218 255 342
#     4   9  18  29  45  63  96 141 180 215 239 286
#     4  10  20  34  50  72 102 146 180 218 256 282
#     4   9  18  38  59  84 100 128 161 200 294 325
#     4   8  16  31  42  67 100 142 172 213 248 294
#
# _framework density 18.644597999999998
#
# number of rings (size 3 to 8) (size 9 to 14) (size 15 to 20)
#    0.923    1.846    1.538    0.000    0.000    4.308 
#    0.000    9.231    0.000    0.923    0.000    0.000 
#    0.000    0.000    0.000    0.000    0.000    0.000 
#
# Total GULP energy -322147.911755 kJ/mol
# GULP energy per Si atom -12390.304298 kJ/mol
# Density = 1.860216 g / cm^3
# Si number density = 18.644598 Si / 1000 Ang^3
#
#
#
# Elastic Constant Matrix: (Units=GPa)
#
#
# Indices 1 2 3 4 5 6 
#
# 1 130.0958 35.4776 57.7873 0.0000 -0.3768 0.0000
# 2 35.4776 36.3040 21.4122 0.0000 -4.2805 0.0000
# 3 57.7873 21.4122 111.9204 0.0000 -15.4655 0.0000
# 4 0.0000 0.0000 0.0000 11.7406 0.0000 3.5530
# 5 -0.3768 -4.2805 -15.4655 0.0000 27.5106 0.0000
# 6 0.0000 0.0000 0.0000 3.5530 0.0000 24.7736
#
#
#
# Elastic Compliance Matrix: (Units=1/GPa)
#
#
# Indices 1 2 3 4 5 6 
#
# 1 0.012688 -0.009798 -0.005273 0.000000 -0.004315 0.000000
# 2 -0.009798 0.038682 -0.001657 0.000000 0.004953 0.000000
# 3 -0.005273 -0.001657 0.012934 0.000000 0.006941 0.000000
# 4 0.000000 0.000000 0.000000 0.089039 0.000000 -0.012770
# 5 -0.004315 0.004953 0.006941 0.000000 0.040963 0.000000
# 6 0.000000 0.000000 0.000000 -0.012770 0.000000 0.042197
#
#
# Mechanical properties :
#
#
# Convention : Reuss Voigt Hill
#
# Bulk Modulus (GPa) = 32.41786 56.40826 44.41306
# Shear Modulus (GPa) = 17.84175 23.71449 20.77812
#
# Velocity S-wave (km/s) = 3.09680 3.57027 3.34193
# Velocity P-wave (km/s) = 5.49654 6.87866 6.22607
#
# Compressibility (1/GPa) = 0.03084720
#
# Stress axis : x y z
#
# Youngs Moduli (GPa) = 78.81203 25.85203 77.31791
#
# Poissons Ratio (x) = 0.25331 0.40770
# Poissons Ratio (y) = 0.77223 0.12811
# Poissons Ratio (z) = 0.41558 0.04283
#
# Static dielectric constant tensor:
#      x y z
#    x 3.615430 0.000000 0.016790 
#    y 0.000000 2.907710 0.000000 
#    z 0.016790 0.000000 3.382610 
# 
# 
# High freq. dielectric constant tensor:
#      x y z
#    x 1.740770 0.000000 -0.001960 
#    y 0.000000 1.656580 0.000000 
#    z -0.001960 0.000000 1.728060 
# 
# From -- ./inp_files/16358.got.cif
#   From: 2010.06.25/outbox.cif.g09.slc.cpg/sg13_9_cif.got.tgz:16358.got - 2010.06.28 04:50:58.
