data_PCOD8116329
_publ_section_title
;
Structure prediction by ZEFSAII (Michael W. Deem and Ramdas Pophale) SiO2 
 PCOD8116329
Probable space group: C 2/M
;
_chemical_formula_sum "Si O2"
_cell_formula_units_Z 32
_cell_length_a 18.000000
_cell_length_b 9.000000
_cell_length_c 30.000000
_cell_angle_alpha 90.000000
_cell_angle_beta 40.000000
_cell_angle_gamma 90.000000
_cell_volume 3123.947783
_symmetry_space_group_name_H-M "C 2/M"
_symmetry_group_IT_number 12
_symmetry_cell_setting 'monoclinic'
loop_
_space_group_symop_operation_xyz
x,y,z
-x,y,-z
-x,-y,-z
x,-y,z
1/2+x,1/2+y,z
1/2-x,1/2+y,-z
1/2-x,1/2-y,-z
1/2+x,1/2-y,z
loop_
_atom_site_type_symbol
_atom_site_label
_atom_site_fract_x
_atom_site_fract_y
_atom_site_fract_z
Si Si1 0.903389 0.665753 0.957525
Si Si2 0.838167 0.831906 0.903977
Si Si3 0.019621 0.171709 0.248854
Si Si4 0.304777 0.174655 0.776130
Si Si5 0.927605 0.831039 0.488154
Si Si6 0.880778 0.674088 0.646882
Si Si7 0.756291 0.827507 0.377322
Si Si8 0.078531 0.172749 0.924912
O O1 0.956577 0.500000 0.934104
O O2 0.855301 0.699721 0.930925
O O3 0.000206 0.792391 0.918216
O O4 0.800181 0.677154 0.042156
O O5 0.917698 0.791412 0.826020
O O6 0.866504 0.000000 0.908128
O O7 0.072836 0.276668 0.261543
O O8 0.887404 0.219159 0.309271
O O9 0.036670 0.000000 0.253732
O O10 0.308193 0.229630 0.723313
O O11 0.202872 0.243900 0.854400
O O12 0.287020 0.000000 0.785364
O O13 0.801964 0.757593 0.554268
O O14 0.000000 0.811382 0.500000
O O15 0.994674 0.753384 0.416241
O O16 0.908013 0.000000 0.483583
O O17 0.905823 0.500000 0.638611
O O18 0.803148 0.719297 0.641112
O O19 0.741663 0.000000 0.394211
O O20 0.092083 0.000000 0.929313
O O21 0.000000 0.250790 0.000000
#
# Coordination Sequence:
#
# PCOD8116329 Si02
#       8
#     8   8   8   8   8   8   8   8
#     4  10  20  33  52  80 105 136 181 230 278 320
#     4   9  19  35  54  75 106 143 178 222 274 326
#     4  10  21  36  56  79 107 145 182 223 274 322
#     4  10  22  37  55  79 110 146 183 226 275 324
#     4   9  17  31  53  82 112 139 169 216 273 319
#     4   9  18  34  56  80 106 140 181 222 263 318
#     4   9  18  33  56  82 106 139 182 219 261 324
#     4  10  21  36  55  77 105 146 188 225 272 327
#
# _framework density 10.243449
#
# number of rings (size 3 to 8) (size 9 to 14) (size 15 to 20)
#    0.000    2.500    0.000    1.500    1.750    4.250 
#    0.000    0.625    0.000    0.000    0.000    0.000 
#    0.000    0.000    0.000    0.000    0.000    0.000 
#
# Total GULP energy -396418.861716 kJ/mol
# GULP energy per Si atom -12388.089429 kJ/mol
# Density = 1.022013 g / cm^3
# Si number density = 10.243449 Si / 1000 Ang^3
#
#
#
# Elastic Constant Matrix: (Units=GPa)
#
#
# Indices 1 2 3 4 5 6 
#
# 1 37.3591 12.7693 55.6925 0.0011 -10.3741 0.0002
# 2 12.7693 12.5221 56.3426 0.0019 -0.2114 0.0013
# 3 55.6925 56.3426 182.3354 -0.0006 -7.6686 0.0004
# 4 0.0011 0.0019 -0.0006 18.9283 0.0002 -4.2414
# 5 -10.3741 -0.2114 -7.6686 0.0002 22.2128 0.0000
# 6 0.0002 0.0013 0.0004 -4.2414 0.0000 22.3950
#
#
#
# Elastic Compliance Matrix: (Units=1/GPa)
#
#
# Indices 1 2 3 4 5 6 
#
# 1 0.049974 -0.035740 -0.003301 0.000001 0.021860 0.000002
# 2 -0.035740 -0.170485 0.063753 0.000024 0.003695 0.000013
# 3 -0.003301 0.063753 -0.013442 -0.000008 -0.005575 -0.000005
# 4 0.000001 0.000024 -0.000008 0.055172 -0.000002 0.010449
# 5 0.021860 0.003695 -0.005575 -0.000002 0.053339 -0.000001
# 6 0.000002 0.000013 -0.000005 0.010449 -0.000001 0.046632
#
#
# Mechanical properties :
#
#
# Convention : Reuss Voigt Hill
#
# Bulk Modulus (GPa) = -11.83019 53.53616 20.85298
# Shear Modulus (GPa) = -88.63723 19.86803 -34.38460
#
# Velocity S-wave (km/s) = -6.58477 3.11753 -4.10124
# Velocity P-wave (km/s) = 7.97492 6.25678 3.49658
#
# Compressibility (1/GPa) = -0.08452948
#
# Stress axis : x y z
#
# Youngs Moduli (GPa) = 20.01045 -5.86562 -74.39481
#
# Poissons Ratio (x) = -0.20964 -0.24556
# Poissons Ratio (y) = 0.71518 4.74286
# Poissons Ratio (z) = 0.06605 0.37395
#
# Static dielectric constant tensor:
#      x y z
#    x 3.324110 0.000000 -0.056860 
#    y 0.000000 3.418100 0.000000 
#    z -0.056860 0.000000 4.196800 
# 
# 
# High freq. dielectric constant tensor:
#      x y z
#    x 1.757270 0.000000 -0.004910 
#    y 0.000000 1.780890 0.000000 
#    z -0.004910 0.000000 1.820510 
# 
# From -- ./inp_files/346060.got.cif
#   From: 2010.06.25/outbox.ucp.g09.slc.cvg/sg12_174_cif.got.tgz:346060.got - 2010.06.28 13:50:54.
