data_PCOD8116464
_publ_section_title
;
Structure prediction by ZEFSAII (Michael W. Deem and Ramdas Pophale) SiO2 
 PCOD8116464
Probable space group: C 2/M
;
_chemical_formula_sum "Si O2"
_cell_formula_units_Z 20
_cell_length_a 24.000000
_cell_length_b 9.000000
_cell_length_c 18.000000
_cell_angle_alpha 90.000000
_cell_angle_beta 150.000000
_cell_angle_gamma 90.000000
_cell_volume 1944.000000
_symmetry_space_group_name_H-M "C 2/M"
_symmetry_group_IT_number 12
_symmetry_cell_setting 'monoclinic'
loop_
_space_group_symop_operation_xyz
x,y,z
-x,y,-z
-x,-y,-z
x,-y,z
1/2+x,1/2+y,z
1/2-x,1/2+y,-z
1/2-x,1/2-y,-z
1/2+x,1/2-y,z
loop_
_atom_site_type_symbol
_atom_site_label
_atom_site_fract_x
_atom_site_fract_y
_atom_site_fract_z
Si Si1 0.561443 0.325961 0.382003
Si Si2 0.818967 0.163194 0.892914
Si Si3 0.977265 0.326115 0.816166
Si Si4 0.072662 0.330765 0.656270
Si Si5 0.714692 0.333925 0.318486
O O1 0.575642 0.500000 0.386589
O O2 0.526950 0.247430 0.267729
O O3 0.462909 0.290324 0.324904
O O4 0.674316 0.257970 0.542792
O O5 0.700353 0.204769 0.789137
O O6 0.811690 0.152861 0.797238
O O7 0.858167 0.000000 0.967760
O O8 0.902223 0.293586 0.010712
O O9 0.956678 0.500000 0.787178
O O10 0.884381 0.254168 0.759324
O O11 0.054909 0.500000 0.664361
O O12 0.000000 0.304278 0.500000
O O13 0.726583 0.500000 0.366787
#
# Coordination Sequence:
#
# PCOD8116464 Si02
#       5
#     8   8   8   8   8
#     4  12  25  41  64  94 127 165 210 258 310 367
#     4  10  22  41  67  94 125 165 206 251 310 375
#     4  12  26  42  61  91 130 167 208 259 313 367
#     4  10  20  41  68  94 123 162 207 253 309 372
#     4  11  22  42  68  93 125 166 209 254 310 373
#
# _framework density 10.288066000000001
#
# number of rings (size 3 to 8) (size 9 to 14) (size 15 to 20)
#    0.000    1.000    2.000    5.400    0.000    6.000 
#    0.000    0.000    0.000    0.000    0.000    0.000 
#    0.000    0.000    0.000    0.000    0.000    0.000 
#
# Total GULP energy -248030.542278 kJ/mol
# GULP energy per Si atom -12401.527114 kJ/mol
# Density = 1.026465 g / cm^3
# Si number density = 10.288066 Si / 1000 Ang^3
#
#
#
# Elastic Constant Matrix: (Units=GPa)
#
#
# Indices 1 2 3 4 5 6 
#
# 1 108.9754 72.0813 58.5089 0.0000 22.4011 0.0000
# 2 72.0813 181.2551 53.2170 0.0000 8.4681 0.0000
# 3 58.5089 53.2170 77.3040 0.0000 10.6148 0.0000
# 4 0.0000 0.0000 0.0000 79.8923 0.0000 16.1653
# 5 22.4011 8.4681 10.6148 0.0000 23.6265 0.0000
# 6 0.0000 0.0000 0.0000 16.1653 0.0000 44.1515
#
#
#
# Elastic Compliance Matrix: (Units=1/GPa)
#
#
# Indices 1 2 3 4 5 6 
#
# 1 0.020529 -0.004410 -0.010707 0.000000 -0.013073 0.000000
# 2 -0.004410 0.007865 -0.002413 0.000000 0.002446 0.000000
# 3 -0.010707 -0.002413 0.022581 0.000000 0.000871 0.000000
# 4 0.000000 0.000000 0.000000 0.013518 0.000000 -0.004949
# 5 -0.013073 0.002446 0.000871 0.000000 0.053453 0.000000
# 6 0.000000 0.000000 0.000000 -0.004949 0.000000 0.024461
#
#
# Mechanical properties :
#
#
# Convention : Reuss Voigt Hill
#
# Bulk Modulus (GPa) = 62.82832 81.68322 72.25577
# Shear Modulus (GPa) = 27.35664 41.78255 34.56959
#
# Velocity S-wave (km/s) = 3.65023 4.51114 4.10333
# Velocity P-wave (km/s) = 6.95460 8.18035 7.59225
#
# Compressibility (1/GPa) = 0.01591639
#
# Stress axis : x y z
#
# Youngs Moduli (GPa) = 48.71135 127.14958 44.28514
#
# Poissons Ratio (x) = 0.56068 0.47416
# Poissons Ratio (y) = 0.21480 0.10684
# Poissons Ratio (z) = 0.52155 0.30676
#
# Static dielectric constant tensor:
#      x y z
#    x 3.352670 0.000000 0.177380 
#    y 0.000000 4.268770 0.000000 
#    z 0.177380 0.000000 3.747830 
# 
# 
# High freq. dielectric constant tensor:
#      x y z
#    x 1.807210 0.000000 0.008100 
#    y 0.000000 1.808800 0.000000 
#    z 0.008100 0.000000 1.803130 
# 
# From -- ./inp_files/171874.got.cif
#   From: 2010.06.25/outbox.ucp.g09.slc.cvg/sg12_86_cif.got.tgz:171874.got - 2010.06.28 13:50:54.
