data_PCOD8116698
_publ_section_title
;
Structure prediction by ZEFSAII (Michael W. Deem and Ramdas Pophale) SiO2 
 PCOD8116698
Probable space group: P 2/C
;
_chemical_formula_sum "Si O2"
_cell_formula_units_Z 30
_cell_length_a 35.357588
_cell_length_b 7.083880
_cell_length_c 5.312426
_cell_angle_alpha 90.000000
_cell_angle_beta 102.445536
_cell_angle_gamma 90.000000
_cell_volume 1299.330251
_symmetry_space_group_name_H-M "P 2/C"
_symmetry_group_IT_number 13
_symmetry_cell_setting 'monoclinic'
loop_
_space_group_symop_operation_xyz
x,y,z
-x,y,1/2-z
-x,-y,-z
x,-y,1/2+z
loop_
_atom_site_type_symbol
_atom_site_label
_atom_site_fract_x
_atom_site_fract_y
_atom_site_fract_z
Si Si1 0.483587 0.710370 0.976350
Si Si2 0.359615 0.290748 0.826102
Si Si3 0.392101 0.711100 0.872939
Si Si4 0.882724 0.704587 0.601247
Si Si5 0.000000 0.377935 0.750000
Si Si6 0.281145 0.880990 0.144715
Si Si7 0.084865 0.278861 0.851826
Si Si8 0.195204 0.879272 0.065833
O O1 0.500000 0.815249 0.750000
O O2 0.437699 0.703528 0.905049
O O3 0.500000 0.815053 0.250000
O O4 0.500000 0.500000 0.000000
O O5 0.373810 0.503801 0.879218
O O6 0.380614 0.186877 0.619103
O O7 0.313194 0.281751 0.728441
O O8 0.372946 0.185324 0.103752
O O9 0.900166 0.495453 0.644426
O O10 0.901037 0.816238 0.388354
O O11 0.836032 0.710511 0.511055
O O12 0.895640 0.815208 0.874199
O O13 0.961316 0.253114 0.693692
O O14 0.000000 0.500000 0.500000
O O15 0.238273 0.790271 0.107529
O O16 0.286592 0.035268 0.372812
O O17 0.189378 0.970159 0.333011
#
# Coordination Sequence:
#
# PCOD8116698 Si02
#       8
#     4   4   4   4   2   4   4   4
#     4  10  16  25  41  65 102 133 158 188 225 291
#     4  10  18  32  49  70 102 131 155 202 252 296
#     4  10  19  30  47  76 108 129 155 195 252 310
#     4  10  18  32  49  75 105 127 163 210 248 294
#     4  12  16  30  48  78 110 138 168 196 246 294
#     4  10  21  37  55  73  94 126 174 214 241 287
#     4  10  19  30  50  81 105 131 162 203 251 294
#     4  10  21  37  55  73  95 131 172 210 248 291
#
# _framework density 23.088816000000001
#
# number of rings (size 3 to 8) (size 9 to 14) (size 15 to 20)
#    0.000    1.867    2.667    5.600    0.000    0.000 
#    0.000    5.333    0.000    0.000    0.000   15.867 
#    0.000  130.133    0.000    0.000    0.000    0.000 
#
# Total GULP energy -371690.639835 kJ/mol
# GULP energy per Si atom -12389.687995 kJ/mol
# Density = 2.303626 g / cm^3
# Si number density = 23.088816 Si / 1000 Ang^3
#
#
#
# Elastic Constant Matrix: (Units=GPa)
#
#
# Indices 1 2 3 4 5 6 
#
# 1 157.6097 7.8653 45.1161 0.0000 27.8317 0.0000
# 2 7.8653 21.6545 -12.7502 0.0000 10.3078 0.0000
# 3 45.1161 -12.7502 213.1499 0.0000 -22.9044 0.0000
# 4 0.0000 0.0000 0.0000 0.6214 0.0000 11.5296
# 5 27.8317 10.3078 -22.9044 0.0000 63.6014 0.0000
# 6 0.0000 0.0000 0.0000 11.5296 0.0000 12.8333
#
#
#
# Elastic Compliance Matrix: (Units=1/GPa)
#
#
# Indices 1 2 3 4 5 6 
#
# 1 0.007759 -0.002292 -0.002189 0.000000 -0.003812 0.000000
# 2 -0.002292 0.051736 0.002899 0.000000 -0.006338 0.000000
# 3 -0.002189 0.002899 0.005597 0.000000 0.002504 0.000000
# 4 0.000000 0.000000 0.000000 -0.102701 0.000000 0.092268
# 5 -0.003812 -0.006338 0.002504 0.000000 0.019320 0.000000
# 6 0.000000 0.000000 0.000000 0.092268 0.000000 -0.004973
#
#
# Mechanical properties :
#
#
# Convention : Reuss Voigt Hill
#
# Bulk Modulus (GPa) = 16.14799 52.54183 34.34491
# Shear Modulus (GPa) = 9163.72962 38.89009 4601.30985
#
# Velocity S-wave (km/s) = 63.06758 4.10856 44.69005
# Velocity P-wave (km/s) = 72.87228 6.73148 51.74786
#
# Compressibility (1/GPa) = 0.06192720
#
# Stress axis : x y z
#
# Youngs Moduli (GPa) = 128.88301 19.32887 178.65623
#
# Poissons Ratio (x) = 0.04431 0.39109
# Poissons Ratio (y) = 0.29546 -0.51792
# Poissons Ratio (z) = 0.28213 -0.05603
#
# Static dielectric constant tensor:
#      x y z
#    x 4.512850 0.000000 -0.271250 
#    y 0.000000 3.198590 0.000000 
#    z -0.271250 0.000000 5.450390 
# 
# 
# High freq. dielectric constant tensor:
#      x y z
#    x 1.928150 0.000000 -0.010240 
#    y 0.000000 1.841370 0.000000 
#    z -0.010240 0.000000 1.960790 
# 
# From -- ./inp_files/8104.got.cif
#   From: 2010.06.25/outbox.cif.g09.slc.cpg/sg13_5_cif.got.tgz:8104.got - 2010.06.28 04:50:58.
