data_PCOD8116400
_publ_section_title
;
Structure prediction by ZEFSAII (Michael W. Deem and Ramdas Pophale) SiO2 
 PCOD8116400
Probable space group: C 2/M
;
_chemical_formula_sum "Si O2"
_cell_formula_units_Z 24
_cell_length_a 18.000000
_cell_length_b 9.000000
_cell_length_c 30.000000
_cell_angle_alpha 90.000000
_cell_angle_beta 30.000000
_cell_angle_gamma 90.000000
_cell_volume 2430.000000
_symmetry_space_group_name_H-M "C 2/M"
_symmetry_group_IT_number 12
_symmetry_cell_setting 'monoclinic'
loop_
_space_group_symop_operation_xyz
x,y,z
-x,y,-z
-x,-y,-z
x,-y,z
1/2+x,1/2+y,z
1/2-x,1/2+y,-z
1/2-x,1/2-y,-z
1/2+x,1/2-y,z
loop_
_atom_site_type_symbol
_atom_site_label
_atom_site_fract_x
_atom_site_fract_y
_atom_site_fract_z
Si Si1 0.268337 0.176112 0.265716
Si Si2 0.593278 0.321401 0.891387
Si Si3 0.469852 0.172555 0.413430
Si Si4 0.853615 0.170432 0.389161
Si Si5 0.309091 0.824853 0.069170
Si Si6 0.470195 0.670648 0.230887
O O1 0.310557 0.267221 0.199896
O O2 0.384207 0.216129 0.244010
O O3 0.103138 0.230309 0.365201
O O4 0.270519 0.000000 0.256030
O O5 0.581682 0.500000 0.898488
O O6 0.676358 0.261016 0.891796
O O7 0.428711 0.248304 0.973334
O O8 0.323316 0.201166 0.519435
O O9 0.437139 0.222258 0.379941
O O10 0.515428 0.000000 0.389817
O O11 0.920043 0.206518 0.306795
O O12 0.885046 0.000000 0.386859
O O13 0.145553 0.799722 0.134320
O O14 0.341424 0.000000 0.059210
O O15 0.432172 0.500000 0.238081
#
# Coordination Sequence:
#
# PCOD8116400 Si02
#       6
#     8   8   8   8   8   8
#     4  12  25  39  56  80 114 152 191 236 286 338
#     4  11  22  38  61  86 114 148 190 235 279 334
#     4  10  20  36  60  87 115 148 189 234 279 333
#     4   9  19  37  61  87 115 149 188 231 279 333
#     4  10  20  37  62  89 117 148 185 231 282 335
#     4  10  22  39  58  82 114 151 188 228 279 338
#
# _framework density 9.8765429999999999
#
# number of rings (size 3 to 8) (size 9 to 14) (size 15 to 20)
#    0.000    1.667    0.000    6.000    0.000    5.333 
#    0.000    3.333    0.000    0.000    0.000    0.000 
#    0.000    0.000    0.000    0.000    0.000    0.000 
#
# Total GULP energy -297674.744162 kJ/mol
# GULP energy per Si atom -12403.114340 kJ/mol
# Density = 0.985406 g / cm^3
# Si number density = 9.876543 Si / 1000 Ang^3
#
#
#
# Elastic Constant Matrix: (Units=GPa)
#
#
# Indices 1 2 3 4 5 6 
#
# 1 57.0496 34.6767 20.9171 0.0021 -28.1738 -0.0027
# 2 34.6767 149.1382 34.4332 0.0053 -16.6051 -0.0013
# 3 20.9171 34.4332 76.8972 0.0005 -23.3103 -0.0011
# 4 0.0021 0.0053 0.0005 32.7077 -0.0003 -2.1152
# 5 -28.1738 -16.6051 -23.3103 -0.0003 31.1637 0.0030
# 6 -0.0027 -0.0013 -0.0011 -2.1152 0.0030 38.8470
#
#
#
# Elastic Compliance Matrix: (Units=1/GPa)
#
#
# Indices 1 2 3 4 5 6 
#
# 1 0.034923 -0.005212 0.002022 -0.000001 0.030307 0.000000
# 2 -0.005212 0.008346 -0.003103 -0.000001 -0.002587 0.000000
# 3 0.002022 -0.003103 0.017972 0.000000 0.013617 0.000000
# 4 -0.000001 -0.000001 0.000000 0.030682 -0.000001 0.001671
# 5 0.030307 -0.002587 0.013617 -0.000001 0.068295 -0.000003
# 6 0.000000 0.000000 0.000000 0.001671 -0.000003 0.025833
#
#
# Mechanical properties :
#
#
# Convention : Reuss Voigt Hill
#
# Bulk Modulus (GPa) = 20.55413 51.45992 36.00702
# Shear Modulus (GPa) = 23.27148 33.41422 28.34285
#
# Velocity S-wave (km/s) = 3.43610 4.11736 3.79206
# Velocity P-wave (km/s) = 5.11571 6.97938 6.11891
#
# Compressibility (1/GPa) = 0.04865203
#
# Stress axis : x y z
#
# Youngs Moduli (GPa) = 28.63474 119.82313 55.64252
#
# Poissons Ratio (x) = 0.62457 -0.11249
# Poissons Ratio (y) = 0.14926 0.17268
# Poissons Ratio (z) = -0.05789 0.37185
#
# Static dielectric constant tensor:
#      x y z
#    x 3.393270 0.000000 -0.144420 
#    y 0.000000 3.781380 0.000000 
#    z -0.144420 0.000000 3.904110 
# 
# 
# High freq. dielectric constant tensor:
#      x y z
#    x 1.756850 0.000000 -0.013310 
#    y 0.000000 1.787590 0.000000 
#    z -0.013310 0.000000 1.790660 
# 
# From -- ./inp_files/274079.got.cif
#   From: 2010.06.25/outbox.ucp.g09.slc.cvg/sg12_138_cif.got.tgz:274079.got - 2010.06.28 13:50:54.
