data_PCOD8116299
_publ_section_title
;
Structure prediction by ZEFSAII (Michael W. Deem and Ramdas Pophale) SiO2 
 PCOD8116299
Probable space group: C 2/M
;
_chemical_formula_sum "Si O2"
_cell_formula_units_Z 24
_cell_length_a 21.000000
_cell_length_b 18.000000
_cell_length_c 18.000000
_cell_angle_alpha 90.000000
_cell_angle_beta 160.000000
_cell_angle_gamma 90.000000
_cell_volume 2327.105055
_symmetry_space_group_name_H-M "C 2/M"
_symmetry_group_IT_number 12
_symmetry_cell_setting 'monoclinic'
loop_
_space_group_symop_operation_xyz
x,y,z
-x,y,-z
-x,-y,-z
x,-y,z
1/2+x,1/2+y,z
1/2-x,1/2+y,-z
1/2-x,1/2-y,-z
1/2+x,1/2-y,z
loop_
_atom_site_type_symbol
_atom_site_label
_atom_site_fract_x
_atom_site_fract_y
_atom_site_fract_z
Si Si1 0.181450 0.914949 0.147697
Si Si2 0.730631 0.832172 0.901536
Si Si3 0.514179 0.419703 0.601801
Si Si4 0.157217 0.670591 0.981738
Si Si5 0.112765 0.283530 0.556793
Si Si6 0.636320 0.846494 0.215779
O O1 0.169660 0.887571 0.048167
O O2 0.332247 0.863609 0.351184
O O3 0.248447 0.000000 0.220209
O O4 0.000000 0.906625 0.000000
O O5 0.860999 0.759273 0.048621
O O6 0.524739 0.801796 0.659953
O O7 0.693985 0.869405 0.942071
O O8 0.500000 0.430760 0.500000
O O9 0.574781 0.500000 0.702697
O O10 0.660717 0.353652 0.773397
O O11 0.314391 0.399327 0.418232
O O12 0.971901 0.647541 0.824080
O O13 0.290417 0.236658 0.723700
O O14 0.000000 0.241211 0.500000
O O15 0.500000 0.872477 0.000000
#
# Coordination Sequence:
#
# PCOD8116299 Si02
#       6
#     8   8   8   8   8   8
#     4  10  21  38  61  90 121 159 203 248 303 367
#     4  10  22  39  61  89 126 161 200 249 307 363
#     4  11  24  42  62  87 121 159 206 258 307 360
#     4  11  23  41  61  91 125 163 203 253 307 360
#     4  10  19  35  61  91 119 156 203 255 296 360
#     4  12  21  36  66  91 119 161 212 256 300 360
#
# _framework density 10.313243
#
# number of rings (size 3 to 8) (size 9 to 14) (size 15 to 20)
#    0.000    1.333    3.333    4.000    0.000    5.333 
#    3.000    0.000    0.000    0.000    0.000    0.000 
#    0.000    0.000    0.000    0.000    0.000    0.000 
#
# Total GULP energy -297316.069460 kJ/mol
# GULP energy per Si atom -12388.169561 kJ/mol
# Density = 1.028977 g / cm^3
# Si number density = 10.313243 Si / 1000 Ang^3
#
#
#
# Elastic Constant Matrix: (Units=GPa)
#
#
# Indices 1 2 3 4 5 6 
#
# 1 182.1150 42.6521 37.0157 0.0050 27.4159 -0.0069
# 2 42.6521 98.4571 8.8586 0.0203 7.4245 0.0195
# 3 37.0157 8.8586 58.5938 0.0180 21.5106 0.0218
# 4 0.0050 0.0203 0.0180 18.4296 0.0185 9.4414
# 5 27.4159 7.4245 21.5106 0.0185 37.7554 0.0148
# 6 -0.0069 0.0195 0.0218 9.4414 0.0148 29.5352
#
#
#
# Elastic Compliance Matrix: (Units=1/GPa)
#
#
# Indices 1 2 3 4 5 6 
#
# 1 0.007166 -0.002607 -0.003048 0.000004 -0.002954 0.000006
# 2 -0.002607 0.011308 0.000074 -0.000009 -0.000373 -0.000005
# 3 -0.003048 0.000074 0.022980 -0.000005 -0.010894 -0.000011
# 4 0.000004 -0.000009 -0.000005 0.064886 -0.000022 -0.020742
# 5 -0.002954 -0.000373 -0.010894 -0.000022 0.034911 -0.000003
# 6 0.000006 -0.000005 -0.000011 -0.020742 -0.000003 0.040488
#
#
# Mechanical properties :
#
#
# Convention : Reuss Voigt Hill
#
# Bulk Modulus (GPa) = 33.01252 57.35765 45.18509
# Shear Modulus (GPa) = 24.63056 33.85333 29.24194
#
# Velocity S-wave (km/s) = 3.45936 4.05564 3.76931
# Velocity P-wave (km/s) = 5.65649 7.05684 6.39511
#
# Compressibility (1/GPa) = 0.03029154
#
# Stress axis : x y z
#
# Youngs Moduli (GPa) = 139.54830 88.43588 43.51531
#
# Poissons Ratio (x) = 0.23058 0.13265
# Poissons Ratio (y) = 0.36385 -0.00324
# Poissons Ratio (z) = 0.42539 -0.00658
#
# Static dielectric constant tensor:
#      x y z
#    x 4.105770 0.000010 0.248100 
#    y 0.000010 3.835220 0.000030 
#    z 0.248100 0.000030 3.668650 
# 
# 
# High freq. dielectric constant tensor:
#      x y z
#    x 1.823100 0.000000 0.019140 
#    y 0.000000 1.799420 0.000000 
#    z 0.019140 0.000000 1.788040 
# 
# From -- ./inp_files/285418.got.cif
#   From: 2010.06.25/outbox.ucp.g09.slc.cvg/sg12_143_cif.got.tgz:285418.got - 2010.06.28 13:50:54.
