data_PCOD8116422
_publ_section_title
;
Structure prediction by ZEFSAII (Michael W. Deem and Ramdas Pophale) SiO2 
 PCOD8116422
Probable space group: C 2/M
;
_chemical_formula_sum "Si O2"
_cell_formula_units_Z 32
_cell_length_a 24.000000
_cell_length_b 9.000000
_cell_length_c 30.000000
_cell_angle_alpha 90.000000
_cell_angle_beta 30.000000
_cell_angle_gamma 90.000000
_cell_volume 3240.000000
_symmetry_space_group_name_H-M "C 2/M"
_symmetry_group_IT_number 12
_symmetry_cell_setting 'monoclinic'
loop_
_space_group_symop_operation_xyz
x,y,z
-x,y,-z
-x,-y,-z
x,-y,z
1/2+x,1/2+y,z
1/2-x,1/2+y,-z
1/2-x,1/2-y,-z
1/2+x,1/2-y,z
loop_
_atom_site_type_symbol
_atom_site_label
_atom_site_fract_x
_atom_site_fract_y
_atom_site_fract_z
Si Si1 0.201603 0.677080 0.488715
Si Si2 0.168014 0.175620 0.690692
Si Si3 0.582328 0.834283 0.001899
Si Si4 0.482297 0.169746 0.771031
Si Si5 0.226171 0.167116 0.061540
Si Si6 0.974101 0.668851 0.678151
Si Si7 0.232455 0.822176 0.826247
Si Si8 0.653014 0.177803 0.795824
O O1 0.216212 0.500000 0.483563
O O2 0.250000 0.750000 0.500000
O O3 0.254030 0.729799 0.404935
O O4 0.070179 0.725305 0.577653
O O5 0.191570 0.257897 0.721027
O O6 0.044022 0.223491 0.762897
O O7 0.176828 0.000000 0.691970
O O8 0.662371 0.839123 0.988128
O O9 0.630712 0.736481 0.927650
O O10 0.563893 0.000000 0.995267
O O11 0.469143 0.771113 0.102234
O O12 0.357735 0.229651 0.853053
O O13 0.530928 0.183845 0.687614
O O14 0.485632 0.000000 0.786161
O O15 0.180336 0.000000 0.084973
O O16 0.250000 0.250000 0.000000
O O17 0.947767 0.500000 0.684834
O O18 0.852033 0.743612 0.760472
O O19 0.232798 0.753226 0.776666
O O20 0.223144 0.000000 0.831817
O O21 0.664684 0.000000 0.786075
#
# Coordination Sequence:
#
# PCOD8116422 Si02
#       8
#     8   8   8   8   8   8   8   8
#     4  10  20  37  61  90 121 153 192 239 295 358
#     4  11  23  38  60  91 121 153 198 250 296 352
#     4  10  22  39  58  82 114 154 199 243 293 350
#     4  11  20  35  58  83 118 159 193 234 295 359
#     4  11  22  35  53  81 118 157 200 246 296 355
#     4   9  19  36  59  87 118 152 189 232 293 355
#     4  11  22  39  63  89 116 153 200 248 291 345
#     4  11  24  42  61  83 117 161 200 243 299 355
#
# _framework density 9.8765429999999999
#
# number of rings (size 3 to 8) (size 9 to 14) (size 15 to 20)
#    0.000    1.500    2.500    3.000    0.000    4.500 
#    0.000    1.875    0.000    3.750    0.000    0.000 
#    0.000    0.000    0.000    0.000    0.000    0.000 
#
# Total GULP energy -396508.435665 kJ/mol
# GULP energy per Si atom -12390.888615 kJ/mol
# Density = 0.985406 g / cm^3
# Si number density = 9.876543 Si / 1000 Ang^3
#
#
#
# Elastic Constant Matrix: (Units=GPa)
#
#
# Indices 1 2 3 4 5 6 
#
# 1 93.1000 38.5450 45.0366 -0.0511 25.6419 0.0555
# 2 38.5450 90.0269 37.2700 -0.0372 18.4236 -0.0115
# 3 45.0366 37.2700 113.8163 -0.0011 24.3719 -0.0083
# 4 -0.0511 -0.0372 -0.0011 26.9894 0.0242 7.9908
# 5 25.6419 18.4236 24.3719 0.0242 29.8492 -0.0423
# 6 0.0555 -0.0115 -0.0083 7.9908 -0.0423 32.2922
#
#
#
# Elastic Compliance Matrix: (Units=1/GPa)
#
#
# Indices 1 2 3 4 5 6 
#
# 1 0.016409 -0.003804 -0.003310 0.000050 -0.009045 -0.000055
# 2 -0.003804 0.014507 -0.002457 0.000015 -0.003680 0.000002
# 3 -0.003310 -0.002457 0.012079 -0.000005 -0.005502 0.000002
# 4 0.000050 0.000015 -0.000005 0.039981 -0.000095 -0.009894
# 5 -0.009045 -0.003680 -0.005502 -0.000095 0.048036 0.000099
# 6 -0.000055 0.000002 0.000002 -0.009894 0.000099 0.033416
#
#
# Mechanical properties :
#
#
# Convention : Reuss Voigt Hill
#
# Bulk Modulus (GPa) = 41.92627 59.84961 50.88794
# Shear Modulus (GPa) = 26.10695 29.56561 27.83628
#
# Velocity S-wave (km/s) = 3.63941 3.87299 3.75802
# Velocity P-wave (km/s) = 6.23953 7.09681 6.68193
#
# Compressibility (1/GPa) = 0.02385139
#
# Stress axis : x y z
#
# Youngs Moduli (GPa) = 60.94335 68.93351 82.79002
#
# Poissons Ratio (x) = 0.26221 0.27407
# Poissons Ratio (y) = 0.23182 0.20343
# Poissons Ratio (z) = 0.20174 0.16938
#
# Static dielectric constant tensor:
#      x y z
#    x 3.522010 0.000010 0.071720 
#    y 0.000010 3.540930 -0.000080 
#    z 0.071720 -0.000080 3.749180 
# 
# 
# High freq. dielectric constant tensor:
#      x y z
#    x 1.766240 0.000000 0.011360 
#    y 0.000000 1.766530 0.000000 
#    z 0.011360 0.000000 1.779470 
# 
# From -- ./inp_files/238756.got.cif
#   From: 2010.06.25/outbox.ucp.g09.slc.cvg/sg12_120_cif.got.tgz:238756.got - 2010.06.28 13:50:54.
