data_PCOD8116961
_publ_section_title
;
Structure prediction by ZEFSAII (Michael W. Deem and Ramdas Pophale) SiO2 
 PCOD8116961
Probable space group: P 2/C
;
_chemical_formula_sum "Si O2"
_cell_formula_units_Z 28
_cell_length_a 20.462971
_cell_length_b 8.838163
_cell_length_c 14.213079
_cell_angle_alpha 90.000000
_cell_angle_beta 32.690536
_cell_angle_gamma 90.000000
_cell_volume 1388.334447
_symmetry_space_group_name_H-M "P 2/C"
_symmetry_group_IT_number 13
_symmetry_cell_setting 'monoclinic'
loop_
_space_group_symop_operation_xyz
x,y,z
-x,y,1/2-z
-x,-y,-z
x,-y,1/2+z
loop_
_atom_site_type_symbol
_atom_site_label
_atom_site_fract_x
_atom_site_fract_y
_atom_site_fract_z
Si Si1 0.080017 0.792464 0.570306
Si Si2 0.298128 0.174877 0.114739
Si Si3 0.832593 0.604623 0.275209
Si Si4 0.932075 0.685106 0.571926
Si Si5 0.705079 0.148824 0.813894
Si Si6 0.525789 0.345212 0.915635
Si Si7 0.262178 0.365781 0.976785
O O1 0.180990 0.893383 0.393071
O O2 0.158393 0.662266 0.525926
O O3 0.000000 0.876107 0.750000
O O4 0.988591 0.718300 0.606905
O O5 0.171888 0.193455 0.325693
O O6 0.335282 0.999558 0.078806
O O7 0.398440 0.282341 0.036415
O O8 0.271643 0.227555 0.039930
O O9 0.865768 0.478086 0.156425
O O10 0.738385 0.723160 0.348436
O O11 0.771948 0.528388 0.438348
O O12 0.962572 0.689381 0.135473
O O13 0.589833 0.213026 0.898057
O O14 0.607047 0.385414 0.727550
O O15 0.500000 0.500000 0.000000
#
# Coordination Sequence:
#
# PCOD8116961 Si02
#       7
#     4   4   4   4   4   4   4
#     4  10  17  35  57  84 114 156 196 234 286 352
#     4  11  21  38  58  87 121 155 197 232 294 358
#     4   9  17  34  57  88 113 144 200 240 282 336
#     4   9  18  32  60  84 116 157 189 242 289 345
#     4  10  23  36  59  85 120 158 189 242 300 344
#     4  11  23  42  64  83 112 156 202 246 290 341
#     4  10  21  38  63  86 111 154 202 242 288 343
#
# _framework density 20.168050000000001
#
# number of rings (size 3 to 8) (size 9 to 14) (size 15 to 20)
#    0.000    2.000    2.857    2.571    0.000    3.429 
#    0.000    5.714    0.000    3.429    0.000    0.000 
#    0.000    0.000    0.000    0.000    0.000    0.000 
#
# Total GULP energy -346896.631063 kJ/mol
# GULP energy per Si atom -12389.165395 kJ/mol
# Density = 2.012215 g / cm^3
# Si number density = 20.168050 Si / 1000 Ang^3
#
#
#
# Elastic Constant Matrix: (Units=GPa)
#
#
# Indices 1 2 3 4 5 6 
#
# 1 83.1541 53.3387 65.1675 0.0000 -20.7074 0.0000
# 2 53.3387 88.8251 41.2012 0.0000 2.9522 0.0000
# 3 65.1675 41.2012 98.4435 0.0000 0.9554 0.0000
# 4 0.0000 0.0000 0.0000 21.7549 0.0000 -0.6256
# 5 -20.7074 2.9522 0.9554 0.0000 32.8873 0.0000
# 6 0.0000 0.0000 0.0000 -0.6256 0.0000 25.3950
#
#
#
# Elastic Compliance Matrix: (Units=1/GPa)
#
#
# Indices 1 2 3 4 5 6 
#
# 1 0.064941 -0.025219 -0.032863 0.000000 0.044109 0.000000
# 2 -0.025219 0.023803 0.006909 0.000000 -0.018217 0.000000
# 3 -0.032863 0.006909 0.029236 0.000000 -0.022162 0.000000
# 4 0.000000 0.000000 0.000000 0.045999 0.000000 0.001133
# 5 0.044109 -0.018217 -0.022162 0.000000 0.060459 0.000000
# 6 0.000000 0.000000 0.000000 0.001133 0.000000 0.039406
#
#
# Mechanical properties :
#
#
# Convention : Reuss Voigt Hill
#
# Bulk Modulus (GPa) = 63.96201 65.53749 64.74975
# Shear Modulus (GPa) = 13.46257 23.38846 18.42551
#
# Velocity S-wave (km/s) = 2.58644 3.40910 3.02586
# Velocity P-wave (km/s) = 6.37989 6.93269 6.66202
#
# Compressibility (1/GPa) = 0.01563428
#
# Stress axis : x y z
#
# Youngs Moduli (GPa) = 15.39856 42.01219 34.20454
#
# Poissons Ratio (x) = 1.05952 1.12406
# Poissons Ratio (y) = 0.38834 -0.23633
# Poissons Ratio (z) = 0.50604 -0.29028
#
# Static dielectric constant tensor:
#      x y z
#    x 3.631260 0.000000 -0.174110 
#    y 0.000000 3.427780 0.000000 
#    z -0.174110 0.000000 4.082050 
# 
# 
# High freq. dielectric constant tensor:
#      x y z
#    x 1.777240 0.000000 -0.021610 
#    y 0.000000 1.760040 0.000000 
#    z -0.021610 0.000000 1.800710 
# 
# From -- ./inp_files/57428.got.cif
#   From: 2010.06.25/outbox.cif.g09.slc.cpg/sg13_29_cif.got.tgz:57428.got - 2010.06.28 04:50:58.
