data_PCOD8116481
_publ_section_title
;
Structure prediction by ZEFSAII (Michael W. Deem and Ramdas Pophale) SiO2 
 PCOD8116481
Probable space group: C 2/M
;
_chemical_formula_sum "Si O2"
_cell_formula_units_Z 32
_cell_length_a 18.000000
_cell_length_b 18.000000
_cell_length_c 21.000000
_cell_angle_alpha 90.000000
_cell_angle_beta 150.000000
_cell_angle_gamma 90.000000
_cell_volume 3402.000000
_symmetry_space_group_name_H-M "C 2/M"
_symmetry_group_IT_number 12
_symmetry_cell_setting 'monoclinic'
loop_
_space_group_symop_operation_xyz
x,y,z
-x,y,-z
-x,-y,-z
x,-y,z
1/2+x,1/2+y,z
1/2-x,1/2+y,-z
1/2-x,1/2-y,-z
1/2+x,1/2-y,z
loop_
_atom_site_type_symbol
_atom_site_label
_atom_site_fract_x
_atom_site_fract_y
_atom_site_fract_z
Si Si1 0.907794 0.414270 0.054204
Si Si2 0.120211 0.794422 0.034357
Si Si3 0.598285 0.416425 0.306644
Si Si4 0.878869 0.286112 0.780232
Si Si5 0.329737 0.585270 0.019032
Si Si6 0.145156 0.082644 0.765910
Si Si7 0.631970 0.270296 0.698402
Si Si8 0.709969 0.224303 0.540639
O O1 0.949927 0.500000 0.094757
O O2 0.801899 0.385305 0.032813
O O3 0.066943 0.371423 0.169235
O O4 0.809701 0.403938 0.917431
O O5 0.034589 0.755626 0.911793
O O6 0.179054 0.873860 0.054970
O O7 0.271295 0.752788 0.167850
O O8 0.000000 0.802972 0.000000
O O9 0.663596 0.500000 0.354461
O O10 0.487042 0.405385 0.282508
O O11 0.740003 0.361486 0.413335
O O12 0.496222 0.401867 0.169340
O O13 0.737144 0.255876 0.715647
O O14 0.820341 0.274412 0.665501
O O15 0.300075 0.500000 0.983624
O O16 0.111917 0.140773 0.685355
O O17 0.137855 0.000000 0.731741
O O18 0.467509 0.232084 0.574292
O O19 0.750000 0.250000 0.500000
#
# Coordination Sequence:
#
# PCOD8116481 Si02
#       8
#     8   8   8   8   8   8   8   8
#     4   9  19  34  58  90 118 151 194 240 291 341
#     4  10  21  36  58  86 115 153 192 239 296 347
#     4   9  18  36  60  85 114 151 193 239 290 349
#     4  11  23  39  58  82 123 155 191 245 289 344
#     4   9  18  34  59  88 116 148 192 244 295 343
#     4   9  17  33  58  89 119 148 191 236 284 355
#     4  11  23  38  56  89 121 153 195 239 292 346
#     4  12  24  39  61  88 111 158 201 239 292 346
#
# _framework density 9.4062319999999993
#
# number of rings (size 3 to 8) (size 9 to 14) (size 15 to 20)
#    0.000    2.000    3.750    1.875    1.750    1.250 
#    0.000    3.125    0.000    3.750    0.000    0.000 
#    0.000    0.000    0.000    0.000    0.000    0.000 
#
# Total GULP energy -396463.198990 kJ/mol
# GULP energy per Si atom -12389.474968 kJ/mol
# Density = 0.938482 g / cm^3
# Si number density = 9.406232 Si / 1000 Ang^3
#
#
#
# Elastic Constant Matrix: (Units=GPa)
#
#
# Indices 1 2 3 4 5 6 
#
# 1 39.1404 32.2347 41.9970 -0.0011 11.0428 0.0013
# 2 32.2347 89.4428 41.3401 -0.0209 5.4808 -0.0114
# 3 41.9970 41.3401 120.3479 -0.0258 19.3730 -0.0104
# 4 -0.0011 -0.0209 -0.0258 37.4567 -0.0055 6.3884
# 5 11.0428 5.4808 19.3730 -0.0055 34.4977 -0.0005
# 6 0.0013 -0.0114 -0.0104 6.3884 -0.0005 27.9951
#
#
#
# Elastic Compliance Matrix: (Units=1/GPa)
#
#
# Indices 1 2 3 4 5 6 
#
# 1 0.051002 -0.012187 -0.012418 -0.000013 -0.007416 -0.000009
# 2 -0.012187 0.016210 -0.001681 0.000007 0.002270 0.000005
# 3 -0.012418 -0.001681 0.013783 0.000007 -0.003498 0.000003
# 4 -0.000013 0.000007 0.000007 0.027779 0.000003 -0.006339
# 5 -0.007416 0.002270 -0.003498 0.000003 0.032965 0.000000
# 6 -0.000009 0.000005 0.000003 -0.006339 0.000000 0.037167
#
#
# Mechanical properties :
#
#
# Convention : Reuss Voigt Hill
#
# Bulk Modulus (GPa) = 35.18110 53.34163 44.26137
# Shear Modulus (GPa) = 20.75095 28.88052 24.81574
#
# Velocity S-wave (km/s) = 3.32481 3.92239 3.63590
# Velocity P-wave (km/s) = 5.78625 6.99496 6.41912
#
# Compressibility (1/GPa) = 0.02842435
#
# Stress axis : x y z
#
# Youngs Moduli (GPa) = 19.60695 61.68930 72.55261
#
# Poissons Ratio (x) = 0.75181 0.90094
# Poissons Ratio (y) = 0.23895 0.12195
# Poissons Ratio (z) = 0.24348 0.10369
#
# Static dielectric constant tensor:
#      x y z
#    x 3.296070 -0.000010 0.127830 
#    y -0.000010 3.471340 -0.000020 
#    z 0.127830 -0.000020 3.540960 
# 
# 
# High freq. dielectric constant tensor:
#      x y z
#    x 1.720540 0.000000 0.014260 
#    y 0.000000 1.730680 0.000000 
#    z 0.014260 0.000000 1.726650 
# 
# From -- ./inp_files/290971.got.cif
#   From: 2010.06.25/outbox.ucp.g09.slc.cvg/sg12_146_cif.got.tgz:290971.got - 2010.06.28 13:50:54.
