data_PCOD8116994
_publ_section_title
;
Structure prediction by ZEFSAII (Michael W. Deem and Ramdas Pophale) SiO2 
 PCOD8116994
Probable space group: P 2/C
;
_chemical_formula_sum "Si O2"
_cell_formula_units_Z 26
_cell_length_a 22.422885
_cell_length_b 12.862235
_cell_length_c 5.352849
_cell_angle_alpha 90.000000
_cell_angle_beta 78.533761
_cell_angle_gamma 90.000000
_cell_volume 1512.995424
_symmetry_space_group_name_H-M "P 2/C"
_symmetry_group_IT_number 13
_symmetry_cell_setting 'monoclinic'
loop_
_space_group_symop_operation_xyz
x,y,z
-x,y,1/2-z
-x,-y,-z
x,-y,1/2+z
loop_
_atom_site_type_symbol
_atom_site_label
_atom_site_fract_x
_atom_site_fract_y
_atom_site_fract_z
Si Si1 0.318322 0.608086 0.403650
Si Si2 0.819624 0.632663 0.995791
Si Si3 0.500000 0.567786 0.750000
Si Si4 0.861592 0.727214 0.469427
Si Si5 0.069609 0.470110 0.570905
Si Si6 0.368077 0.377603 0.362314
Si Si7 0.930006 0.937051 0.314389
O O1 0.246853 0.582061 0.459478
O O2 0.355131 0.500833 0.375984
O O3 0.337383 0.671812 0.638311
O O4 0.338421 0.672232 0.138293
O O5 0.825145 0.693974 0.251984
O O6 0.823889 0.714183 0.759252
O O7 0.868036 0.538046 0.932526
O O8 0.500000 0.500000 0.500000
O O9 0.559474 0.641353 0.700517
O O10 0.919210 0.651782 0.462183
O O11 0.885283 0.842542 0.408391
O O12 0.033293 0.514190 0.360948
O O13 0.000000 0.899673 0.250000
O O14 0.916549 0.017719 0.549956
#
# Coordination Sequence:
#
# PCOD8116994 Si02
#       7
#     4   4   2   4   4   4   4
#     4  10  18  25  36  58  78 115 153 197 236 256
#     4  10  19  28  45  66 101 123 152 185 230 275
#     4  12  16  30  32  50  72 116 162 230 254 254
#     4  10  19  31  48  71  92 122 145 183 236 282
#     4   8  16  25  39  61  89 122 140 170 207 264
#     4  10  19  24  38  50  79 113 165 212 239 257
#     4  10  21  38  59  77  93 114 150 198 235 270
#
# _framework density 17.184453999999999
#
# number of rings (size 3 to 8) (size 9 to 14) (size 15 to 20)
#    0.000    2.154    3.077    1.846   12.923    0.000 
#    0.000    0.000    0.000    8.308    0.000    0.000 
#    0.000    0.000    0.000    0.000    0.000    0.000 
#
# Total GULP energy -322137.205963 kJ/mol
# GULP energy per Si atom -12389.892537 kJ/mol
# Density = 1.714534 g / cm^3
# Si number density = 17.184454 Si / 1000 Ang^3
#
#
#
# Elastic Constant Matrix: (Units=GPa)
#
#
# Indices 1 2 3 4 5 6 
#
# 1 90.4005 13.7147 33.8400 0.0000 -4.4946 0.0000
# 2 13.7147 42.3963 10.6344 0.0000 -0.9442 0.0000
# 3 33.8400 10.6344 154.3088 0.0000 20.7848 0.0000
# 4 0.0000 0.0000 0.0000 16.0931 0.0000 1.7851
# 5 -4.4946 -0.9442 20.7848 0.0000 35.7019 0.0000
# 6 0.0000 0.0000 0.0000 1.7851 0.0000 6.4245
#
#
#
# Elastic Compliance Matrix: (Units=1/GPa)
#
#
# Indices 1 2 3 4 5 6 
#
# 1 0.012868 -0.003327 -0.003037 0.000000 0.003300 0.000000
# 2 -0.003327 0.024962 -0.001110 0.000000 0.000888 0.000000
# 3 -0.003037 -0.001110 0.007898 0.000000 -0.005010 0.000000
# 4 0.000000 0.000000 0.000000 0.064114 0.000000 -0.017814
# 5 0.003300 0.000888 -0.005010 0.000000 0.031365 0.000000
# 6 0.000000 0.000000 0.000000 -0.017814 0.000000 0.160604
#
#
# Mechanical properties :
#
#
# Convention : Reuss Voigt Hill
#
# Bulk Modulus (GPa) = 32.49070 44.83155 38.66113
# Shear Modulus (GPa) = 15.28964 26.90500 21.09732
#
# Velocity S-wave (km/s) = 2.98608 3.96113 3.50765
# Velocity P-wave (km/s) = 5.55311 6.86046 6.24111
#
# Compressibility (1/GPa) = 0.03077803
#
# Stress axis : x y z
#
# Youngs Moduli (GPa) = 77.71444 40.06169 126.61699
#
# Poissons Ratio (x) = 0.13329 0.38455
# Poissons Ratio (y) = 0.25857 0.14056
# Poissons Ratio (z) = 0.23603 0.04447
#
# Static dielectric constant tensor:
#      x y z
#    x 3.317310 0.000000 0.343730 
#    y 0.000000 2.548650 0.000000 
#    z 0.343730 0.000000 4.543150 
# 
# 
# High freq. dielectric constant tensor:
#      x y z
#    x 1.668620 0.000000 0.012170 
#    y 0.000000 1.570630 0.000000 
#    z 0.012170 0.000000 1.717320 
# 
# From -- ./inp_files/6845.got.cif
#   From: 2010.06.25/outbox.cif.g09.slc.cpg/sg13_4_cif.got.tgz:6845.got - 2010.06.28 04:50:58.
