data_PCOD8116267
_publ_section_title
;
Structure prediction by ZEFSAII (Michael W. Deem and Ramdas Pophale) SiO2 
 PCOD8116267
Probable space group: C 2/M
;
_chemical_formula_sum "Si O2"
_cell_formula_units_Z 24
_cell_length_a 15.000000
_cell_length_b 27.000000
_cell_length_c 12.000000
_cell_angle_alpha 90.000000
_cell_angle_beta 30.000000
_cell_angle_gamma 90.000000
_cell_volume 2430.000000
_symmetry_space_group_name_H-M "C 2/M"
_symmetry_group_IT_number 12
_symmetry_cell_setting 'monoclinic'
loop_
_space_group_symop_operation_xyz
x,y,z
-x,y,-z
-x,-y,-z
x,-y,z
1/2+x,1/2+y,z
1/2-x,1/2+y,-z
1/2-x,1/2-y,-z
1/2+x,1/2-y,z
loop_
_atom_site_type_symbol
_atom_site_label
_atom_site_fract_x
_atom_site_fract_y
_atom_site_fract_z
Si Si1 0.500806 0.942038 0.320583
Si Si2 0.804104 0.193286 0.457639
Si Si3 0.898927 0.150668 0.722641
Si Si4 0.505637 0.131916 0.118001
Si Si5 0.156605 0.893260 0.742152
Si Si6 0.101409 0.943182 0.141043
O O1 0.473490 0.915083 0.231894
O O2 0.349509 0.918096 0.567939
O O3 0.460358 0.000000 0.353559
O O4 0.709193 0.933703 0.130579
O O5 0.750000 0.250000 0.500000
O O6 0.656487 0.170428 0.699004
O O7 0.801063 0.162435 0.345487
O O8 0.003549 0.186014 0.292164
O O9 0.910422 0.092245 0.738961
O O10 0.000000 0.161263 0.500000
O O11 0.688031 0.162663 0.945716
O O12 0.500000 0.110059 0.000000
O O13 0.071538 0.930442 0.744064
O O14 0.000000 0.888502 0.000000
O O15 0.092205 0.000000 0.190737
#
# Coordination Sequence:
#
# PCOD8116267 Si02
#       6
#     8   8   8   8   8   8
#     4   9  19  34  52  79 114 148 185 223 266 325
#     4  10  22  39  59  80 108 141 186 238 285 337
#     4  10  19  35  57  83 113 147 179 225 281 333
#     4  10  19  34  57  81 112 146 178 225 282 331
#     4  10  21  37  55  78 110 147 187 233 275 320
#     4   9  19  34  53  81 116 150 184 222 266 324
#
# _framework density 9.8765429999999999
#
# number of rings (size 3 to 8) (size 9 to 14) (size 15 to 20)
#    0.000    2.333    1.667    0.500    0.000    4.000 
#    0.000    1.667    0.000    0.000    0.000    0.000 
#    0.000    0.000    0.000    0.000    0.000    0.000 
#
# Total GULP energy -297321.194565 kJ/mol
# GULP energy per Si atom -12388.383107 kJ/mol
# Density = 0.985406 g / cm^3
# Si number density = 9.876543 Si / 1000 Ang^3
#
#
#
# Elastic Constant Matrix: (Units=GPa)
#
#
# Indices 1 2 3 4 5 6 
#
# 1 14.2862 4.4079 0.4707 0.0015 -17.7819 -0.0009
# 2 4.4079 116.6943 22.4497 0.0012 -4.2502 -0.0001
# 3 0.4707 22.4497 101.5236 0.0094 -13.9415 -0.0025
# 4 0.0015 0.0012 0.0094 24.0599 -0.0024 -7.6782
# 5 -17.7819 -4.2502 -13.9415 -0.0024 42.4408 0.0009
# 6 -0.0009 -0.0001 -0.0025 -7.6782 0.0009 14.7147
#
#
#
# Elastic Compliance Matrix: (Units=1/GPa)
#
#
# Indices 1 2 3 4 5 6 
#
# 1 0.156017 -0.005299 0.009794 -0.000005 0.068055 0.000005
# 2 -0.005299 0.009133 -0.002277 0.000000 -0.002053 0.000000
# 3 0.009794 -0.002277 0.011352 -0.000004 0.007605 0.000000
# 4 -0.000005 0.000000 -0.000004 0.049867 -0.000001 0.026021
# 5 0.068055 -0.002053 0.007605 -0.000001 0.054369 0.000002
# 6 0.000005 0.000000 0.000000 0.026021 0.000002 0.081537
#
#
# Mechanical properties :
#
#
# Convention : Reuss Voigt Hill
#
# Bulk Modulus (GPa) = 5.52674 31.90676 18.71675
# Shear Modulus (GPa) = 11.95741 29.92146 20.93943
#
# Velocity S-wave (km/s) = 2.46304 3.89623 3.25939
# Velocity P-wave (km/s) = 3.30042 6.03562 4.86423
#
# Compressibility (1/GPa) = 0.18093856
#
# Stress axis : x y z
#
# Youngs Moduli (GPa) = 6.40955 109.49546 88.08797
#
# Poissons Ratio (x) = 0.58019 -0.86272
# Poissons Ratio (y) = 0.03396 0.20057
# Poissons Ratio (z) = -0.06277 0.24931
#
# Static dielectric constant tensor:
#      x y z
#    x 3.563650 0.000000 -0.428660 
#    y 0.000000 3.377060 0.000000 
#    z -0.428660 0.000000 4.098720 
# 
# 
# High freq. dielectric constant tensor:
#      x y z
#    x 1.753410 0.000000 -0.028610 
#    y 0.000000 1.750420 0.000000 
#    z -0.028610 0.000000 1.799760 
# 
# From -- ./inp_files/149610.got.cif
#   From: 2010.06.25/outbox.ucp.g09.slc.cvg/sg12_75_cif.got.tgz:149610.got - 2010.06.28 13:50:54.
