data_PCOD8116891
_publ_section_title
;
Structure prediction by ZEFSAII (Michael W. Deem and Ramdas Pophale) SiO2 
 PCOD8116891
Probable space group: P 2/C
;
_chemical_formula_sum "Si O2"
_cell_formula_units_Z 32
_cell_length_a 20.902892
_cell_length_b 11.090701
_cell_length_c 9.248529
_cell_angle_alpha 90.000000
_cell_angle_beta 126.919347
_cell_angle_gamma 90.000000
_cell_volume 1714.141446
_symmetry_space_group_name_H-M "P 2/C"
_symmetry_group_IT_number 13
_symmetry_cell_setting 'monoclinic'
loop_
_space_group_symop_operation_xyz
x,y,z
-x,y,1/2-z
-x,-y,-z
x,-y,1/2+z
loop_
_atom_site_type_symbol
_atom_site_label
_atom_site_fract_x
_atom_site_fract_y
_atom_site_fract_z
Si Si1 0.687223 0.466131 0.725146
Si Si2 0.135843 0.911815 0.571870
Si Si3 0.248559 0.235807 0.537380
Si Si4 0.640251 0.843701 0.820640
Si Si5 0.760140 0.288436 0.296937
Si Si6 0.691352 0.031808 0.683163
Si Si7 0.414642 0.399419 0.185323
Si Si8 0.082295 0.886504 0.801284
O O1 0.735783 0.366424 0.876867
O O2 0.754698 0.567397 0.782530
O O3 0.651109 0.410847 0.530191
O O4 0.613723 0.521781 0.716676
O O5 0.151081 0.768825 0.559244
O O6 0.075293 0.916991 0.623321
O O7 0.222422 0.971152 0.728148
O O8 0.095348 0.981471 0.387102
O O9 0.273294 0.236370 0.402139
O O10 0.302748 0.139239 0.693203
O O11 0.154607 0.205323 0.431843
O O12 0.714002 0.757984 0.876124
O O13 0.571508 0.743130 0.753482
O O14 0.628310 0.936545 0.670282
O O15 0.656795 0.920348 0.986514
O O16 0.500000 0.451007 0.250000
O O17 0.000000 0.829153 0.750000
#
# Coordination Sequence:
#
# PCOD8116891 Si02
#       8
#     4   4   4   4   4   4   4   4
#     4  11  20  37  59  79 108 142 185 229 269 322
#     4   9  17  30  50  76 105 135 177 217 266 314
#     4  10  19  33  55  79 105 143 188 222 268 323
#     4  10  19  32  54  77 109 135 180 222 271 321
#     4   9  18  32  52  80 101 135 182 233 260 308
#     4  10  17  31  53  79 102 139 178 228 262 316
#     4  11  23  38  57  82 111 141 178 229 282 327
#     4  10  19  31  50  77 111 142 173 221 274 322
#
# _framework density 18.668237999999999
#
# number of rings (size 3 to 8) (size 9 to 14) (size 15 to 20)
#    0.000    2.000    2.500    4.500    0.000    0.000 
#    0.000    0.625    0.000    3.750    0.000    0.000 
#    0.000    0.000    0.000    0.000    0.000    0.000 
#
# Total GULP energy -396443.757681 kJ/mol
# GULP energy per Si atom -12388.867428 kJ/mol
# Density = 1.862575 g / cm^3
# Si number density = 18.668238 Si / 1000 Ang^3
#
#
#
# Elastic Constant Matrix: (Units=GPa)
#
#
# Indices 1 2 3 4 5 6 
#
# 1 87.9788 38.6695 19.4958 0.0000 -12.4996 0.0000
# 2 38.6695 115.1817 24.3877 0.0000 -5.3825 0.0000
# 3 19.4958 24.3877 41.4949 0.0000 -12.1597 0.0000
# 4 0.0000 0.0000 0.0000 26.0223 0.0000 -11.3877
# 5 -12.4996 -5.3825 -12.1597 0.0000 26.2116 0.0000
# 6 0.0000 0.0000 0.0000 -11.3877 0.0000 24.6385
#
#
#
# Elastic Compliance Matrix: (Units=1/GPa)
#
#
# Indices 1 2 3 4 5 6 
#
# 1 0.014462 -0.003984 -0.003093 0.000000 0.004644 0.000000
# 2 -0.003984 0.011027 -0.005211 0.000000 -0.002053 0.000000
# 3 -0.003093 -0.005211 0.032254 0.000000 0.012418 0.000000
# 4 0.000000 0.000000 0.000000 0.048172 0.000000 0.022265
# 5 0.004644 -0.002053 0.012418 0.000000 0.045705 0.000000
# 6 0.000000 0.000000 0.000000 0.022265 0.000000 0.050877
#
#
# Mechanical properties :
#
#
# Convention : Reuss Voigt Hill
#
# Bulk Modulus (GPa) = 30.14866 45.52904 37.83885
# Shear Modulus (GPa) = 20.99720 26.18132 23.58926
#
# Velocity S-wave (km/s) = 3.35738 3.74900 3.55858
# Velocity P-wave (km/s) = 5.58695 6.57126 6.09899
#
# Compressibility (1/GPa) = 0.03316897
#
# Stress axis : x y z
#
# Youngs Moduli (GPa) = 69.14472 90.68952 31.00410
#
# Poissons Ratio (x) = 0.36126 0.09589
# Poissons Ratio (y) = 0.27544 0.16155
# Poissons Ratio (z) = 0.21386 0.47254
#
# Static dielectric constant tensor:
#      x y z
#    x 3.536430 0.000000 -0.311600 
#    y 0.000000 3.715990 0.000000 
#    z -0.311600 0.000000 3.187230 
# 
# 
# High freq. dielectric constant tensor:
#      x y z
#    x 1.719680 0.000000 -0.039630 
#    y 0.000000 1.730760 0.000000 
#    z -0.039630 0.000000 1.697860 
# 
# From -- ./inp_files/21584.got.cif
#   From: 2010.06.25/outbox.cif.g09.slc.cpg/sg13_11_cif.got.tgz:21584.got - 2010.06.28 04:50:58.
