data_PCOD8116722
_publ_section_title
;
Structure prediction by ZEFSAII (Michael W. Deem and Ramdas Pophale) SiO2 
 PCOD8116722
Probable space group: P 2/C
;
_chemical_formula_sum "Si O2"
_cell_formula_units_Z 24
_cell_length_a 10.581714
_cell_length_b 8.187053
_cell_length_c 19.607881
_cell_angle_alpha 90.000000
_cell_angle_beta 135.926091
_cell_angle_gamma 90.000000
_cell_volume 1181.584905
_symmetry_space_group_name_H-M "P 2/C"
_symmetry_group_IT_number 13
_symmetry_cell_setting 'monoclinic'
loop_
_space_group_symop_operation_xyz
x,y,z
-x,y,1/2-z
-x,-y,-z
x,-y,1/2+z
loop_
_atom_site_type_symbol
_atom_site_label
_atom_site_fract_x
_atom_site_fract_y
_atom_site_fract_z
Si Si1 0.810393 0.027258 0.077797
Si Si2 0.000000 0.747700 0.750000
Si Si3 0.347818 0.681237 0.052674
Si Si4 0.692068 0.265044 0.609069
Si Si5 0.841304 0.828768 0.308006
Si Si6 0.953936 0.486271 0.630566
Si Si7 0.500000 0.764254 0.250000
O O1 0.679847 0.873920 0.045334
O O2 0.003229 0.963675 0.123383
O O3 0.839005 0.140702 0.156414
O O4 0.718820 0.130936 0.981751
O O5 0.935201 0.632708 0.788773
O O6 0.498962 0.653425 0.052087
O O7 0.436940 0.653384 0.161441
O O8 0.181748 0.556286 0.979801
O O9 0.774748 0.168231 0.704932
O O10 0.831735 0.404607 0.642157
O O11 0.673742 0.871792 0.293539
O O12 0.913394 0.644797 0.353341
#
# Coordination Sequence:
#
# PCOD8116722 Si02
#       7
#     4   2   4   4   4   4   2
#     4  10  18  32  57  86 107 140 173 224 279 321
#     4  10  16  28  52  92 110 122 170 220 276 332
#     4  10  22  33  55  79 110 145 182 220 262 319
#     4  10  17  34  54  87 113 138 163 231 279 330
#     4  10  19  36  59  75 114 146 178 216 269 324
#     4  10  18  32  57  86 107 140 173 224 279 321
#     4  10  24  40  52  72 108 158 190 220 250 308
#
# _framework density 20.311702
#
# number of rings (size 3 to 8) (size 9 to 14) (size 15 to 20)
#    0.000    2.000    3.333    2.000    0.000    1.333 
#    0.000    0.000    0.000    8.000    0.000    0.000 
#    0.000    0.000    0.000    0.000    0.000    0.000 
#
# Total GULP energy -297402.220939 kJ/mol
# GULP energy per Si atom -12391.759206 kJ/mol
# Density = 2.026547 g / cm^3
# Si number density = 20.311702 Si / 1000 Ang^3
#
#
#
# Elastic Constant Matrix: (Units=GPa)
#
#
# Indices 1 2 3 4 5 6 
#
# 1 104.4035 25.2638 32.4975 0.0000 7.8518 0.0000
# 2 25.2638 75.3409 24.0088 0.0000 0.8937 0.0000
# 3 32.4975 24.0088 81.5219 0.0000 1.6043 0.0000
# 4 0.0000 0.0000 0.0000 23.5418 0.0000 3.5531
# 5 7.8518 0.8937 1.6043 0.0000 22.4320 0.0000
# 6 0.0000 0.0000 0.0000 3.5531 0.0000 10.0696
#
#
#
# Elastic Compliance Matrix: (Units=1/GPa)
#
#
# Indices 1 2 3 4 5 6 
#
# 1 0.011685 -0.002663 -0.003801 0.000000 -0.003712 0.000000
# 2 -0.002663 0.015256 -0.003443 0.000000 0.000571 0.000000
# 3 -0.003801 -0.003443 0.014788 0.000000 0.000410 0.000000
# 4 0.000000 0.000000 0.000000 0.044867 0.000000 -0.015831
# 5 -0.003712 0.000571 0.000410 0.000000 0.045826 0.000000
# 6 0.000000 0.000000 0.000000 -0.015831 0.000000 0.104895
#
#
# Mechanical properties :
#
#
# Convention : Reuss Voigt Hill
#
# Bulk Modulus (GPa) = 45.62911 47.20072 46.41491
# Shear Modulus (GPa) = 18.90825 23.17512 21.04168
#
# Velocity S-wave (km/s) = 3.05438 3.38149 3.22209
# Velocity P-wave (km/s) = 5.91204 6.20763 6.06164
#
# Compressibility (1/GPa) = 0.02191583
#
# Stress axis : x y z
#
# Youngs Moduli (GPa) = 85.58105 65.54665 67.62443
#
# Poissons Ratio (x) = 0.17455 0.25702
# Poissons Ratio (y) = 0.22791 0.23281
# Poissons Ratio (z) = 0.32526 0.22566
#
# Static dielectric constant tensor:
#      x y z
#    x 3.531690 0.000000 0.195230 
#    y 0.000000 3.665160 0.000000 
#    z 0.195230 0.000000 3.696570 
# 
# 
# High freq. dielectric constant tensor:
#      x y z
#    x 1.762180 0.000000 0.013580 
#    y 0.000000 1.780930 0.000000 
#    z 0.013580 0.000000 1.791990 
# 
# From -- ./inp_files/52918.got.cif
#   From: 2010.06.25/outbox.cif.g09.slc.cpg/sg13_27_cif.got.tgz:52918.got - 2010.06.28 04:50:58.
