data_PCOD8116378
_publ_section_title
;
Structure prediction by ZEFSAII (Michael W. Deem and Ramdas Pophale) SiO2 
 PCOD8116378
Probable space group: C 2/M
;
_chemical_formula_sum "Si O2"
_cell_formula_units_Z 32
_cell_length_a 24.000000
_cell_length_b 9.000000
_cell_length_c 30.000000
_cell_angle_alpha 90.000000
_cell_angle_beta 30.000000
_cell_angle_gamma 90.000000
_cell_volume 3240.000000
_symmetry_space_group_name_H-M "C 2/M"
_symmetry_group_IT_number 12
_symmetry_cell_setting 'monoclinic'
loop_
_space_group_symop_operation_xyz
x,y,z
-x,y,-z
-x,-y,-z
x,-y,z
1/2+x,1/2+y,z
1/2-x,1/2+y,-z
1/2-x,1/2-y,-z
1/2+x,1/2-y,z
loop_
_atom_site_type_symbol
_atom_site_label
_atom_site_fract_x
_atom_site_fract_y
_atom_site_fract_z
Si Si1 0.758711 0.325960 0.541259
Si Si2 0.186218 0.327747 0.177006
Si Si3 0.415438 0.330335 0.595146
Si Si4 0.889393 0.827455 0.102379
Si Si5 0.319296 0.325092 0.911197
Si Si6 0.579623 0.326293 0.739530
Si Si7 0.485735 0.173106 0.632140
Si Si8 0.160643 0.670736 0.769956
O O1 0.740700 0.500000 0.547088
O O2 0.750000 0.250000 0.500000
O O3 0.666546 0.265953 0.640971
O O4 0.885545 0.287209 0.466668
O O5 0.180022 0.500000 0.167309
O O6 0.283306 0.297341 0.145042
O O7 0.219723 0.235399 0.109803
O O8 0.068471 0.276814 0.282413
O O9 0.500000 0.259218 0.500000
O O10 0.450618 0.500000 0.578785
O O11 0.417293 0.248805 0.640680
O O12 0.289309 0.313034 0.666493
O O13 0.872966 0.741451 0.159850
O O14 0.902205 0.000000 0.105541
O O15 0.000000 0.770771 0.000000
O O16 0.296325 0.500000 0.930618
O O17 0.451245 0.289971 0.818101
O O18 0.250000 0.250000 0.000000
O O19 0.601870 0.500000 0.729805
O O20 0.595369 0.248898 0.775689
O O21 0.463404 0.000000 0.643603
O O22 0.124785 0.500000 0.797242
#
# Coordination Sequence:
#
# PCOD8116378 Si02
#       8
#     8   8   8   8   8   8   8   8
#     4  10  21  37  59  88 118 153 198 245 295 352
#     4  10  21  39  62  90 122 154 196 244 294 354
#     4  10  21  36  54  82 120 158 194 234 287 345
#     4  10  22  40  63  88 119 161 198 238 298 362
#     4  11  25  43  64  88 117 156 199 247 300 352
#     4  10  23  42  61  85 121 162 200 239 296 364
#     4  10  20  35  58  87 116 150 193 240 287 343
#     4  11  23  38  60  91 123 156 199 250 296 343
#
# _framework density 9.8765429999999999
#
# number of rings (size 3 to 8) (size 9 to 14) (size 15 to 20)
#    0.000    1.750    1.250    2.250    1.750    4.000 
#    0.000    0.000    0.000    0.000    0.000    0.000 
#    0.000    0.000    0.000    0.000    0.000    0.000 
#
# Total GULP energy -396675.265404 kJ/mol
# GULP energy per Si atom -12396.102044 kJ/mol
# Density = 0.985406 g / cm^3
# Si number density = 9.876543 Si / 1000 Ang^3
#
#
#
# Elastic Constant Matrix: (Units=GPa)
#
#
# Indices 1 2 3 4 5 6 
#
# 1 97.0773 43.2359 43.1833 0.0080 25.3294 -0.0259
# 2 43.2359 46.4672 43.6060 0.0026 7.0715 0.0099
# 3 43.1833 43.6060 177.2477 0.0014 24.6373 -0.0079
# 4 0.0080 0.0026 0.0014 34.9415 0.0022 9.1072
# 5 25.3294 7.0715 24.6373 0.0022 40.6361 0.0011
# 6 -0.0259 0.0099 -0.0079 9.1072 0.0011 34.0591
#
#
#
# Elastic Compliance Matrix: (Units=1/GPa)
#
#
# Indices 1 2 3 4 5 6 
#
# 1 0.020970 -0.018841 0.000969 -0.000009 -0.010380 0.000024
# 2 -0.018841 0.044931 -0.007654 0.000009 0.008566 -0.000032
# 3 0.000969 -0.007654 0.007849 -0.000001 -0.004031 0.000005
# 4 -0.000009 0.000009 -0.000001 0.030763 0.000003 -0.008226
# 5 -0.010380 0.008566 -0.004031 0.000003 0.032032 -0.000013
# 6 0.000024 -0.000032 0.000005 -0.008226 -0.000013 0.031560
#
#
# Mechanical properties :
#
#
# Convention : Reuss Voigt Hill
#
# Bulk Modulus (GPa) = 44.05846 64.53807 54.29826
# Shear Modulus (GPa) = 22.05329 34.64513 28.34921
#
# Velocity S-wave (km/s) = 3.34495 4.19251 3.79249
# Velocity P-wave (km/s) = 6.10502 7.49530 6.83560
#
# Compressibility (1/GPa) = 0.02269712
#
# Stress axis : x y z
#
# Youngs Moduli (GPa) = 47.68777 22.25636 127.40416
#
# Poissons Ratio (x) = 0.41934 -0.12348
# Poissons Ratio (y) = 0.89850 0.97516
# Poissons Ratio (z) = -0.04622 0.17035
#
# Static dielectric constant tensor:
#      x y z
#    x 3.454780 -0.000030 0.049920 
#    y -0.000030 3.527230 0.000020 
#    z 0.049920 0.000020 4.169130 
# 
# 
# High freq. dielectric constant tensor:
#      x y z
#    x 1.770380 0.000000 0.009020 
#    y 0.000000 1.762140 0.000000 
#    z 0.009020 0.000000 1.808650 
# 
# From -- ./inp_files/382208.got.cif
#   From: 2010.06.25/outbox.ucp.g09.slc.cvg/sg12_192_cif.got.tgz:382208.got - 2010.06.28 13:50:54.
