data_PCOD8116787
_publ_section_title
;
Structure prediction by ZEFSAII (Michael W. Deem and Ramdas Pophale) SiO2 
 PCOD8116787
Probable space group: P 2/C
;
_chemical_formula_sum "Si O2"
_cell_formula_units_Z 22
_cell_length_a 12.244611
_cell_length_b 5.111900
_cell_length_c 20.408752
_cell_angle_alpha 90.000000
_cell_angle_beta 105.767093
_cell_angle_gamma 90.000000
_cell_volume 1229.384600
_symmetry_space_group_name_H-M "P 2/C"
_symmetry_group_IT_number 13
_symmetry_cell_setting 'monoclinic'
loop_
_space_group_symop_operation_xyz
x,y,z
-x,y,1/2-z
-x,-y,-z
x,-y,1/2+z
loop_
_atom_site_type_symbol
_atom_site_label
_atom_site_fract_x
_atom_site_fract_y
_atom_site_fract_z
Si Si1 0.296382 0.592524 0.311993
Si Si2 0.000000 0.690950 0.750000
Si Si3 0.844557 0.075520 0.795264
Si Si4 0.615115 0.083266 0.230274
Si Si5 0.870753 0.540546 0.610320
Si Si6 0.963537 0.053583 0.567247
O O1 0.381089 0.370232 0.300090
O O2 0.252117 0.509819 0.376878
O O3 0.184978 0.644273 0.245738
O O4 0.370113 0.861444 0.324590
O O5 0.106291 0.882900 0.752730
O O6 0.031885 0.512807 0.817742
O O7 0.722415 0.953446 0.797367
O O8 0.923749 0.091647 0.871144
O O9 0.500000 0.039141 0.250000
O O10 0.892770 0.322007 0.558756
O O11 0.880779 0.825740 0.579640
O O12 0.000000 0.000000 0.500000
#
# Coordination Sequence:
#
# PCOD8116787 Si02
#       6
#     4   2   4   4   4   4
#     4  10  18  33  51  78  99 131 165 211 262 298
#     4  10  16  32  50  82 100 132 158 218 254 314
#     4   9  20  31  52  75 108 129 168 199 262 302
#     4  10  20  32  49  79 107 127 162 211 271 307
#     4  11  19  33  50  74 104 134 167 209 249 309
#     4  11  23  33  48  74 109 142 169 199 245 305
#
# _framework density 17.895132
#
# number of rings (size 3 to 8) (size 9 to 14) (size 15 to 20)
#    1.091    0.727    1.818    5.455    2.545    0.727 
#    0.000    0.000    0.000    0.000    0.000    7.636 
#    0.000    0.000    0.000    0.000    0.000    0.000 
#
# Total GULP energy -272578.984483 kJ/mol
# GULP energy per Si atom -12389.953840 kJ/mol
# Density = 1.785440 g / cm^3
# Si number density = 17.895132 Si / 1000 Ang^3
#
#
#
# Elastic Constant Matrix: (Units=GPa)
#
#
# Indices 1 2 3 4 5 6 
#
# 1 107.9667 29.3087 20.5913 0.0000 -26.5998 0.0000
# 2 29.3087 112.9381 19.8725 0.0000 -13.0191 0.0000
# 3 20.5913 19.8725 64.4745 0.0000 -20.0402 0.0000
# 4 0.0000 0.0000 0.0000 21.4308 0.0000 -12.3417
# 5 -26.5998 -13.0191 -20.0402 0.0000 20.3915 0.0000
# 6 0.0000 0.0000 0.0000 -12.3417 0.0000 29.9406
#
#
#
# Elastic Compliance Matrix: (Units=1/GPa)
#
#
# Indices 1 2 3 4 5 6 
#
# 1 0.014105 -0.001799 0.002033 0.000000 0.019248 0.000000
# 2 -0.001799 0.009891 -0.001786 0.000000 0.002212 0.000000
# 3 0.002033 -0.001786 0.022866 0.000000 0.023983 0.000000
# 4 0.000000 0.000000 0.000000 0.061186 0.000000 0.025221
# 5 0.019248 0.002212 0.023983 0.000000 0.099131 0.000000
# 6 0.000000 0.000000 0.000000 0.025221 0.000000 0.043796
#
#
# Mechanical properties :
#
#
# Convention : Reuss Voigt Hill
#
# Bulk Modulus (GPa) = 22.85404 47.21383 35.03393
# Shear Modulus (GPa) = 18.61046 28.72636 23.66841
#
# Velocity S-wave (km/s) = 3.22836 4.01092 3.64073
# Velocity P-wave (km/s) = 5.16674 6.92032 6.10680
#
# Compressibility (1/GPa) = 0.04375594
#
# Stress axis : x y z
#
# Youngs Moduli (GPa) = 70.89623 101.10550 43.73329
#
# Poissons Ratio (x) = 0.18191 -0.08889
# Poissons Ratio (y) = 0.12756 0.07812
# Poissons Ratio (z) = -0.14411 0.18060
#
# Static dielectric constant tensor:
#      x y z
#    x 3.107770 0.000000 -0.216790 
#    y 0.000000 3.520740 0.000000 
#    z -0.216790 0.000000 2.871500 
# 
# 
# High freq. dielectric constant tensor:
#      x y z
#    x 1.676200 0.000000 -0.034390 
#    y 0.000000 1.720020 0.000000 
#    z -0.034390 0.000000 1.634680 
# 
# From -- ./inp_files/76913.got.cif
#   From: 2010.06.25/outbox.cif.g09.slc.cpg/sg13_39_cif.got.tgz:76913.got - 2010.06.28 04:50:58.
