data_PCOD8116410
_publ_section_title
;
Structure prediction by ZEFSAII (Michael W. Deem and Ramdas Pophale) SiO2 
 PCOD8116410
Probable space group: C 2/M
;
_chemical_formula_sum "Si O2"
_cell_formula_units_Z 28
_cell_length_a 12.000000
_cell_length_b 15.000000
_cell_length_c 30.000000
_cell_angle_alpha 90.000000
_cell_angle_beta 30.000000
_cell_angle_gamma 90.000000
_cell_volume 2700.000000
_symmetry_space_group_name_H-M "C 2/M"
_symmetry_group_IT_number 12
_symmetry_cell_setting 'monoclinic'
loop_
_space_group_symop_operation_xyz
x,y,z
-x,y,-z
-x,-y,-z
x,-y,z
1/2+x,1/2+y,z
1/2-x,1/2+y,-z
1/2-x,1/2-y,-z
1/2+x,1/2-y,z
loop_
_atom_site_type_symbol
_atom_site_label
_atom_site_fract_x
_atom_site_fract_y
_atom_site_fract_z
Si Si1 0.296511 0.271712 0.121451
Si Si2 0.650999 0.099917 0.311893
Si Si3 0.541953 0.103128 0.809101
Si Si4 0.669463 0.601548 0.112842
Si Si5 0.596188 0.725081 0.281809
Si Si6 0.181760 0.900200 0.005045
Si Si7 0.693762 0.899486 0.398306
O O1 0.305922 0.177707 0.091736
O O2 0.264075 0.250144 0.184313
O O3 0.528906 0.324887 0.034797
O O4 0.102187 0.340616 0.175877
O O5 0.526738 0.181875 0.330268
O O6 0.591219 0.107125 0.384540
O O7 0.913124 0.113627 0.214035
O O8 0.581590 0.000000 0.318317
O O9 0.778365 0.154058 0.729812
O O10 0.575567 0.000000 0.781626
O O11 0.422531 0.104629 0.898673
O O12 0.747515 0.500000 0.098707
O O13 0.712534 0.620071 0.046196
O O14 0.378662 0.676239 0.338986
O O15 0.077547 0.000000 0.034529
O O16 0.500000 0.878200 0.500000
O O17 0.790716 0.000000 0.372251
#
# Coordination Sequence:
#
# PCOD8116410 Si02
#       7
#     8   8   8   8   8   8   8
#     4  12  21  35  57  83 111 152 195 238 282 335
#     4  10  20  39  61  86 118 151 190 230 282 348
#     4  11  24  38  54  83 117 152 198 249 289 329
#     4  10  20  37  57  80 112 151 197 241 281 338
#     4  12  22  38  62  88 116 152 192 238 286 339
#     4  10  22  39  56  77 114 160 200 239 289 338
#     4  10  22  41  66  92 117 147 183 229 291 355
#
# _framework density 10.370369999999999
#
# number of rings (size 3 to 8) (size 9 to 14) (size 15 to 20)
#    0.000    1.286    4.286    1.286    0.000    6.286 
#    0.000    0.000    0.000    5.571    0.000    0.000 
#    0.000    0.000    0.000    0.000    0.000    0.000 
#
# Total GULP energy -347184.503731 kJ/mol
# GULP energy per Si atom -12399.446562 kJ/mol
# Density = 1.034677 g / cm^3
# Si number density = 10.370370 Si / 1000 Ang^3
#
#
#
# Elastic Constant Matrix: (Units=GPa)
#
#
# Indices 1 2 3 4 5 6 
#
# 1 55.0350 52.9191 -1.6307 0.0191 6.4521 0.0065
# 2 52.9191 200.6053 7.1831 0.1122 -3.9179 -0.0043
# 3 -1.6307 7.1831 32.4227 0.2842 8.2114 -0.0612
# 4 0.0191 0.1122 0.2842 18.6869 -0.1030 5.3222
# 5 6.4521 -3.9179 8.2114 -0.1030 20.9448 -0.0083
# 6 0.0065 -0.0043 -0.0612 5.3222 -0.0083 46.2547
#
#
#
# Elastic Compliance Matrix: (Units=1/GPa)
#
#
# Indices 1 2 3 4 5 6 
#
# 1 0.027090 -0.007603 0.006131 -0.000148 -0.012172 0.000018
# 2 -0.007603 0.007203 -0.003234 0.000043 0.004958 -0.000007
# 3 0.006131 -0.003234 0.036089 -0.000662 -0.016646 0.000120
# 4 -0.000148 0.000043 -0.000662 0.055341 0.000582 -0.006368
# 5 -0.012172 0.004958 -0.016646 0.000582 0.058950 -0.000076
# 6 0.000018 -0.000007 0.000120 -0.006368 -0.000076 0.022352
#
#
# Mechanical properties :
#
#
# Convention : Reuss Voigt Hill
#
# Bulk Modulus (GPa) = 16.40181 45.00066 30.70124
# Shear Modulus (GPa) = 21.11825 32.48338 26.80081
#
# Velocity S-wave (km/s) = 3.19439 3.96177 3.59859
# Velocity P-wave (km/s) = 4.64012 6.53233 5.66578
#
# Compressibility (1/GPa) = 0.06096887
#
# Stress axis : x y z
#
# Youngs Moduli (GPa) = 36.91390 138.82529 27.70920
#
# Poissons Ratio (x) = 1.05555 -0.16988
# Poissons Ratio (y) = 0.28067 0.08962
# Poissons Ratio (z) = -0.22632 0.44900
#
# Static dielectric constant tensor:
#      x y z
#    x 3.567360 0.000050 0.228980 
#    y 0.000050 4.440890 -0.000010 
#    z 0.228980 -0.000010 3.463590 
# 
# 
# High freq. dielectric constant tensor:
#      x y z
#    x 1.798490 0.000000 0.018800 
#    y 0.000000 1.855950 0.000000 
#    z 0.018800 0.000000 1.779150 
# 
# From -- ./inp_files/374213.got.cif
#   From: 2010.06.25/outbox.ucp.g09.slc.cvg/sg12_188_cif.got.tgz:374213.got - 2010.06.28 13:50:54.
