data_PCOD8116314
_publ_section_title
;
Structure prediction by ZEFSAII (Michael W. Deem and Ramdas Pophale) SiO2 
 PCOD8116314
Probable space group: C 2/M
;
_chemical_formula_sum "Si O2"
_cell_formula_units_Z 28
_cell_length_a 27.000000
_cell_length_b 18.000000
_cell_length_c 18.000000
_cell_angle_alpha 90.000000
_cell_angle_beta 160.000000
_cell_angle_gamma 90.000000
_cell_volume 2991.992214
_symmetry_space_group_name_H-M "C 2/M"
_symmetry_group_IT_number 12
_symmetry_cell_setting 'monoclinic'
loop_
_space_group_symop_operation_xyz
x,y,z
-x,y,-z
-x,-y,-z
x,-y,z
1/2+x,1/2+y,z
1/2-x,1/2+y,-z
1/2-x,1/2-y,-z
1/2+x,1/2-y,z
loop_
_atom_site_type_symbol
_atom_site_label
_atom_site_fract_x
_atom_site_fract_y
_atom_site_fract_z
Si Si1 0.839777 0.584059 0.887724
Si Si2 0.127446 0.343123 0.478873
Si Si3 0.853278 0.587113 0.334826
Si Si4 0.329463 0.914968 0.038386
Si Si5 0.176079 0.413704 0.393747
Si Si6 0.327163 0.331445 0.474129
Si Si7 0.622774 0.585043 0.883407
O O1 0.808359 0.500000 0.816231
O O2 0.768996 0.597758 0.869497
O O3 0.774155 0.640070 0.735507
O O4 0.010650 0.597591 0.136089
O O5 0.179297 0.369857 0.633832
O O6 0.200531 0.389572 0.514201
O O7 0.169545 0.257546 0.525083
O O8 0.955426 0.356400 0.233712
O O9 0.866308 0.500000 0.371729
O O10 0.000000 0.613922 0.500000
O O11 0.722241 0.604529 0.094195
O O12 0.203800 0.901397 0.920023
O O13 0.390293 0.000000 0.130536
O O14 0.222892 0.500000 0.451220
O O15 0.270528 0.360936 0.473611
O O16 0.488797 0.360248 0.692230
O O17 0.569846 0.500000 0.814060
#
# Coordination Sequence:
#
# PCOD8116314 Si02
#       7
#     8   8   8   8   8   8   8
#     4   9  19  37  62  84 107 150 204 242 274 337
#     4  11  22  37  58  89 117 148 191 243 297 332
#     4  10  19  37  63  84 107 148 204 243 269 330
#     4   9  18  37  61  83 107 150 205 244 273 328
#     4  10  21  41  67  83 105 152 207 244 272 335
#     4  12  24  36  53  88 128 153 175 233 307 357
#     4  10  21  37  59  84 116 156 195 239 284 336
#
# _framework density 9.3583130000000008
#
# number of rings (size 3 to 8) (size 9 to 14) (size 15 to 20)
#    0.000    1.857    1.429    4.286    0.000    4.571 
#    2.571    4.286    0.000    2.571    0.000    0.000 
#    0.000    0.000    0.000    0.000    0.000    0.000 
#
# Total GULP energy -347189.396312 kJ/mol
# GULP energy per Si atom -12399.621297 kJ/mol
# Density = 0.933701 g / cm^3
# Si number density = 9.358313 Si / 1000 Ang^3
#
#
#
# Elastic Constant Matrix: (Units=GPa)
#
#
# Indices 1 2 3 4 5 6 
#
# 1 158.9633 56.6655 31.3416 0.0000 -4.7250 0.0000
# 2 56.6655 124.0369 32.0017 0.0000 0.2281 0.0000
# 3 31.3416 32.0017 46.6968 0.0000 -0.8644 0.0000
# 4 0.0000 0.0000 0.0000 28.8803 0.0000 1.0243
# 5 -4.7250 0.2281 -0.8644 0.0000 25.0833 0.0000
# 6 0.0000 0.0000 0.0000 1.0243 0.0000 32.3460
#
#
#
# Elastic Compliance Matrix: (Units=1/GPa)
#
#
# Indices 1 2 3 4 5 6 
#
# 1 0.007999 -0.002768 -0.003446 0.000000 0.001413 0.000000
# 2 -0.002768 0.010754 -0.005527 0.000000 -0.000810 0.000000
# 3 -0.003446 -0.005527 0.027522 0.000000 0.000350 0.000000
# 4 0.000000 0.000000 0.000000 0.034665 0.000000 -0.001098
# 5 0.001413 -0.000810 0.000350 0.000000 0.040153 0.000000
# 6 0.000000 0.000000 0.000000 -0.001098 0.000000 0.030950
#
#
# Mechanical properties :
#
#
# Convention : Reuss Voigt Hill
#
# Bulk Modulus (GPa) = 43.87251 63.30164 53.58707
# Shear Modulus (GPa) = 27.30432 31.24113 29.27272
#
# Velocity S-wave (km/s) = 3.82360 4.08997 3.95903
# Velocity P-wave (km/s) = 6.55626 7.49656 7.04212
#
# Compressibility (1/GPa) = 0.02279332
#
# Stress axis : x y z
#
# Youngs Moduli (GPa) = 125.01961 92.98788 36.33507
#
# Poissons Ratio (x) = 0.25737 0.12520
# Poissons Ratio (y) = 0.34603 0.20083
# Poissons Ratio (z) = 0.43076 0.51396
#
# Static dielectric constant tensor:
#      x y z
#    x 3.856530 0.000000 -0.134040 
#    y 0.000000 3.454180 0.000000 
#    z -0.134040 0.000000 3.294640 
# 
# 
# High freq. dielectric constant tensor:
#      x y z
#    x 1.759420 0.000000 -0.011720 
#    y 0.000000 1.725620 0.000000 
#    z -0.011720 0.000000 1.714690 
# 
# From -- ./inp_files/143765.got.cif
#   From: 2010.06.25/outbox.ucp.g09.slc.cvg/sg12_72_cif.got.tgz:143765.got - 2010.06.28 13:50:54.
