data_PCOD8116979
_publ_section_title
;
Structure prediction by ZEFSAII (Michael W. Deem and Ramdas Pophale) SiO2 
 PCOD8116979
Probable space group: P 2/C
;
_chemical_formula_sum "Si O2"
_cell_formula_units_Z 16
_cell_length_a 19.724407
_cell_length_b 7.584657
_cell_length_c 28.569831
_cell_angle_alpha 90.000000
_cell_angle_beta 12.173173
_cell_angle_gamma 90.000000
_cell_volume 901.273197
_symmetry_space_group_name_H-M "P 2/C"
_symmetry_group_IT_number 13
_symmetry_cell_setting 'monoclinic'
loop_
_space_group_symop_operation_xyz
x,y,z
-x,y,1/2-z
-x,-y,-z
x,-y,1/2+z
loop_
_atom_site_type_symbol
_atom_site_label
_atom_site_fract_x
_atom_site_fract_y
_atom_site_fract_z
Si Si1 0.734860 0.176414 0.463796
Si Si2 0.168400 0.686254 0.742540
Si Si3 0.220174 0.005218 0.475802
Si Si4 0.255200 0.308238 0.713069
O O1 0.424075 0.250269 0.647297
O O2 0.916427 0.336730 0.369124
O O3 0.637611 0.026816 0.567664
O O4 0.000000 0.091660 0.250000
O O5 0.162074 0.514355 0.779570
O O6 0.523105 0.721292 0.482236
O O7 0.059837 0.858522 0.845697
O O8 0.500000 0.980434 0.250000
O O9 0.070586 0.198829 0.573320
#
# Coordination Sequence:
#
# PCOD8116979 Si02
#       4
#     4   4   4   4
#     4   8  18  35  54  81 106 133 186 219 248 330
#     4   8  19  35  54  80 105 137 184 221 250 316
#     4  10  21  35  53  83 115 135 174 222 269 319
#     4  10  17  37  59  74 107 147 176 219 267 307
#
# _framework density 17.752663999999999
#
# number of rings (size 3 to 8) (size 9 to 14) (size 15 to 20)
#    1.500    1.500    0.000    0.750    0.000    2.000 
#    4.500    2.500    0.000    0.000    0.000    0.000 
#    0.000    0.000    0.000    0.000    0.000    0.000 
#
# Total GULP energy -198226.023098 kJ/mol
# GULP energy per Si atom -12389.126444 kJ/mol
# Density = 1.771226 g / cm^3
# Si number density = 17.752664 Si / 1000 Ang^3
#
#
#
# Elastic Constant Matrix: (Units=GPa)
#
#
# Indices 1 2 3 4 5 6 
#
# 1 86.8612 13.5305 22.6600 0.0000 4.4600 0.0000
# 2 13.5305 61.5509 22.5329 0.0000 6.9144 0.0000
# 3 22.6600 22.5329 61.5385 0.0000 16.7075 0.0000
# 4 0.0000 0.0000 0.0000 20.6281 0.0000 -4.2823
# 5 4.4600 6.9144 16.7075 0.0000 25.9530 0.0000
# 6 0.0000 0.0000 0.0000 -4.2823 0.0000 19.6951
#
#
#
# Elastic Compliance Matrix: (Units=1/GPa)
#
#
# Indices 1 2 3 4 5 6 
#
# 1 0.012844 -0.001277 -0.004550 0.000000 0.001062 0.000000
# 2 -0.001277 0.018899 -0.006232 0.000000 -0.000804 0.000000
# 3 -0.004550 -0.006232 0.023684 0.000000 -0.012804 0.000000
# 4 0.000000 0.000000 0.000000 0.050769 0.000000 0.011039
# 5 0.001062 -0.000804 -0.012804 0.000000 0.046806 0.000000
# 6 0.000000 0.000000 0.000000 0.011039 0.000000 0.053174
#
#
# Mechanical properties :
#
#
# Convention : Reuss Voigt Hill
#
# Bulk Modulus (GPa) = 31.93974 36.37749 34.15861
# Shear Modulus (GPa) = 20.77017 23.33707 22.05362
#
# Velocity S-wave (km/s) = 3.42420 3.62963 3.52841
# Velocity P-wave (km/s) = 5.80208 6.17263 5.99022
#
# Compressibility (1/GPa) = 0.03130896
#
# Stress axis : x y z
#
# Youngs Moduli (GPa) = 77.85698 52.91278 42.22329
#
# Poissons Ratio (x) = 0.06757 0.19213
# Poissons Ratio (y) = 0.09942 0.26312
# Poissons Ratio (z) = 0.35427 0.32973
#
# Static dielectric constant tensor:
#      x y z
#    x 3.156230 0.000000 -0.012990 
#    y 0.000000 3.063690 0.000000 
#    z -0.012990 0.000000 3.054470 
# 
# 
# High freq. dielectric constant tensor:
#      x y z
#    x 1.671100 0.000000 0.000250 
#    y 0.000000 1.667720 0.000000 
#    z 0.000250 0.000000 1.672130 
# 
# From -- ./inp_files/31538.got.cif
#   From: 2010.06.25/outbox.cif.g09.slc.cpg/sg13_16_cif.got.tgz:31538.got - 2010.06.28 04:50:58.
