data_PCOD8116691
_publ_section_title
;
Structure prediction by ZEFSAII (Michael W. Deem and Ramdas Pophale) SiO2 
 PCOD8116691
Probable space group: P 2/C
;
_chemical_formula_sum "Si O2"
_cell_formula_units_Z 32
_cell_length_a 5.318391
_cell_length_b 18.010084
_cell_length_c 18.464174
_cell_angle_alpha 90.000000
_cell_angle_beta 89.798934
_cell_angle_gamma 90.000000
_cell_volume 1768.573899
_symmetry_space_group_name_H-M "P 2/C"
_symmetry_group_IT_number 13
_symmetry_cell_setting 'monoclinic'
loop_
_space_group_symop_operation_xyz
x,y,z
-x,y,1/2-z
-x,-y,-z
x,-y,1/2+z
loop_
_atom_site_type_symbol
_atom_site_label
_atom_site_fract_x
_atom_site_fract_y
_atom_site_fract_z
Si Si1 0.724219 0.045830 0.579852
Si Si2 0.249475 0.853143 0.296566
Si Si3 0.756440 0.358021 0.889198
Si Si4 0.256498 0.293485 0.880884
Si Si5 0.249256 0.510013 0.545782
Si Si6 0.774722 0.095098 0.997393
Si Si7 0.747131 0.322058 0.446774
Si Si8 0.752542 0.265027 0.037405
O O1 0.754154 0.066358 0.664549
O O2 0.445581 0.072282 0.557531
O O3 0.947114 0.085928 0.535341
O O4 0.748873 0.957045 0.568781
O O5 0.500000 0.843400 0.250000
O O6 0.250705 0.793259 0.361669
O O7 0.000000 0.843010 0.250000
O O8 0.508703 0.330104 0.846597
O O9 0.751295 0.447432 0.892209
O O10 0.008724 0.332468 0.846924
O O11 0.760157 0.320548 0.968757
O O12 0.260091 0.308146 0.966640
O O13 0.500000 0.500000 0.500000
O O14 0.246848 0.592509 0.578123
O O15 0.000000 0.500000 0.500000
O O16 0.736628 0.180089 0.015840
O O17 0.494329 0.284819 0.414756
O O18 0.996152 0.281155 0.415814
#
# Coordination Sequence:
#
# PCOD8116691 Si02
#       8
#     4   4   4   4   4   4   4   4
#     4  10  20  35  51  73  95 123 169 205 261 306
#     4  12  24  37  52  71  99 136 175 219 250 300
#     4  10  17  26  44  62  93 127 156 199 228 296
#     4  10  18  30  43  61  83 122 166 195 242 274
#     4  12  16  27  38  65  95 129 168 179 229 273
#     4  10  19  32  54  73  95 126 161 214 252 320
#     4  10  18  26  42  63  93 129 155 194 227 296
#     4  10  16  25  38  62  87 118 154 183 241 277
#
# _framework density 18.093674
#
# number of rings (size 3 to 8) (size 9 to 14) (size 15 to 20)
#    0.000    1.500    5.000    5.250    0.000    0.000 
#    0.000    0.000    0.000    0.000    0.000    0.000 
#    0.000    0.000    0.000   38.250    0.000    0.750 
#
# Total GULP energy -396518.155792 kJ/mol
# GULP energy per Si atom -12391.192369 kJ/mol
# Density = 1.805249 g / cm^3
# Si number density = 18.093674 Si / 1000 Ang^3
#
#
#
# Elastic Constant Matrix: (Units=GPa)
#
#
# Indices 1 2 3 4 5 6 
#
# 1 164.7054 10.0859 8.5990 0.0000 1.0428 0.0000
# 2 10.0859 84.7614 24.7935 0.0000 -0.5015 0.0000
# 3 8.5990 24.7935 28.3253 0.0000 1.3071 0.0000
# 4 0.0000 0.0000 0.0000 14.5772 0.0000 0.2453
# 5 1.0428 -0.5015 1.3071 0.0000 12.5041 0.0000
# 6 0.0000 0.0000 0.0000 0.2453 0.0000 31.2368
#
#
#
# Elastic Compliance Matrix: (Units=1/GPa)
#
#
# Indices 1 2 3 4 5 6 
#
# 1 0.006175 -0.000260 -0.001631 0.000000 -0.000355 0.000000
# 2 -0.000260 0.015924 -0.013957 0.000000 0.002119 0.000000
# 3 -0.001631 -0.013957 0.048269 0.000000 -0.005469 0.000000
# 4 0.000000 0.000000 0.000000 0.068610 0.000000 -0.000539
# 5 -0.000355 0.002119 -0.005469 0.000000 0.080660 0.000000
# 6 0.000000 0.000000 0.000000 -0.000539 0.000000 0.032018
#
#
# Mechanical properties :
#
#
# Convention : Reuss Voigt Hill
#
# Bulk Modulus (GPa) = 25.85883 40.52765 33.19324
# Shear Modulus (GPa) = 16.87813 27.28452 22.08133
#
# Velocity S-wave (km/s) = 3.05752 3.88746 3.49720
# Velocity P-wave (km/s) = 5.17564 6.52665 5.89001
#
# Compressibility (1/GPa) = 0.03867151
#
# Stress axis : x y z
#
# Youngs Moduli (GPa) = 161.95007 62.79851 20.71738
#
# Poissons Ratio (x) = 0.01632 0.03378
# Poissons Ratio (y) = 0.04208 0.28916
# Poissons Ratio (z) = 0.26409 0.87650
#
# Static dielectric constant tensor:
#      x y z
#    x 5.282000 0.000000 0.010240 
#    y 0.000000 3.620360 0.000000 
#    z 0.010240 0.000000 2.641490 
# 
# 
# High freq. dielectric constant tensor:
#      x y z
#    x 1.750600 0.000000 0.000390 
#    y 0.000000 1.709400 0.000000 
#    z 0.000390 0.000000 1.599930 
# 
# From -- ./inp_files/61616.got.cif
#   From: 2010.06.25/outbox.cif.g09.slc.cpg/sg13_31_cif.got.tgz:61616.got - 2010.06.28 04:50:58.
