data_PCOD8116952
_publ_section_title
;
Structure prediction by ZEFSAII (Michael W. Deem and Ramdas Pophale) SiO2 
 PCOD8116952
Probable space group: P 2/C
;
_chemical_formula_sum "Si O2"
_cell_formula_units_Z 32
_cell_length_a 12.934855
_cell_length_b 9.313872
_cell_length_c 24.028380
_cell_angle_alpha 90.000000
_cell_angle_beta 31.828309
_cell_angle_gamma 90.000000
_cell_volume 1526.639150
_symmetry_space_group_name_H-M "P 2/C"
_symmetry_group_IT_number 13
_symmetry_cell_setting 'monoclinic'
loop_
_space_group_symop_operation_xyz
x,y,z
-x,y,1/2-z
-x,-y,-z
x,-y,1/2+z
loop_
_atom_site_type_symbol
_atom_site_label
_atom_site_fract_x
_atom_site_fract_y
_atom_site_fract_z
Si Si1 0.454700 0.651336 0.549984
Si Si2 0.254954 0.858900 0.015538
Si Si3 0.572942 0.576552 0.158411
Si Si4 0.224086 0.497818 0.744148
Si Si5 0.108586 0.207405 0.756304
Si Si6 0.470479 0.891887 0.464228
Si Si7 0.004644 0.382719 0.046591
Si Si8 0.679336 0.250153 0.134549
O O1 0.500000 0.500000 0.500000
O O2 0.639080 0.737350 0.493535
O O3 0.294874 0.627630 0.671765
O O4 0.374941 0.748380 0.535225
O O5 0.281971 0.835485 0.938465
O O6 0.325537 0.023846 0.989513
O O7 0.022561 0.853218 0.133309
O O8 0.500000 0.645109 0.250000
O O9 0.407286 0.588047 0.187336
O O10 0.618882 0.410319 0.145922
O O11 0.767759 0.660977 0.048208
O O12 0.113815 0.380458 0.757382
O O13 0.080979 0.557490 0.856724
O O14 0.324497 0.139812 0.660444
O O15 0.000000 0.160337 0.750000
O O16 0.500000 0.000000 0.500000
O O17 0.871939 0.250035 0.086252
O O18 0.000000 0.500000 0.000000
O O19 0.500000 0.177101 0.250000
#
# Coordination Sequence:
#
# PCOD8116952 Si02
#       8
#     4   4   4   4   4   4   4   4
#     4  11  20  37  58  90 131 162 208 266 318 375
#     4  11  22  38  70  90 123 173 217 259 326 398
#     4  10  18  31  51  88 136 163 201 258 323 381
#     4  12  21  33  62  94 136 170 204 272 333 381
#     4  12  22  39  65  93 125 174 224 260 325 394
#     4  10  22  40  63  84 124 171 218 266 313 387
#     4  10  18  31  52  88 134 162 205 255 325 392
#     4  10  17  34  59  94 120 167 210 263 316 391
#
# _framework density 20.961075999999998
#
# number of rings (size 3 to 8) (size 9 to 14) (size 15 to 20)
#    0.000    1.250    8.750    1.500    0.000    0.000 
#    0.000    0.000   27.500    1.500    0.000    0.000 
#    0.000    0.000    0.000    0.000    0.000    0.000 
#
# Total GULP energy -396563.241526 kJ/mol
# GULP energy per Si atom -12392.601298 kJ/mol
# Density = 2.091337 g / cm^3
# Si number density = 20.961076 Si / 1000 Ang^3
#
#
#
# Elastic Constant Matrix: (Units=GPa)
#
#
# Indices 1 2 3 4 5 6 
#
# 1 53.4923 24.1060 50.7509 0.0000 2.2364 0.0000
# 2 24.1060 90.7785 50.4254 0.0000 7.9423 0.0000
# 3 50.7509 50.4254 205.4410 0.0000 12.7619 0.0000
# 4 0.0000 0.0000 0.0000 21.7843 0.0000 3.8693
# 5 2.2364 7.9423 12.7619 0.0000 34.9103 0.0000
# 6 0.0000 0.0000 0.0000 3.8693 0.0000 26.0942
#
#
#
# Elastic Compliance Matrix: (Units=1/GPa)
#
#
# Indices 1 2 3 4 5 6 
#
# 1 0.025546 -0.003871 -0.005437 0.000000 0.001232 0.000000
# 2 -0.003871 0.013453 -0.002221 0.000000 -0.002001 0.000000
# 3 -0.005437 -0.002221 0.006859 0.000000 -0.001654 0.000000
# 4 0.000000 0.000000 0.000000 0.047146 0.000000 -0.006991
# 5 0.001232 -0.002001 -0.001654 0.000000 0.029626 0.000000
# 6 0.000000 0.000000 0.000000 -0.006991 0.000000 0.039359
#
#
# Mechanical properties :
#
#
# Convention : Reuss Voigt Hill
#
# Bulk Modulus (GPa) = 43.86366 66.69737 55.28052
# Shear Modulus (GPa) = 25.95425 31.51973 28.73699
#
# Velocity S-wave (km/s) = 3.52264 3.88200 3.70668
# Velocity P-wave (km/s) = 6.12511 7.20985 6.68950
#
# Compressibility (1/GPa) = 0.02279791
#
# Stress axis : x y z
#
# Youngs Moduli (GPa) = 39.14561 74.33413 145.80124
#
# Poissons Ratio (x) = 0.28776 0.79272
# Poissons Ratio (y) = 0.15154 0.32388
# Poissons Ratio (z) = 0.21283 0.16512
#
# Static dielectric constant tensor:
#      x y z
#    x 4.572530 0.000000 -0.167630 
#    y 0.000000 4.429860 0.000000 
#    z -0.167630 0.000000 4.418650 
# 
# 
# High freq. dielectric constant tensor:
#      x y z
#    x 1.811680 0.000000 0.012350 
#    y 0.000000 1.776930 0.000000 
#    z 0.012350 0.000000 1.841790 
# 
# From -- ./inp_files/92832.got.cif
#   From: 2010.06.25/outbox.cif.g09.slc.cpg/sg13_47_cif.got.tgz:92832.got - 2010.06.28 04:50:58.
