data_PCOD8116082
_publ_section_title
;
Structure prediction by ZEFSAII (Michael W. Deem and Ramdas Pophale) SiO2 
 PCOD8116082
Probable space group: C 2/M
;
_chemical_formula_sum "Si O2"
_cell_formula_units_Z 64
_cell_length_a 14.001756
_cell_length_b 9.612969
_cell_length_c 28.767305
_cell_angle_alpha 90.000000
_cell_angle_beta 102.647472
_cell_angle_gamma 90.000000
_cell_volume 3778.082297
_symmetry_space_group_name_H-M "C 2/M"
_symmetry_group_IT_number 12
_symmetry_cell_setting 'monoclinic'
loop_
_space_group_symop_operation_xyz
x,y,z
-x,y,-z
-x,-y,-z
x,-y,z
1/2+x,1/2+y,z
1/2-x,1/2+y,-z
1/2-x,1/2-y,-z
1/2+x,1/2-y,z
loop_
_atom_site_type_symbol
_atom_site_label
_atom_site_fract_x
_atom_site_fract_y
_atom_site_fract_z
Si Si1 0.659969 0.335151 0.302349
Si Si2 0.037805 0.162116 0.375635
Si Si3 0.705380 0.339014 0.115734
Si Si4 0.953729 0.339313 0.946771
Si Si5 0.410836 0.337880 0.804663
Si Si6 0.070791 0.660722 0.867301
Si Si7 0.271796 0.341582 0.546531
Si Si8 0.152304 0.662210 0.625018
O O1 0.663206 0.500000 0.305051
O O2 0.577298 0.284782 0.329802
O O3 0.634855 0.281295 0.248188
O O4 0.767336 0.282522 0.329165
O O5 0.120060 0.190278 0.423023
O O6 0.944544 0.250444 0.378953
O O7 0.009603 0.000000 0.370801
O O8 0.693087 0.500000 0.100906
O O9 0.643320 0.249986 0.072526
O O10 0.669151 0.309566 0.164103
O O11 0.817257 0.290994 0.123949
O O12 0.922102 0.500000 0.945626
O O13 0.034176 0.312652 0.915662
O O14 0.000000 0.289175 0.000000
O O15 0.438531 0.500000 0.804446
O O16 0.509590 0.252982 0.824764
O O17 0.058880 0.500000 0.851613
O O18 0.264209 0.500000 0.529537
O O19 0.250000 0.250000 0.500000
O O20 0.192334 0.310477 0.577725
O O21 0.129131 0.500000 0.630314
#
# Coordination Sequence:
#
# PCOD8116082 Si02
#       8
#     8   8   8   8   8   8   8   8
#     4   8  16  32  50  67  93 125 153 185 228 277
#     4   9  18  33  50  69  94 123 154 190 231 273
#     4   9  18  31  47  68  93 120 151 189 231 272
#     4   9  18  32  48  66  91 123 155 188 230 277
#     4   9  17  31  50  69  90 121 157 187 223 276
#     4   9  18  32  47  67  96 122 149 192 236 271
#     4   9  19  34  50  69  96 127 157 191 233 278
#     4   9  18  33  51  71  95 124 157 193 232 274
#
# _framework density 16.939812
#
# number of rings (size 3 to 8) (size 9 to 14) (size 15 to 20)
#    0.000    3.125    0.000    1.500    0.000    3.750 
#    0.000    6.875    0.000    0.000    0.000    0.000 
#    0.000    0.000    0.000    0.000    0.000    0.000 
#
# Total GULP energy -396783.635633 kJ/mol
# GULP energy per Si atom -12399.488614 kJ/mol
# Density = 1.690126 g / cm^3
# Si number density = 16.939812 Si / 1000 Ang^3
#
#
#
# Elastic Constant Matrix: (Units=GPa)
#
#
# Indices 1 2 3 4 5 6 
#
# 1 148.1544 62.8338 60.3751 0.0000 8.6835 0.0000
# 2 62.8338 61.0854 55.8955 0.0000 7.4010 0.0000
# 3 60.3751 55.8955 135.6865 0.0000 14.1089 0.0000
# 4 0.0000 0.0000 0.0000 26.2045 0.0000 4.3849
# 5 8.6835 7.4010 14.1089 0.0000 12.7210 0.0000
# 6 0.0000 0.0000 0.0000 4.3849 0.0000 33.0019
#
#
#
# Elastic Compliance Matrix: (Units=1/GPa)
#
#
# Indices 1 2 3 4 5 6 
#
# 1 0.011996 -0.011928 -0.000332 0.000000 -0.000880 0.000000
# 2 -0.011928 0.038292 -0.010170 0.000000 -0.002857 0.000000
# 3 -0.000332 -0.010170 0.012511 0.000000 -0.007733 0.000000
# 4 0.000000 0.000000 0.000000 0.039029 0.000000 -0.005186
# 5 -0.000880 -0.002857 -0.007733 0.000000 0.089449 0.000000
# 6 0.000000 0.000000 0.000000 -0.005186 0.000000 0.030990
#
#
# Mechanical properties :
#
#
# Convention : Reuss Voigt Hill
#
# Bulk Modulus (GPa) = 55.74623 78.12614 66.93619
# Shear Modulus (GPa) = 18.30784 25.44026 21.87405
#
# Velocity S-wave (km/s) = 3.29106 3.87951 3.59734
# Velocity P-wave (km/s) = 6.88631 8.14171 7.54018
#
# Compressibility (1/GPa) = 0.01793843
#
# Stress axis : x y z
#
# Youngs Moduli (GPa) = 83.36378 26.11520 79.92894
#
# Poissons Ratio (x) = 0.31151 0.02656
# Poissons Ratio (y) = 0.99439 0.81284
# Poissons Ratio (z) = 0.02770 0.26558
#
# Static dielectric constant tensor:
#      x y z
#    x 3.158840 0.000000 0.027300 
#    y 0.000000 3.020150 0.000000 
#    z 0.027300 0.000000 3.315060 
# 
# 
# High freq. dielectric constant tensor:
#      x y z
#    x 1.654960 0.000000 0.000880 
#    y 0.000000 1.639430 0.000000 
#    z 0.000880 0.000000 1.656320 
# 
# From -- ./inp_files/359867.got.cif
#   From: 2010.06.25/outbox.cif.g09.slc.cpg/sg12_180_cif.got.tgz:359867.got - 2010.06.28 00:19:55.
