data_PCOD8116041
_publ_section_title
;
Structure prediction by ZEFSAII (Michael W. Deem and Ramdas Pophale) SiO2 
 PCOD8116041
Probable space group: C 2/M
;
_chemical_formula_sum "Si O2"
_cell_formula_units_Z 64
_cell_length_a 18.998160
_cell_length_b 9.531761
_cell_length_c 21.151078
_cell_angle_alpha 90.000000
_cell_angle_beta 90.228956
_cell_angle_gamma 90.000000
_cell_volume 3830.131850
_symmetry_space_group_name_H-M "C 2/M"
_symmetry_group_IT_number 12
_symmetry_cell_setting 'monoclinic'
loop_
_space_group_symop_operation_xyz
x,y,z
-x,y,-z
-x,-y,-z
x,-y,z
1/2+x,1/2+y,z
1/2-x,1/2+y,-z
1/2-x,1/2-y,-z
1/2+x,1/2-y,z
loop_
_atom_site_type_symbol
_atom_site_label
_atom_site_fract_x
_atom_site_fract_y
_atom_site_fract_z
Si Si1 0.115135 0.663419 0.096917
Si Si2 0.842760 0.836617 0.376408
Si Si3 0.921497 0.664162 0.484836
Si Si4 0.861559 0.338057 0.042841
Si Si5 0.231448 0.838410 0.871458
Si Si6 0.124094 0.164050 0.764477
Si Si7 0.972985 0.662065 0.151519
Si Si8 0.212627 0.658590 0.448921
O O1 0.098899 0.500000 0.089000
O O2 0.185907 0.693342 0.136734
O O3 0.049993 0.726029 0.136320
O O4 0.120264 0.725336 0.025982
O O5 0.889322 0.747657 0.425515
O O6 0.861020 0.784983 0.306376
O O7 0.757165 0.814215 0.384571
O O8 0.861958 0.000000 0.385763
O O9 0.924307 0.500000 0.466802
O O10 0.871789 0.689875 0.547661
O O11 0.000000 0.720071 0.500000
O O12 0.838414 0.500000 0.038011
O O13 0.796036 0.252798 0.070317
O O14 0.928581 0.317742 0.087700
O O15 0.192999 0.798833 0.806079
O O16 0.218592 0.000000 0.889357
O O17 0.057530 0.248732 0.790598
O O18 0.106524 0.000000 0.767503
O O19 0.974633 0.500000 0.172939
O O20 0.224089 0.500000 0.470647
O O21 0.250000 0.750000 0.500000
#
# Coordination Sequence:
#
# PCOD8116041 Si02
#       8
#     8   8   8   8   8   8   8   8
#     4   9  16  27  44  65  86 110 143 183 226 269
#     4   9  17  30  48  65  84 118 156 179 203 251
#     4   9  17  29  46  72 101 118 134 173 222 255
#     4   9  16  27  44  64  86 112 143 180 222 269
#     4   9  17  29  44  62  86 113 143 182 222 259
#     4   9  18  32  46  61  84 115 150 184 215 250
#     4   9  17  29  45  64  86 114 147 181 220 267
#     4   8  14  26  44  65  88 114 143 172 204 244
#
# _framework density 16.709607999999999
#
# number of rings (size 3 to 8) (size 9 to 14) (size 15 to 20)
#    0.000    3.125    0.000    0.750    0.000    2.250 
#    0.000    2.500    0.000    7.500    0.000    0.000 
#    0.000    0.000    0.000    0.000    0.000    0.000 
#
# Total GULP energy -396492.580069 kJ/mol
# GULP energy per Si atom -12390.393127 kJ/mol
# Density = 1.667158 g / cm^3
# Si number density = 16.709608 Si / 1000 Ang^3
#
#
#
# Elastic Constant Matrix: (Units=GPa)
#
#
# Indices 1 2 3 4 5 6 
#
# 1 144.0181 38.3327 67.6801 0.0000 -22.6529 0.0000
# 2 38.3327 38.0827 34.7003 0.0000 -8.6149 0.0000
# 3 67.6801 34.7003 112.5155 0.0000 -22.1368 0.0000
# 4 0.0000 0.0000 0.0000 21.5223 0.0000 -3.4316
# 5 -22.6529 -8.6149 -22.1368 0.0000 20.7858 0.0000
# 6 0.0000 0.0000 0.0000 -3.4316 0.0000 20.4379
#
#
#
# Elastic Compliance Matrix: (Units=1/GPa)
#
#
# Indices 1 2 3 4 5 6 
#
# 1 0.011357 -0.006869 -0.003590 0.000000 0.005706 0.000000
# 2 -0.006869 0.040938 -0.008385 0.000000 0.000551 0.000000
# 3 -0.003590 -0.008385 0.015408 0.000000 0.009022 0.000000
# 4 0.000000 0.000000 0.000000 0.047742 0.000000 0.008016
# 5 0.005706 0.000551 0.009022 0.000000 0.064165 0.000000
# 6 0.000000 0.000000 0.000000 0.008016 0.000000 0.050275
#
#
# Mechanical properties :
#
#
# Convention : Reuss Voigt Hill
#
# Bulk Modulus (GPa) = 33.31772 64.00472 48.66122
# Shear Modulus (GPa) = 18.01301 22.80940 20.41120
#
# Velocity S-wave (km/s) = 3.28686 3.69866 3.49882
# Velocity P-wave (km/s) = 5.86405 7.52512 6.74591
#
# Compressibility (1/GPa) = 0.03001406
#
# Stress axis : x y z
#
# Youngs Moduli (GPa) = 88.05490 24.42727 64.90085
#
# Poissons Ratio (x) = 0.16779 0.23300
# Poissons Ratio (y) = 0.60485 0.54420
# Poissons Ratio (z) = 0.31612 0.20483
#
# Static dielectric constant tensor:
#      x y z
#    x 3.399610 0.000000 -0.465280 
#    y 0.000000 3.110970 0.000000 
#    z -0.465280 0.000000 2.913990 
# 
# 
# High freq. dielectric constant tensor:
#      x y z
#    x 1.649720 0.000000 -0.017210 
#    y 0.000000 1.629590 0.000000 
#    z -0.017210 0.000000 1.622650 
# 
# From -- ./inp_files/341980.got.cif
#   From: 2010.06.25/outbox.cif.g09.slc.cpg/sg12_171_cif.got.tgz:341980.got - 2010.06.28 00:19:55.
