data_PCOD8116921
_publ_section_title
;
Structure prediction by ZEFSAII (Michael W. Deem and Ramdas Pophale) SiO2 
 PCOD8116921
Probable space group: P 2/C
;
_chemical_formula_sum "Si O2"
_cell_formula_units_Z 22
_cell_length_a 8.158950
_cell_length_b 10.045445
_cell_length_c 14.031512
_cell_angle_alpha 90.000000
_cell_angle_beta 101.325578
_cell_angle_gamma 90.000000
_cell_volume 1127.632331
_symmetry_space_group_name_H-M "P 2/C"
_symmetry_group_IT_number 13
_symmetry_cell_setting 'monoclinic'
loop_
_space_group_symop_operation_xyz
x,y,z
-x,y,1/2-z
-x,-y,-z
x,-y,1/2+z
loop_
_atom_site_type_symbol
_atom_site_label
_atom_site_fract_x
_atom_site_fract_y
_atom_site_fract_z
Si Si1 0.411958 0.315765 0.002039
Si Si2 0.141847 0.135531 0.893375
Si Si3 0.376905 0.085924 0.422549
Si Si4 0.415038 0.453320 0.643889
Si Si5 0.784974 0.791749 0.314956
Si Si6 0.500000 0.979009 0.250000
O O1 0.255243 0.216429 0.980854
O O2 0.442708 0.380702 0.902693
O O3 0.589224 0.240529 0.047890
O O4 0.354794 0.420800 0.075705
O O5 0.183672 0.195114 0.794009
O O6 0.946413 0.156952 0.892340
O O7 0.189634 0.977740 0.911333
O O8 0.412283 0.074085 0.314676
O O9 0.500000 0.000000 0.500000
O O10 0.500000 0.504854 0.750000
O O11 0.259993 0.357264 0.654973
O O12 0.628655 0.885375 0.323497
#
# Coordination Sequence:
#
# PCOD8116921 Si02
#       6
#     4   4   4   4   4   2
#     4  10  21  35  54  83 109 144 189 231 273 335
#     4   9  18  33  55  83 110 143 184 233 280 326
#     4   9  18  34  52  78 109 136 181 232 278 331
#     4  11  20  35  57  79 109 151 190 221 271 342
#     4  10  17  32  58  80 109 148 184 224 277 343
#     4  10  18  32  54  80 104 146 182 228 290 328
#
# _framework density 19.509903999999999
#
# number of rings (size 3 to 8) (size 9 to 14) (size 15 to 20)
#    0.000    2.182    2.727    2.182    1.273    0.727 
#    0.000    8.182    0.000    0.000    9.455    0.000 
#    0.000    0.000    0.000    0.000    0.000    0.000 
#
# Total GULP energy -272554.351119 kJ/mol
# GULP energy per Si atom -12388.834142 kJ/mol
# Density = 1.946550 g / cm^3
# Si number density = 19.509904 Si / 1000 Ang^3
#
#
#
# Elastic Constant Matrix: (Units=GPa)
#
#
# Indices 1 2 3 4 5 6 
#
# 1 90.4531 27.9689 21.5185 0.0000 25.2477 0.0000
# 2 27.9689 80.1866 31.3400 0.0000 8.9325 0.0000
# 3 21.5185 31.3400 74.6487 0.0000 2.7913 0.0000
# 4 0.0000 0.0000 0.0000 25.6477 0.0000 -3.0734
# 5 25.2477 8.9325 2.7913 0.0000 25.7493 0.0000
# 6 0.0000 0.0000 0.0000 -3.0734 0.0000 24.8422
#
#
#
# Elastic Compliance Matrix: (Units=1/GPa)
#
#
# Indices 1 2 3 4 5 6 
#
# 1 0.016980 -0.003029 -0.003052 0.000000 -0.015267 0.000000
# 2 -0.003029 0.016001 -0.005771 0.000000 -0.001955 0.000000
# 3 -0.003052 -0.005771 0.016579 0.000000 0.003197 0.000000
# 4 0.000000 0.000000 0.000000 0.039577 0.000000 0.004896
# 5 -0.015267 -0.001955 0.003197 0.000000 0.054137 0.000000
# 6 0.000000 0.000000 0.000000 0.004896 0.000000 0.040860
#
#
# Mechanical properties :
#
#
# Convention : Reuss Voigt Hill
#
# Bulk Modulus (GPa) = 38.67730 45.21592 41.94661
# Shear Modulus (GPa) = 23.09930 26.21191 24.65561
#
# Velocity S-wave (km/s) = 3.44463 3.66938 3.55878
# Velocity P-wave (km/s) = 5.97395 6.41706 6.19947
#
# Compressibility (1/GPa) = 0.02585496
#
# Stress axis : x y z
#
# Youngs Moduli (GPa) = 58.89444 62.49655 60.31585
#
# Poissons Ratio (x) = 0.18929 0.18409
# Poissons Ratio (y) = 0.17838 0.34811
# Poissons Ratio (z) = 0.17975 0.36070
#
# Static dielectric constant tensor:
#      x y z
#    x 3.580230 0.000000 0.146790 
#    y 0.000000 3.655120 0.000000 
#    z 0.146790 0.000000 3.618790 
# 
# 
# High freq. dielectric constant tensor:
#      x y z
#    x 1.732300 0.000000 -0.000550 
#    y 0.000000 1.743510 0.000000 
#    z -0.000550 0.000000 1.767770 
# 
# From -- ./inp_files/45948.got.cif
#   From: 2010.06.25/outbox.cif.g09.slc.cpg/sg13_23_cif.got.tgz:45948.got - 2010.06.28 04:50:58.
