data_PCOD8116700
_publ_section_title
;
Structure prediction by ZEFSAII (Michael W. Deem and Ramdas Pophale) SiO2 
 PCOD8116700
Probable space group: P 2/C
;
_chemical_formula_sum "Si O2"
_cell_formula_units_Z 20
_cell_length_a 26.403491
_cell_length_b 7.176444
_cell_length_c 5.267997
_cell_angle_alpha 90.000000
_cell_angle_beta 113.652670
_cell_angle_gamma 90.000000
_cell_volume 914.342590
_symmetry_space_group_name_H-M "P 2/C"
_symmetry_group_IT_number 13
_symmetry_cell_setting 'monoclinic'
loop_
_space_group_symop_operation_xyz
x,y,z
-x,y,1/2-z
-x,-y,-z
x,-y,1/2+z
loop_
_atom_site_type_symbol
_atom_site_label
_atom_site_fract_x
_atom_site_fract_y
_atom_site_fract_z
Si Si1 0.321403 0.781601 0.886587
Si Si2 0.558575 0.883392 0.416909
Si Si3 0.162541 0.620995 0.065847
Si Si4 0.274377 0.202765 0.792035
Si Si5 0.063178 0.883565 0.890013
O O1 0.296855 0.686581 0.584692
O O2 0.298926 0.994961 0.841014
O O3 0.387709 0.757704 0.021394
O O4 0.297771 0.686571 0.093182
O O5 0.500000 0.775434 0.250000
O O6 0.560695 0.951155 0.712566
O O7 0.171321 0.502037 0.335427
O O8 0.207606 0.789086 0.155145
O O9 0.101196 0.703673 0.937536
O O10 0.000000 0.814472 0.750000
O O11 0.076083 0.024834 0.687424
#
# Coordination Sequence:
#
# PCOD8116700 Si02
#       5
#     4   4   4   4   4
#     4  10  17  32  50  81 103 148 189 234 293 334
#     4  10  16  25  41  70 114 139 171 233 304 350
#     4  12  26  41  59  90 124 159 197 241 296 348
#     4  10  20  31  52  73 110 143 188 229 275 347
#     4  10  23  43  68  94 119 153 201 245 288 347
#
# _framework density 21.873639000000001
#
# number of rings (size 3 to 8) (size 9 to 14) (size 15 to 20)
#    0.000    1.600    4.000    2.400    5.600    0.800 
#    0.000    0.000    0.000    0.000    0.000    0.000 
#    0.000   27.200    0.000    0.000    0.000    0.000 
#
# Total GULP energy -247831.398150 kJ/mol
# GULP energy per Si atom -12391.569908 kJ/mol
# Density = 2.182385 g / cm^3
# Si number density = 21.873639 Si / 1000 Ang^3
#
#
#
# Elastic Constant Matrix: (Units=GPa)
#
#
# Indices 1 2 3 4 5 6 
#
# 1 160.4981 28.9386 74.5338 0.0000 4.8741 0.0000
# 2 28.9386 32.4310 11.1819 0.0000 13.5692 0.0000
# 3 74.5338 11.1819 146.0095 0.0000 -16.2708 0.0000
# 4 0.0000 0.0000 0.0000 9.3156 0.0000 2.7972
# 5 4.8741 13.5692 -16.2708 0.0000 64.6532 0.0000
# 6 0.0000 0.0000 0.0000 2.7972 0.0000 12.4489
#
#
#
# Elastic Compliance Matrix: (Units=1/GPa)
#
#
# Indices 1 2 3 4 5 6 
#
# 1 0.009500 -0.006807 -0.004371 0.000000 -0.000388 0.000000
# 2 -0.006807 0.040488 -0.000530 0.000000 -0.008118 0.000000
# 3 -0.004371 -0.000530 0.009435 0.000000 0.002815 0.000000
# 4 0.000000 0.000000 0.000000 0.115113 0.000000 -0.025865
# 5 -0.000388 -0.008118 0.002815 0.000000 0.017909 0.000000
# 6 0.000000 0.000000 0.000000 -0.025865 0.000000 0.086140
#
#
# Mechanical properties :
#
#
# Convention : Reuss Voigt Hill
#
# Bulk Modulus (GPa) = 27.77416 63.13859 45.45637
# Shear Modulus (GPa) = 15.92337 32.23583 24.07960
#
# Velocity S-wave (km/s) = 2.70102 3.84308 3.32151
# Velocity P-wave (km/s) = 4.73840 6.97282 5.96124
#
# Compressibility (1/GPa) = 0.03600469
#
# Stress axis : x y z
#
# Youngs Moduli (GPa) = 105.26612 24.69846 105.99307
#
# Poissons Ratio (x) = 0.16813 0.46332
# Poissons Ratio (y) = 0.71659 0.05621
# Poissons Ratio (z) = 0.46014 0.01310
#
# Static dielectric constant tensor:
#      x y z
#    x 4.924380 0.000000 -0.919780 
#    y 0.000000 3.139490 0.000000 
#    z -0.919780 0.000000 5.688470 
# 
# 
# High freq. dielectric constant tensor:
#      x y z
#    x 1.889100 0.000000 -0.011170 
#    y 0.000000 1.789190 0.000000 
#    z -0.011170 0.000000 1.894580 
# 
# From -- ./inp_files/7721.got.cif
#   From: 2010.06.25/outbox.cif.g09.slc.cpg/sg13_4_cif.got.tgz:7721.got - 2010.06.28 04:50:58.
