data_PCOD8116424
_publ_section_title
;
Structure prediction by ZEFSAII (Michael W. Deem and Ramdas Pophale) SiO2 
 PCOD8116424
Probable space group: C 2/M
;
_chemical_formula_sum "Si O2"
_cell_formula_units_Z 32
_cell_length_a 18.000000
_cell_length_b 9.000000
_cell_length_c 30.000000
_cell_angle_alpha 90.000000
_cell_angle_beta 40.000000
_cell_angle_gamma 90.000000
_cell_volume 3123.947783
_symmetry_space_group_name_H-M "C 2/M"
_symmetry_group_IT_number 12
_symmetry_cell_setting 'monoclinic'
loop_
_space_group_symop_operation_xyz
x,y,z
-x,y,-z
-x,-y,-z
x,-y,z
1/2+x,1/2+y,z
1/2-x,1/2+y,-z
1/2-x,1/2-y,-z
1/2+x,1/2-y,z
loop_
_atom_site_type_symbol
_atom_site_label
_atom_site_fract_x
_atom_site_fract_y
_atom_site_fract_z
Si Si1 0.554929 0.830644 0.286209
Si Si2 0.634901 0.669866 0.068196
Si Si3 0.593444 0.176113 0.844550
Si Si4 0.627799 0.174413 0.559935
Si Si5 0.834889 0.168749 0.845183
Si Si6 0.720910 0.826475 0.293375
Si Si7 0.459770 0.675039 0.568244
Si Si8 0.619003 0.674352 0.922036
O O1 0.426967 0.801321 0.365454
O O2 0.577576 0.726323 0.233274
O O3 0.642895 0.797654 0.285851
O O4 0.568200 0.000000 0.263745
O O5 0.636207 0.500000 0.049914
O O6 0.534753 0.761528 0.090515
O O7 0.605195 0.672843 0.134286
O O8 0.750000 0.750000 0.000000
O O9 0.656756 0.247649 0.772608
O O10 0.652875 0.231447 0.862635
O O11 0.594940 0.000000 0.839496
O O12 0.750000 0.250000 0.500000
O O13 0.552952 0.253414 0.557260
O O14 0.634750 0.000000 0.546007
O O15 0.725264 0.277318 0.904165
O O16 0.797617 0.000000 0.850469
O O17 0.663837 0.750281 0.363226
O O18 0.739333 0.000000 0.294611
O O19 0.500000 0.712022 0.500000
O O20 0.450481 0.500000 0.580904
O O21 0.620003 0.500000 0.910537
O O22 0.500000 0.722884 0.000000
#
# Coordination Sequence:
#
# PCOD8116424 Si02
#       8
#     8   8   8   8   8   8   8   8
#     4   9  19  36  60  87 118 155 194 240 295 351
#     4  11  25  44  62  85 119 158 199 244 301 360
#     4  12  24  39  62  89 118 156 200 245 296 352
#     4  10  21  38  61  89 121 160 200 245 296 350
#     4  11  23  38  60  88 117 151 195 244 294 354
#     4  10  20  37  62  90 121 157 198 245 296 351
#     4  10  21  38  61  90 124 161 201 244 293 351
#     4  11  23  38  60  88 118 153 193 242 295 348
#
# _framework density 10.243449
#
# number of rings (size 3 to 8) (size 9 to 14) (size 15 to 20)
#    0.000    1.500    1.250    4.875    0.000    8.500 
#    2.250    0.000    0.000    0.000    0.000    0.000 
#    0.000    0.000    0.000    0.000    0.000    0.000 
#
# Total GULP energy -396762.792185 kJ/mol
# GULP energy per Si atom -12398.837256 kJ/mol
# Density = 1.022013 g / cm^3
# Si number density = 10.243449 Si / 1000 Ang^3
#
#
#
# Elastic Constant Matrix: (Units=GPa)
#
#
# Indices 1 2 3 4 5 6 
#
# 1 26.4003 21.0335 13.7090 -0.0001 4.8561 -0.0005
# 2 21.0335 150.7607 63.1655 -0.0002 10.2969 -0.0007
# 3 13.7090 63.1655 137.5694 -0.0001 3.7749 -0.0001
# 4 -0.0001 -0.0002 -0.0001 45.9747 0.0001 -0.9319
# 5 4.8561 10.2969 3.7749 0.0001 33.4129 0.0000
# 6 -0.0005 -0.0007 -0.0001 -0.9319 0.0000 29.7100
#
#
#
# Elastic Compliance Matrix: (Units=1/GPa)
#
#
# Indices 1 2 3 4 5 6 
#
# 1 0.043692 -0.004965 -0.001948 0.000000 -0.004600 0.000001
# 2 -0.004965 0.008929 -0.003560 0.000000 -0.001628 0.000000
# 3 -0.001948 -0.003560 0.009088 0.000000 0.000353 0.000000
# 4 0.000000 0.000000 0.000000 0.021765 0.000000 0.000683
# 5 -0.004600 -0.001628 0.000353 0.000000 0.031059 0.000000
# 6 0.000001 0.000000 0.000000 0.000683 0.000000 0.033680
#
#
# Mechanical properties :
#
#
# Convention : Reuss Voigt Hill
#
# Bulk Modulus (GPa) = 24.53276 56.72737 40.63006
# Shear Modulus (GPa) = 27.36031 36.27435 31.81733
#
# Velocity S-wave (km/s) = 3.65842 4.21243 3.94516
# Velocity P-wave (km/s) = 5.46317 7.17001 6.37398
#
# Compressibility (1/GPa) = 0.04076182
#
# Stress axis : x y z
#
# Youngs Moduli (GPa) = 22.88750 112.00024 110.03398
#
# Poissons Ratio (x) = 0.55613 0.21433
# Poissons Ratio (y) = 0.11365 0.39173
# Poissons Ratio (z) = 0.04458 0.39873
#
# Static dielectric constant tensor:
#      x y z
#    x 5.899050 0.000340 0.912870 
#    y 0.000340 3.890670 0.000130 
#    z 0.912870 0.000130 4.376200 
# 
# 
# High freq. dielectric constant tensor:
#      x y z
#    x 1.771000 0.000000 0.004020 
#    y 0.000000 1.816710 0.000000 
#    z 0.004020 0.000000 1.823600 
# 
# From -- ./inp_files/378221.got.cif
#   From: 2010.06.25/outbox.ucp.g09.slc.cvg/sg12_190_cif.got.tgz:378221.got - 2010.06.28 13:50:54.
