data_PCOD8116542
_publ_section_title
;
Structure prediction by ZEFSAII (Michael W. Deem and Ramdas Pophale) SiO2 
 PCOD8116542
Probable space group: C 2/M
;
_chemical_formula_sum "Si O2"
_cell_formula_units_Z 28
_cell_length_a 18.000000
_cell_length_b 9.000000
_cell_length_c 24.000000
_cell_angle_alpha 90.000000
_cell_angle_beta 50.000000
_cell_angle_gamma 90.000000
_cell_volume 2978.380795
_symmetry_space_group_name_H-M "C 2/M"
_symmetry_group_IT_number 12
_symmetry_cell_setting 'monoclinic'
loop_
_space_group_symop_operation_xyz
x,y,z
-x,y,-z
-x,-y,-z
x,-y,z
1/2+x,1/2+y,z
1/2-x,1/2+y,-z
1/2-x,1/2-y,-z
1/2+x,1/2-y,z
loop_
_atom_site_type_symbol
_atom_site_label
_atom_site_fract_x
_atom_site_fract_y
_atom_site_fract_z
Si Si1 0.029135 0.180052 0.354169
Si Si2 0.846068 0.822501 0.930213
Si Si3 0.631373 0.832233 0.769417
Si Si4 0.165501 0.678069 0.503578
Si Si5 0.817223 0.324911 0.637194
Si Si6 0.946485 0.674372 0.780281
Si Si7 0.497183 0.828226 0.934927
O O1 0.108648 0.229969 0.361204
O O2 0.050229 0.245195 0.281849
O O3 0.930390 0.247572 0.425572
O O4 0.024781 0.000000 0.352867
O O5 0.867328 0.753429 0.858604
O O6 0.924628 0.782930 0.939383
O O7 0.837428 0.000000 0.928471
O O8 0.750000 0.750000 0.000000
O O9 0.711974 0.713431 0.712874
O O10 0.546756 0.808598 0.765100
O O11 0.597194 0.807685 0.850776
O O12 0.672416 0.000000 0.744320
O O13 0.163583 0.500000 0.513101
O O14 0.250000 0.750000 0.500000
O O15 0.176175 0.715923 0.432160
O O16 0.837590 0.500000 0.635316
O O17 0.920437 0.500000 0.784384
O O18 0.463066 0.000000 0.945026
O O19 0.500000 0.787874 0.000000
#
# Coordination Sequence:
#
# PCOD8116542 Si02
#       7
#     8   8   8   8   8   8   8
#     4  12  25  40  61  89 120 154 193 240 295 348
#     4  11  22  37  58  85 119 156 198 244 292 348
#     4   9  19  36  59  85 113 149 192 240 293 348
#     4  11  24  42  64  89 118 155 198 240 287 345
#     4  11  24  40  59  85 119 156 194 240 290 342
#     4  10  21  40  63  86 116 153 195 242 293 350
#     4   9  19  37  59  83 115 154 196 243 295 349
#
# _framework density 9.4010809999999996
#
# number of rings (size 3 to 8) (size 9 to 14) (size 15 to 20)
#    0.000    1.571    0.000    6.000    0.000   10.571 
#    0.000    4.286    0.000    0.000    0.000    0.000 
#    0.000    0.000    0.000    0.000    0.000    0.000 
#
# Total GULP energy -346998.440783 kJ/mol
# GULP energy per Si atom -12392.801457 kJ/mol
# Density = 0.937968 g / cm^3
# Si number density = 9.401081 Si / 1000 Ang^3
#
#
#
# Elastic Constant Matrix: (Units=GPa)
#
#
# Indices 1 2 3 4 5 6 
#
# 1 109.6287 52.1990 71.2651 0.0000 22.9768 0.0001
# 2 52.1990 165.7491 75.8210 0.0000 7.4874 0.0001
# 3 71.2651 75.8210 193.1368 0.0000 24.6169 0.0000
# 4 0.0000 0.0000 0.0000 45.6548 0.0000 2.4374
# 5 22.9768 7.4874 24.6169 0.0000 48.9130 0.0000
# 6 0.0001 0.0001 0.0000 2.4374 0.0000 40.3038
#
#
#
# Elastic Compliance Matrix: (Units=1/GPa)
#
#
# Indices 1 2 3 4 5 6 
#
# 1 0.013412 -0.002456 -0.003451 0.000000 -0.004188 0.000000
# 2 -0.002456 0.007809 -0.002302 0.000000 0.001117 0.000000
# 3 -0.003451 -0.002302 0.007590 0.000000 -0.001846 0.000000
# 4 0.000000 0.000000 0.000000 0.021974 0.000000 -0.001329
# 5 -0.004188 0.001117 -0.001846 0.000000 0.023170 0.000000
# 6 0.000000 0.000000 0.000000 -0.001329 0.000000 0.024892
#
#
# Mechanical properties :
#
#
# Convention : Reuss Voigt Hill
#
# Bulk Modulus (GPa) = 80.68627 96.34277 88.51452
# Shear Modulus (GPa) = 41.87726 44.92294 43.40010
#
# Velocity S-wave (km/s) = 4.72450 4.89329 4.80964
# Velocity P-wave (km/s) = 8.53040 9.12564 8.83303
#
# Compressibility (1/GPa) = 0.01239368
#
# Stress axis : x y z
#
# Youngs Moduli (GPa) = 74.55934 128.05420 131.75187
#
# Poissons Ratio (x) = 0.31451 0.45467
# Poissons Ratio (y) = 0.18312 0.30327
# Poissons Ratio (z) = 0.25730 0.29475
#
# Static dielectric constant tensor:
#      x y z
#    x 3.704210 0.000000 0.198030 
#    y 0.000000 3.816470 0.000000 
#    z 0.198030 0.000000 4.050780 
# 
# 
# High freq. dielectric constant tensor:
#      x y z
#    x 1.740770 0.000000 0.017550 
#    y 0.000000 1.758460 0.000000 
#    z 0.017550 0.000000 1.771030 
# 
# From -- ./inp_files/342323.got.cif
#   From: 2010.06.25/outbox.ucp.g09.slc.cvg/sg12_172_cif.got.tgz:342323.got - 2010.06.28 13:50:54.
