data_PCOD8116901
_publ_section_title
;
Structure prediction by ZEFSAII (Michael W. Deem and Ramdas Pophale) SiO2 
 PCOD8116901
Probable space group: P 2/C
;
_chemical_formula_sum "Si O2"
_cell_formula_units_Z 32
_cell_length_a 11.963611
_cell_length_b 8.996964
_cell_length_c 20.031434
_cell_angle_alpha 90.000000
_cell_angle_beta 52.034559
_cell_angle_gamma 90.000000
_cell_volume 1699.835846
_symmetry_space_group_name_H-M "P 2/C"
_symmetry_group_IT_number 13
_symmetry_cell_setting 'monoclinic'
loop_
_space_group_symop_operation_xyz
x,y,z
-x,y,1/2-z
-x,-y,-z
x,-y,1/2+z
loop_
_atom_site_type_symbol
_atom_site_label
_atom_site_fract_x
_atom_site_fract_y
_atom_site_fract_z
Si Si1 0.859499 0.021636 0.897380
Si Si2 0.833976 0.728456 0.309322
Si Si3 0.132557 0.154697 0.836924
Si Si4 0.372810 0.068450 0.843600
Si Si5 0.292679 0.207823 0.439699
Si Si6 0.016298 0.327221 0.497461
Si Si7 0.648338 0.548305 0.476423
Si Si8 0.229988 0.251852 0.006268
O O1 0.800660 0.113533 0.856620
O O2 0.030824 0.034822 0.837004
O O3 0.803080 0.088745 0.986990
O O4 0.799112 0.853226 0.918324
O O5 0.783799 0.751320 0.251183
O O6 0.746559 0.600315 0.378898
O O7 0.000000 0.685378 0.250000
O O8 0.233676 0.065060 0.848647
O O9 0.037546 0.275281 0.910345
O O10 0.500000 0.123410 0.750000
O O11 0.351208 0.186218 0.912061
O O12 0.401673 0.898550 0.858740
O O13 0.372442 0.321504 0.460558
O O14 0.184419 0.291675 0.429113
O O15 0.922398 0.253584 0.474186
O O16 0.000000 0.500000 0.500000
O O17 0.500000 0.500000 0.500000
O O18 0.722470 0.411865 0.486265
#
# Coordination Sequence:
#
# PCOD8116901 Si02
#       8
#     4   4   4   4   4   4   4   4
#     4   8  16  34  58  80 102 138 185 236 270 328
#     4   9  19  37  60  79 112 151 190 231 285 330
#     4   9  18  33  57  82 109 141 184 234 289 323
#     4  10  21  36  56  80 110 146 186 237 276 333
#     4   9  18  37  56  80 107 141 186 226 282 329
#     4  10  17  31  61  86 107 138 182 235 279 335
#     4  11  23  38  57  83 118 158 187 225 278 352
#     4  10  20  35  58  86 108 142 195 228 280 335
#
# _framework density 18.825348000000002
#
# number of rings (size 3 to 8) (size 9 to 14) (size 15 to 20)
#    0.000    2.500    1.250    1.500    1.750    3.000 
#    2.250    5.625    0.000    0.000    0.000    0.000 
#    0.000    0.000    0.000    0.000    0.000    0.000 
#
# Total GULP energy -396541.223806 kJ/mol
# GULP energy per Si atom -12391.913244 kJ/mol
# Density = 1.878250 g / cm^3
# Si number density = 18.825348 Si / 1000 Ang^3
#
#
#
# Elastic Constant Matrix: (Units=GPa)
#
#
# Indices 1 2 3 4 5 6 
#
# 1 65.4001 21.5573 20.8910 0.0000 6.8561 0.0000
# 2 21.5573 102.0675 42.7307 0.0000 8.3503 0.0000
# 3 20.8910 42.7307 90.4340 0.0000 5.8830 0.0000
# 4 0.0000 0.0000 0.0000 26.8073 0.0000 3.6311
# 5 6.8561 8.3503 5.8830 0.0000 21.9154 0.0000
# 6 0.0000 0.0000 0.0000 3.6311 0.0000 23.3161
#
#
#
# Elastic Compliance Matrix: (Units=1/GPa)
#
#
# Indices 1 2 3 4 5 6 
#
# 1 0.017283 -0.002205 -0.002701 0.000000 -0.003842 0.000000
# 2 -0.002205 0.012714 -0.005321 0.000000 -0.002726 0.000000
# 3 -0.002701 -0.005321 0.014258 0.000000 -0.000955 0.000000
# 4 0.000000 0.000000 0.000000 0.038107 0.000000 -0.005935
# 5 -0.003842 -0.002726 -0.000955 0.000000 0.048127 0.000000
# 6 0.000000 0.000000 0.000000 -0.005935 0.000000 0.043813
#
#
# Mechanical properties :
#
#
# Convention : Reuss Voigt Hill
#
# Bulk Modulus (GPa) = 42.01424 47.58438 44.79931
# Shear Modulus (GPa) = 24.66846 25.92260 25.29553
#
# Velocity S-wave (km/s) = 3.62385 3.71483 3.66962
# Velocity P-wave (km/s) = 6.31475 6.61298 6.46559
#
# Compressibility (1/GPa) = 0.02380146
#
# Stress axis : x y z
#
# Youngs Moduli (GPa) = 57.86103 78.65532 70.13724
#
# Poissons Ratio (x) = 0.17346 0.18941
# Poissons Ratio (y) = 0.12760 0.37317
# Poissons Ratio (z) = 0.15625 0.41849
#
# Static dielectric constant tensor:
#      x y z
#    x 3.562630 0.000000 0.115560 
#    y 0.000000 3.507750 0.000000 
#    z 0.115560 0.000000 3.525000 
# 
# 
# High freq. dielectric constant tensor:
#      x y z
#    x 1.719820 0.000000 0.010820 
#    y 0.000000 1.726110 0.000000 
#    z 0.010820 0.000000 1.716670 
# 
# From -- ./inp_files/78052.got.cif
#   From: 2010.06.25/outbox.cif.g09.slc.cpg/sg13_40_cif.got.tgz:78052.got - 2010.06.28 04:50:58.
