data_PCOD8116801
_publ_section_title
;
Structure prediction by ZEFSAII (Michael W. Deem and Ramdas Pophale) SiO2 
 PCOD8116801
Probable space group: P 2/C
;
_chemical_formula_sum "Si O2"
_cell_formula_units_Z 22
_cell_length_a 13.332892
_cell_length_b 15.596752
_cell_length_c 11.545200
_cell_angle_alpha 90.000000
_cell_angle_beta 149.988238
_cell_angle_gamma 90.000000
_cell_volume 1200.837872
_symmetry_space_group_name_H-M "P 2/C"
_symmetry_group_IT_number 13
_symmetry_cell_setting 'monoclinic'
loop_
_space_group_symop_operation_xyz
x,y,z
-x,y,1/2-z
-x,-y,-z
x,-y,1/2+z
loop_
_atom_site_type_symbol
_atom_site_label
_atom_site_fract_x
_atom_site_fract_y
_atom_site_fract_z
Si Si1 0.500000 0.982645 0.750000
Si Si2 0.836249 0.899815 0.229460
Si Si3 0.500000 0.517357 0.750000
Si Si4 0.000000 0.250000 0.750000
Si Si5 0.836244 0.600185 0.943032
Si Si6 0.121536 0.939541 0.973481
Si Si7 0.121533 0.439541 0.269589
O O1 0.383617 0.928443 0.534605
O O2 0.348110 0.043523 0.664612
O O3 0.856910 0.885029 0.387944
O O4 0.866804 0.808954 0.199417
O O5 0.007050 0.969335 0.371052
O O6 0.616378 0.571559 0.767364
O O7 0.348106 0.456479 0.531606
O O8 0.866803 0.308954 0.534190
O O9 0.856907 0.614972 0.825872
O O10 0.007041 0.530663 0.143036
O O11 0.000000 0.888245 0.750000
O O12 0.000000 0.388245 0.250000
#
# Coordination Sequence:
#
# PCOD8116801 Si02
#       7
#     2   4   2   2   4   4   4
#     4  10  16  33  56  82 105 138 186 222 268 319
#     4  10  20  33  53  81 112 139 178 224 273 326
#     4  10  16  33  56  82 105 138 186 222 268 319
#     4  12  20  38  50  84 110 142 176 228 288 308
#     4  10  20  33  53  81 112 139 178 224 273 326
#     4   9  18  35  55  79 106 143 183 219 264 329
#     4   9  18  35  55  79 106 143 183 219 264 329
#
# _framework density 18.320540000000001
#
# number of rings (size 3 to 8) (size 9 to 14) (size 15 to 20)
#    0.000    2.182    5.455    1.091    0.000    0.727 
#    0.000    0.909    0.000    0.000    0.000    0.000 
#    0.000    0.000    0.000    0.000    0.000    0.000 
#
# Total GULP energy -272540.442521 kJ/mol
# GULP energy per Si atom -12388.201933 kJ/mol
# Density = 1.827884 g / cm^3
# Si number density = 18.320540 Si / 1000 Ang^3
#
#
#
# Elastic Constant Matrix: (Units=GPa)
#
#
# Indices 1 2 3 4 5 6 
#
# 1 179.7706 43.2907 74.7620 0.0000 -25.0885 0.0000
# 2 43.2907 57.9800 29.1804 0.0000 -7.2601 0.0000
# 3 74.7620 29.1804 128.4412 0.0000 -1.3220 0.0000
# 4 0.0000 0.0000 0.0000 7.4972 0.0000 -8.3603
# 5 -25.0885 -7.2601 -1.3220 0.0000 40.3571 0.0000
# 6 0.0000 0.0000 0.0000 -8.3603 0.0000 23.7434
#
#
#
# Elastic Compliance Matrix: (Units=1/GPa)
#
#
# Indices 1 2 3 4 5 6 
#
# 1 0.008941 -0.003942 -0.004260 0.000000 0.004710 0.000000
# 2 -0.003942 0.021678 -0.002617 0.000000 0.001364 0.000000
# 3 -0.004260 -0.002617 0.010831 0.000000 -0.002764 0.000000
# 4 0.000000 0.000000 0.000000 0.219613 0.000000 0.077328
# 5 0.004710 0.001364 -0.002764 0.000000 0.027861 0.000000
# 6 0.000000 0.000000 0.000000 0.077328 0.000000 0.069345
#
#
# Mechanical properties :
#
#
# Convention : Reuss Voigt Hill
#
# Bulk Modulus (GPa) = 50.47149 73.40644 61.93896
# Shear Modulus (GPa) = 12.93624 28.91678 20.92651
#
# Velocity S-wave (km/s) = 2.66015 3.97719 3.38338
# Velocity P-wave (km/s) = 6.08639 7.82596 7.01034
#
# Compressibility (1/GPa) = 0.01981317
#
# Stress axis : x y z
#
# Youngs Moduli (GPa) = 111.84619 46.12945 92.32414
#
# Poissons Ratio (x) = 0.18184 0.39332
# Poissons Ratio (y) = 0.44088 0.24157
# Poissons Ratio (z) = 0.47649 0.12070
#
# Static dielectric constant tensor:
#      x y z
#    x 3.982760 0.000000 -0.252500 
#    y 0.000000 2.835910 0.000000 
#    z -0.252500 0.000000 3.492020 
# 
# 
# High freq. dielectric constant tensor:
#      x y z
#    x 1.736560 0.000000 -0.008230 
#    y 0.000000 1.648580 0.000000 
#    z -0.008230 0.000000 1.720570 
# 
# From -- ./inp_files/34640.got.cif
#   From: 2010.06.25/outbox.cif.g09.slc.cpg/sg13_18_cif.got.tgz:34640.got - 2010.06.28 04:50:58.
