data_PCOD8116815
_publ_section_title
;
Structure prediction by ZEFSAII (Michael W. Deem and Ramdas Pophale) SiO2 
 PCOD8116815
Probable space group: P 2/C
;
_chemical_formula_sum "Si O2"
_cell_formula_units_Z 28
_cell_length_a 13.478311
_cell_length_b 12.972072
_cell_length_c 13.495776
_cell_angle_alpha 90.000000
_cell_angle_beta 31.467764
_cell_angle_gamma 90.000000
_cell_volume 1231.767669
_symmetry_space_group_name_H-M "P 2/C"
_symmetry_group_IT_number 13
_symmetry_cell_setting 'monoclinic'
loop_
_space_group_symop_operation_xyz
x,y,z
-x,y,1/2-z
-x,-y,-z
x,-y,1/2+z
loop_
_atom_site_type_symbol
_atom_site_label
_atom_site_fract_x
_atom_site_fract_y
_atom_site_fract_z
Si Si1 0.480087 0.392939 0.382918
Si Si2 0.500000 0.065866 0.250000
Si Si3 0.694208 0.191342 0.235087
Si Si4 0.000000 0.806689 0.750000
Si Si5 0.464435 0.318146 0.669809
Si Si6 0.265683 0.536984 0.677697
Si Si7 0.625675 0.894797 0.998514
Si Si8 0.041317 0.684368 0.521973
O O1 0.500000 0.403282 0.250000
O O2 0.529808 0.279127 0.377937
O O3 0.274944 0.434874 0.598934
O O4 0.621193 0.479129 0.313594
O O5 0.674357 0.136464 0.144186
O O6 0.560211 0.002161 0.101666
O O7 0.642050 0.107865 0.364594
O O8 0.903751 0.243823 0.069614
O O9 0.163490 0.882039 0.642693
O O10 0.076914 0.735296 0.597233
O O11 0.500000 0.363485 0.750000
O O12 0.633462 0.362039 0.457706
O O13 0.485621 0.194452 0.655071
O O14 0.253548 0.337525 0.800315
O O15 0.051049 0.571001 0.883448
#
# Coordination Sequence:
#
# PCOD8116815 Si02
#       8
#     4   2   4   2   4   4   4   4
#     4  10  19  38  63  87 124 178 208 247 329 371
#     4  12  22  40  64  90 120 176 220 252 342 386
#     4  10  22  40  61  86 130 172 204 273 318 375
#     4  10  16  36  58  88 134 158 204 278 320 364
#     4  12  19  35  65  97 129 164 207 267 322 370
#     4  10  21  36  61  94 126 166 210 261 306 381
#     4  11  21  37  62  95 120 167 216 269 320 382
#     4  10  19  35  60  95 130 163 210 261 318 370
#
# _framework density 22.731560999999999
#
# number of rings (size 3 to 8) (size 9 to 14) (size 15 to 20)
#    0.000    1.429    7.143    0.857    0.000    0.000 
#    0.000   14.286    0.000   10.286    0.000    0.000 
#    0.000    0.000    0.000    0.000    0.000    0.000 
#
# Total GULP energy -346884.399510 kJ/mol
# GULP energy per Si atom -12388.728554 kJ/mol
# Density = 2.267982 g / cm^3
# Si number density = 22.731561 Si / 1000 Ang^3
#
#
#
# Elastic Constant Matrix: (Units=GPa)
#
#
# Indices 1 2 3 4 5 6 
#
# 1 143.5154 35.5239 35.3916 0.0000 10.1618 0.0000
# 2 35.5239 79.0413 19.8157 0.0000 -3.2417 0.0000
# 3 35.3916 19.8157 67.8403 0.0000 -20.0129 0.0000
# 4 0.0000 0.0000 0.0000 15.9832 0.0000 2.8670
# 5 10.1618 -3.2417 -20.0129 0.0000 31.3504 0.0000
# 6 0.0000 0.0000 0.0000 2.8670 0.0000 13.9642
#
#
#
# Elastic Compliance Matrix: (Units=1/GPa)
#
#
# Indices 1 2 3 4 5 6 
#
# 1 0.009894 -0.003128 -0.006516 0.000000 -0.007690 0.000000
# 2 -0.003128 0.014690 -0.002355 0.000000 0.001030 0.000000
# 3 -0.006516 -0.002355 0.023875 0.000000 0.017110 0.000000
# 4 0.000000 0.000000 0.000000 0.064958 0.000000 -0.013337
# 5 -0.007690 0.001030 0.017110 0.000000 0.045419 0.000000
# 6 0.000000 0.000000 0.000000 -0.013337 0.000000 0.074350
#
#
# Mechanical properties :
#
#
# Convention : Reuss Voigt Hill
#
# Bulk Modulus (GPa) = 40.88364 52.42882 46.65623
# Shear Modulus (GPa) = 18.84384 25.57063 22.20723
#
# Velocity S-wave (km/s) = 2.88231 3.35758 3.12899
# Velocity P-wave (km/s) = 5.39457 6.17621 5.79858
#
# Compressibility (1/GPa) = 0.02445966
#
# Stress axis : x y z
#
# Youngs Moduli (GPa) = 101.07456 68.07229 41.88431
#
# Poissons Ratio (x) = 0.21295 0.27293
# Poissons Ratio (y) = 0.31619 0.09865
# Poissons Ratio (z) = 0.65863 0.16032
#
# Static dielectric constant tensor:
#      x y z
#    x 4.420390 0.000000 0.014720 
#    y 0.000000 4.067410 0.000000 
#    z 0.014720 0.000000 3.871330 
# 
# 
# High freq. dielectric constant tensor:
#      x y z
#    x 1.909630 0.000000 0.007300 
#    y 0.000000 1.892710 0.000000 
#    z 0.007300 0.000000 1.870670 
# 
# From -- ./inp_files/53835.got.cif
#   From: 2010.06.25/outbox.cif.g09.slc.cpg/sg13_27_cif.got.tgz:53835.got - 2010.06.28 04:50:58.
