data_PCOD8116778
_publ_section_title
;
Structure prediction by ZEFSAII (Michael W. Deem and Ramdas Pophale) SiO2 
 PCOD8116778
Probable space group: P 2/C
;
_chemical_formula_sum "Si O2"
_cell_formula_units_Z 26
_cell_length_a 8.853838
_cell_length_b 11.664296
_cell_length_c 13.759927
_cell_angle_alpha 90.000000
_cell_angle_beta 71.856441
_cell_angle_gamma 90.000000
_cell_volume 1350.384632
_symmetry_space_group_name_H-M "P 2/C"
_symmetry_group_IT_number 13
_symmetry_cell_setting 'monoclinic'
loop_
_space_group_symop_operation_xyz
x,y,z
-x,y,1/2-z
-x,-y,-z
x,-y,1/2+z
loop_
_atom_site_type_symbol
_atom_site_label
_atom_site_fract_x
_atom_site_fract_y
_atom_site_fract_z
Si Si1 0.681808 0.961299 0.881754
Si Si2 0.348684 0.498438 0.170062
Si Si3 0.795059 0.308635 0.173179
Si Si4 0.500000 0.149528 0.250000
Si Si5 0.490494 0.181563 0.559776
Si Si6 0.345235 0.609319 0.975339
Si Si7 0.500000 0.688809 0.250000
Si Si8 0.000000 0.149836 0.250000
O O1 0.549987 0.930619 0.828407
O O2 0.859956 0.932126 0.814241
O O3 0.663410 0.097774 0.900341
O O4 0.639639 0.889295 0.986895
O O5 0.233444 0.401793 0.236194
O O6 0.531013 0.457458 0.119505
O O7 0.354598 0.608785 0.240520
O O8 0.280530 0.532281 0.077331
O O9 0.643452 0.228815 0.189346
O O10 0.808445 0.363452 0.062275
O O11 0.945897 0.231713 0.171863
O O12 0.440562 0.282258 0.497533
O O13 0.553007 0.230848 0.649890
#
# Coordination Sequence:
#
# PCOD8116778 Si02
#       8
#     4   4   4   2   4   4   2   2
#     4  10  20  37  56  88 111 152 192 250 284 348
#     4  10  18  29  55  87 114 141 189 239 292 327
#     4  11  17  35  52  83 107 154 184 237 272 355
#     4  10  16  30  58  74 108 140 196 234 284 322
#     4  10  20  33  60  84 116 144 204 237 293 331
#     4  10  17  30  54  84 109 146 187 243 279 340
#     4  10  18  32  56  96 114 144 184 260 278 330
#     4  10  24  36  60  80 126 150 196 230 300 338
#
# _framework density 19.253775999999998
#
# number of rings (size 3 to 8) (size 9 to 14) (size 15 to 20)
#    0.000    1.846    4.615    1.385    0.000    0.000 
#    0.000    1.538    0.000    1.846    0.000    0.000 
#    0.000    0.000    0.000    0.000    0.000    0.000 
#
# Total GULP energy -322281.098963 kJ/mol
# GULP energy per Si atom -12395.426883 kJ/mol
# Density = 1.920995 g / cm^3
# Si number density = 19.253776 Si / 1000 Ang^3
#
#
#
# Elastic Constant Matrix: (Units=GPa)
#
#
# Indices 1 2 3 4 5 6 
#
# 1 79.9964 26.0139 36.1113 0.0000 7.0172 0.0000
# 2 26.0139 88.3869 42.3286 0.0000 -1.6293 0.0000
# 3 36.1113 42.3286 91.0952 0.0000 14.3953 0.0000
# 4 0.0000 0.0000 0.0000 33.2581 0.0000 3.7207
# 5 7.0172 -1.6293 14.3953 0.0000 28.8861 0.0000
# 6 0.0000 0.0000 0.0000 3.7207 0.0000 12.7833
#
#
#
# Elastic Compliance Matrix: (Units=1/GPa)
#
#
# Indices 1 2 3 4 5 6 
#
# 1 0.015574 -0.002272 -0.004885 0.000000 -0.001477 0.000000
# 2 -0.002272 0.015456 -0.007062 0.000000 0.004943 0.000000
# 3 -0.004885 -0.007062 0.017445 0.000000 -0.007905 0.000000
# 4 0.000000 0.000000 0.000000 0.031080 0.000000 -0.009046
# 5 -0.001477 0.004943 -0.007905 0.000000 0.039196 0.000000
# 6 0.000000 0.000000 0.000000 -0.009046 0.000000 0.080860
#
#
# Mechanical properties :
#
#
# Convention : Reuss Voigt Hill
#
# Bulk Modulus (GPa) = 49.90772 52.04289 50.97531
# Shear Modulus (GPa) = 21.30139 25.32048 23.31094
#
# Velocity S-wave (km/s) = 3.32979 3.63035 3.48332
# Velocity P-wave (km/s) = 6.38440 6.68291 6.53536
#
# Compressibility (1/GPa) = 0.02003698
#
# Stress axis : x y z
#
# Youngs Moduli (GPa) = 64.21024 64.70078 57.32387
#
# Poissons Ratio (x) = 0.14697 0.28001
# Poissons Ratio (y) = 0.14586 0.40484
# Poissons Ratio (z) = 0.31365 0.45694
#
# Static dielectric constant tensor:
#      x y z
#    x 2.820200 0.000000 0.122230 
#    y 0.000000 3.774280 0.000000 
#    z 0.122230 0.000000 3.324280 
# 
# 
# High freq. dielectric constant tensor:
#      x y z
#    x 1.706150 0.000000 0.042060 
#    y 0.000000 1.765300 0.000000 
#    z 0.042060 0.000000 1.745430 
# 
# From -- ./inp_files/46575.got.cif
#   From: 2010.06.25/outbox.cif.g09.slc.cpg/sg13_24_cif.got.tgz:46575.got - 2010.06.28 04:50:58.
