data_PCOD8116809
_publ_section_title
;
Structure prediction by ZEFSAII (Michael W. Deem and Ramdas Pophale) SiO2 
 PCOD8116809
Probable space group: P 2/C
;
_chemical_formula_sum "Si O2"
_cell_formula_units_Z 30
_cell_length_a 15.954222
_cell_length_b 19.843225
_cell_length_c 5.152875
_cell_angle_alpha 90.000000
_cell_angle_beta 68.987369
_cell_angle_gamma 90.000000
_cell_volume 1522.833665
_symmetry_space_group_name_H-M "P 2/C"
_symmetry_group_IT_number 13
_symmetry_cell_setting 'monoclinic'
loop_
_space_group_symop_operation_xyz
x,y,z
-x,y,1/2-z
-x,-y,-z
x,-y,1/2+z
loop_
_atom_site_type_symbol
_atom_site_label
_atom_site_fract_x
_atom_site_fract_y
_atom_site_fract_z
Si Si1 0.812393 0.244021 0.492567
Si Si2 0.339262 0.838647 0.146546
Si Si3 0.102297 0.457124 0.647399
Si Si4 0.781510 0.044265 0.811300
Si Si5 0.405401 0.281520 0.234042
Si Si6 0.500000 0.807463 0.250000
Si Si7 0.779657 0.327786 0.031195
Si Si8 0.055031 0.860941 0.446974
O O1 0.734895 0.186398 0.562006
O O2 0.821911 0.276750 0.197219
O O3 0.903505 0.207164 0.477581
O O4 0.792670 0.301618 0.725213
O O5 0.302493 0.905378 0.048043
O O6 0.439517 0.856171 0.140427
O O7 0.352941 0.775976 0.945434
O O8 0.119368 0.515495 0.417481
O O9 0.171839 0.398820 0.500543
O O10 0.000000 0.429690 0.750000
O O11 0.873656 0.084810 0.733850
O O12 0.775070 0.013145 0.532658
O O13 0.500000 0.308229 0.250000
O O14 0.328436 0.338770 0.288439
O O15 0.427777 0.244627 0.943801
O O16 0.000000 0.841471 0.250000
O O17 0.000000 0.893517 0.750000
#
# Coordination Sequence:
#
# PCOD8116809 Si02
#       8
#     4   4   4   4   4   2   4   4
#     4  10  21  35  56  88 118 144 183 239 300 347
#     4   9  20  35  56  80 115 146 182 231 295 347
#     4  10  22  40  59  83 118 163 206 239 273 326
#     4  11  25  40  58  78 107 151 197 239 281 342
#     4   9  19  33  58  91 117 148 186 239 298 358
#     4  10  16  34  60  82 114 146 178 230 296 360
#     4  11  20  36  61  89 119 155 195 238 288 344
#     4  11  23  39  58  82 114 146 185 243 302 353
#
# _framework density 19.700118
#
# number of rings (size 3 to 8) (size 9 to 14) (size 15 to 20)
#    0.000    1.867    1.333    2.400    1.867    5.333 
#    0.000    0.667    0.000    0.800    0.000    0.000 
#    0.000    0.000    0.000    0.000    0.000    0.000 
#
# Total GULP energy -371736.041897 kJ/mol
# GULP energy per Si atom -12391.201397 kJ/mol
# Density = 1.965528 g / cm^3
# Si number density = 19.700118 Si / 1000 Ang^3
#
#
#
# Elastic Constant Matrix: (Units=GPa)
#
#
# Indices 1 2 3 4 5 6 
#
# 1 125.7420 54.2172 37.1748 0.0000 -12.2399 0.0000
# 2 54.2172 65.3726 7.4874 0.0000 -11.0025 0.0000
# 3 37.1748 7.4874 68.9218 0.0000 3.2469 0.0000
# 4 0.0000 0.0000 0.0000 205.7723 0.0000 -58.3552
# 5 -12.2399 -11.0025 3.2469 0.0000 32.4937 0.0000
# 6 0.0000 0.0000 0.0000 -58.3552 0.0000 40.0376
#
#
#
# Elastic Compliance Matrix: (Units=1/GPa)
#
#
# Indices 1 2 3 4 5 6 
#
# 1 0.015195 -0.011356 -0.007084 0.000000 0.002587 0.000000
# 2 -0.011356 0.024995 0.003227 0.000000 0.003864 0.000000
# 3 -0.007084 0.003227 0.018139 0.000000 -0.003388 0.000000
# 4 0.000000 0.000000 0.000000 0.008284 0.000000 0.012074
# 5 0.002587 0.003864 -0.003388 0.000000 0.033396 0.000000
# 6 0.000000 0.000000 0.000000 0.012074 0.000000 0.042574
#
#
# Mechanical properties :
#
#
# Convention : Reuss Voigt Hill
#
# Bulk Modulus (GPa) = 35.83545 50.86613 43.35079
# Shear Modulus (GPa) = 27.42584 66.40452 46.91518
#
# Velocity S-wave (km/s) = 3.73522 5.81213 4.88532
# Velocity P-wave (km/s) = 6.06898 8.42125 7.33996
#
# Compressibility (1/GPa) = 0.02790533
#
# Stress axis : x y z
#
# Youngs Moduli (GPa) = 65.81016 40.00753 55.12915
#
# Poissons Ratio (x) = 0.45431 0.39054
# Poissons Ratio (y) = 0.74731 -0.17793
# Poissons Ratio (z) = 0.46621 -0.12912
#
# Static dielectric constant tensor:
#      x y z
#    x -115.713850 0.000000 65.022790 
#    y 0.000000 3.193000 0.000000 
#    z 65.022790 0.000000 -31.785740 
# 
# 
# High freq. dielectric constant tensor:
#      x y z
#    x 1.785250 0.000000 -0.000030 
#    y 0.000000 1.723930 0.000000 
#    z -0.000030 0.000000 1.778010 
# 
# From -- ./inp_files/5337.got.cif
#   From: 2010.06.25/outbox.cif.g09.slc.cpg/sg13_3_cif.got.tgz:5337.got - 2010.06.28 04:50:58.
