data_PCOD8116969
_publ_section_title
;
Structure prediction by ZEFSAII (Michael W. Deem and Ramdas Pophale) SiO2 
 PCOD8116969
Probable space group: P 2/C
;
_chemical_formula_sum "Si O2"
_cell_formula_units_Z 20
_cell_length_a 9.305158
_cell_length_b 12.484736
_cell_length_c 9.911076
_cell_angle_alpha 90.000000
_cell_angle_beta 62.861567
_cell_angle_gamma 90.000000
_cell_volume 1024.633523
_symmetry_space_group_name_H-M "P 2/C"
_symmetry_group_IT_number 13
_symmetry_cell_setting 'monoclinic'
loop_
_space_group_symop_operation_xyz
x,y,z
-x,y,1/2-z
-x,-y,-z
x,-y,1/2+z
loop_
_atom_site_type_symbol
_atom_site_label
_atom_site_fract_x
_atom_site_fract_y
_atom_site_fract_z
Si Si1 0.822189 0.781007 0.876314
Si Si2 0.676358 0.391264 0.819103
Si Si3 0.701942 0.563020 0.012826
Si Si4 0.394104 0.952760 0.664806
Si Si5 0.687480 0.167212 0.713020
O O1 0.786678 0.654529 0.886508
O O2 0.697199 0.844812 0.835602
O O3 0.000000 0.806525 0.750000
O O4 0.805676 0.818415 0.037002
O O5 0.748873 0.451080 0.919546
O O6 0.756020 0.438888 0.646705
O O7 0.714221 0.263838 0.809198
O O8 0.486645 0.411333 0.903889
O O9 0.500000 0.923962 0.750000
O O10 0.500000 0.000000 0.500000
O O11 0.269109 0.050594 0.746704
O O12 0.500000 0.170087 0.750000
#
# Coordination Sequence:
#
# PCOD8116969 Si02
#       5
#     4   4   4   4   4
#     4  11  22  38  58  87 122 153 183 239 303 339
#     4   9  15  31  56  76 109 141 195 226 277 327
#     4   9  17  32  51  85 108 145 185 237 275 337
#     4  11  20  38  62  87 111 152 201 238 274 343
#     4  10  17  36  57  76 117 154 188 228 294 332
#
# _framework density 19.519175000000001
#
# number of rings (size 3 to 8) (size 9 to 14) (size 15 to 20)
#    0.000    2.000    8.000    0.000    0.000    0.800 
#   10.800    4.000    0.000    1.200    0.000    0.000 
#    0.000    0.000    0.000    0.000    0.000    0.000 
#
# Total GULP energy -247818.833162 kJ/mol
# GULP energy per Si atom -12390.941658 kJ/mol
# Density = 1.947475 g / cm^3
# Si number density = 19.519175 Si / 1000 Ang^3
#
#
#
# Elastic Constant Matrix: (Units=GPa)
#
#
# Indices 1 2 3 4 5 6 
#
# 1 38.2431 16.1480 27.1007 0.0000 4.3687 0.0000
# 2 16.1480 89.6612 31.8817 0.0000 5.8110 0.0000
# 3 27.1007 31.8817 107.6478 0.0000 -4.8353 0.0000
# 4 0.0000 0.0000 0.0000 29.3809 0.0000 14.8925
# 5 4.3687 5.8110 -4.8353 0.0000 22.4845 0.0000
# 6 0.0000 0.0000 0.0000 14.8925 0.0000 17.8114
#
#
#
# Elastic Compliance Matrix: (Units=1/GPa)
#
#
# Indices 1 2 3 4 5 6 
#
# 1 0.033888 -0.002744 -0.008061 0.000000 -0.007609 0.000000
# 2 -0.002744 0.013065 -0.003339 0.000000 -0.003562 0.000000
# 3 -0.008061 -0.003339 0.012538 0.000000 0.005125 0.000000
# 4 0.000000 0.000000 0.000000 0.059071 0.000000 -0.049390
# 5 -0.007609 -0.003562 0.005125 0.000000 0.047976 0.000000
# 6 0.000000 0.000000 0.000000 -0.049390 0.000000 0.097440
#
#
# Mechanical properties :
#
#
# Convention : Reuss Voigt Hill
#
# Bulk Modulus (GPa) = 32.04614 42.86811 37.45713
# Shear Modulus (GPa) = 16.51981 24.63014 20.57497
#
# Velocity S-wave (km/s) = 2.91234 3.55610 3.25020
# Velocity P-wave (km/s) = 5.26901 6.23465 5.77206
#
# Compressibility (1/GPa) = 0.03120500
#
# Stress axis : x y z
#
# Youngs Moduli (GPa) = 29.50861 76.53876 79.75837
#
# Poissons Ratio (x) = 0.21002 0.64290
# Poissons Ratio (y) = 0.08097 0.26629
# Poissons Ratio (z) = 0.23786 0.25554
#
# Static dielectric constant tensor:
#      x y z
#    x 2.573960 0.000000 0.199620 
#    y 0.000000 4.173890 0.000000 
#    z 0.199620 0.000000 3.788060 
# 
# 
# High freq. dielectric constant tensor:
#      x y z
#    x 1.694510 0.000000 0.016690 
#    y 0.000000 1.773410 0.000000 
#    z 0.016690 0.000000 1.772500 
# 
# From -- ./inp_files/28959.got.cif
#   From: 2010.06.25/outbox.cif.g09.slc.cpg/sg13_15_cif.got.tgz:28959.got - 2010.06.28 04:50:58.
