data_PCOD8116015
_publ_section_title
;
Structure prediction by ZEFSAII (Michael W. Deem and Ramdas Pophale) SiO2 
 PCOD8116015
Probable space group: C 2/M
;
_chemical_formula_sum "Si O2"
_cell_formula_units_Z 56
_cell_length_a 25.243696
_cell_length_b 9.627916
_cell_length_c 20.982910
_cell_angle_alpha 90.000000
_cell_angle_beta 40.893186
_cell_angle_gamma 90.000000
_cell_volume 3338.571895
_symmetry_space_group_name_H-M "C 2/M"
_symmetry_group_IT_number 12
_symmetry_cell_setting 'monoclinic'
loop_
_space_group_symop_operation_xyz
x,y,z
-x,y,-z
-x,-y,-z
x,-y,z
1/2+x,1/2+y,z
1/2-x,1/2+y,-z
1/2-x,1/2-y,-z
1/2+x,1/2-y,z
loop_
_atom_site_type_symbol
_atom_site_label
_atom_site_fract_x
_atom_site_fract_y
_atom_site_fract_z
Si Si1 0.675776 0.343254 0.049650
Si Si2 0.504587 0.835595 0.599269
Si Si3 0.401393 0.659797 0.013112
Si Si4 0.493955 0.337127 0.734741
Si Si5 0.939448 0.835659 0.194241
Si Si6 0.626929 0.164208 0.379962
Si Si7 0.692469 0.334661 0.781440
O O1 0.700873 0.500000 0.041740
O O2 0.597584 0.302821 0.161990
O O3 0.750000 0.250000 0.000000
O O4 0.659701 0.323103 0.989759
O O5 0.516702 0.753077 0.653224
O O6 0.420508 0.791086 0.641218
O O7 0.578163 0.788394 0.486834
O O8 0.506176 0.000000 0.611502
O O9 0.416379 0.500000 0.016631
O O10 0.359603 0.729962 0.112821
O O11 0.488200 0.727945 0.915699
O O12 0.505275 0.500000 0.709242
O O13 0.552789 0.287503 0.739298
O O14 0.852714 0.793367 0.243537
O O15 0.953519 0.000000 0.181596
O O16 0.717116 0.229831 0.299799
O O17 0.631876 0.000000 0.376280
O O18 0.698403 0.500000 0.782636
#
# Coordination Sequence:
#
# PCOD8116015 Si02
#       7
#     8   8   8   8   8   8   8
#     4   9  18  29  41  63  94 119 144 180 214 257
#     4   9  17  31  48  65  89 117 147 184 225 265
#     4   8  14  23  37  61  89 114 142 178 218 258
#     4   9  18  31  45  64  92 121 146 177 221 267
#     4   8  14  25  39  60  91 119 142 176 221 264
#     4   8  16  28  42  65  89 109 145 194 227 254
#     4   9  14  22  41  64  86 114 147 183 224 260
#
# _framework density 16.773637999999998
#
# number of rings (size 3 to 8) (size 9 to 14) (size 15 to 20)
#    0.000    3.429    0.000    3.000    2.000    2.286 
#    0.000    2.143    0.000    0.000    0.000    2.000 
#    0.000    4.571    0.000    0.000    0.000    0.000 
#
# Total GULP energy -346950.233835 kJ/mol
# GULP energy per Si atom -12391.079780 kJ/mol
# Density = 1.673546 g / cm^3
# Si number density = 16.773638 Si / 1000 Ang^3
#
#
#
# Elastic Constant Matrix: (Units=GPa)
#
#
# Indices 1 2 3 4 5 6 
#
# 1 115.1548 20.2954 77.4222 0.0004 0.3601 0.0002
# 2 20.2954 19.8792 21.9355 -0.0022 5.1727 0.0013
# 3 77.4222 21.9355 99.1201 -0.0002 10.5990 0.0001
# 4 0.0004 -0.0022 -0.0002 19.8515 0.0004 5.1972
# 5 0.3601 5.1727 10.5990 0.0004 30.5645 0.0000
# 6 0.0002 0.0013 0.0001 5.1972 0.0000 17.2317
#
#
#
# Elastic Compliance Matrix: (Units=1/GPa)
#
#
# Indices 1 2 3 4 5 6 
#
# 1 0.019415 -0.005162 -0.014634 -0.000001 0.005720 0.000001
# 2 -0.005162 0.069154 -0.010413 0.000010 -0.008032 -0.000008
# 3 -0.014634 -0.010413 0.024526 -0.000001 -0.006570 0.000001
# 4 -0.000001 0.000010 -0.000001 0.054693 -0.000002 -0.016496
# 5 0.005720 -0.008032 -0.006570 -0.000002 0.036288 0.000001
# 6 0.000001 -0.000008 0.000001 -0.016496 0.000001 0.063008
#
#
# Mechanical properties :
#
#
# Convention : Reuss Voigt Hill
#
# Bulk Modulus (GPa) = 18.98364 52.60670 35.79517
# Shear Modulus (GPa) = 14.49020 21.16294 17.82657
#
# Velocity S-wave (km/s) = 2.94235 3.55586 3.26356
# Velocity P-wave (km/s) = 4.78386 6.94908 5.96553
#
# Compressibility (1/GPa) = 0.05267693
#
# Stress axis : x y z
#
# Youngs Moduli (GPa) = 51.50730 14.46050 40.77241
#
# Poissons Ratio (x) = 0.07464 0.59666
# Poissons Ratio (y) = 0.26587 0.42458
# Poissons Ratio (z) = 0.75376 0.15058
#
# Static dielectric constant tensor:
#      x y z
#    x 3.191980 0.000000 -0.282530 
#    y 0.000000 2.541820 0.000000 
#    z -0.282530 0.000000 3.050280 
# 
# 
# High freq. dielectric constant tensor:
#      x y z
#    x 1.657630 0.000000 0.003000 
#    y 0.000000 1.576640 0.000000 
#    z 0.003000 0.000000 1.644660 
# 
# From -- ./inp_files/287907.got.cif
#   From: 2010.06.25/outbox.cif.g09.slc.cpg/sg12_144_cif.got.tgz:287907.got - 2010.06.28 00:19:55.
