data_PCOD8116877
_publ_section_title
;
Structure prediction by ZEFSAII (Michael W. Deem and Ramdas Pophale) SiO2 
 PCOD8116877
Probable space group: P 2/C
;
_chemical_formula_sum "Si O2"
_cell_formula_units_Z 24
_cell_length_a 11.345248
_cell_length_b 7.855430
_cell_length_c 22.803684
_cell_angle_alpha 90.000000
_cell_angle_beta 32.024592
_cell_angle_gamma 90.000000
_cell_volume 1077.697425
_symmetry_space_group_name_H-M "P 2/C"
_symmetry_group_IT_number 13
_symmetry_cell_setting 'monoclinic'
loop_
_space_group_symop_operation_xyz
x,y,z
-x,y,1/2-z
-x,-y,-z
x,-y,1/2+z
loop_
_atom_site_type_symbol
_atom_site_label
_atom_site_fract_x
_atom_site_fract_y
_atom_site_fract_z
Si Si1 0.821702 0.750150 0.089844
Si Si2 0.605888 0.681488 0.296349
Si Si3 0.361331 0.226427 0.059190
Si Si4 0.761125 0.571816 0.349303
Si Si5 0.515951 0.999985 0.591586
Si Si6 0.706229 0.865065 0.624661
O O1 0.775379 0.653941 0.170873
O O2 0.655051 0.665613 0.112512
O O3 0.761949 0.948148 0.125681
O O4 0.079732 0.738000 0.960420
O O5 0.662076 0.549393 0.324868
O O6 0.641854 0.872965 0.305478
O O7 0.200686 0.387395 0.135753
O O8 0.350833 0.107091 0.120442
O O9 0.608871 0.305952 0.952239
O O10 0.314341 0.114836 0.020375
O O11 0.000000 0.661538 0.250000
O O12 0.649984 0.877558 0.579177
O O13 0.500000 0.789268 0.750000
#
# Coordination Sequence:
#
# PCOD8116877 Si02
#       6
#     4   4   4   4   4   4
#     4   9  17  31  53  82 118 155 195 240 300 360
#     4   9  17  35  56  84 115 156 199 236 307 359
#     4   9  20  38  53  81 120 148 198 244 300 353
#     4  10  21  37  57  81 114 161 198 238 295 362
#     4   9  17  35  57  83 115 150 191 252 295 355
#     4  10  17  30  53  89 120 146 193 252 305 349
#
# _framework density 22.269703
#
# number of rings (size 3 to 8) (size 9 to 14) (size 15 to 20)
#    0.000    2.667    3.333    0.000    2.333    0.000 
#    3.000    5.000    3.667    1.000    0.000    0.000 
#    0.000    0.000    0.000    0.000    0.000    0.000 
#
# Total GULP energy -297373.321948 kJ/mol
# GULP energy per Si atom -12390.555081 kJ/mol
# Density = 2.221902 g / cm^3
# Si number density = 22.269703 Si / 1000 Ang^3
#
#
#
# Elastic Constant Matrix: (Units=GPa)
#
#
# Indices 1 2 3 4 5 6 
#
# 1 114.6395 17.2444 50.4909 0.0000 15.8101 0.0000
# 2 17.2444 27.9477 11.9248 0.0000 4.0006 0.0000
# 3 50.4909 11.9248 137.2068 0.0000 -11.1822 0.0000
# 4 0.0000 0.0000 0.0000 7.3673 0.0000 4.0791
# 5 15.8101 4.0006 -11.1822 0.0000 32.6354 0.0000
# 6 0.0000 0.0000 0.0000 4.0791 0.0000 12.9679
#
#
#
# Elastic Compliance Matrix: (Units=1/GPa)
#
#
# Indices 1 2 3 4 5 6 
#
# 1 0.012513 -0.004660 -0.004780 0.000000 -0.007128 0.000000
# 2 -0.004660 0.040003 -0.002034 0.000000 -0.003343 0.000000
# 3 -0.004780 -0.002034 0.009704 0.000000 0.005890 0.000000
# 4 0.000000 0.000000 0.000000 0.164361 0.000000 -0.051700
# 5 -0.007128 -0.003343 0.005890 0.000000 0.036523 0.000000
# 6 0.000000 0.000000 0.000000 -0.051700 0.000000 0.093376
#
#
# Mechanical properties :
#
#
# Convention : Reuss Voigt Hill
#
# Bulk Modulus (GPa) = 25.46477 48.79047 37.12762
# Shear Modulus (GPa) = 12.73822 23.93639 18.33730
#
# Velocity S-wave (km/s) = 2.39424 3.28203 2.87264
# Velocity P-wave (km/s) = 4.37067 6.02651 5.26410
#
# Compressibility (1/GPa) = 0.03926995
#
# Stress axis : x y z
#
# Youngs Moduli (GPa) = 79.91967 24.99802 103.04743
#
# Poissons Ratio (x) = 0.11650 0.49261
# Poissons Ratio (y) = 0.37246 0.20962
# Poissons Ratio (z) = 0.38205 0.05085
#
# Static dielectric constant tensor:
#      x y z
#    x 4.048760 0.000000 0.195040 
#    y 0.000000 3.664150 0.000000 
#    z 0.195040 0.000000 3.925530 
# 
# 
# High freq. dielectric constant tensor:
#      x y z
#    x 1.870390 0.000000 0.021620 
#    y 0.000000 1.844460 0.000000 
#    z 0.021620 0.000000 1.862540 
# 
# From -- ./inp_files/86294.got.cif
#   From: 2010.06.25/outbox.cif.g09.slc.cpg/sg13_44_cif.got.tgz:86294.got - 2010.06.28 04:50:58.
