data_PCOD8116302
_publ_section_title
;
Structure prediction by ZEFSAII (Michael W. Deem and Ramdas Pophale) SiO2 
 PCOD8116302
Probable space group: C 2/M
;
_chemical_formula_sum "Si O2"
_cell_formula_units_Z 32
_cell_length_a 9.000000
_cell_length_b 18.000000
_cell_length_c 30.000000
_cell_angle_alpha 90.000000
_cell_angle_beta 40.000000
_cell_angle_gamma 90.000000
_cell_volume 3123.947783
_symmetry_space_group_name_H-M "C 2/M"
_symmetry_group_IT_number 12
_symmetry_cell_setting 'monoclinic'
loop_
_space_group_symop_operation_xyz
x,y,z
-x,y,-z
-x,-y,-z
x,-y,z
1/2+x,1/2+y,z
1/2-x,1/2+y,-z
1/2-x,1/2-y,-z
1/2+x,1/2-y,z
loop_
_atom_site_type_symbol
_atom_site_label
_atom_site_fract_x
_atom_site_fract_y
_atom_site_fract_z
Si Si1 0.378930 0.833564 0.231278
Si Si2 0.382300 0.169915 0.132467
Si Si3 0.175532 0.329218 0.500461
Si Si4 0.486009 0.415086 0.634856
Si Si5 0.668720 0.085250 0.363820
Si Si6 0.879400 0.161829 0.134540
Si Si7 0.376118 0.665012 0.232797
Si Si8 0.668238 0.913057 0.999805
O O1 0.283883 0.851616 0.204017
O O2 0.648758 0.847473 0.158979
O O3 0.323329 0.749525 0.259496
O O4 0.268858 0.885500 0.294538
O O5 0.475813 0.254250 0.110126
O O6 0.148758 0.156016 0.158626
O O7 0.589941 0.120858 0.065113
O O8 0.250000 0.250000 0.500000
O O9 0.404921 0.372518 0.432135
O O10 0.000000 0.322763 0.500000
O O11 0.061085 0.371235 0.568583
O O12 0.469763 0.500000 0.624389
O O13 0.636202 0.402000 0.644315
O O14 0.762668 0.111353 0.294734
O O15 0.598257 0.000000 0.375973
O O16 0.776852 0.144012 0.207337
O O17 0.068560 0.106223 0.071819
O O18 0.643257 0.000000 0.009983
O O19 0.500000 0.881386 0.000000
#
# Coordination Sequence:
#
# PCOD8116302 Si02
#       8
#     8   8   8   8   8   8   8   8
#     4  10  21  36  58  86 113 148 189 234 282 335
#     4  10  20  38  60  82 110 150 191 231 279 339
#     4  10  21  39  62  87 115 152 195 238 279 327
#     4  10  20  36  59  86 118 152 187 232 284 337
#     4  10  20  35  60  89 115 149 193 234 276 336
#     4  10  22  38  58  83 115 147 188 237 282 335
#     4  10  19  36  59  84 113 147 192 233 275 336
#     4  11  23  38  58  83 113 148 189 236 287 342
#
# _framework density 10.243449
#
# number of rings (size 3 to 8) (size 9 to 14) (size 15 to 20)
#    0.000    1.875    2.500    1.500    0.000    4.000 
#    2.250    0.625    0.000    0.750    0.000    0.000 
#    0.000    0.000    0.000    0.000    0.000    0.000 
#
# Total GULP energy -396692.649327 kJ/mol
# GULP energy per Si atom -12396.645291 kJ/mol
# Density = 1.022013 g / cm^3
# Si number density = 10.243449 Si / 1000 Ang^3
#
#
#
# Elastic Constant Matrix: (Units=GPa)
#
#
# Indices 1 2 3 4 5 6 
#
# 1 11.5312 20.8915 12.2319 0.0033 -4.0371 0.0030
# 2 20.8915 103.9942 74.2679 -0.0092 5.7285 -0.0006
# 3 12.2319 74.2679 140.1646 0.0307 1.0331 0.0092
# 4 0.0033 -0.0092 0.0307 30.7743 0.0084 1.7929
# 5 -4.0371 5.7285 1.0331 0.0084 17.3076 -0.0063
# 6 0.0030 -0.0006 0.0092 1.7929 -0.0063 24.0502
#
#
#
# Elastic Compliance Matrix: (Units=1/GPa)
#
#
# Indices 1 2 3 4 5 6 
#
# 1 0.178606 -0.044294 0.007471 -0.000055 0.055876 -0.000007
# 2 -0.044294 0.026835 -0.010216 0.000028 -0.018604 0.000003
# 3 0.007471 -0.010216 0.011863 -0.000017 0.004416 -0.000003
# 4 -0.000055 0.000028 -0.000017 0.032636 -0.000038 -0.002433
# 5 0.055876 -0.018604 0.004416 -0.000038 0.076706 0.000014
# 6 -0.000007 0.000003 -0.000003 -0.002433 0.000014 0.041761
#
#
# Mechanical properties :
#
#
# Convention : Reuss Voigt Hill
#
# Bulk Modulus (GPa) = 8.11514 52.27471 30.19493
# Shear Modulus (GPa) = 9.92930 24.31300 17.12115
#
# Velocity S-wave (km/s) = 2.20390 3.44867 2.89400
# Velocity P-wave (km/s) = 3.23202 6.43656 5.09290
#
# Compressibility (1/GPa) = 0.12322641
#
# Stress axis : x y z
#
# Youngs Moduli (GPa) = 5.59891 37.26488 84.29474
#
# Poissons Ratio (x) = 1.65060 -0.62978
# Poissons Ratio (y) = 0.24800 0.86118
# Poissons Ratio (z) = -0.04183 0.38071
#
# Static dielectric constant tensor:
#      x y z
#    x 3.537360 -0.000020 0.032350 
#    y -0.000020 3.491480 0.000030 
#    z 0.032350 0.000030 3.626750 
# 
# 
# High freq. dielectric constant tensor:
#      x y z
#    x 1.777000 0.000000 0.004790 
#    y 0.000000 1.786590 0.000000 
#    z 0.004790 0.000000 1.811660 
# 
# From -- ./inp_files/372882.got.cif
#   From: 2010.06.25/outbox.ucp.g09.slc.cvg/sg12_187_cif.got.tgz:372882.got - 2010.06.28 13:50:54.
