data_PCOD8116171
_publ_section_title
;
Structure prediction by ZEFSAII (Michael W. Deem and Ramdas Pophale) SiO2 
 PCOD8116171
Probable space group: C 2/M
;
_chemical_formula_sum "Si O2"
_cell_formula_units_Z 48
_cell_length_a 10.777162
_cell_length_b 29.713901
_cell_length_c 10.523650
_cell_angle_alpha 90.000000
_cell_angle_beta 50.224978
_cell_angle_gamma 90.000000
_cell_volume 2590.059090
_symmetry_space_group_name_H-M "C 2/M"
_symmetry_group_IT_number 12
_symmetry_cell_setting 'monoclinic'
loop_
_space_group_symop_operation_xyz
x,y,z
-x,y,-z
-x,-y,-z
x,-y,z
1/2+x,1/2+y,z
1/2-x,1/2+y,-z
1/2-x,1/2-y,-z
1/2+x,1/2-y,z
loop_
_atom_site_type_symbol
_atom_site_label
_atom_site_fract_x
_atom_site_fract_y
_atom_site_fract_z
Si Si1 0.515513 0.950364 0.843160
Si Si2 0.634534 0.773072 0.174479
Si Si3 0.389610 0.283407 0.199274
Si Si4 0.241510 0.127304 0.612967
Si Si5 0.068006 0.628825 0.263118
Si Si6 0.137893 0.948965 0.506094
O O1 0.408905 0.912870 0.845326
O O2 0.698832 0.946390 0.679944
O O3 0.447423 0.000000 0.854409
O O4 0.500000 0.940356 0.000000
O O5 0.459124 0.751202 0.260175
O O6 0.710946 0.766522 0.267130
O O7 0.632067 0.826509 0.151425
O O8 0.750000 0.750000 0.000000
O O9 0.375578 0.330451 0.283997
O O10 0.500000 0.288727 0.000000
O O11 0.383361 0.139965 0.421476
O O12 0.324602 0.113181 0.689320
O O13 0.140113 0.085072 0.624525
O O14 0.000000 0.933189 0.500000
O O15 0.107011 0.000000 0.576137
#
# Coordination Sequence:
#
# PCOD8116171 Si02
#       6
#     8   8   8   8   8   8
#     4   9  18  33  53  78 105 134 172 217 261 310
#     4   9  18  33  50  71 101 136 170 211 258 304
#     4   9  18  34  51  73 102 134 171 216 259 311
#     4   9  18  34  52  75 102 133 171 214 260 306
#     4   9  18  33  54  75 103 135 171 216 256 307
#     4   9  18  35  54  75 106 139 171 213 263 317
#
# _framework density 18.532395000000001
#
# number of rings (size 3 to 8) (size 9 to 14) (size 15 to 20)
#    0.000    3.000    0.000    0.000    0.000    3.333 
#   15.000    3.333    0.000    0.500    0.000    0.000 
#    0.000    0.000    0.000    0.000    0.000    0.000 
#
# Total GULP energy -297369.298639 kJ/mol
# GULP energy per Si atom -12390.387443 kJ/mol
# Density = 1.849021 g / cm^3
# Si number density = 18.532395 Si / 1000 Ang^3
#
#
#
# Elastic Constant Matrix: (Units=GPa)
#
#
# Indices 1 2 3 4 5 6 
#
# 1 130.9104 100.9558 18.9673 0.0000 8.2315 0.0000
# 2 100.9558 154.5068 45.9415 0.0000 25.8960 0.0000
# 3 18.9673 45.9415 39.6975 0.0000 17.7046 0.0000
# 4 0.0000 0.0000 0.0000 31.4184 0.0000 6.2346
# 5 8.2315 25.8960 17.7046 0.0000 14.6963 0.0000
# 6 0.0000 0.0000 0.0000 6.2346 0.0000 38.6492
#
#
#
# Elastic Compliance Matrix: (Units=1/GPa)
#
#
# Indices 1 2 3 4 5 6 
#
# 1 0.017475 -0.014260 0.002836 0.000000 0.011923 0.000000
# 2 -0.014260 0.021941 -0.010586 0.000000 -0.017922 0.000000
# 3 0.002836 -0.010586 0.061540 0.000000 -0.057073 0.000000
# 4 0.000000 0.000000 0.000000 0.032881 0.000000 -0.005304
# 5 0.011923 -0.017922 -0.057073 0.000000 0.161702 0.000000
# 6 0.000000 0.000000 0.000000 -0.005304 0.000000 0.026729
#
#
# Mechanical properties :
#
#
# Convention : Reuss Voigt Hill
#
# Bulk Modulus (GPa) = 17.56328 72.98264 45.27296
# Shear Modulus (GPa) = 12.97794 27.56944 20.27369
#
# Velocity S-wave (km/s) = 2.64916 3.86117 3.31109
# Velocity P-wave (km/s) = 4.34224 7.70356 6.25299
#
# Compressibility (1/GPa) = 0.05693696
#
# Stress axis : x y z
#
# Youngs Moduli (GPa) = 57.22350 45.57609 16.24949
#
# Poissons Ratio (x) = 0.64992 -0.04608
# Poissons Ratio (y) = 0.81601 0.17202
# Poissons Ratio (z) = -0.16229 0.48247
#
# Static dielectric constant tensor:
#      x y z
#    x 3.672280 0.000000 -0.104030 
#    y 0.000000 3.658260 0.000000 
#    z -0.104030 0.000000 3.185860 
# 
# 
# High freq. dielectric constant tensor:
#      x y z
#    x 1.723470 0.000000 0.000570 
#    y 0.000000 1.722380 0.000000 
#    z 0.000570 0.000000 1.694510 
# 
# From -- ./inp_files/52462.got.cif
#   From: 2010.06.25/outbox.cif.g09.slc.cpg/sg12_27_cif.got.tgz:52462.got - 2010.06.28 00:19:55.
