data_PCOD8116880
_publ_section_title
;
Structure prediction by ZEFSAII (Michael W. Deem and Ramdas Pophale) SiO2 
 PCOD8116880
Probable space group: P 2/C
;
_chemical_formula_sum "Si O2"
_cell_formula_units_Z 30
_cell_length_a 16.157436
_cell_length_b 13.492111
_cell_length_c 15.744237
_cell_angle_alpha 90.000000
_cell_angle_beta 26.090124
_cell_angle_gamma 90.000000
_cell_volume 1509.432721
_symmetry_space_group_name_H-M "P 2/C"
_symmetry_group_IT_number 13
_symmetry_cell_setting 'monoclinic'
loop_
_space_group_symop_operation_xyz
x,y,z
-x,y,1/2-z
-x,-y,-z
x,-y,1/2+z
loop_
_atom_site_type_symbol
_atom_site_label
_atom_site_fract_x
_atom_site_fract_y
_atom_site_fract_z
Si Si1 0.388712 0.321467 0.269342
Si Si2 0.896346 0.842840 0.208538
Si Si3 0.570491 0.203586 0.889416
Si Si4 0.715605 0.866419 0.719245
Si Si5 0.985552 0.375997 0.667480
Si Si6 0.657326 0.056508 0.671553
Si Si7 0.000000 0.996011 0.250000
Si Si8 0.374063 0.594248 0.095991
O O1 0.500000 0.350913 0.250000
O O2 0.347338 0.204466 0.301285
O O3 0.195940 0.384442 0.435405
O O4 0.531770 0.346047 0.065144
O O5 0.703499 0.848774 0.335657
O O6 0.917813 0.737475 0.235627
O O7 0.886345 0.926954 0.289311
O O8 0.057614 0.860788 0.988777
O O9 0.606017 0.161473 0.762379
O O10 0.616515 0.322321 0.837954
O O11 0.362529 0.173513 0.117622
O O12 0.655990 0.977148 0.749490
O O13 0.838391 0.434223 0.740368
O O14 0.000000 0.419659 0.750000
O O15 0.500000 0.026270 0.750000
O O16 0.855164 0.062889 0.438007
O O17 0.500000 0.500000 0.000000
#
# Coordination Sequence:
#
# PCOD8116880 Si02
#       8
#     4   4   4   4   4   4   2   4
#     4  10  18  31  55  87 112 140 177 232 285 334
#     4   9  18  31  51  81 113 144 176 227 280 329
#     4  10  21  36  54  77 108 147 185 232 284 330
#     4   9  19  31  53  82 112 142 181 228 279 329
#     4  10  17  30  57  84 111 136 176 227 287 339
#     4  11  22  34  51  77 111 156 193 223 257 323
#     4  10  20  32  52  82 116 152 184 224 266 322
#     4  10  22  38  55  81 111 145 182 236 292 341
#
# _framework density 19.875017
#
# number of rings (size 3 to 8) (size 9 to 14) (size 15 to 20)
#    0.000    2.133    2.000    1.600    0.000    3.733 
#    0.000    0.667    0.000    0.000    0.000    0.000 
#    0.000    0.000    0.000    0.000    0.000    0.000 
#
# Total GULP energy -371764.410801 kJ/mol
# GULP energy per Si atom -12392.147027 kJ/mol
# Density = 1.982978 g / cm^3
# Si number density = 19.875017 Si / 1000 Ang^3
#
#
#
# Elastic Constant Matrix: (Units=GPa)
#
#
# Indices 1 2 3 4 5 6 
#
# 1 40.2933 27.3125 24.1125 0.0000 -5.0936 0.0000
# 2 27.3125 75.3234 21.2374 0.0000 -4.9835 0.0000
# 3 24.1125 21.2374 94.8084 0.0000 -5.9994 0.0000
# 4 0.0000 0.0000 0.0000 20.4517 0.0000 -6.0728
# 5 -5.0936 -4.9835 -5.9994 0.0000 26.0810 0.0000
# 6 0.0000 0.0000 0.0000 -6.0728 0.0000 13.2400
#
#
#
# Elastic Compliance Matrix: (Units=1/GPa)
#
#
# Indices 1 2 3 4 5 6 
#
# 1 0.036867 -0.011266 -0.006630 0.000000 0.003522 0.000000
# 2 -0.011266 0.017718 -0.001044 0.000000 0.000945 0.000000
# 3 -0.006630 -0.001044 0.012556 0.000000 0.001394 0.000000
# 4 0.000000 0.000000 0.000000 0.056605 0.000000 0.025963
# 5 0.003522 0.000945 0.001394 0.000000 0.039531 0.000000
# 6 0.000000 0.000000 0.000000 0.025963 0.000000 0.087437
#
#
# Mechanical properties :
#
#
# Convention : Reuss Voigt Hill
#
# Bulk Modulus (GPa) = 34.17422 39.52776 36.85099
# Shear Modulus (GPa) = 16.75897 21.13872 18.94885
#
# Velocity S-wave (km/s) = 2.90697 3.26480 3.09107
# Velocity P-wave (km/s) = 5.33846 5.84322 5.59654
#
# Compressibility (1/GPa) = 0.02926182
#
# Stress axis : x y z
#
# Youngs Moduli (GPa) = 27.12430 56.43986 79.64438
#
# Poissons Ratio (x) = 0.63584 0.52804
# Poissons Ratio (y) = 0.30558 0.08314
# Poissons Ratio (z) = 0.17983 0.05891
#
# Static dielectric constant tensor:
#      x y z
#    x 3.308900 0.000000 -0.201950 
#    y 0.000000 3.549220 0.000000 
#    z -0.201950 0.000000 3.959610 
# 
# 
# High freq. dielectric constant tensor:
#      x y z
#    x 1.751740 0.000000 -0.011640 
#    y 0.000000 1.731300 0.000000 
#    z -0.011640 0.000000 1.794430 
# 
# From -- ./inp_files/53864.got.cif
#   From: 2010.06.25/outbox.cif.g09.slc.cpg/sg13_27_cif.got.tgz:53864.got - 2010.06.28 04:50:58.
