data_PCOD8116584
_publ_section_title
;
Structure prediction by ZEFSAII (Michael W. Deem and Ramdas Pophale) SiO2 
 PCOD8116584
Probable space group: C 2/M
;
_chemical_formula_sum "Si O2"
_cell_formula_units_Z 32
_cell_length_a 9.000000
_cell_length_b 18.000000
_cell_length_c 30.000000
_cell_angle_alpha 90.000000
_cell_angle_beta 40.000000
_cell_angle_gamma 90.000000
_cell_volume 3123.947783
_symmetry_space_group_name_H-M "C 2/M"
_symmetry_group_IT_number 12
_symmetry_cell_setting 'monoclinic'
loop_
_space_group_symop_operation_xyz
x,y,z
-x,y,-z
-x,-y,-z
x,-y,z
1/2+x,1/2+y,z
1/2-x,1/2+y,-z
1/2-x,1/2-y,-z
1/2+x,1/2-y,z
loop_
_atom_site_type_symbol
_atom_site_label
_atom_site_fract_x
_atom_site_fract_y
_atom_site_fract_z
Si Si1 0.811733 0.085275 0.703400
Si Si2 0.543960 0.325413 0.416749
Si Si3 0.828760 0.084177 0.305508
Si Si4 0.876387 0.163513 0.837260
Si Si5 0.166262 0.327682 0.041119
Si Si6 0.107816 0.332304 0.153911
Si Si7 0.870327 0.331154 0.425496
Si Si8 0.469023 0.412910 0.905688
O O1 0.850725 0.123109 0.646356
O O2 0.620130 0.121605 0.780230
O O3 0.054672 0.090580 0.672928
O O4 0.738029 0.000000 0.711914
O O5 0.734810 0.318604 0.410971
O O6 0.304185 0.355652 0.494176
O O7 0.502260 0.244208 0.406867
O O8 0.561881 0.106303 0.373030
O O9 0.969258 0.134702 0.238736
O O10 0.835955 0.000000 0.285955
O O11 0.607339 0.170353 0.888882
O O12 0.966490 0.246463 0.825810
O O13 0.886950 0.105557 0.875121
O O14 0.237540 0.342268 0.076015
O O15 0.250000 0.250000 0.000000
O O16 0.265126 0.393337 0.987581
O O17 0.306436 0.360992 0.141110
O O18 0.528351 0.500000 0.896934
#
# Coordination Sequence:
#
# PCOD8116584 Si02
#       8
#     8   8   8   8   8   8   8   8
#     4  11  25  43  64  96 138 181 227 281 345 407
#     4  10  22  42  71 103 136 177 229 282 337 410
#     4  11  25  43  64  96 138 181 227 281 345 407
#     4  12  24  44  71  95 133 177 229 281 339 419
#     4  12  24  46  70  98 129 176 232 284 343 417
#     4  12  24  44  71  95 133 177 229 281 339 419
#     4  10  22  42  71 103 136 177 229 282 337 410
#     4  12  28  42  66 104 135 170 222 289 355 407
#
# _framework density 10.243449
#
# number of rings (size 3 to 8) (size 9 to 14) (size 15 to 20)
#    0.000    0.750    3.750    3.000    1.750    5.500 
#    0.000    2.500    0.000    0.000    0.000    0.000 
#    0.000    0.000    0.000    0.000    0.000    0.000 
#
# Total GULP energy -396730.331368 kJ/mol
# GULP energy per Si atom -12397.822855 kJ/mol
# Density = 1.022013 g / cm^3
# Si number density = 10.243449 Si / 1000 Ang^3
#
#
#
# Elastic Constant Matrix: (Units=GPa)
#
#
# Indices 1 2 3 4 5 6 
#
# 1 51.9877 31.6724 22.1659 -0.0154 6.1858 -0.0002
# 2 31.6724 117.4366 53.5032 0.0059 10.5077 0.0065
# 3 22.1659 53.5032 141.1218 0.0127 8.9522 0.0042
# 4 -0.0154 0.0059 0.0127 37.7737 -0.0023 -0.5631
# 5 6.1858 10.5077 8.9522 -0.0023 44.8282 -0.0036
# 6 -0.0002 0.0065 0.0042 -0.5631 -0.0036 30.4202
#
#
#
# Elastic Compliance Matrix: (Units=1/GPa)
#
#
# Indices 1 2 3 4 5 6 
#
# 1 0.023410 -0.005486 -0.001493 0.000011 -0.001646 0.000002
# 2 -0.005486 0.011702 -0.003493 -0.000003 -0.001288 -0.000002
# 3 -0.001493 -0.003493 0.008690 -0.000003 -0.000711 -0.000001
# 4 0.000011 -0.000003 -0.000003 0.026481 0.000001 0.000490
# 5 -0.001646 -0.001288 -0.000711 0.000001 0.022978 0.000003
# 6 0.000002 -0.000002 -0.000001 0.000490 0.000003 0.032882
#
#
# Mechanical properties :
#
#
# Convention : Reuss Voigt Hill
#
# Bulk Modulus (GPa) = 43.74875 58.35879 51.05377
# Shear Modulus (GPa) = 32.31949 36.15138 34.23543
#
# Velocity S-wave (km/s) = 3.97617 4.20528 4.09233
# Velocity P-wave (km/s) = 6.51773 7.21990 6.87778
#
# Compressibility (1/GPa) = 0.02285780
#
# Stress axis : x y z
#
# Youngs Moduli (GPa) = 42.71670 85.45910 115.07674
#
# Poissons Ratio (x) = 0.46886 0.17176
# Poissons Ratio (y) = 0.23436 0.40195
# Poissons Ratio (z) = 0.06376 0.29850
#
# Static dielectric constant tensor:
#      x y z
#    x 3.773740 -0.000010 0.030550 
#    y -0.000010 3.830740 0.000010 
#    z 0.030550 0.000010 4.041410 
# 
# 
# High freq. dielectric constant tensor:
#      x y z
#    x 1.810420 0.000000 0.002200 
#    y 0.000000 1.805190 0.000000 
#    z 0.002200 0.000000 1.831400 
# 
# From -- ./inp_files/372892.got.cif
#   From: 2010.06.25/outbox.ucp.g09.slc.cvg/sg12_187_cif.got.tgz:372892.got - 2010.06.28 13:50:54.
