data_PCOD8116146
_publ_section_title
;
Structure prediction by ZEFSAII (Michael W. Deem and Ramdas Pophale) SiO2 
 PCOD8116146
Probable space group: C 2/M
;
_chemical_formula_sum "Si O2"
_cell_formula_units_Z 56
_cell_length_a 17.527752
_cell_length_b 18.122195
_cell_length_c 9.528179
_cell_angle_alpha 90.000000
_cell_angle_beta 103.134159
_cell_angle_gamma 90.000000
_cell_volume 2947.371184
_symmetry_space_group_name_H-M "C 2/M"
_symmetry_group_IT_number 12
_symmetry_cell_setting 'monoclinic'
loop_
_space_group_symop_operation_xyz
x,y,z
-x,y,-z
-x,-y,-z
x,-y,z
1/2+x,1/2+y,z
1/2-x,1/2+y,-z
1/2-x,1/2-y,-z
1/2+x,1/2-y,z
loop_
_atom_site_type_symbol
_atom_site_label
_atom_site_fract_x
_atom_site_fract_y
_atom_site_fract_z
Si Si1 0.812998 0.413919 0.419729
Si Si2 0.114763 0.414079 0.269028
Si Si3 0.439095 0.914115 0.262437
Si Si4 0.409314 0.821737 0.997531
Si Si5 0.580643 0.342704 0.950523
Si Si6 0.846422 0.086689 0.767178
Si Si7 0.501072 0.412414 0.336063
O O1 0.806694 0.500000 0.387664
O O2 0.818485 0.398687 0.587847
O O3 0.894352 0.386414 0.383397
O O4 0.734491 0.376656 0.323320
O O5 0.115025 0.500000 0.219135
O O6 0.136182 0.357490 0.153511
O O7 0.030790 0.393966 0.303727
O O8 0.428828 0.000000 0.233158
O O9 0.392083 0.874817 0.118951
O O10 0.500000 0.822774 0.000000
O O11 0.382911 0.739522 0.029106
O O12 0.567578 0.372118 0.785033
O O13 0.500000 0.346292 0.000000
O O14 0.641194 0.392742 0.064140
O O15 0.916459 0.114307 0.694844
O O16 0.842369 0.000000 0.753746
O O17 0.500000 0.388574 0.500000
O O18 0.488140 0.500000 0.316049
#
# Coordination Sequence:
#
# PCOD8116146 Si02
#       7
#     8   8   8   8   8   8   8
#     4   9  17  29  46  69  94 121 157 197 233 271
#     4   9  16  28  47  68  92 124 161 199 233 264
#     4   9  16  28  46  67  91 122 161 198 231 271
#     4   9  17  29  45  67  92 121 157 196 231 270
#     4   9  17  31  49  69  94 123 153 185 228 282
#     4   9  17  31  50  70  94 123 152 186 232 283
#     4   9  17  31  53  77  95 114 148 192 233 277
#
# _framework density 18.999981999999999
#
# number of rings (size 3 to 8) (size 9 to 14) (size 15 to 20)
#    0.000    3.000    0.000    1.286    0.000    5.143 
#    0.000    8.571    0.000    5.143    0.000    0.000 
#    0.000    0.000    0.000    0.000    0.000    0.000 
#
# Total GULP energy -346909.063680 kJ/mol
# GULP energy per Si atom -12389.609417 kJ/mol
# Density = 1.895674 g / cm^3
# Si number density = 18.999982 Si / 1000 Ang^3
#
#
#
# Elastic Constant Matrix: (Units=GPa)
#
#
# Indices 1 2 3 4 5 6 
#
# 1 37.1752 21.1836 36.6276 0.0000 17.7542 0.0000
# 2 21.1836 42.3597 39.5678 0.0000 2.0017 0.0000
# 3 36.6276 39.5678 154.4282 0.0000 17.1943 0.0000
# 4 0.0000 0.0000 0.0000 7.8925 0.0000 -1.3842
# 5 17.7542 2.0017 17.1943 0.0000 25.8979 0.0000
# 6 0.0000 0.0000 0.0000 -1.3842 0.0000 8.6667
#
#
#
# Elastic Compliance Matrix: (Units=1/GPa)
#
#
# Indices 1 2 3 4 5 6 
#
# 1 0.065504 -0.026974 -0.004165 0.000000 -0.040056 0.000000
# 2 -0.026974 0.042377 -0.006646 0.000000 0.019629 0.000000
# 3 -0.004165 -0.006646 0.009493 0.000000 -0.002933 0.000000
# 4 0.000000 0.000000 0.000000 0.130353 0.000000 0.020819
# 5 -0.040056 0.019629 -0.002933 0.000000 0.066504 0.000000
# 6 0.000000 0.000000 0.000000 0.020819 0.000000 0.118710
#
#
# Mechanical properties :
#
#
# Convention : Reuss Voigt Hill
#
# Bulk Modulus (GPa) = 23.92131 47.63568 35.77850
# Shear Modulus (GPa) = 9.57038 17.59701 13.58370
#
# Velocity S-wave (km/s) = 2.24677 3.04659 2.67672
# Velocity P-wave (km/s) = 4.39865 6.12384 5.33149
#
# Compressibility (1/GPa) = 0.04180373
#
# Stress axis : x y z
#
# Youngs Moduli (GPa) = 15.26620 23.59779 105.34363
#
# Poissons Ratio (x) = 0.63654 0.43877
# Poissons Ratio (y) = 0.41180 0.70006
# Poissons Ratio (z) = 0.06359 0.15682
#
# Static dielectric constant tensor:
#      x y z
#    x 3.461210 0.000000 0.021210 
#    y 0.000000 3.357680 0.000000 
#    z 0.021210 0.000000 3.729500 
# 
# 
# High freq. dielectric constant tensor:
#      x y z
#    x 1.702010 0.000000 0.010450 
#    y 0.000000 1.710600 0.000000 
#    z 0.010450 0.000000 1.748640 
# 
# From -- ./inp_files/76910.got.cif
#   From: 2010.06.25/outbox.cif.g09.slc.cpg/sg12_39_cif.got.tgz:76910.got - 2010.06.28 00:19:55.
