data_PCOD8116084
_publ_section_title
;
Structure prediction by ZEFSAII (Michael W. Deem and Ramdas Pophale) SiO2 
 PCOD8116084
Probable space group: C 2/M
;
_chemical_formula_sum "Si O2"
_cell_formula_units_Z 56
_cell_length_a 21.641319
_cell_length_b 9.172049
_cell_length_c 17.854418
_cell_angle_alpha 90.000000
_cell_angle_beta 97.081573
_cell_angle_gamma 90.000000
_cell_volume 3516.981912
_symmetry_space_group_name_H-M "C 2/M"
_symmetry_group_IT_number 12
_symmetry_cell_setting 'monoclinic'
loop_
_space_group_symop_operation_xyz
x,y,z
-x,y,-z
-x,-y,-z
x,-y,z
1/2+x,1/2+y,z
1/2-x,1/2+y,-z
1/2-x,1/2-y,-z
1/2+x,1/2-y,z
loop_
_atom_site_type_symbol
_atom_site_label
_atom_site_fract_x
_atom_site_fract_y
_atom_site_fract_z
Si Si1 0.137799 0.171271 0.180451
Si Si2 0.759745 0.336170 0.884492
Si Si3 0.436932 0.827316 0.534324
Si Si4 0.101315 0.835557 0.337027
Si Si5 0.572276 0.338608 0.021258
Si Si6 0.163991 0.337286 0.950784
Si Si7 0.185198 0.166152 0.479501
O O1 0.202203 0.254535 0.174570
O O2 0.109107 0.226931 0.254435
O O3 0.089008 0.212440 0.107814
O O4 0.152241 0.000000 0.186892
O O5 0.746057 0.500000 0.855720
O O6 0.695087 0.252084 0.887799
O O7 0.795709 0.333626 0.968081
O O8 0.500000 0.783709 0.500000
O O9 0.444768 0.768894 0.621470
O O10 0.374484 0.749075 0.489937
O O11 0.426373 0.000000 0.531843
O O12 0.169206 0.837236 0.388136
O O13 0.073668 0.000000 0.330860
O O14 0.601035 0.500000 0.013289
O O15 0.500000 0.340016 0.000000
O O16 0.598040 0.233432 0.960936
O O17 0.153308 0.500000 0.920029
O O18 0.250000 0.250000 0.500000
O O19 0.190734 0.000000 0.511565
#
# Coordination Sequence:
#
# PCOD8116084 Si02
#       7
#     8   8   8   8   8   8   8
#     4   9  16  29  45  64  90 118 149 186 232 277
#     4   9  16  25  40  62  84 107 139 181 225 265
#     4   9  17  29  47  71  97 125 159 198 236 279
#     4   8  17  29  45  67  92 122 151 186 232 282
#     4   9  17  28  44  64  86 115 151 191 231 272
#     4   9  16  26  40  59  82 109 142 180 222 267
#     4   9  17  29  47  71  97 124 154 190 234 279
#
# _framework density 15.922744
#
# number of rings (size 3 to 8) (size 9 to 14) (size 15 to 20)
#    0.857    2.286    0.000    1.286    0.000    5.429 
#    0.000    0.000    0.000    1.714    0.000    4.000 
#    0.000    0.000    0.000    0.000    0.000    0.000 
#
# Total GULP energy -346873.798837 kJ/mol
# GULP energy per Si atom -12388.349958 kJ/mol
# Density = 1.588650 g / cm^3
# Si number density = 15.922744 Si / 1000 Ang^3
#
#
#
# Elastic Constant Matrix: (Units=GPa)
#
#
# Indices 1 2 3 4 5 6 
#
# 1 85.7004 49.4715 38.9798 0.0000 -21.3481 0.0000
# 2 49.4715 102.8044 39.9585 0.0000 -22.4174 0.0000
# 3 38.9798 39.9585 79.6553 0.0000 -25.4567 0.0000
# 4 0.0000 0.0000 0.0000 20.3991 0.0000 -8.1801
# 5 -21.3481 -22.4174 -25.4567 0.0000 23.9744 0.0000
# 6 0.0000 0.0000 0.0000 -8.1801 0.0000 26.3620
#
#
#
# Elastic Compliance Matrix: (Units=1/GPa)
#
#
# Indices 1 2 3 4 5 6 
#
# 1 0.018578 -0.005921 -0.003941 0.000000 0.006822 0.000000
# 2 -0.005921 0.014894 -0.002737 0.000000 0.005748 0.000000
# 3 -0.003941 -0.002737 0.021064 0.000000 0.016298 0.000000
# 4 0.000000 0.000000 0.000000 0.055988 0.000000 0.017373
# 5 0.006822 0.005748 0.016298 0.000000 0.070466 0.000000
# 6 0.000000 0.000000 0.000000 0.017373 0.000000 0.043324
#
#
# Mechanical properties :
#
#
# Convention : Reuss Voigt Hill
#
# Bulk Modulus (GPa) = 34.08462 58.33110 46.20786
# Shear Modulus (GPa) = 19.28327 23.46381 21.37354
#
# Velocity S-wave (km/s) = 3.48379 3.84292 3.66775
# Velocity P-wave (km/s) = 6.13475 7.51026 6.85708
#
# Compressibility (1/GPa) = 0.02933874
#
# Stress axis : x y z
#
# Youngs Moduli (GPa) = 53.82606 67.14284 47.47379
#
# Poissons Ratio (x) = 0.39754 0.18710
# Poissons Ratio (y) = 0.31869 0.12993
# Poissons Ratio (z) = 0.21213 0.18376
#
# Static dielectric constant tensor:
#      x y z
#    x 2.799700 0.000000 -0.183690 
#    y 0.000000 3.218980 0.000000 
#    z -0.183690 0.000000 2.800200 
# 
# 
# High freq. dielectric constant tensor:
#      x y z
#    x 1.588760 0.000000 -0.022990 
#    y 0.000000 1.623990 0.000000 
#    z -0.022990 0.000000 1.576350 
# 
# From -- ./inp_files/318828.got.cif
#   From: 2010.06.25/outbox.cif.g09.slc.cpg/sg12_160_cif.got.tgz:318828.got - 2010.06.28 00:19:55.
