data_PCOD8116020
_publ_section_title
;
Structure prediction by ZEFSAII (Michael W. Deem and Ramdas Pophale) SiO2 
 PCOD8116020
Probable space group: C 2/M
;
_chemical_formula_sum "Si O2"
_cell_formula_units_Z 48
_cell_length_a 27.970051
_cell_length_b 9.208927
_cell_length_c 19.992372
_cell_angle_alpha 90.000000
_cell_angle_beta 145.725035
_cell_angle_gamma 90.000000
_cell_volume 2900.028710
_symmetry_space_group_name_H-M "C 2/M"
_symmetry_group_IT_number 12
_symmetry_cell_setting 'monoclinic'
loop_
_space_group_symop_operation_xyz
x,y,z
-x,y,-z
-x,-y,-z
x,-y,z
1/2+x,1/2+y,z
1/2-x,1/2+y,-z
1/2-x,1/2-y,-z
1/2+x,1/2-y,z
loop_
_atom_site_type_symbol
_atom_site_label
_atom_site_fract_x
_atom_site_fract_y
_atom_site_fract_z
Si Si1 0.343666 0.168181 0.968602
Si Si2 0.307175 0.669563 0.119761
Si Si3 0.904477 0.326642 0.898329
Si Si4 0.138163 0.330815 0.418553
Si Si5 0.054653 0.671629 0.785255
Si Si6 0.205536 0.329580 0.352445
O O1 0.242943 0.190828 0.867737
O O2 0.366816 0.239235 0.923986
O O3 0.366434 0.000000 0.989641
O O4 0.403152 0.230120 0.096915
O O5 0.315767 0.500000 0.112238
O O6 0.399679 0.746106 0.224507
O O7 0.250000 0.750000 0.000000
O O8 0.903249 0.500000 0.896390
O O9 0.847385 0.267936 0.771361
O O10 0.000000 0.268531 0.000000
O O11 0.153275 0.500000 0.447617
O O12 0.153241 0.289300 0.358647
O O13 0.202528 0.245380 0.540790
O O14 0.043475 0.284488 0.329053
O O15 0.068440 0.500000 0.792896
O O16 0.220638 0.500000 0.363759
#
# Coordination Sequence:
#
# PCOD8116020 Si02
#       6
#     8   8   8   8   8   8
#     4   8  14  24  39  61  87 110 133 169 213 249
#     4   9  16  26  41  62  88 114 140 173 213 252
#     4   9  15  24  42  66  88 109 136 170 207 250
#     4   9  17  29  44  62  87 115 140 173 214 250
#     4   9  16  27  44  64  85 111 144 177 211 250
#     4   9  17  28  44  66  87 110 142 174 207 252
#
# _framework density 16.551561
#
# number of rings (size 3 to 8) (size 9 to 14) (size 15 to 20)
#    0.000    3.167    0.000    2.500    0.000    4.667 
#    0.000    0.000    0.000    6.500    0.000    7.000 
#    0.000    0.000    0.000    0.000    0.000    0.000 
#
# Total GULP energy -297430.969036 kJ/mol
# GULP energy per Si atom -12392.957043 kJ/mol
# Density = 1.651389 g / cm^3
# Si number density = 16.551561 Si / 1000 Ang^3
#
#
#
# Elastic Constant Matrix: (Units=GPa)
#
#
# Indices 1 2 3 4 5 6 
#
# 1 128.0727 34.9742 72.4696 0.0000 20.6335 0.0000
# 2 34.9742 35.8318 32.5312 0.0000 11.5108 0.0000
# 3 72.4696 32.5312 125.0138 0.0000 15.8405 0.0000
# 4 0.0000 0.0000 0.0000 23.4199 0.0000 7.4216
# 5 20.6335 11.5108 15.8405 0.0000 30.8577 0.0000
# 6 0.0000 0.0000 0.0000 7.4216 0.0000 20.3942
#
#
#
# Elastic Compliance Matrix: (Units=1/GPa)
#
#
# Indices 1 2 3 4 5 6 
#
# 1 0.013388 -0.006928 -0.005509 0.000000 -0.003539 0.000000
# 2 -0.006928 0.042841 -0.006090 0.000000 -0.008222 0.000000
# 3 -0.005509 -0.006090 0.012859 0.000000 -0.000646 0.000000
# 4 0.000000 0.000000 0.000000 0.048265 0.000000 -0.017564
# 5 -0.003539 -0.008222 -0.000646 0.000000 0.038172 0.000000
# 6 0.000000 0.000000 0.000000 -0.017564 0.000000 0.055425
#
#
# Mechanical properties :
#
#
# Convention : Reuss Voigt Hill
#
# Bulk Modulus (GPa) = 31.21822 63.20760 47.21291
# Shear Modulus (GPa) = 19.32867 24.86389 22.09628
#
# Velocity S-wave (km/s) = 3.42099 3.88004 3.65772
# Velocity P-wave (km/s) = 5.87422 7.63833 6.81361
#
# Compressibility (1/GPa) = 0.03203258
#
# Stress axis : x y z
#
# Youngs Moduli (GPa) = 74.69488 23.34206 77.76393
#
# Poissons Ratio (x) = 0.16173 0.42843
# Poissons Ratio (y) = 0.51752 0.47358
# Poissons Ratio (z) = 0.41153 0.14215
#
# Static dielectric constant tensor:
#      x y z
#    x 3.536910 0.000000 0.219760 
#    y 0.000000 2.890700 0.000000 
#    z 0.219760 0.000000 3.125960 
# 
# 
# High freq. dielectric constant tensor:
#      x y z
#    x 1.639910 0.000000 0.020510 
#    y 0.000000 1.604750 0.000000 
#    z 0.020510 0.000000 1.617130 
# 
# From -- ./inp_files/239408.got.cif
#   From: 2010.06.25/outbox.cif.g09.slc.cpg/sg12_120_cif.got.tgz:239408.got - 2010.06.28 00:19:55.
