data_PCOD8116004
_publ_section_title
;
Structure prediction by ZEFSAII (Michael W. Deem and Ramdas Pophale) SiO2 
 PCOD8116004
Probable space group: C 2/M
;
_chemical_formula_sum "Si O2"
_cell_formula_units_Z 56
_cell_length_a 19.095079
_cell_length_b 9.557621
_cell_length_c 20.101671
_cell_angle_alpha 90.000000
_cell_angle_beta 61.597165
_cell_angle_gamma 90.000000
_cell_volume 3227.015176
_symmetry_space_group_name_H-M "C 2/M"
_symmetry_group_IT_number 12
_symmetry_cell_setting 'monoclinic'
loop_
_space_group_symop_operation_xyz
x,y,z
-x,y,-z
-x,-y,-z
x,-y,z
1/2+x,1/2+y,z
1/2-x,1/2+y,-z
1/2-x,1/2-y,-z
1/2+x,1/2-y,z
loop_
_atom_site_type_symbol
_atom_site_label
_atom_site_fract_x
_atom_site_fract_y
_atom_site_fract_z
Si Si1 0.183070 0.162828 0.493016
Si Si2 0.089245 0.333830 0.241816
Si Si3 0.743275 0.334425 0.782626
Si Si4 0.210570 0.657211 0.672318
Si Si5 0.423000 0.836679 0.376502
Si Si6 0.362028 0.155102 0.919715
Si Si7 0.682929 0.345663 0.949607
O O1 0.250000 0.250000 0.500000
O O2 0.204861 0.172349 0.404940
O O3 0.100221 0.240266 0.549169
O O4 0.182184 0.000000 0.516349
O O5 0.094434 0.500000 0.234308
O O6 0.166213 0.279491 0.247556
O O7 0.090211 0.278496 0.164828
O O8 0.009914 0.284659 0.314888
O O9 0.742166 0.500000 0.772485
O O10 0.705872 0.263023 0.735213
O O11 0.689773 0.291459 0.870553
O O12 0.201930 0.500000 0.703832
O O13 0.137628 0.691400 0.656231
O O14 0.422214 0.000000 0.397710
O O15 0.270098 0.148037 0.941516
O O16 0.393765 0.000000 0.922222
O O17 0.374260 0.247267 0.980494
O O18 0.644771 0.500000 0.967825
#
# Coordination Sequence:
#
# PCOD8116004 Si02
#       7
#     8   8   8   8   8   8   8
#     4   9  17  30  47  67  89 114 148 185 218 256
#     4   8  15  29  47  67  90 115 147 184 219 257
#     4   9  17  29  46  66  89 118 148 180 218 261
#     4   9  18  30  45  66  89 113 142 180 222 259
#     4   9  17  31  50  68  88 115 147 184 221 258
#     4   8  13  23  41  62  83 110 143 178 215 254
#     4   8  14  24  38  60  87 111 140 178 216 253
#
# _framework density 17.353497000000001
#
# number of rings (size 3 to 8) (size 9 to 14) (size 15 to 20)
#    0.000    3.429    0.000    3.000    0.000    3.429 
#    0.000    4.286    0.000    5.143    0.000    6.000 
#    0.000    0.000    0.000    0.000    0.000    0.000 
#
# Total GULP energy -346941.869107 kJ/mol
# GULP energy per Si atom -12390.781040 kJ/mol
# Density = 1.731400 g / cm^3
# Si number density = 17.353497 Si / 1000 Ang^3
#
#
#
# Elastic Constant Matrix: (Units=GPa)
#
#
# Indices 1 2 3 4 5 6 
#
# 1 16.1868 2.8159 -4.6696 0.0000 4.5858 0.0001
# 2 2.8159 53.6609 15.7645 0.0000 9.9055 0.0002
# 3 -4.6696 15.7645 28.3365 0.0000 12.5994 0.0000
# 4 0.0000 0.0000 0.0000 35.2660 0.0000 3.8011
# 5 4.5858 9.9055 12.5994 0.0000 22.6409 0.0000
# 6 0.0001 0.0002 0.0000 3.8011 0.0000 15.5899
#
#
#
# Elastic Compliance Matrix: (Units=1/GPa)
#
#
# Indices 1 2 3 4 5 6 
#
# 1 0.080648 -0.007777 0.031050 0.000000 -0.030211 0.000000
# 2 -0.007777 0.023273 -0.013822 0.000000 -0.000915 0.000000
# 3 0.031050 -0.013822 0.064053 0.000000 -0.035886 0.000000
# 4 0.000000 0.000000 0.000000 0.029121 0.000000 -0.007100
# 5 -0.030211 -0.000915 -0.035886 0.000000 0.070658 0.000000
# 6 0.000000 0.000000 0.000000 -0.007100 0.000000 0.065875
#
#
# Mechanical properties :
#
#
# Convention : Reuss Voigt Hill
#
# Bulk Modulus (GPa) = 5.35116 14.00063 9.67589
# Shear Modulus (GPa) = 13.26190 20.31759 16.78975
#
# Velocity S-wave (km/s) = 2.76745 3.42542 3.11386
# Velocity P-wave (km/s) = 3.64720 4.87135 4.30303
#
# Compressibility (1/GPa) = 0.18687540
#
# Stress axis : x y z
#
# Youngs Moduli (GPa) = 12.39953 42.96774 15.61203
#
# Poissons Ratio (x) = 0.33416 -0.48475
# Poissons Ratio (y) = 0.09643 0.21580
# Poissons Ratio (z) = -0.38500 0.59392
#
# Static dielectric constant tensor:
#      x y z
#    x 2.825770 0.000000 -0.188160 
#    y 0.000000 3.300530 0.000000 
#    z -0.188160 0.000000 3.692520 
# 
# 
# High freq. dielectric constant tensor:
#      x y z
#    x 1.616700 0.000000 -0.002940 
#    y 0.000000 1.657000 0.000000 
#    z -0.002940 0.000000 1.681710 
# 
# From -- ./inp_files/314414.got.cif
#   From: 2010.06.25/outbox.cif.g09.slc.cpg/sg12_158_cif.got.tgz:314414.got - 2010.06.28 00:19:55.
