data_PCOD8116056
_publ_section_title
;
Structure prediction by ZEFSAII (Michael W. Deem and Ramdas Pophale) SiO2 
 PCOD8116056
Probable space group: C 2/M
;
_chemical_formula_sum "Si O2"
_cell_formula_units_Z 56
_cell_length_a 25.251109
_cell_length_b 9.172199
_cell_length_c 20.065392
_cell_angle_alpha 90.000000
_cell_angle_beta 49.423857
_cell_angle_gamma 90.000000
_cell_volume 3529.827558
_symmetry_space_group_name_H-M "C 2/M"
_symmetry_group_IT_number 12
_symmetry_cell_setting 'monoclinic'
loop_
_space_group_symop_operation_xyz
x,y,z
-x,y,-z
-x,-y,-z
x,-y,z
1/2+x,1/2+y,z
1/2-x,1/2+y,-z
1/2-x,1/2-y,-z
1/2+x,1/2-y,z
loop_
_atom_site_type_symbol
_atom_site_label
_atom_site_fract_x
_atom_site_fract_y
_atom_site_fract_z
Si Si1 0.190241 0.171893 0.751986
Si Si2 0.093862 0.170812 0.094961
Si Si3 0.306517 0.331501 0.102493
Si Si4 0.775423 0.835484 0.578149
Si Si5 0.643716 0.164108 0.589479
Si Si6 0.435369 0.331565 0.239895
Si Si7 0.803970 0.330406 0.908877
O O1 0.187096 0.238154 0.829327
O O2 0.253798 0.251094 0.662701
O O3 0.116736 0.209196 0.777375
O O4 0.205881 0.000000 0.737990
O O5 0.121227 0.253980 0.139423
O O6 0.012706 0.205024 0.151238
O O7 0.108461 0.000000 0.093103
O O8 0.135661 0.232844 0.996143
O O9 0.324895 0.500000 0.095069
O O10 0.227097 0.309590 0.140358
O O11 0.711551 0.835585 0.579711
O O12 0.840755 0.753113 0.490866
O O13 0.797920 0.000000 0.577563
O O14 0.580510 0.239112 0.680950
O O15 0.621889 0.000000 0.588305
O O16 0.427037 0.500000 0.266574
O O17 0.808941 0.500000 0.923280
O O18 0.750000 0.250000 0.000000
#
# Coordination Sequence:
#
# PCOD8116056 Si02
#       7
#     8   8   8   8   8   8   8
#     4   9  16  27  42  61  86 115 143 171 207 250
#     4   9  17  29  43  62  87 114 144 176 209 246
#     4   8  15  27  43  62  84 110 143 179 209 243
#     4   9  16  26  40  59  83 109 139 175 210 246
#     4   9  16  26  41  59  81 110 142 174 208 247
#     4   9  17  27  41  62  88 115 142 172 207 249
#     4   9  16  28  45  63  81 105 141 183 219 247
#
# _framework density 15.864798
#
# number of rings (size 3 to 8) (size 9 to 14) (size 15 to 20)
#    0.000    3.143    0.000    2.143    0.000    4.571 
#    0.000    6.429    0.000    0.000    0.000    9.000 
#    0.000    8.000    0.000    0.000    0.000    0.000 
#
# Total GULP energy -347013.591486 kJ/mol
# GULP energy per Si atom -12393.342553 kJ/mol
# Density = 1.582869 g / cm^3
# Si number density = 15.864798 Si / 1000 Ang^3
#
#
#
# Elastic Constant Matrix: (Units=GPa)
#
#
# Indices 1 2 3 4 5 6 
#
# 1 72.8258 36.1078 53.3139 -0.0025 8.3859 0.0020
# 2 36.1078 76.2916 46.4038 -0.0090 4.9077 0.0092
# 3 53.3139 46.4038 108.2278 0.0022 14.2865 -0.0014
# 4 -0.0025 -0.0090 0.0022 24.0958 -0.0033 -1.7676
# 5 8.3859 4.9077 14.2865 -0.0033 5.8777 0.0039
# 6 0.0020 0.0092 -0.0014 -1.7676 0.0039 18.3467
#
#
#
# Elastic Compliance Matrix: (Units=1/GPa)
#
#
# Indices 1 2 3 4 5 6 
#
# 1 0.023377 -0.005700 -0.007800 0.000000 -0.009634 0.000002
# 2 -0.005700 0.019239 -0.006470 0.000008 0.007795 -0.000010
# 3 -0.007800 -0.006470 0.020134 -0.000009 -0.032408 0.000012
# 4 0.000000 0.000008 -0.000009 0.041796 0.000036 0.004027
# 5 -0.009634 0.007795 -0.032408 0.000036 0.256141 -0.000056
# 6 0.000002 -0.000010 0.000012 0.004027 -0.000056 0.054894
#
#
# Mechanical properties :
#
#
# Convention : Reuss Voigt Hill
#
# Bulk Modulus (GPa) = 43.83979 58.77738 51.30859
# Shear Modulus (GPa) = 10.79620 17.76535 14.28078
#
# Velocity S-wave (km/s) = 2.61149 3.34997 3.00351
# Velocity P-wave (km/s) = 6.06519 7.21751 6.66629
#
# Compressibility (1/GPa) = 0.02281033
#
# Stress axis : x y z
#
# Youngs Moduli (GPa) = 42.77685 51.97688 49.66675
#
# Poissons Ratio (x) = 0.29627 0.38740
# Poissons Ratio (y) = 0.24383 0.32135
# Poissons Ratio (z) = 0.33366 0.33630
#
# Static dielectric constant tensor:
#      x y z
#    x 3.169740 0.000000 0.017980 
#    y 0.000000 3.107430 0.000000 
#    z 0.017980 0.000000 3.091510 
# 
# 
# High freq. dielectric constant tensor:
#      x y z
#    x 1.576000 0.000000 0.003570 
#    y 0.000000 1.605800 0.000000 
#    z 0.003570 0.000000 1.596550 
# 
# From -- ./inp_files/291667.got.cif
#   From: 2010.06.25/outbox.cif.g09.slc.cpg/sg12_146_cif.got.tgz:291667.got - 2010.06.28 00:19:55.
