data_PCOD8116648
_publ_section_title
;
Structure prediction by ZEFSAII (Michael W. Deem and Ramdas Pophale) SiO2 
 PCOD8116648
Probable space group: P 2/C
;
_chemical_formula_sum "Si O2"
_cell_formula_units_Z 26
_cell_length_a 8.599268
_cell_length_b 19.770319
_cell_length_c 7.731074
_cell_angle_alpha 90.000000
_cell_angle_beta 89.416590
_cell_angle_gamma 90.000000
_cell_volume 1314.293853
_symmetry_space_group_name_H-M "P 2/C"
_symmetry_group_IT_number 13
_symmetry_cell_setting 'monoclinic'
loop_
_space_group_symop_operation_xyz
x,y,z
-x,y,1/2-z
-x,-y,-z
x,-y,1/2+z
loop_
_atom_site_type_symbol
_atom_site_label
_atom_site_fract_x
_atom_site_fract_y
_atom_site_fract_z
Si Si1 0.668744 0.469873 0.456757
Si Si2 0.677766 0.061670 0.751147
Si Si3 0.500000 0.626971 0.750000
Si Si4 0.608813 0.295366 0.916540
Si Si5 0.819891 0.590558 0.285298
Si Si6 0.329112 0.910896 0.619953
Si Si7 0.328879 0.147996 0.450350
O O1 0.500000 0.500000 0.500000
O O2 0.649335 0.421422 0.288032
O O3 0.792789 0.528477 0.417202
O O4 0.725686 0.423827 0.612460
O O5 0.500000 0.087061 0.750000
O O6 0.756564 0.081978 0.564999
O O7 0.681869 0.982303 0.782072
O O8 0.762399 0.103799 0.903559
O O9 0.519967 0.670967 0.577897
O O10 0.500000 0.286618 0.750000
O O11 0.757938 0.339928 0.866620
O O12 0.667924 0.223929 0.983740
O O13 0.000000 0.600049 0.250000
O O14 0.504426 0.887401 0.580913
O O15 0.249338 0.858032 0.758492
#
# Coordination Sequence:
#
# PCOD8116648 Si02
#       7
#     4   4   2   4   4   4   4
#     4  12  20  40  66  92 118 151 199 246 297 356
#     4  10  14  23  40  61  98 141 177 228 290 349
#     4  12  22  36  66  88 114 154 194 244 290 354
#     4  12  23  39  55  82 120 160 203 235 295 370
#     4  12  24  40  63  92 124 156 199 254 303 351
#     4  10  15  25  39  66  99 141 183 230 291 346
#     4  10  19  26  42  67 101 150 187 225 281 360
#
# _framework density 19.782485999999999
#
# number of rings (size 3 to 8) (size 9 to 14) (size 15 to 20)
#    0.000    0.923    7.692    3.692    0.000    0.000 
#    0.000    0.000    0.000    0.000    0.000    0.000 
#    0.000    1.231    0.000    0.000    0.000    4.154 
#
# Total GULP energy -322096.133877 kJ/mol
# GULP energy per Si atom -12388.312841 kJ/mol
# Density = 1.973746 g / cm^3
# Si number density = 19.782486 Si / 1000 Ang^3
#
#
#
# Elastic Constant Matrix: (Units=GPa)
#
#
# Indices 1 2 3 4 5 6 
#
# 1 52.5242 27.8392 27.9358 0.0000 -8.2983 0.0000
# 2 27.8392 153.2934 73.1197 0.0000 -5.9166 0.0000
# 3 27.9358 73.1197 185.9413 0.0000 6.6510 0.0000
# 4 0.0000 0.0000 0.0000 38.3227 0.0000 -1.8040
# 5 -8.2983 -5.9166 6.6510 0.0000 16.7758 0.0000
# 6 0.0000 0.0000 0.0000 -1.8040 0.0000 2.8607
#
#
#
# Elastic Compliance Matrix: (Units=1/GPa)
#
#
# Indices 1 2 3 4 5 6 
#
# 1 0.023872 -0.002396 -0.003080 0.000000 0.012185 0.000000
# 2 -0.002396 0.008564 -0.003118 0.000000 0.003071 0.000000
# 3 -0.003080 -0.003118 0.007264 0.000000 -0.005503 0.000000
# 4 0.000000 0.000000 0.000000 0.026893 0.000000 0.016958
# 5 0.012185 0.003071 -0.005503 0.000000 0.068902 0.000000
# 6 0.000000 0.000000 0.000000 0.016958 0.000000 0.360260
#
#
# Mechanical properties :
#
#
# Convention : Reuss Voigt Hill
#
# Bulk Modulus (GPa) = 44.42002 72.17203 58.29603
# Shear Modulus (GPa) = 9.60714 29.11613 19.36163
#
# Velocity S-wave (km/s) = 2.20611 3.84058 3.13185
# Velocity P-wave (km/s) = 5.38444 7.49858 6.52767
#
# Compressibility (1/GPa) = 0.02251237
#
# Stress axis : x y z
#
# Youngs Moduli (GPa) = 41.89012 116.76514 137.67154
#
# Poissons Ratio (x) = 0.27974 0.42406
# Poissons Ratio (y) = 0.10036 0.42922
# Poissons Ratio (z) = 0.12903 0.36404
#
# Static dielectric constant tensor:
#      x y z
#    x 2.805320 0.000000 0.148030 
#    y 0.000000 3.756380 0.000000 
#    z 0.148030 0.000000 4.733080 
# 
# 
# High freq. dielectric constant tensor:
#      x y z
#    x 1.681080 0.000000 0.010420 
#    y 0.000000 1.777270 0.000000 
#    z 0.010420 0.000000 1.815180 
# 
# From -- ./inp_files/13092.got.cif
#   From: 2010.06.25/outbox.cif.g09.slc.cpg/sg13_7_cif.got.tgz:13092.got - 2010.06.28 04:50:58.
