data_PCOD8116155
_publ_section_title
;
Structure prediction by ZEFSAII (Michael W. Deem and Ramdas Pophale) SiO2 
 PCOD8116155
Probable space group: C 2/M
;
_chemical_formula_sum "Si O2"
_cell_formula_units_Z 32
_cell_length_a 13.034870
_cell_length_b 14.312564
_cell_length_c 8.915945
_cell_angle_alpha 90.000000
_cell_angle_beta 46.207157
_cell_angle_gamma 90.000000
_cell_volume 1200.705473
_symmetry_space_group_name_H-M "C 2/M"
_symmetry_group_IT_number 12
_symmetry_cell_setting 'monoclinic'
loop_
_space_group_symop_operation_xyz
x,y,z
-x,y,-z
-x,-y,-z
x,-y,z
1/2+x,1/2+y,z
1/2-x,1/2+y,-z
1/2-x,1/2-y,-z
1/2+x,1/2-y,z
loop_
_atom_site_type_symbol
_atom_site_label
_atom_site_fract_x
_atom_site_fract_y
_atom_site_fract_z
Si Si1 0.026679 0.390463 0.810684
Si Si2 0.641402 0.794392 0.258071
Si Si3 0.066852 0.101915 0.269239
Si Si4 0.707692 0.609086 0.641986
O O1 0.039579 0.500000 0.815531
O O2 0.176669 0.352058 0.594338
O O3 0.895871 0.367047 0.834709
O O4 0.000000 0.344153 0.000000
O O5 0.500000 0.780983 0.500000
O O6 0.677613 0.689726 0.153275
O O7 0.772758 0.835529 0.220628
O O8 0.000000 0.092233 0.500000
O O9 0.947900 0.126726 0.265800
O O10 0.137402 0.000000 0.160529
O O11 0.734440 0.500000 0.647587
#
# Coordination Sequence:
#
# PCOD8116155 Si02
#       4
#     8   8   8   8
#     4   9  17  29  47  74 104 129 159 202 246 288
#     4   9  17  28  49  72  96 123 161 201 239 282
#     4   9  18  31  49  74 101 127 160 203 246 287
#     4   9  17  31  52  75  98 127 162 200 243 289
#
# _framework density 26.650998999999999
#
# number of rings (size 3 to 8) (size 9 to 14) (size 15 to 20)
#    0.000    3.000    0.000    0.750    0.000   12.000 
#    0.000    0.000    0.000   26.250    0.000   14.000 
#    0.000    0.000    0.000    0.000    0.000    0.000 
#
# Total GULP energy -198351.420147 kJ/mol
# GULP energy per Si atom -12396.963759 kJ/mol
# Density = 2.659034 g / cm^3
# Si number density = 26.650999 Si / 1000 Ang^3
#
#
#
# Elastic Constant Matrix: (Units=GPa)
#
#
# Indices 1 2 3 4 5 6 
#
# 1 139.7628 73.4182 46.5934 0.0000 41.4444 0.0000
# 2 73.4182 98.1999 20.2478 0.0000 12.4247 0.0000
# 3 46.5934 20.2478 44.1964 0.0000 18.8745 0.0000
# 4 0.0000 0.0000 0.0000 30.2899 0.0000 16.0095
# 5 41.4444 12.4247 18.8745 0.0000 43.6047 0.0000
# 6 0.0000 0.0000 0.0000 16.0095 0.0000 -17.2820
#
#
#
# Elastic Compliance Matrix: (Units=1/GPa)
#
#
# Indices 1 2 3 4 5 6 
#
# 1 0.020167 -0.011341 -0.011359 0.000000 -0.011020 0.000000
# 2 -0.011341 0.017675 0.001725 0.000000 0.004996 0.000000
# 3 -0.011359 0.001725 0.036080 0.000000 -0.005313 0.000000
# 4 0.000000 0.000000 0.000000 0.022163 0.000000 0.020531
# 5 -0.011020 0.004996 -0.005313 0.000000 0.034283 0.000000
# 6 0.000000 0.000000 0.000000 0.020531 0.000000 -0.038845
#
#
# Mechanical properties :
#
#
# Convention : Reuss Voigt Hill
#
# Bulk Modulus (GPa) = 31.27792 62.51978 46.89885
# Shear Modulus (GPa) = 34.69083 20.78251 27.73667
#
# Velocity S-wave (km/s) = 3.61178 2.79552 3.22954
# Velocity P-wave (km/s) = 5.39953 5.82491 5.61625
#
# Compressibility (1/GPa) = 0.03197144
#
# Stress axis : x y z
#
# Youngs Moduli (GPa) = 49.58540 56.57805 27.71634
#
# Poissons Ratio (x) = 0.64168 0.31483
# Poissons Ratio (y) = 0.56237 -0.04782
# Poissons Ratio (z) = 0.56325 -0.09762
#
# Static dielectric constant tensor:
#      x y z
#    x 4.570300 0.000000 0.325620 
#    y 0.000000 5.266030 0.000000 
#    z 0.325620 0.000000 5.004400 
# 
# 
# High freq. dielectric constant tensor:
#      x y z
#    x 2.060230 0.000000 0.016840 
#    y 0.000000 2.081160 0.000000 
#    z 0.016840 0.000000 2.070150 
# 
# From -- ./inp_files/45245.got.cif
#   From: 2010.06.25/outbox.cif.g09.slc.cpg/sg12_23_cif.got.tgz:45245.got - 2010.06.28 00:19:55.
