data_PCOD8116413
_publ_section_title
;
Structure prediction by ZEFSAII (Michael W. Deem and Ramdas Pophale) SiO2 
 PCOD8116413
Probable space group: C 2/M
;
_chemical_formula_sum "Si O2"
_cell_formula_units_Z 28
_cell_length_a 30.000000
_cell_length_b 9.000000
_cell_length_c 18.000000
_cell_angle_alpha 90.000000
_cell_angle_beta 40.000000
_cell_angle_gamma 90.000000
_cell_volume 3123.947783
_symmetry_space_group_name_H-M "C 2/M"
_symmetry_group_IT_number 12
_symmetry_cell_setting 'monoclinic'
loop_
_space_group_symop_operation_xyz
x,y,z
-x,y,-z
-x,-y,-z
x,-y,z
1/2+x,1/2+y,z
1/2-x,1/2+y,-z
1/2-x,1/2-y,-z
1/2+x,1/2-y,z
loop_
_atom_site_type_symbol
_atom_site_label
_atom_site_fract_x
_atom_site_fract_y
_atom_site_fract_z
Si Si1 0.560222 0.822199 0.572983
Si Si2 0.685696 0.318246 0.846102
Si Si3 0.164085 0.819463 0.322120
Si Si4 0.892866 0.677477 0.920959
Si Si5 0.424077 0.821942 0.132201
Si Si6 0.458927 0.318805 0.245000
Si Si7 0.599593 0.171709 0.258393
O O1 0.608243 0.739345 0.452423
O O2 0.574481 0.748233 0.636193
O O3 0.482385 0.793370 0.642366
O O4 0.574742 0.000000 0.559302
O O5 0.684163 0.500000 0.845890
O O6 0.764292 0.256198 0.740902
O O7 0.635843 0.252681 0.843799
O O8 0.663738 0.253471 0.954292
O O9 0.139339 0.769602 0.270264
O O10 0.169623 0.000000 0.316342
O O11 0.900803 0.500000 0.925988
O O12 0.871139 0.704568 0.862441
O O13 0.962841 0.760877 0.854861
O O14 0.421308 0.746525 0.218358
O O15 0.410686 0.000000 0.155275
O O16 0.500000 0.790705 0.000000
O O17 0.455281 0.500000 0.249257
O O18 0.611698 0.000000 0.264557
#
# Coordination Sequence:
#
# PCOD8116413 Si02
#       7
#     8   8   8   8   8   8   8
#     4  10  21  40  64  88 119 157 200 246 294 345
#     4  12  25  40  60  86 120 158 199 244 296 356
#     4  12  25  40  59  85 120 159 200 245 297 353
#     4  10  20  37  59  87 121 156 195 244 298 349
#     4  11  22  38  63  90 121 156 194 240 294 351
#     4  11  21  35  60  93 123 152 195 244 293 346
#     4   9  20  38  62  88 117 155 199 244 294 349
#
# _framework density 8.9630179999999999
#
# number of rings (size 3 to 8) (size 9 to 14) (size 15 to 20)
#    0.000    1.286    1.429    6.429    0.000    6.286 
#    0.000    0.714    0.000    0.000    0.000    0.000 
#    0.000    0.000    0.000    0.000    0.000    0.000 
#
# Total GULP energy -346955.613605 kJ/mol
# GULP energy per Si atom -12391.271914 kJ/mol
# Density = 0.894262 g / cm^3
# Si number density = 8.963018 Si / 1000 Ang^3
#
#
#
# Elastic Constant Matrix: (Units=GPa)
#
#
# Indices 1 2 3 4 5 6 
#
# 1 168.0212 68.2493 52.6810 0.0043 13.3336 0.0051
# 2 68.2493 191.9148 42.5334 0.0187 7.8909 -0.0049
# 3 52.6810 42.5334 89.7685 0.0131 11.9961 -0.0046
# 4 0.0043 0.0187 0.0131 39.5602 -0.0010 4.2834
# 5 13.3336 7.8909 11.9961 -0.0010 37.2792 -0.0016
# 6 0.0051 -0.0049 -0.0046 4.2834 -0.0016 48.3697
#
#
#
# Elastic Compliance Matrix: (Units=1/GPa)
#
#
# Indices 1 2 3 4 5 6 
#
# 1 0.007983 -0.001995 -0.003568 0.000001 -0.001285 -0.000002
# 2 -0.001995 0.006325 -0.001821 -0.000002 -0.000039 0.000001
# 3 -0.003568 -0.001821 0.014498 -0.000004 -0.003004 0.000002
# 4 0.000001 -0.000002 -0.000004 0.025523 0.000002 -0.002260
# 5 -0.001285 -0.000039 -0.003004 0.000002 0.028259 0.000001
# 6 -0.000002 0.000001 0.000002 -0.002260 0.000001 0.020874
#
#
# Mechanical properties :
#
#
# Convention : Reuss Voigt Hill
#
# Bulk Modulus (GPa) = 71.23440 86.29244 78.76342
# Shear Modulus (GPa) = 40.68076 44.12455 42.40265
#
# Velocity S-wave (km/s) = 4.76896 4.96671 4.86884
# Velocity P-wave (km/s) = 8.37545 9.00741 8.69717
#
# Compressibility (1/GPa) = 0.01403816
#
# Stress axis : x y z
#
# Youngs Moduli (GPa) = 125.27188 158.09301 68.97724
#
# Poissons Ratio (x) = 0.31545 0.24608
# Poissons Ratio (y) = 0.24996 0.12560
# Poissons Ratio (z) = 0.44691 0.28786
#
# Static dielectric constant tensor:
#      x y z
#    x 3.814990 -0.000030 0.214050 
#    y -0.000030 3.897760 0.000030 
#    z 0.214050 0.000030 3.557990 
# 
# 
# High freq. dielectric constant tensor:
#      x y z
#    x 1.728840 0.000000 0.018020 
#    y 0.000000 1.736830 0.000000 
#    z 0.018020 0.000000 1.704490 
# 
# From -- ./inp_files/295048.got.cif
#   From: 2010.06.25/outbox.ucp.g09.slc.cvg/sg12_148_cif.got.tgz:295048.got - 2010.06.28 13:50:54.
