data_PCOD8116397
_publ_section_title
;
Structure prediction by ZEFSAII (Michael W. Deem and Ramdas Pophale) SiO2 
 PCOD8116397
Probable space group: C 2/M
;
_chemical_formula_sum "Si O2"
_cell_formula_units_Z 32
_cell_length_a 30.000000
_cell_length_b 9.000000
_cell_length_c 18.000000
_cell_angle_alpha 90.000000
_cell_angle_beta 40.000000
_cell_angle_gamma 90.000000
_cell_volume 3123.947783
_symmetry_space_group_name_H-M "C 2/M"
_symmetry_group_IT_number 12
_symmetry_cell_setting 'monoclinic'
loop_
_space_group_symop_operation_xyz
x,y,z
-x,y,-z
-x,-y,-z
x,-y,z
1/2+x,1/2+y,z
1/2-x,1/2+y,-z
1/2-x,1/2-y,-z
1/2+x,1/2-y,z
loop_
_atom_site_type_symbol
_atom_site_label
_atom_site_fract_x
_atom_site_fract_y
_atom_site_fract_z
Si Si1 0.551615 0.324778 0.293810
Si Si2 0.949547 0.176569 0.871914
Si Si3 0.418123 0.173346 0.507389
Si Si4 0.908997 0.827686 0.240770
Si Si5 0.809191 0.329913 0.266005
Si Si6 0.838569 0.328717 0.756997
Si Si7 0.336721 0.668892 0.485059
Si Si8 0.305833 0.673588 0.118958
O O1 0.547677 0.500000 0.304889
O O2 0.539601 0.266762 0.225549
O O3 0.492144 0.254131 0.421138
O O4 0.627471 0.271474 0.222677
O O5 0.013795 0.232649 0.839811
O O6 0.947236 0.000000 0.873935
O O7 0.877391 0.240051 0.995594
O O8 0.370941 0.218204 0.636939
O O9 0.378528 0.221042 0.483985
O O10 0.432888 0.000000 0.485139
O O11 0.879447 0.741909 0.207666
O O12 0.857870 0.796090 0.374258
O O13 0.911880 0.000000 0.216315
O O14 0.825310 0.500000 0.229741
O O15 0.745647 0.307183 0.404043
O O16 0.786306 0.254177 0.219391
O O17 0.854117 0.500000 0.754800
O O18 0.756137 0.297113 0.860444
O O19 0.357751 0.500000 0.479671
O O20 0.312306 0.500000 0.128297
#
# Coordination Sequence:
#
# PCOD8116397 Si02
#       8
#     8   8   8   8   8   8   8   8
#     4  11  22  38  60  87 117 151 191 236 287 339
#     4   9  20  39  62  84 109 149 201 241 276 337
#     4  11  21  35  58  87 118 151 188 231 284 345
#     4  10  20  38  61  84 114 152 193 234 281 345
#     4  11  23  37  57  89 121 148 187 239 290 340
#     4  10  22  38  57  86 118 149 190 236 284 343
#     4  10  20  36  59  85 117 151 188 233 284 344
#     4  10  21  41  63  81 110 155 198 237 282 338
#
# _framework density 10.243449
#
# number of rings (size 3 to 8) (size 9 to 14) (size 15 to 20)
#    0.000    1.750    2.500    1.875    0.000    5.000 
#    0.000    4.375    0.000    0.000    0.000    0.000 
#    0.000    0.000    0.000    0.000    0.000    0.000 
#
# Total GULP energy -396889.720352 kJ/mol
# GULP energy per Si atom -12402.803761 kJ/mol
# Density = 1.022013 g / cm^3
# Si number density = 10.243449 Si / 1000 Ang^3
#
#
#
# Elastic Constant Matrix: (Units=GPa)
#
#
# Indices 1 2 3 4 5 6 
#
# 1 106.2738 39.9779 15.1361 0.0096 -25.7826 -0.0002
# 2 39.9779 49.3125 21.5117 -0.0190 -9.3387 0.0200
# 3 15.1361 21.5117 73.2313 -0.0202 -27.7971 0.0145
# 4 0.0096 -0.0190 -0.0202 18.2911 0.0278 -2.7422
# 5 -25.7826 -9.3387 -27.7971 0.0278 28.4828 -0.0081
# 6 -0.0002 0.0200 0.0145 -2.7422 -0.0081 35.2619
#
#
#
# Elastic Compliance Matrix: (Units=1/GPa)
#
#
# Indices 1 2 3 4 5 6 
#
# 1 0.018703 -0.014913 0.008077 -0.000046 0.019923 0.000006
# 2 -0.014913 0.035192 -0.012707 0.000050 -0.014361 -0.000014
# 3 0.008077 -0.012707 0.026864 -0.000032 0.029363 0.000000
# 4 -0.000046 0.000050 -0.000032 0.055317 -0.000109 0.004302
# 5 0.019923 -0.014361 0.029363 -0.000109 0.077090 0.000005
# 6 0.000006 -0.000014 0.000000 0.004302 0.000005 0.028694
#
#
# Mechanical properties :
#
#
# Convention : Reuss Voigt Hill
#
# Bulk Modulus (GPa) = 23.99557 42.45208 33.22382
# Shear Modulus (GPa) = 16.95864 26.55328 21.75596
#
# Velocity S-wave (km/s) = 2.88024 3.60406 3.26229
# Velocity P-wave (km/s) = 4.77484 6.17135 5.51746
#
# Compressibility (1/GPa) = 0.04167436
#
# Stress axis : x y z
#
# Youngs Moduli (GPa) = 53.46865 28.41550 37.22465
#
# Poissons Ratio (x) = 0.42376 -0.30068
# Poissons Ratio (y) = 0.79737 0.47300
# Poissons Ratio (z) = -0.43189 0.36106
#
# Static dielectric constant tensor:
#      x y z
#    x 3.686610 -0.000040 -0.220970 
#    y -0.000040 3.446660 0.000040 
#    z -0.220970 0.000040 3.784480 
# 
# 
# High freq. dielectric constant tensor:
#      x y z
#    x 1.805250 0.000000 -0.015480 
#    y 0.000000 1.777730 0.000000 
#    z -0.015480 0.000000 1.794310 
# 
# From -- ./inp_files/295476.got.cif
#   From: 2010.06.25/outbox.ucp.g09.slc.cvg/sg12_148_cif.got.tgz:295476.got - 2010.06.28 13:50:54.
