data_PCOD8116032
_publ_section_title
;
Structure prediction by ZEFSAII (Michael W. Deem and Ramdas Pophale) SiO2 
 PCOD8116032
Probable space group: C 2/M
;
_chemical_formula_sum "Si O2"
_cell_formula_units_Z 48
_cell_length_a 20.151972
_cell_length_b 9.559166
_cell_length_c 21.181549
_cell_angle_alpha 90.000000
_cell_angle_beta 44.902377
_cell_angle_gamma 90.000000
_cell_volume 2880.308736
_symmetry_space_group_name_H-M "C 2/M"
_symmetry_group_IT_number 12
_symmetry_cell_setting 'monoclinic'
loop_
_space_group_symop_operation_xyz
x,y,z
-x,y,-z
-x,-y,-z
x,-y,z
1/2+x,1/2+y,z
1/2-x,1/2+y,-z
1/2-x,1/2-y,-z
1/2+x,1/2-y,z
loop_
_atom_site_type_symbol
_atom_site_label
_atom_site_fract_x
_atom_site_fract_y
_atom_site_fract_z
Si Si1 0.352684 0.665661 0.092426
Si Si2 0.342901 0.839486 0.440352
Si Si3 0.856647 0.666456 0.768420
Si Si4 0.999402 0.666580 0.429964
Si Si5 0.493437 0.839228 0.232015
Si Si6 0.490265 0.334467 0.108353
O O1 0.346885 0.500000 0.095667
O O2 0.248178 0.731548 0.158763
O O3 0.402713 0.712390 0.123578
O O4 0.413545 0.713778 0.991003
O O5 0.250000 0.750000 0.500000
O O6 0.404474 0.786708 0.458364
O O7 0.401859 0.820390 0.336803
O O8 0.313862 0.000000 0.469311
O O9 0.853295 0.500000 0.767693
O O10 0.910031 0.722761 0.669841
O O11 0.914094 0.711275 0.792088
O O12 0.003464 0.500000 0.429233
O O13 0.000000 0.730744 0.500000
O O14 0.480804 0.742543 0.180467
O O15 0.504448 0.000000 0.203382
O O16 0.489366 0.500000 0.120708
#
# Coordination Sequence:
#
# PCOD8116032 Si02
#       6
#     8   8   8   8   8   8
#     4   8  15  28  44  64  90 117 147 184 222 256
#     4   9  18  31  46  66  91 116 144 181 222 262
#     4   8  14  26  43  61  86 119 147 176 217 258
#     4   8  14  25  42  65  88 110 145 187 216 248
#     4   9  18  31  45  64  91 119 146 178 218 264
#     4   9  17  29  46  68  91 114 145 185 222 258
#
# _framework density 16.66488
#
# number of rings (size 3 to 8) (size 9 to 14) (size 15 to 20)
#    0.000    3.500    0.000    3.000    0.000    2.667 
#    0.000    5.000    0.000    1.500    0.000    0.000 
#    0.000    0.000    0.000    0.000    0.000    0.000 
#
# Total GULP energy -297450.229267 kJ/mol
# GULP energy per Si atom -12393.759553 kJ/mol
# Density = 1.662695 g / cm^3
# Si number density = 16.664880 Si / 1000 Ang^3
#
#
#
# Elastic Constant Matrix: (Units=GPa)
#
#
# Indices 1 2 3 4 5 6 
#
# 1 122.7659 36.1980 80.7010 0.0000 -6.9721 0.0000
# 2 36.1980 31.6144 35.7732 0.0000 2.2701 0.0001
# 3 80.7010 35.7732 93.7378 0.0000 0.2968 0.0000
# 4 0.0000 0.0000 0.0000 23.8539 0.0000 4.1256
# 5 -6.9721 2.2701 0.2968 0.0000 41.3226 0.0000
# 6 0.0000 0.0001 0.0000 4.1256 0.0000 22.2092
#
#
#
# Elastic Compliance Matrix: (Units=1/GPa)
#
#
# Indices 1 2 3 4 5 6 
#
# 1 0.019938 -0.006453 -0.014715 0.000000 0.003824 0.000000
# 2 -0.006453 0.058112 -0.016608 0.000000 -0.004162 0.000000
# 3 -0.014715 -0.016608 0.029680 0.000000 -0.001784 0.000000
# 4 0.000000 0.000000 0.000000 0.043313 0.000000 -0.008046
# 5 0.003824 -0.004162 -0.001784 0.000000 0.025087 0.000000
# 6 0.000000 0.000000 0.000000 -0.008046 0.000000 0.046521
#
#
# Mechanical properties :
#
#
# Convention : Reuss Voigt Hill
#
# Bulk Modulus (GPa) = 31.07721 61.49582 46.28652
# Shear Modulus (GPa) = 16.18485 23.84020 20.01252
#
# Velocity S-wave (km/s) = 3.11978 3.78638 3.46913
# Velocity P-wave (km/s) = 5.62727 7.48980 6.62432
#
# Compressibility (1/GPa) = 0.03217792
#
# Stress axis : x y z
#
# Youngs Moduli (GPa) = 50.15443 17.20807 33.69240
#
# Poissons Ratio (x) = 0.11105 0.49578
# Poissons Ratio (y) = 0.32366 0.55958
# Poissons Ratio (z) = 0.73801 0.28580
#
# Static dielectric constant tensor:
#      x y z
#    x 3.372020 0.000000 -0.155630 
#    y 0.000000 2.613210 0.000000 
#    z -0.155630 0.000000 3.403080 
# 
# 
# High freq. dielectric constant tensor:
#      x y z
#    x 1.650110 0.000000 -0.001850 
#    y 0.000000 1.586380 0.000000 
#    z -0.001850 0.000000 1.647960 
# 
# From -- ./inp_files/222399.got.cif
#   From: 2010.06.25/outbox.cif.g09.slc.cpg/sg12_112_cif.got.tgz:222399.got - 2010.06.28 00:19:55.
