data_PCOD8116867
_publ_section_title
;
Structure prediction by ZEFSAII (Michael W. Deem and Ramdas Pophale) SiO2 
 PCOD8116867
Probable space group: P 2/C
;
_chemical_formula_sum "Si O2"
_cell_formula_units_Z 22
_cell_length_a 8.456789
_cell_length_b 22.104726
_cell_length_c 5.384904
_cell_angle_alpha 90.000000
_cell_angle_beta 111.792418
_cell_angle_gamma 90.000000
_cell_volume 934.688409
_symmetry_space_group_name_H-M "P 2/C"
_symmetry_group_IT_number 13
_symmetry_cell_setting 'monoclinic'
loop_
_space_group_symop_operation_xyz
x,y,z
-x,y,1/2-z
-x,-y,-z
x,-y,1/2+z
loop_
_atom_site_type_symbol
_atom_site_label
_atom_site_fract_x
_atom_site_fract_y
_atom_site_fract_z
Si Si1 0.698572 0.731126 0.863920
Si Si2 0.679952 0.976262 0.997453
Si Si3 0.000000 0.048800 0.250000
Si Si4 0.169075 0.139123 0.986408
Si Si5 0.703111 0.669792 0.367174
Si Si6 0.297291 0.531941 0.132672
O O1 0.500000 0.717051 0.750000
O O2 0.777902 0.700707 0.661756
O O3 0.728775 0.802567 0.865281
O O4 0.777072 0.703314 0.164260
O O5 0.706160 0.906013 0.100546
O O6 0.592285 0.016621 0.169243
O O7 0.866194 0.005901 0.017424
O O8 0.877307 0.095353 0.317959
O O9 0.000000 0.161584 0.750000
O O10 0.500000 0.674075 0.250000
O O11 0.766068 0.600846 0.398528
O O12 0.500000 0.528288 0.250000
O O13 0.225889 0.499017 0.338905
#
# Coordination Sequence:
#
# PCOD8116867 Si02
#       6
#     4   4   2   4   4   4
#     4  10  22  35  50  70 106 149 172 194 248 319
#     4  10  17  30  48  74  96 120 155 210 270 312
#     4  10  18  32  50  78 102 122 162 220 282 302
#     4  11  20  32  54  77 100 128 176 218 253 304
#     4   9  18  34  48  68 106 146 170 198 254 310
#     4   9  15  24  45  73  97 126 169 214 247 284
#
# _framework density 23.537254000000001
#
# number of rings (size 3 to 8) (size 9 to 14) (size 15 to 20)
#    0.000    2.182    2.727    2.182    2.545    4.364 
#    0.000    0.000    0.000    4.364    0.000    0.000 
#    0.000   14.545    0.000    0.000    0.000    0.000 
#
# Total GULP energy -272709.366745 kJ/mol
# GULP energy per Si atom -12395.880307 kJ/mol
# Density = 2.348368 g / cm^3
# Si number density = 23.537254 Si / 1000 Ang^3
#
#
#
# Elastic Constant Matrix: (Units=GPa)
#
#
# Indices 1 2 3 4 5 6 
#
# 1 47.1531 20.7839 30.4826 0.0000 -10.1827 0.0000
# 2 20.7839 204.2676 81.8952 0.0000 -31.9167 0.0000
# 3 30.4826 81.8952 172.0327 0.0000 -36.0783 0.0000
# 4 0.0000 0.0000 0.0000 36.8955 0.0000 3.5826
# 5 -10.1827 -31.9167 -36.0783 0.0000 26.5370 0.0000
# 6 0.0000 0.0000 0.0000 3.5826 0.0000 6.2744
#
#
#
# Elastic Compliance Matrix: (Units=1/GPa)
#
#
# Indices 1 2 3 4 5 6 
#
# 1 0.024436 -0.000529 -0.003141 0.000000 0.004471 0.000000
# 2 -0.000529 0.006512 -0.001967 0.000000 0.004955 0.000000
# 3 -0.003141 -0.001967 0.009172 0.000000 0.008899 0.000000
# 4 0.000000 0.000000 0.000000 0.028694 0.000000 -0.016384
# 5 0.004471 0.004955 0.008899 0.000000 0.057456 0.000000
# 6 0.000000 0.000000 0.000000 -0.016384 0.000000 0.168734
#
#
# Mechanical properties :
#
#
# Convention : Reuss Voigt Hill
#
# Bulk Modulus (GPa) = 34.66496 76.64187 55.65342
# Shear Modulus (GPa) = 15.82806 33.29416 24.56111
#
# Velocity S-wave (km/s) = 2.59601 3.76510 3.23383
# Velocity P-wave (km/s) = 4.87292 7.17872 6.13512
#
# Compressibility (1/GPa) = 0.02884757
#
# Stress axis : x y z
#
# Youngs Moduli (GPa) = 40.92272 153.55610 109.02682
#
# Poissons Ratio (x) = 0.08117 0.34241
# Poissons Ratio (y) = 0.02163 0.21449
# Poissons Ratio (z) = 0.12852 0.30209
#
# Static dielectric constant tensor:
#      x y z
#    x 4.316730 0.000000 -0.165430 
#    y 0.000000 4.123080 0.000000 
#    z -0.165430 0.000000 4.549570 
# 
# 
# High freq. dielectric constant tensor:
#      x y z
#    x 1.923490 0.000000 -0.011010 
#    y 0.000000 1.927430 0.000000 
#    z -0.011010 0.000000 1.954060 
# 
# From -- ./inp_files/3506.got.cif
#   From: 2010.06.25/outbox.cif.g09.slc.cpg/sg13_2_cif.got.tgz:3506.got - 2010.06.28 04:50:58.
