data_PCOD8116245
_publ_section_title
;
Structure prediction by ZEFSAII (Michael W. Deem and Ramdas Pophale) SiO2 
 PCOD8116245
Probable space group: C 2/M
;
_chemical_formula_sum "Si O2"
_cell_formula_units_Z 32
_cell_length_a 27.000000
_cell_length_b 9.000000
_cell_length_c 21.000000
_cell_angle_alpha 90.000000
_cell_angle_beta 50.000000
_cell_angle_gamma 90.000000
_cell_volume 3909.124793
_symmetry_space_group_name_H-M "C 2/M"
_symmetry_group_IT_number 12
_symmetry_cell_setting 'monoclinic'
loop_
_space_group_symop_operation_xyz
x,y,z
-x,y,-z
-x,-y,-z
x,-y,z
1/2+x,1/2+y,z
1/2-x,1/2+y,-z
1/2-x,1/2-y,-z
1/2+x,1/2-y,z
loop_
_atom_site_type_symbol
_atom_site_label
_atom_site_fract_x
_atom_site_fract_y
_atom_site_fract_z
Si Si1 0.104625 0.670878 0.904381
Si Si2 0.008611 0.328856 0.096850
Si Si3 0.941483 0.169855 0.499454
Si Si4 0.304717 0.179119 0.997284
Si Si5 0.474549 0.825630 0.670573
Si Si6 0.859680 0.671632 0.667455
Si Si7 0.064324 0.822597 0.164434
Si Si8 0.724895 0.324602 0.843233
O O1 0.126929 0.500000 0.880368
O O2 0.165610 0.780773 0.845910
O O3 0.055684 0.711816 0.888558
O O4 0.071074 0.696458 0.000593
O O5 0.007154 0.500000 0.120814
O O6 0.010753 0.219212 0.155634
O O7 0.878731 0.240085 0.586918
O O8 0.000000 0.179046 0.500000
O O9 0.962285 0.259033 0.418157
O O10 0.925560 0.000000 0.493944
O O11 0.288353 0.230544 0.082194
O O12 0.305156 0.000000 0.993757
O O13 0.250000 0.250000 0.000000
O O14 0.371247 0.240291 0.912943
O O15 0.411822 0.800249 0.679235
O O16 0.460917 0.738668 0.747239
O O17 0.486543 0.000000 0.674087
O O18 0.856710 0.500000 0.650274
O O19 0.791005 0.724521 0.753273
O O20 0.074555 0.000000 0.160224
O O21 0.725691 0.500000 0.857967
#
# Coordination Sequence:
#
# PCOD8116245 Si02
#       8
#     8   8   8   8   8   8   8   8
#     4   9  18  33  53  73  96 129 168 210 255 301
#     4   9  18  34  53  72  96 129 168 210 255 301
#     4   9  17  30  49  73  99 126 163 211 253 289
#     4  12  24  37  50  67  98 137 174 207 245 293
#     4  10  19  33  52  71  99 138 172 205 247 295
#     4   9  19  33  49  71 100 134 169 202 243 297
#     4  12  23  34  50  75 102 131 169 209 251 299
#     4  11  21  33  50  75 103 132 169 209 249 296
#
# _framework density 8.1859760000000001
#
# number of rings (size 3 to 8) (size 9 to 14) (size 15 to 20)
#    0.000    1.875    1.250    4.875    0.000    4.500 
#    0.000    1.250    0.000    0.000    0.000    0.875 
#    0.000    0.000    0.000    0.000    0.000    0.000 
#
# Total GULP energy -396719.027472 kJ/mol
# GULP energy per Si atom -12397.469608 kJ/mol
# Density = 0.816734 g / cm^3
# Si number density = 8.185976 Si / 1000 Ang^3
#
#
#
# Elastic Constant Matrix: (Units=GPa)
#
#
# Indices 1 2 3 4 5 6 
#
# 1 61.4919 39.0024 46.3727 -0.0063 -1.0230 0.0077
# 2 39.0024 134.1672 69.0838 0.0010 3.4319 0.0136
# 3 46.3727 69.0838 153.7093 0.0025 1.1557 -0.0001
# 4 -0.0063 0.0010 0.0025 36.9322 -0.0038 1.1466
# 5 -1.0230 3.4319 1.1557 -0.0038 20.4485 0.0029
# 6 0.0077 0.0136 -0.0001 1.1466 0.0029 28.1723
#
#
#
# Elastic Compliance Matrix: (Units=1/GPa)
#
#
# Indices 1 2 3 4 5 6 
#
# 1 0.022661 -0.004050 -0.005032 0.000005 0.002098 -0.000005
# 2 -0.004050 0.010461 -0.003466 -0.000001 -0.001762 -0.000004
# 3 -0.005032 -0.003466 0.009583 -0.000002 -0.000212 0.000003
# 4 0.000005 -0.000001 -0.000002 0.027111 0.000006 -0.001103
# 5 0.002098 -0.001762 -0.000212 0.000006 0.049316 -0.000005
# 6 -0.000005 -0.000004 0.000003 -0.001103 -0.000005 0.035541
#
#
# Mechanical properties :
#
#
# Convention : Reuss Voigt Hill
#
# Bulk Modulus (GPa) = 56.79259 73.14290 64.96774
# Shear Modulus (GPa) = 26.93398 30.10457 28.51928
#
# Velocity S-wave (km/s) = 4.06042 4.29276 4.17821
# Velocity P-wave (km/s) = 7.53306 8.32725 7.94009
#
# Compressibility (1/GPa) = 0.01760793
#
# Stress axis : x y z
#
# Youngs Moduli (GPa) = 44.12893 95.59590 104.34666
#
# Poissons Ratio (x) = 0.38718 0.52508
# Poissons Ratio (y) = 0.17873 0.36170
# Poissons Ratio (z) = 0.22206 0.33137
#
# Static dielectric constant tensor:
#      x y z
#    x 3.161750 -0.000050 -0.017600 
#    y -0.000050 3.309020 0.000020 
#    z -0.017600 0.000020 3.289990 
# 
# 
# High freq. dielectric constant tensor:
#      x y z
#    x 1.609940 0.000000 0.001040 
#    y 0.000000 1.649000 0.000000 
#    z 0.001040 0.000000 1.636230 
# 
# From -- ./inp_files/326791.got.cif
#   From: 2010.06.25/outbox.ucp.g09.slc.cvg/sg12_164_cif.got.tgz:326791.got - 2010.06.28 13:50:54.
