data_PCOD8116100
_publ_section_title
;
Structure prediction by ZEFSAII (Michael W. Deem and Ramdas Pophale) SiO2 
 PCOD8116100
Probable space group: C 2/M
;
_chemical_formula_sum "Si O2"
_cell_formula_units_Z 40
_cell_length_a 10.284349
_cell_length_b 28.734345
_cell_length_c 8.675761
_cell_angle_alpha 90.000000
_cell_angle_beta 134.011025
_cell_angle_gamma 90.000000
_cell_volume 1843.907204
_symmetry_space_group_name_H-M "C 2/M"
_symmetry_group_IT_number 12
_symmetry_cell_setting 'monoclinic'
loop_
_space_group_symop_operation_xyz
x,y,z
-x,y,-z
-x,-y,-z
x,-y,z
1/2+x,1/2+y,z
1/2-x,1/2+y,-z
1/2-x,1/2-y,-z
1/2+x,1/2-y,z
loop_
_atom_site_type_symbol
_atom_site_label
_atom_site_fract_x
_atom_site_fract_y
_atom_site_fract_z
Si Si1 0.110542 0.782485 0.297319
Si Si2 0.742783 0.615736 0.431540
Si Si3 0.631979 0.118475 0.815901
Si Si4 0.438646 0.552461 0.126415
Si Si5 0.644207 0.781617 0.759551
O O1 0.250000 0.750000 0.500000
O O2 0.138895 0.835483 0.376008
O O3 0.156165 0.776282 0.152520
O O4 0.909958 0.763545 0.180782
O O5 0.810084 0.613106 0.312781
O O6 0.603316 0.574700 0.358867
O O7 0.922232 0.606978 0.681011
O O8 0.654878 0.172937 0.877921
O O9 0.760262 0.083317 0.015555
O O10 0.401226 0.500000 0.151182
O O11 0.500000 0.553741 0.000000
O O12 0.500000 0.790703 0.500000
#
# Coordination Sequence:
#
# PCOD8116100 Si02
#       5
#     8   8   8   8   8
#     4   9  14  24  42  64  88 120 146 174 215 260
#     4   9  15  26  41  57  83 115 142 173 221 258
#     4   9  14  26  41  56  82 116 143 171 217 264
#     4   9  18  27  38  59  83 110 147 183 216 261
#     4   9  14  24  42  63  88 121 146 172 217 259
#
# _framework density 21.693066000000002
#
# number of rings (size 3 to 8) (size 9 to 14) (size 15 to 20)
#    0.000    3.000    6.000    0.000    0.000    0.800 
#    0.000    5.000    0.000    0.000    0.000    0.000 
#    0.000   10.400    0.000    0.200    0.000    0.000 
#
# Total GULP energy -247779.217212 kJ/mol
# GULP energy per Si atom -12388.960861 kJ/mol
# Density = 2.164369 g / cm^3
# Si number density = 21.693066 Si / 1000 Ang^3
#
#
#
# Elastic Constant Matrix: (Units=GPa)
#
#
# Indices 1 2 3 4 5 6 
#
# 1 58.1550 51.7600 42.6315 0.0000 32.7452 0.0000
# 2 51.7600 186.0800 71.6695 0.0000 36.9298 0.0000
# 3 42.6315 71.6695 72.0056 0.0000 45.4258 0.0000
# 4 0.0000 0.0000 0.0000 32.6834 0.0000 11.1344
# 5 32.7452 36.9298 45.4258 0.0000 40.0268 0.0000
# 6 0.0000 0.0000 0.0000 11.1344 0.0000 22.2889
#
#
#
# Elastic Compliance Matrix: (Units=1/GPa)
#
#
# Indices 1 2 3 4 5 6 
#
# 1 0.035455 -0.004432 -0.003032 0.000000 -0.021474 0.000000
# 2 -0.004432 0.009753 -0.013005 0.000000 0.009387 0.000000
# 3 -0.003032 -0.013005 0.068627 0.000000 -0.063404 0.000000
# 4 0.000000 0.000000 0.000000 0.036872 0.000000 -0.018419
# 5 -0.021474 0.009387 -0.063404 0.000000 0.105846 0.000000
# 6 0.000000 0.000000 0.000000 -0.018419 0.000000 0.054067
#
#
# Mechanical properties :
#
#
# Convention : Reuss Voigt Hill
#
# Bulk Modulus (GPa) = 13.71844 72.04029 42.87937
# Shear Modulus (GPa) = 13.30296 29.01180 21.15738
#
# Velocity S-wave (km/s) = 2.47905 3.66098 3.12638
# Velocity P-wave (km/s) = 3.81206 7.15202 5.73076
#
# Compressibility (1/GPa) = 0.07289459
#
# Stress axis : x y z
#
# Youngs Moduli (GPa) = 28.20509 102.53310 14.57158
#
# Poissons Ratio (x) = 0.45446 0.04419
# Poissons Ratio (y) = 0.12501 0.18951
# Poissons Ratio (z) = 0.08553 1.33346
#
# Static dielectric constant tensor:
#      x y z
#    x 4.243590 0.000000 0.822060 
#    y 0.000000 4.077280 0.000000 
#    z 0.822060 0.000000 4.127030 
# 
# 
# High freq. dielectric constant tensor:
#      x y z
#    x 1.804160 0.000000 0.049570 
#    y 0.000000 1.843310 0.000000 
#    z 0.049570 0.000000 1.851080 
# 
# From -- ./inp_files/136801.got.cif
#   From: 2010.06.25/outbox.cif.g09.slc.cpg/sg12_69_cif.got.tgz:136801.got - 2010.06.28 00:19:55.
