data_PCOD8116837
_publ_section_title
;
Structure prediction by ZEFSAII (Michael W. Deem and Ramdas Pophale) SiO2 
 PCOD8116837
Probable space group: P 2/C
;
_chemical_formula_sum "Si O2"
_cell_formula_units_Z 30
_cell_length_a 13.392207
_cell_length_b 25.764746
_cell_length_c 5.187757
_cell_angle_alpha 90.000000
_cell_angle_beta 108.036211
_cell_angle_gamma 90.000000
_cell_volume 1702.059317
_symmetry_space_group_name_H-M "P 2/C"
_symmetry_group_IT_number 13
_symmetry_cell_setting 'monoclinic'
loop_
_space_group_symop_operation_xyz
x,y,z
-x,y,1/2-z
-x,-y,-z
x,-y,1/2+z
loop_
_atom_site_type_symbol
_atom_site_label
_atom_site_fract_x
_atom_site_fract_y
_atom_site_fract_z
Si Si1 0.621981 0.467529 0.838454
Si Si2 0.000000 0.952482 0.750000
Si Si3 0.113966 0.286885 0.432249
Si Si4 0.382625 0.701186 0.613442
Si Si5 0.890821 0.879523 0.056483
Si Si6 0.692059 0.354393 0.934488
Si Si7 0.806606 0.981454 0.075037
Si Si8 0.812064 0.231590 0.512991
O O1 0.500000 0.451643 0.750000
O O2 0.650706 0.492699 0.588160
O O3 0.691434 0.416378 0.929828
O O4 0.079080 0.913006 0.669051
O O5 0.916642 0.991481 0.539136
O O6 0.188012 0.337002 0.524642
O O7 0.112491 0.253681 0.698097
O O8 0.000000 0.306420 0.250000
O O9 0.156718 0.250890 0.241846
O O10 0.500000 0.722067 0.750000
O O11 0.381951 0.667648 0.351068
O O12 0.307117 0.751009 0.521334
O O13 0.346727 0.664829 0.819233
O O14 0.814622 0.830347 0.978633
O O15 0.000000 0.857552 0.250000
O O16 0.828468 0.921861 0.180528
O O17 0.743873 0.987906 0.752555
#
# Coordination Sequence:
#
# PCOD8116837 Si02
#       8
#     4   2   4   4   4   4   4   4
#     4  10  19  30  47  75 104 123 149 198 248 284
#     4  10  18  28  38  60  84 126 158 178 228 278
#     4  10  20  37  48  69  99 128 164 201 226 275
#     4  10  19  35  52  70  96 125 163 204 233 284
#     4  11  18  27  42  59  91 122 149 189 231 275
#     4  10  20  33  55  75  95 134 166 184 236 296
#     4  10  17  28  38  56  81 116 155 178 218 277
#     4  10  23  30  47  73  92 122 166 196 243 285
#
# _framework density 17.625707999999999
#
# number of rings (size 3 to 8) (size 9 to 14) (size 15 to 20)
#    0.000    1.867    2.000    4.000    2.800    1.067 
#    0.000    0.000    0.000    0.800    0.000    0.000 
#    0.000    4.267    0.000    0.000    0.000    3.200 
#
# Total GULP energy -371684.843937 kJ/mol
# GULP energy per Si atom -12389.494798 kJ/mol
# Density = 1.758559 g / cm^3
# Si number density = 17.625708 Si / 1000 Ang^3
#
#
#
# Elastic Constant Matrix: (Units=GPa)
#
#
# Indices 1 2 3 4 5 6 
#
# 1 40.7731 31.7392 18.9286 0.0000 11.6783 0.0000
# 2 31.7392 133.5344 32.6202 0.0000 7.2767 0.0000
# 3 18.9286 32.6202 90.8068 0.0000 -4.6428 0.0000
# 4 0.0000 0.0000 0.0000 19.4574 0.0000 1.1489
# 5 11.6783 7.2767 -4.6428 0.0000 27.8292 0.0000
# 6 0.0000 0.0000 0.0000 1.1489 0.0000 30.1553
#
#
#
# Elastic Compliance Matrix: (Units=1/GPa)
#
#
# Indices 1 2 3 4 5 6 
#
# 1 0.036524 -0.006401 -0.006064 0.000000 -0.014665 0.000000
# 2 -0.006401 0.009531 -0.002098 0.000000 -0.000156 0.000000
# 3 -0.006064 -0.002098 0.013301 0.000000 0.005312 0.000000
# 4 0.000000 0.000000 0.000000 0.051510 0.000000 -0.001962
# 5 -0.014665 -0.000156 0.005312 0.000000 0.043015 0.000000
# 6 0.000000 0.000000 0.000000 -0.001962 0.000000 0.033236
#
#
# Mechanical properties :
#
#
# Convention : Reuss Voigt Hill
#
# Bulk Modulus (GPa) = 33.07737 47.96560 40.52149
# Shear Modulus (GPa) = 22.09266 27.61014 24.85140
#
# Velocity S-wave (km/s) = 3.54423 3.96216 3.75901
# Velocity P-wave (km/s) = 5.96289 6.94292 6.47148
#
# Compressibility (1/GPa) = 0.03023215
#
# Stress axis : x y z
#
# Youngs Moduli (GPa) = 27.37920 104.92107 75.17956
#
# Poissons Ratio (x) = 0.67158 0.45588
# Poissons Ratio (y) = 0.17525 0.15769
# Poissons Ratio (z) = 0.16602 0.22007
#
# Static dielectric constant tensor:
#      x y z
#    x 3.041360 0.000000 -0.170640 
#    y 0.000000 3.175150 0.000000 
#    z -0.170640 0.000000 3.518130 
# 
# 
# High freq. dielectric constant tensor:
#      x y z
#    x 1.637490 0.000000 -0.029770 
#    y 0.000000 1.675900 0.000000 
#    z -0.029770 0.000000 1.699340 
# 
# From -- ./inp_files/5659.got.cif
#   From: 2010.06.25/outbox.cif.g09.slc.cpg/sg13_3_cif.got.tgz:5659.got - 2010.06.28 04:50:58.
