data_PCOD8116683
_publ_section_title
;
Structure prediction by ZEFSAII (Michael W. Deem and Ramdas Pophale) SiO2 
 PCOD8116683
Probable space group: P 2/C
;
_chemical_formula_sum "Si O2"
_cell_formula_units_Z 30
_cell_length_a 16.965350
_cell_length_b 24.086056
_cell_length_c 5.252561
_cell_angle_alpha 90.000000
_cell_angle_beta 83.216299
_cell_angle_gamma 90.000000
_cell_volume 2131.319199
_symmetry_space_group_name_H-M "P 2/C"
_symmetry_group_IT_number 13
_symmetry_cell_setting 'monoclinic'
loop_
_space_group_symop_operation_xyz
x,y,z
-x,y,1/2-z
-x,-y,-z
x,-y,1/2+z
loop_
_atom_site_type_symbol
_atom_site_label
_atom_site_fract_x
_atom_site_fract_y
_atom_site_fract_z
Si Si1 0.588392 0.847487 0.510022
Si Si2 0.590174 0.324703 0.693041
Si Si3 0.216730 0.463497 0.416566
Si Si4 0.965569 0.561799 0.513135
Si Si5 0.588388 0.023241 0.002476
Si Si6 0.588328 0.198493 0.515178
Si Si7 0.356399 0.380932 0.327735
Si Si8 0.500000 0.536456 0.750000
O O1 0.587190 0.912231 0.570751
O O2 0.500389 0.823666 0.498949
O O3 0.632595 0.835900 0.224247
O O4 0.631103 0.814039 0.727381
O O5 0.500000 0.347541 0.750000
O O6 0.588022 0.261369 0.606494
O O7 0.640027 0.354817 0.454314
O O8 0.630955 0.335098 0.952688
O O9 0.233244 0.500291 0.659368
O O10 0.128700 0.439104 0.450967
O O11 0.271782 0.409486 0.399559
O O12 0.000000 0.593017 0.750000
O O13 0.000000 0.500000 0.500000
O O14 0.000000 0.593014 0.250000
O O15 0.632221 0.008891 0.719169
O O16 0.500000 0.000000 0.000000
O O17 0.422418 0.427446 0.313279
O O18 0.500000 0.500000 0.500000
#
# Coordination Sequence:
#
# PCOD8116683 Si02
#       8
#     4   4   4   4   4   4   4   2
#     4  10  17  25  38  58  68  87 129 159 205 240
#     4  12  21  37  48  58  74 101 139 176 215 235
#     4  12  21  35  52  69  92 105 129 152 189 234
#     4  10  16  30  51  76  89 108 122 145 175 223
#     4  10  16  23  32  48  76  99 108 138 193 264
#     4  10  18  27  43  55  65  86 123 177 200 225
#     4  12  25  35  48  62  80 107 130 167 199 249
#     4  12  22  36  46  56  76 100 136 152 186 224
#
# _framework density 14.07579
#
# number of rings (size 3 to 8) (size 9 to 14) (size 15 to 20)
#    0.000    1.067    5.333    7.200    1.867    0.000 
#    0.000    0.000    0.000    0.000    0.000    0.000 
#    0.000    0.000    0.000    0.000    0.000    0.000 
#
# Total GULP energy -371680.389030 kJ/mol
# GULP energy per Si atom -12389.346301 kJ/mol
# Density = 1.404375 g / cm^3
# Si number density = 14.075790 Si / 1000 Ang^3
#
#
#
# Elastic Constant Matrix: (Units=GPa)
#
#
# Indices 1 2 3 4 5 6 
#
# 1 57.1114 21.8319 17.2313 0.0000 -3.5399 0.0000
# 2 21.8319 71.2837 34.8285 0.0000 0.1669 0.0000
# 3 17.2313 34.8285 154.4533 0.0000 6.0533 0.0000
# 4 0.0000 0.0000 0.0000 26.7920 0.0000 3.1852
# 5 -3.5399 0.1669 6.0533 0.0000 13.0886 0.0000
# 6 0.0000 0.0000 0.0000 3.1852 0.0000 6.1896
#
#
#
# Elastic Compliance Matrix: (Units=1/GPa)
#
#
# Indices 1 2 3 4 5 6 
#
# 1 0.020433 -0.005665 -0.001244 0.000000 0.006174 0.000000
# 2 -0.005665 0.017364 -0.003274 0.000000 -0.000239 0.000000
# 3 -0.001244 -0.003274 0.007499 0.000000 -0.003763 0.000000
# 4 0.000000 0.000000 0.000000 0.039757 0.000000 -0.020459
# 5 0.006174 -0.000239 -0.003763 0.000000 0.079816 0.000000
# 6 0.000000 0.000000 0.000000 -0.020459 0.000000 0.172090
#
#
# Mechanical properties :
#
#
# Convention : Reuss Voigt Hill
#
# Bulk Modulus (GPa) = 40.11233 47.84800 43.98017
# Shear Modulus (GPa) = 13.67486 23.14447 18.40967
#
# Velocity S-wave (km/s) = 3.12030 4.05937 3.62041
# Velocity P-wave (km/s) = 6.44523 7.48587 6.98495
#
# Compressibility (1/GPa) = 0.02492999
#
# Stress axis : x y z
#
# Youngs Moduli (GPa) = 48.94022 57.59181 133.35068
#
# Poissons Ratio (x) = 0.32623 0.16592
# Poissons Ratio (y) = 0.27722 0.43660
# Poissons Ratio (z) = 0.06089 0.18856
#
# Static dielectric constant tensor:
#      x y z
#    x 2.391170 0.000000 -0.212990 
#    y 0.000000 2.655750 0.000000 
#    z -0.212990 0.000000 5.392300 
# 
# 
# High freq. dielectric constant tensor:
#      x y z
#    x 1.463230 0.000000 0.006450 
#    y 0.000000 1.520540 0.000000 
#    z 0.006450 0.000000 1.584140 
# 
# From -- ./inp_files/5504.got.cif
#   From: 2010.06.25/outbox.cif.g09.slc.cpg/sg13_3_cif.got.tgz:5504.got - 2010.06.28 04:50:58.
