data_PCOD8116905
_publ_section_title
;
Structure prediction by ZEFSAII (Michael W. Deem and Ramdas Pophale) SiO2 
 PCOD8116905
Probable space group: P 2/C
;
_chemical_formula_sum "Si O2"
_cell_formula_units_Z 32
_cell_length_a 20.940478
_cell_length_b 5.047860
_cell_length_c 17.718827
_cell_angle_alpha 90.000000
_cell_angle_beta 72.006547
_cell_angle_gamma 90.000000
_cell_volume 1781.358404
_symmetry_space_group_name_H-M "P 2/C"
_symmetry_group_IT_number 13
_symmetry_cell_setting 'monoclinic'
loop_
_space_group_symop_operation_xyz
x,y,z
-x,y,1/2-z
-x,-y,-z
x,-y,1/2+z
loop_
_atom_site_type_symbol
_atom_site_label
_atom_site_fract_x
_atom_site_fract_y
_atom_site_fract_z
Si Si1 0.466277 0.999699 0.592953
Si Si2 0.046295 0.980143 0.660596
Si Si3 0.333642 0.043174 0.063902
Si Si4 0.662310 0.542807 0.540627
Si Si5 0.191961 0.933205 0.104338
Si Si6 0.047791 0.519368 0.054331
Si Si7 0.194473 0.432976 0.009261
Si Si8 0.478708 0.500151 0.342924
O O1 0.489107 0.250668 0.629851
O O2 0.500000 0.000000 0.500000
O O3 0.385880 0.000790 0.612374
O O4 0.488897 0.748539 0.630025
O O5 0.121378 0.996563 0.669478
O O6 0.033593 0.706652 0.621509
O O7 0.000000 0.009377 0.750000
O O8 0.034842 0.206656 0.602367
O O9 0.258894 0.005628 0.127724
O O10 0.343217 0.335473 0.026280
O O11 0.344020 0.835387 0.991838
O O12 0.734522 0.504610 0.557960
O O13 0.602216 0.499488 0.621596
O O14 0.195541 0.121306 0.028306
O O15 0.193698 0.621653 0.084025
O O16 0.124287 0.499394 0.992547
O O17 0.000000 0.500000 0.000000
O O18 0.500000 0.501551 0.250000
#
# Coordination Sequence:
#
# PCOD8116905 Si02
#       8
#     4   4   4   4   4   4   4   4
#     4  12  21  36  57  80  98 132 180 214 249 297
#     4  10  19  33  54  77 106 138 168 203 256 313
#     4  10  18  30  55  77  97 123 176 224 240 279
#     4  10  17  32  51  75  98 132 170 210 250 298
#     4   8  16  29  47  76  99 127 166 209 249 291
#     4  10  19  33  53  79 103 133 174 215 248 290
#     4   8  16  28  49  72  97 129 172 207 241 295
#     4  12  24  36  52  77 110 137 164 208 267 314
#
# _framework density 17.963819999999998
#
# number of rings (size 3 to 8) (size 9 to 14) (size 15 to 20)
#    0.000    2.000    2.500    2.250    0.000    0.000 
#    0.000    0.000    5.500    0.000    0.000    0.000 
#    0.000    0.000    0.000    0.000    0.000    0.000 
#
# Total GULP energy -396479.527695 kJ/mol
# GULP energy per Si atom -12389.985240 kJ/mol
# Density = 1.792293 g / cm^3
# Si number density = 17.963820 Si / 1000 Ang^3
#
#
#
# Elastic Constant Matrix: (Units=GPa)
#
#
# Indices 1 2 3 4 5 6 
#
# 1 187.6677 27.7800 65.9357 0.0000 -20.4809 0.0000
# 2 27.7800 106.8570 26.2916 0.0000 3.8191 0.0000
# 3 65.9357 26.2916 88.5905 0.0000 -9.3442 0.0000
# 4 0.0000 0.0000 0.0000 18.8569 0.0000 1.8071
# 5 -20.4809 3.8191 -9.3442 0.0000 26.2427 0.0000
# 6 0.0000 0.0000 0.0000 1.8071 0.0000 27.4036
#
#
#
# Elastic Compliance Matrix: (Units=1/GPa)
#
#
# Indices 1 2 3 4 5 6 
#
# 1 0.007696 -0.000928 -0.004992 0.000000 0.004364 0.000000
# 2 -0.000928 0.010386 -0.002730 0.000000 -0.003208 0.000000
# 3 -0.004992 -0.002730 0.016047 0.000000 0.002215 0.000000
# 4 0.000000 0.000000 0.000000 0.053368 0.000000 -0.003519
# 5 0.004364 -0.003208 0.002215 0.000000 0.042767 0.000000
# 6 0.000000 0.000000 0.000000 -0.003519 0.000000 0.036724
#
#
# Mechanical properties :
#
#
# Convention : Reuss Voigt Hill
#
# Bulk Modulus (GPa) = 59.42245 69.23666 64.32956
# Shear Modulus (GPa) = 26.32978 32.04117 29.18547
#
# Velocity S-wave (km/s) = 3.83261 4.22791 4.03511
# Velocity P-wave (km/s) = 7.26196 7.90314 7.58932
#
# Compressibility (1/GPa) = 0.01682866
#
# Stress axis : x y z
#
# Youngs Moduli (GPa) = 129.93298 96.28398 62.31592
#
# Poissons Ratio (x) = 0.08940 0.31110
# Poissons Ratio (y) = 0.12064 0.17010
# Poissons Ratio (z) = 0.64866 0.26282
#
# Static dielectric constant tensor:
#      x y z
#    x 3.860030 0.000000 -0.392300 
#    y 0.000000 3.580130 0.000000 
#    z -0.392300 0.000000 2.683990 
# 
# 
# High freq. dielectric constant tensor:
#      x y z
#    x 1.720470 0.000000 -0.025460 
#    y 0.000000 1.726200 0.000000 
#    z -0.025460 0.000000 1.624250 
# 
# From -- ./inp_files/56558.got.cif
#   From: 2010.06.25/outbox.cif.g09.slc.cpg/sg13_29_cif.got.tgz:56558.got - 2010.06.28 04:50:58.
