data_PCOD8116450
_publ_section_title
;
Structure prediction by ZEFSAII (Michael W. Deem and Ramdas Pophale) SiO2 
 PCOD8116450
Probable space group: C 2/M
;
_chemical_formula_sum "Si O2"
_cell_formula_units_Z 32
_cell_length_a 30.000000
_cell_length_b 9.000000
_cell_length_c 18.000000
_cell_angle_alpha 90.000000
_cell_angle_beta 40.000000
_cell_angle_gamma 90.000000
_cell_volume 3123.947783
_symmetry_space_group_name_H-M "C 2/M"
_symmetry_group_IT_number 12
_symmetry_cell_setting 'monoclinic'
loop_
_space_group_symop_operation_xyz
x,y,z
-x,y,-z
-x,-y,-z
x,-y,z
1/2+x,1/2+y,z
1/2-x,1/2+y,-z
1/2-x,1/2-y,-z
1/2+x,1/2-y,z
loop_
_atom_site_type_symbol
_atom_site_label
_atom_site_fract_x
_atom_site_fract_y
_atom_site_fract_z
Si Si1 0.907342 0.833143 0.702318
Si Si2 0.058967 0.170140 0.869342
Si Si3 0.676151 0.330512 0.823423
Si Si4 0.189189 0.166996 0.039908
Si Si5 0.960995 0.331012 0.412491
Si Si6 0.673177 0.168126 0.318233
Si Si7 0.610771 0.827617 0.029880
Si Si8 0.477002 0.324831 0.243492
O O1 0.878815 0.833755 0.822022
O O2 0.847368 0.765224 0.726651
O O3 0.979737 0.743690 0.611752
O O4 0.923157 0.000000 0.654608
O O5 0.140745 0.181309 0.787377
O O6 0.055891 0.241097 0.790784
O O7 0.035772 0.000000 0.889307
O O8 0.000000 0.241651 0.000000
O O9 0.667981 0.500000 0.863276
O O10 0.756078 0.278069 0.729610
O O11 0.622229 0.216618 0.930593
O O12 0.181454 0.271232 0.977645
O O13 0.209969 0.000000 0.989968
O O14 0.250000 0.250000 0.000000
O O15 0.984436 0.500000 0.368767
O O16 0.888364 0.319628 0.545528
O O17 0.943616 0.251441 0.357459
O O18 0.683088 0.000000 0.277854
O O19 0.556376 0.723213 0.140497
O O20 0.594217 0.000000 0.062120
O O21 0.469048 0.500000 0.263326
#
# Coordination Sequence:
#
# PCOD8116450 Si02
#       8
#     8   8   8   8   8   8   8   8
#     4  11  23  38  59  85 114 152 200 245 286 341
#     4   9  17  33  61  91 116 148 192 241 289 349
#     4  10  20  39  63  86 117 156 197 240 290 353
#     4  11  23  37  54  81 118 156 195 237 289 350
#     4  11  23  40  60  85 118 155 198 245 293 345
#     4  10  23  40  60  85 116 156 198 242 293 346
#     4  12  23  35  55  85 120 155 189 236 296 350
#     4  11  21  37  61  88 115 149 196 241 290 347
#
# _framework density 10.243449
#
# number of rings (size 3 to 8) (size 9 to 14) (size 15 to 20)
#    0.000    1.375    2.500    3.750    0.000    6.500 
#    0.000    2.500    0.000    0.000    0.000    0.000 
#    0.000    0.000    0.000    0.000    0.000    0.000 
#
# Total GULP energy -396459.176262 kJ/mol
# GULP energy per Si atom -12389.349258 kJ/mol
# Density = 1.022013 g / cm^3
# Si number density = 10.243449 Si / 1000 Ang^3
#
#
#
# Elastic Constant Matrix: (Units=GPa)
#
#
# Indices 1 2 3 4 5 6 
#
# 1 138.8146 46.2637 25.6132 0.0061 -5.1011 -0.0091
# 2 46.2637 93.8821 31.4757 0.0280 0.6263 -0.0156
# 3 25.6132 31.4757 44.8108 0.0044 -5.5943 -0.0042
# 4 0.0061 0.0280 0.0044 22.3787 0.0001 2.7079
# 5 -5.1011 0.6263 -5.5943 0.0001 27.6375 0.0023
# 6 -0.0091 -0.0156 -0.0042 2.7079 0.0023 23.7978
#
#
#
# Elastic Compliance Matrix: (Units=1/GPa)
#
#
# Indices 1 2 3 4 5 6 
#
# 1 0.008887 -0.003579 -0.002412 0.000003 0.001233 0.000000
# 2 -0.003579 0.015525 -0.009219 -0.000018 -0.002878 0.000010
# 3 -0.002412 -0.009219 0.030922 0.000006 0.006023 -0.000003
# 4 0.000003 -0.000018 0.000006 0.045309 0.000002 -0.005156
# 5 0.001233 -0.002878 0.006023 0.000002 0.037695 -0.000004
# 6 0.000000 0.000010 -0.000003 -0.005156 -0.000004 0.042607
#
#
# Mechanical properties :
#
#
# Convention : Reuss Voigt Hill
#
# Bulk Modulus (GPa) = 40.13644 53.80141 46.96893
# Shear Modulus (GPa) = 22.76142 26.37310 24.56726
#
# Velocity S-wave (km/s) = 3.33682 3.59181 3.46666
# Velocity P-wave (km/s) = 5.87193 6.59696 6.24498
#
# Compressibility (1/GPa) = 0.02491501
#
# Stress axis : x y z
#
# Youngs Moduli (GPa) = 112.52418 64.41079 32.33948
#
# Poissons Ratio (x) = 0.23053 0.07800
# Poissons Ratio (y) = 0.40273 0.29813
# Poissons Ratio (z) = 0.27138 0.59379
#
# Static dielectric constant tensor:
#      x y z
#    x 3.859760 -0.000010 0.138140 
#    y -0.000010 3.637670 0.000030 
#    z 0.138140 0.000030 3.843090 
# 
# 
# High freq. dielectric constant tensor:
#      x y z
#    x 1.812460 0.000000 -0.002390 
#    y 0.000000 1.784390 0.000000 
#    z -0.002390 0.000000 1.777280 
# 
# From -- ./inp_files/295595.got.cif
#   From: 2010.06.25/outbox.ucp.g09.slc.cvg/sg12_148_cif.got.tgz:295595.got - 2010.06.28 13:50:54.
