data_PCOD8116211
_publ_section_title
;
Structure prediction by ZEFSAII (Michael W. Deem and Ramdas Pophale) SiO2 
 PCOD8116211
Probable space group: C 2/M
;
_chemical_formula_sum "Si O2"
_cell_formula_units_Z 28
_cell_length_a 15.000000
_cell_length_b 21.000000
_cell_length_c 15.000000
_cell_angle_alpha 90.000000
_cell_angle_beta 40.000000
_cell_angle_gamma 90.000000
_cell_volume 3037.171456
_symmetry_space_group_name_H-M "C 2/M"
_symmetry_group_IT_number 12
_symmetry_cell_setting 'monoclinic'
loop_
_space_group_symop_operation_xyz
x,y,z
-x,y,-z
-x,-y,-z
x,-y,z
1/2+x,1/2+y,z
1/2-x,1/2+y,-z
1/2-x,1/2-y,-z
1/2+x,1/2-y,z
loop_
_atom_site_type_symbol
_atom_site_label
_atom_site_fract_x
_atom_site_fract_y
_atom_site_fract_z
Si Si1 0.964880 0.654698 0.425240
Si Si2 0.703248 0.570834 0.664574
Si Si3 0.252857 0.826107 0.084320
Si Si4 0.482232 0.769873 0.790560
Si Si5 0.390314 0.425645 0.896942
Si Si6 0.251747 0.385160 0.184861
Si Si7 0.359477 0.746688 0.156673
O O1 0.817465 0.618797 0.538167
O O2 0.958547 0.707957 0.351320
O O3 0.000000 0.680036 0.500000
O O4 0.085540 0.605430 0.300843
O O5 0.736414 0.500000 0.603763
O O6 0.549512 0.592428 0.753070
O O7 0.697259 0.567720 0.777048
O O8 0.203950 0.899522 0.112786
O O9 0.290669 0.807534 0.157616
O O10 0.118058 0.789879 0.148377
O O11 0.385415 0.820272 0.917179
O O12 0.612567 0.756283 0.758552
O O13 0.367008 0.500000 0.922988
O O14 0.340375 0.393919 0.028044
O O15 0.259155 0.312600 0.216597
O O16 0.500000 0.728302 0.000000
#
# Coordination Sequence:
#
# PCOD8116211 Si02
#       7
#     8   8   8   8   8   8   8
#     4  10  21  35  54  79 121 150 184 223 274 343
#     4  10  22  35  50  78 118 155 182 223 284 340
#     4  10  18  34  57  85 111 141 186 235 282 327
#     4  10  18  35  58  84 114 146 182 229 286 331
#     4  11  21  34  56  82 110 147 193 237 276 326
#     4  11  18  34  56  84 111 144 192 233 276 335
#     4  10  19  30  59  88 114 144 181 235 291 330
#
# _framework density 9.2191039999999997
#
# number of rings (size 3 to 8) (size 9 to 14) (size 15 to 20)
#    0.000    1.714    2.857    4.286    0.000    4.286 
#    0.000    6.429    0.000    4.714    0.000    2.000 
#    0.000    0.000    0.000    0.000    0.000    0.000 
#
# Total GULP energy -346875.209829 kJ/mol
# GULP energy per Si atom -12388.400351 kJ/mol
# Density = 0.919812 g / cm^3
# Si number density = 9.219104 Si / 1000 Ang^3
#
#
#
# Elastic Constant Matrix: (Units=GPa)
#
#
# Indices 1 2 3 4 5 6 
#
# 1 111.3292 42.0619 37.5023 -0.0001 9.1654 -0.0002
# 2 42.0619 59.2152 40.2840 0.0010 -4.6578 -0.0002
# 3 37.5023 40.2840 99.3074 0.0001 2.8669 -0.0003
# 4 -0.0001 0.0010 0.0001 19.8944 0.0009 -1.4217
# 5 9.1654 -4.6578 2.8669 0.0009 31.1753 -0.0004
# 6 -0.0002 -0.0002 -0.0003 -1.4217 -0.0004 27.7749
#
#
#
# Elastic Compliance Matrix: (Units=1/GPa)
#
#
# Indices 1 2 3 4 5 6 
#
# 1 0.013190 -0.008953 -0.001202 0.000001 -0.005105 0.000000
# 2 -0.008953 0.030010 -0.009022 -0.000002 0.007945 0.000000
# 3 -0.001202 -0.009022 0.014250 0.000000 -0.002305 0.000000
# 4 0.000001 -0.000002 0.000000 0.050450 -0.000002 0.002582
# 5 -0.005105 0.007945 -0.002305 -0.000002 0.034977 0.000000
# 6 0.000000 0.000000 0.000000 0.002582 0.000000 0.036136
#
#
# Mechanical properties :
#
#
# Convention : Reuss Voigt Hill
#
# Bulk Modulus (GPa) = 52.36683 56.61648 54.49166
# Shear Modulus (GPa) = 22.34828 25.76917 24.05872
#
# Velocity S-wave (km/s) = 3.48525 3.74250 3.61616
# Velocity P-wave (km/s) = 6.68273 7.03191 6.85954
#
# Compressibility (1/GPa) = 0.01909606
#
# Stress axis : x y z
#
# Youngs Moduli (GPa) = 75.81402 33.32263 70.17637
#
# Poissons Ratio (x) = 0.29834 0.08434
# Poissons Ratio (y) = 0.67878 0.63311
# Poissons Ratio (z) = 0.09112 0.30063
#
# Static dielectric constant tensor:
#      x y z
#    x 3.661330 0.000000 -0.081260 
#    y 0.000000 3.185600 0.000000 
#    z -0.081260 0.000000 3.452230 
# 
# 
# High freq. dielectric constant tensor:
#      x y z
#    x 1.716170 0.000000 -0.014620 
#    y 0.000000 1.685600 0.000000 
#    z -0.014620 0.000000 1.718660 
# 
# From -- ./inp_files/217667.got.cif
#   From: 2010.06.25/outbox.ucp.g09.slc.cvg/sg12_109_cif.got.tgz:217667.got - 2010.06.28 13:50:54.
