data_PCOD8116131
_publ_section_title
;
Structure prediction by ZEFSAII (Michael W. Deem and Ramdas Pophale) SiO2 
 PCOD8116131
Probable space group: C 2/M
;
_chemical_formula_sum "Si O2"
_cell_formula_units_Z 56
_cell_length_a 20.492022
_cell_length_b 9.833478
_cell_length_c 16.242423
_cell_angle_alpha 90.000000
_cell_angle_beta 108.154017
_cell_angle_gamma 90.000000
_cell_volume 3110.054859
_symmetry_space_group_name_H-M "C 2/M"
_symmetry_group_IT_number 12
_symmetry_cell_setting 'monoclinic'
loop_
_space_group_symop_operation_xyz
x,y,z
-x,y,-z
-x,-y,-z
x,-y,z
1/2+x,1/2+y,z
1/2-x,1/2+y,-z
1/2-x,1/2-y,-z
1/2+x,1/2-y,z
loop_
_atom_site_type_symbol
_atom_site_label
_atom_site_fract_x
_atom_site_fract_y
_atom_site_fract_z
Si Si1 0.024286 0.660633 0.423179
Si Si2 0.669533 0.158431 0.890345
Si Si3 0.118779 0.339868 0.212311
Si Si4 0.827953 0.351912 0.481349
Si Si5 0.705075 0.842654 0.091052
Si Si6 0.260934 0.149035 0.624920
Si Si7 0.478014 0.162097 0.230813
O O1 0.013141 0.500000 0.419515
O O2 0.103624 0.702093 0.447634
O O3 0.985308 0.718420 0.327343
O O4 0.000000 0.725770 0.500000
O O5 0.727907 0.248616 0.868667
O O6 0.594722 0.212783 0.833313
O O7 0.680969 0.000000 0.871884
O O8 0.672926 0.181448 0.989209
O O9 0.113521 0.500000 0.220916
O O10 0.145461 0.299392 0.131957
O O11 0.174712 0.287328 0.300685
O O12 0.042527 0.280271 0.201683
O O13 0.841298 0.500000 0.445462
O O14 0.802824 0.254257 0.396785
O O15 0.773555 0.367477 0.532842
O O16 0.726766 0.000000 0.112522
O O17 0.241137 0.000000 0.653841
O O18 0.480025 0.000000 0.229574
#
# Coordination Sequence:
#
# PCOD8116131 Si02
#       7
#     8   8   8   8   8   8   8
#     4   9  16  26  41  63  91 120 150 186 230 275
#     4   9  18  32  51  73  96 122 153 192 236 278
#     4   9  16  28  47  69  94 123 157 195 234 276
#     4   9  16  27  43  63  86 115 150 185 223 263
#     4   9  18  32  50  72  96 124 155 188 231 285
#     4   9  16  27  44  63  85 116 149 183 224 265
#     4   9  16  28  46  68  93 121 156 198 235 270
#
# _framework density 18.006112000000002
#
# number of rings (size 3 to 8) (size 9 to 14) (size 15 to 20)
#    0.000    3.000    1.429    0.000    0.000    1.714 
#    0.000    5.000    0.000    3.000    0.000    4.000 
#    0.000    0.000    0.000    0.000    0.000    0.000 
#
# Total GULP energy -346886.239922 kJ/mol
# GULP energy per Si atom -12388.794283 kJ/mol
# Density = 1.796513 g / cm^3
# Si number density = 18.006112 Si / 1000 Ang^3
#
#
#
# Elastic Constant Matrix: (Units=GPa)
#
#
# Indices 1 2 3 4 5 6 
#
# 1 104.8316 34.9824 71.9087 0.0000 12.0784 0.0000
# 2 34.9824 38.8845 27.3553 0.0000 11.3029 0.0000
# 3 71.9087 27.3553 93.2708 0.0000 12.7970 0.0000
# 4 0.0000 0.0000 0.0000 15.0039 0.0000 5.1994
# 5 12.0784 11.3029 12.7970 0.0000 38.6819 0.0000
# 6 0.0000 0.0000 0.0000 5.1994 0.0000 19.3280
#
#
#
# Elastic Compliance Matrix: (Units=1/GPa)
#
#
# Indices 1 2 3 4 5 6 
#
# 1 0.023203 -0.010637 -0.014876 0.000000 0.000785 0.000000
# 2 -0.010637 0.038985 -0.002227 0.000000 -0.007333 0.000000
# 3 -0.014876 -0.002227 0.023169 0.000000 -0.002369 0.000000
# 4 0.000000 0.000000 0.000000 0.073501 0.000000 -0.019772
# 5 0.000785 -0.007333 -0.002369 0.000000 0.028533 0.000000
# 6 0.000000 0.000000 0.000000 -0.019772 0.000000 0.057057
#
#
# Mechanical properties :
#
#
# Convention : Reuss Voigt Hill
#
# Bulk Modulus (GPa) = 33.47181 56.16441 44.81811
# Shear Modulus (GPa) = 16.13486 21.45212 18.79349
#
# Velocity S-wave (km/s) = 2.99670 3.45538 3.23418
# Velocity P-wave (km/s) = 5.53201 6.86871 6.23627
#
# Compressibility (1/GPa) = 0.02987588
#
# Stress axis : x y z
#
# Youngs Moduli (GPa) = 43.09859 25.65091 43.16115
#
# Poissons Ratio (x) = 0.27284 0.64209
# Poissons Ratio (y) = 0.45842 0.09613
# Poissons Ratio (z) = 0.64116 0.05713
#
# Static dielectric constant tensor:
#      x y z
#    x 3.440070 0.000000 0.073090 
#    y 0.000000 3.181040 0.000000 
#    z 0.073090 0.000000 3.385090 
# 
# 
# High freq. dielectric constant tensor:
#      x y z
#    x 1.693420 0.000000 0.006500 
#    y 0.000000 1.641590 0.000000 
#    z 0.006500 0.000000 1.698400 
# 
# From -- ./inp_files/231943.got.cif
#   From: 2010.06.25/outbox.cif.g09.slc.cpg/sg12_116_cif.got.tgz:231943.got - 2010.06.28 00:19:55.
