data_PCOD8116980
_publ_section_title
;
Structure prediction by ZEFSAII (Michael W. Deem and Ramdas Pophale) SiO2 
 PCOD8116980
Probable space group: P 2/C
;
_chemical_formula_sum "Si O2"
_cell_formula_units_Z 30
_cell_length_a 17.293649
_cell_length_b 9.923504
_cell_length_c 18.605414
_cell_angle_alpha 90.000000
_cell_angle_beta 149.913307
_cell_angle_gamma 90.000000
_cell_volume 1600.653080
_symmetry_space_group_name_H-M "P 2/C"
_symmetry_group_IT_number 13
_symmetry_cell_setting 'monoclinic'
loop_
_space_group_symop_operation_xyz
x,y,z
-x,y,1/2-z
-x,-y,-z
x,-y,1/2+z
loop_
_atom_site_type_symbol
_atom_site_label
_atom_site_fract_x
_atom_site_fract_y
_atom_site_fract_z
Si Si1 0.697712 0.221789 0.063491
Si Si2 0.947069 0.434825 0.284698
Si Si3 0.500000 0.515761 0.750000
Si Si4 0.731724 0.582159 0.197324
Si Si5 0.541776 0.362963 0.128203
Si Si6 0.359316 0.921349 0.851910
Si Si7 0.339108 0.814104 0.265674
Si Si8 0.250945 0.712108 0.046057
O O1 0.779789 0.363602 0.143593
O O2 0.752607 0.117866 0.170303
O O3 0.513439 0.233168 0.925764
O O4 0.739960 0.185324 0.015198
O O5 0.905219 0.552330 0.306904
O O6 0.000000 0.492071 0.250000
O O7 0.074987 0.332696 0.418190
O O8 0.472221 0.609177 0.797554
O O9 0.647098 0.421360 0.884486
O O10 0.669100 0.462036 0.197103
O O11 0.765370 0.712218 0.273244
O O12 0.621272 0.614845 0.041421
O O13 0.594407 0.208654 0.157872
O O14 0.286040 0.033216 0.740490
O O15 0.500000 0.000000 0.000000
O O16 0.314757 0.799802 0.161848
#
# Coordination Sequence:
#
# PCOD8116980 Si02
#       8
#     4   4   2   4   4   4   4   4
#     4  10  17  37  59  79 114 152 199 234 276 355
#     4  10  21  33  57  87 114 151 198 239 297 347
#     4  12  22  36  56  90 122 140 192 250 296 336
#     4  11  18  35  61  82 110 156 194 235 286 346
#     4  11  20  35  60  86 116 151 194 241 286 338
#     4  10  20  36  57  88 109 153 207 227 277 355
#     4  11  20  36  60  90 115 152 198 240 288 346
#     4  11  21  36  57  90 120 150 190 252 300 338
#
# _framework density 18.742349999999998
#
# number of rings (size 3 to 8) (size 9 to 14) (size 15 to 20)
#    0.000    1.333    6.667    2.400    0.000    0.533 
#    4.800    0.667    0.000    2.400    0.000    0.000 
#    0.000    0.000    0.000    0.000    0.000    0.000 
#
# Total GULP energy -371717.128519 kJ/mol
# GULP energy per Si atom -12390.570951 kJ/mol
# Density = 1.869969 g / cm^3
# Si number density = 18.742350 Si / 1000 Ang^3
#
#
#
# Elastic Constant Matrix: (Units=GPa)
#
#
# Indices 1 2 3 4 5 6 
#
# 1 155.4357 84.0990 37.3602 0.0000 -8.1654 0.0000
# 2 84.0990 133.6103 22.0195 0.0000 -8.6248 0.0000
# 3 37.3602 22.0195 40.9140 0.0000 -2.7364 0.0000
# 4 0.0000 0.0000 0.0000 16.8077 0.0000 -5.3863
# 5 -8.1654 -8.6248 -2.7364 0.0000 26.0288 0.0000
# 6 0.0000 0.0000 0.0000 -5.3863 0.0000 31.2131
#
#
#
# Elastic Compliance Matrix: (Units=1/GPa)
#
#
# Indices 1 2 3 4 5 6 
#
# 1 0.011423 -0.005953 -0.007169 0.000000 0.000857 0.000000
# 2 -0.005953 0.011451 -0.000602 0.000000 0.001864 0.000000
# 3 -0.007169 -0.000602 0.031369 0.000000 0.000849 0.000000
# 4 0.000000 0.000000 0.000000 0.062979 0.000000 0.010868
# 5 0.000857 0.001864 0.000849 0.000000 0.039395 0.000000
# 6 0.000000 0.000000 0.000000 0.010868 0.000000 0.033913
#
#
# Mechanical properties :
#
#
# Convention : Reuss Voigt Hill
#
# Bulk Modulus (GPa) = 37.32241 68.54638 52.93440
# Shear Modulus (GPa) = 22.03514 27.24200 24.63857
#
# Velocity S-wave (km/s) = 3.43255 3.81662 3.62967
# Velocity P-wave (km/s) = 5.97214 7.48829 6.77277
#
# Compressibility (1/GPa) = 0.02679355
#
# Stress axis : x y z
#
# Youngs Moduli (GPa) = 87.54575 87.32864 31.87857
#
# Poissons Ratio (x) = 0.51986 0.22855
# Poissons Ratio (y) = 0.52115 0.01920
# Poissons Ratio (z) = 0.62764 0.05260
#
# Static dielectric constant tensor:
#      x y z
#    x 3.912200 0.000000 -0.170440 
#    y 0.000000 3.678090 0.000000 
#    z -0.170440 0.000000 3.301010 
# 
# 
# High freq. dielectric constant tensor:
#      x y z
#    x 1.745260 0.000000 -0.015260 
#    y 0.000000 1.702990 0.000000 
#    z -0.015260 0.000000 1.703060 
# 
# From -- ./inp_files/80941.got.cif
#   From: 2010.06.25/outbox.cif.g09.slc.cpg/sg13_41_cif.got.tgz:80941.got - 2010.06.28 04:50:58.
