data_PCOD8116051
_publ_section_title
;
Structure prediction by ZEFSAII (Michael W. Deem and Ramdas Pophale) SiO2 
 PCOD8116051
Probable space group: C 2/M
;
_chemical_formula_sum "Si O2"
_cell_formula_units_Z 56
_cell_length_a 19.771457
_cell_length_b 9.280179
_cell_length_c 20.283304
_cell_angle_alpha 90.000000
_cell_angle_beta 117.963233
_cell_angle_gamma 90.000000
_cell_volume 3287.128799
_symmetry_space_group_name_H-M "C 2/M"
_symmetry_group_IT_number 12
_symmetry_cell_setting 'monoclinic'
loop_
_space_group_symop_operation_xyz
x,y,z
-x,y,-z
-x,-y,-z
x,-y,z
1/2+x,1/2+y,z
1/2-x,1/2+y,-z
1/2-x,1/2-y,-z
1/2+x,1/2-y,z
loop_
_atom_site_type_symbol
_atom_site_label
_atom_site_fract_x
_atom_site_fract_y
_atom_site_fract_z
Si Si1 0.857492 0.669273 0.088469
Si Si2 0.325493 0.168102 0.794760
Si Si3 0.478138 0.168901 0.791246
Si Si4 0.593075 0.340696 0.349412
Si Si5 0.685066 0.670027 0.510904
Si Si6 0.246040 0.663998 0.651252
Si Si7 0.279218 0.166906 0.918862
O O1 0.851574 0.500000 0.097745
O O2 0.799202 0.744458 0.112125
O O3 0.942782 0.727098 0.141990
O O4 0.837075 0.710769 0.003926
O O5 0.409757 0.215790 0.808867
O O6 0.259681 0.258981 0.727683
O O7 0.321458 0.203964 0.870121
O O8 0.311219 0.000000 0.773569
O O9 0.465781 0.232184 0.712155
O O10 0.481142 0.000000 0.783798
O O11 0.558756 0.500000 0.324572
O O12 0.605676 0.308175 0.433383
O O13 0.675545 0.330270 0.353098
O O14 0.704325 0.500000 0.526770
O O15 0.750000 0.750000 0.500000
O O16 0.681262 0.746052 0.581043
O O17 0.217975 0.500000 0.649303
O O18 0.257129 0.000000 0.913198
#
# Coordination Sequence:
#
# PCOD8116051 Si02
#       7
#     8   8   8   8   8   8   8
#     4   9  18  32  48  67  90 116 149 186 223 265
#     4   9  17  29  45  66  91 118 149 185 225 267
#     4   9  17  28  44  66  91 118 147 184 226 264
#     4   8  15  25  37  57  86 117 147 180 217 259
#     4   9  15  23  36  56  84 118 152 184 219 260
#     4   9  16  25  38  59  87 118 149 182 222 265
#     4   9  18  32  49  67  88 117 151 185 222 266
#
# _framework density 17.036142999999999
#
# number of rings (size 3 to 8) (size 9 to 14) (size 15 to 20)
#    0.000    3.143    0.000    1.714    0.000    5.714 
#    0.000    2.857    0.000    0.000    0.000    9.000 
#    0.000    8.000    0.000    0.000    0.000    0.000 
#
# Total GULP energy -347029.848066 kJ/mol
# GULP energy per Si atom -12393.923145 kJ/mol
# Density = 1.699737 g / cm^3
# Si number density = 17.036143 Si / 1000 Ang^3
#
#
#
# Elastic Constant Matrix: (Units=GPa)
#
#
# Indices 1 2 3 4 5 6 
#
# 1 50.9228 29.1388 52.5116 0.0000 7.5095 0.0000
# 2 29.1388 66.8881 55.4449 0.0000 5.0152 0.0000
# 3 52.5116 55.4449 135.9145 0.0000 10.3662 0.0000
# 4 0.0000 0.0000 0.0000 31.0011 0.0000 -0.1517
# 5 7.5095 5.0152 10.3662 0.0000 6.1946 0.0000
# 6 0.0000 0.0000 0.0000 -0.1517 0.0000 17.4513
#
#
#
# Elastic Compliance Matrix: (Units=1/GPa)
#
#
# Indices 1 2 3 4 5 6 
#
# 1 0.036784 -0.006004 -0.010010 0.000000 -0.022981 0.000000
# 2 -0.006004 0.023627 -0.007353 0.000000 0.000455 0.000000
# 3 -0.010010 -0.007353 0.014724 0.000000 -0.006552 0.000000
# 4 0.000000 0.000000 0.000000 0.032258 0.000000 0.000280
# 5 -0.022981 0.000455 -0.006552 0.000000 0.199886 0.000000
# 6 0.000000 0.000000 0.000000 0.000280 0.000000 0.057305
#
#
# Mechanical properties :
#
#
# Convention : Reuss Voigt Hill
#
# Bulk Modulus (GPa) = 35.20978 58.65732 46.93355
# Shear Modulus (GPa) = 11.88248 18.70473 15.29361
#
# Velocity S-wave (km/s) = 2.64386 3.31712 2.99944
# Velocity P-wave (km/s) = 5.48020 7.01262 6.29323
#
# Compressibility (1/GPa) = 0.02840120
#
# Stress axis : x y z
#
# Youngs Moduli (GPa) = 27.18544 42.32399 67.91426
#
# Poissons Ratio (x) = 0.25412 0.67981
# Poissons Ratio (y) = 0.16323 0.49941
# Poissons Ratio (z) = 0.27212 0.31123
#
# Static dielectric constant tensor:
#      x y z
#    x 2.764030 0.000000 0.023970 
#    y 0.000000 3.244310 0.000000 
#    z 0.023970 0.000000 3.705930 
# 
# 
# High freq. dielectric constant tensor:
#      x y z
#    x 1.595660 0.000000 -0.002330 
#    y 0.000000 1.660130 0.000000 
#    z -0.002330 0.000000 1.673590 
# 
# From -- ./inp_files/319348.got.cif
#   From: 2010.06.25/outbox.cif.g09.slc.cpg/sg12_160_cif.got.tgz:319348.got - 2010.06.28 00:19:55.
