data_PCOD8116286
_publ_section_title
;
Structure prediction by ZEFSAII (Michael W. Deem and Ramdas Pophale) SiO2 
 PCOD8116286
Probable space group: C 2/M
;
_chemical_formula_sum "Si O2"
_cell_formula_units_Z 24
_cell_length_a 24.000000
_cell_length_b 12.000000
_cell_length_c 27.000000
_cell_angle_alpha 90.000000
_cell_angle_beta 20.000000
_cell_angle_gamma 90.000000
_cell_volume 2659.548635
_symmetry_space_group_name_H-M "C 2/M"
_symmetry_group_IT_number 12
_symmetry_cell_setting 'monoclinic'
loop_
_space_group_symop_operation_xyz
x,y,z
-x,y,-z
-x,-y,-z
x,-y,z
1/2+x,1/2+y,z
1/2-x,1/2+y,-z
1/2-x,1/2-y,-z
1/2+x,1/2-y,z
loop_
_atom_site_type_symbol
_atom_site_label
_atom_site_fract_x
_atom_site_fract_y
_atom_site_fract_z
Si Si1 0.259179 0.738337 0.577420
Si Si2 0.752843 0.371788 0.122045
Si Si3 0.491668 0.872898 0.563182
Si Si4 0.887329 0.371296 0.205032
Si Si5 0.931209 0.130378 0.342877
Si Si6 0.819935 0.758077 0.163072
O O1 0.400816 0.806301 0.486964
O O2 0.173678 0.664663 0.690430
O O3 0.131220 0.818910 0.656789
O O4 0.322098 0.656926 0.481962
O O5 0.712640 0.500000 0.163046
O O6 0.610498 0.320453 0.206353
O O7 0.757837 0.326670 0.173489
O O8 0.920277 0.349911 0.953987
O O9 0.500000 0.826006 0.500000
O O10 0.301570 0.862934 0.736737
O O11 0.549496 0.000000 0.516937
O O12 0.844642 0.500000 0.231122
O O13 0.809288 0.301544 0.225351
O O14 0.932288 0.000000 0.332687
O O15 0.000000 0.802200 0.000000
#
# Coordination Sequence:
#
# PCOD8116286 Si02
#       6
#     8   8   8   8   8   8
#     4  11  21  36  55  80 108 141 180 223 266 312
#     4   9  18  34  56  82 111 141 173 214 267 317
#     4  11  22  37  55  78 108 142 179 220 270 316
#     4  10  20  34  55  83 112 140 175 220 265 315
#     4  10  21  36  56  78 105 142 182 222 265 316
#     4  10  19  35  57  82 110 140 175 218 265 318
#
# _framework density 9.0240880000000008
#
# number of rings (size 3 to 8) (size 9 to 14) (size 15 to 20)
#    0.000    1.833    3.333    1.500    0.000    3.000 
#    0.000    0.833    0.000    0.000    0.000    0.000 
#    0.000    0.000    0.000    0.000    0.000    0.000 
#
# Total GULP energy -297463.038349 kJ/mol
# GULP energy per Si atom -12394.293265 kJ/mol
# Density = 0.900355 g / cm^3
# Si number density = 9.024088 Si / 1000 Ang^3
#
#
#
# Elastic Constant Matrix: (Units=GPa)
#
#
# Indices 1 2 3 4 5 6 
#
# 1 115.8072 12.5278 35.6277 -0.0102 -11.0633 0.0002
# 2 12.5278 25.9426 19.1505 -0.0047 -3.0460 -0.0011
# 3 35.6277 19.1505 77.9635 -0.0215 -8.6448 0.0066
# 4 -0.0102 -0.0047 -0.0215 24.3991 0.0065 -1.4166
# 5 -11.0633 -3.0460 -8.6448 0.0065 35.2686 -0.0008
# 6 0.0002 -0.0011 0.0066 -1.4166 -0.0008 23.7447
#
#
#
# Elastic Compliance Matrix: (Units=1/GPa)
#
#
# Indices 1 2 3 4 5 6 
#
# 1 0.010262 -0.001734 -0.004033 0.000000 0.002081 0.000001
# 2 -0.001734 0.047432 -0.010757 -0.000001 0.000916 0.000005
# 3 -0.004033 -0.010757 0.017545 0.000011 0.002107 -0.000005
# 4 0.000000 -0.000001 0.000011 0.041128 -0.000005 0.002454
# 5 0.002081 0.000916 0.002107 -0.000005 0.029602 0.000000
# 6 0.000001 0.000005 -0.000005 0.002454 0.000000 0.042261
#
#
# Mechanical properties :
#
#
# Convention : Reuss Voigt Hill
#
# Bulk Modulus (GPa) = 23.70140 39.36950 31.53545
# Shear Modulus (GPa) = 21.24563 26.84296 24.04430
#
# Velocity S-wave (km/s) = 3.43470 3.86073 3.65393
# Velocity P-wave (km/s) = 5.37498 6.46023 5.94243
#
# Compressibility (1/GPa) = 0.04219160
#
# Stress axis : x y z
#
# Youngs Moduli (GPa) = 97.44560 21.08264 56.99528
#
# Poissons Ratio (x) = 0.03656 0.22985
# Poissons Ratio (y) = 0.16900 0.61309
# Poissons Ratio (z) = 0.39298 0.22678
#
# Static dielectric constant tensor:
#      x y z
#    x 3.621940 -0.000020 -0.167590 
#    y -0.000020 3.083490 0.000040 
#    z -0.167590 0.000040 3.417320 
# 
# 
# High freq. dielectric constant tensor:
#      x y z
#    x 1.720250 0.000000 -0.007580 
#    y 0.000000 1.680650 0.000000 
#    z -0.007580 0.000000 1.698920 
# 
# From -- ./inp_files/85124.got.cif
#   From: 2010.06.25/outbox.ucp.g09.slc.cvg/sg12_43_cif.got.tgz:85124.got - 2010.06.28 13:50:54.
