data_PCOD8116803
_publ_section_title
;
Structure prediction by ZEFSAII (Michael W. Deem and Ramdas Pophale) SiO2 
 PCOD8116803
Probable space group: P 2/C
;
_chemical_formula_sum "Si O2"
_cell_formula_units_Z 24
_cell_length_a 11.277759
_cell_length_b 9.243359
_cell_length_c 16.814668
_cell_angle_alpha 90.000000
_cell_angle_beta 135.051402
_cell_angle_gamma 90.000000
_cell_volume 1238.328759
_symmetry_space_group_name_H-M "P 2/C"
_symmetry_group_IT_number 13
_symmetry_cell_setting 'monoclinic'
loop_
_space_group_symop_operation_xyz
x,y,z
-x,y,1/2-z
-x,-y,-z
x,-y,1/2+z
loop_
_atom_site_type_symbol
_atom_site_label
_atom_site_fract_x
_atom_site_fract_y
_atom_site_fract_z
Si Si1 0.429436 0.043405 0.553566
Si Si2 0.784043 0.828680 0.967122
Si Si3 0.090941 0.155879 0.710750
Si Si4 0.572642 0.670753 0.110982
Si Si5 0.275645 0.891638 0.739867
Si Si6 0.496569 0.641895 0.893829
O O1 0.419729 0.216994 0.556798
O O2 0.500000 0.000000 0.500000
O O3 0.255264 0.964205 0.491061
O O4 0.552256 0.982636 0.680588
O O5 0.796687 0.874436 0.882168
O O6 0.644672 0.701693 0.907316
O O7 0.969946 0.784334 0.083133
O O8 0.254090 0.255841 0.781826
O O9 0.000000 0.181065 0.750000
O O10 0.139964 0.985372 0.725252
O O11 0.546617 0.523918 0.148868
O O12 0.574110 0.641873 0.018168
O O13 0.325082 0.737164 0.804186
#
# Coordination Sequence:
#
# PCOD8116803 Si02
#       6
#     4   4   4   4   4   4
#     4  10  16  33  57  84 105 143 197 237 269 330
#     4  11  20  36  58  83 116 149 184 238 295 332
#     4  11  21  37  58  85 113 148 193 240 282 332
#     4  10  20  34  57  82 110 146 191 238 272 332
#     4  10  21  35  56  83 114 148 184 233 288 340
#     4  10  19  36  55  81 111 148 191 230 280 338
#
# _framework density 19.380960999999999
#
# number of rings (size 3 to 8) (size 9 to 14) (size 15 to 20)
#    0.000    1.667    5.000    3.500    0.000    0.000 
#    0.000   10.000    0.000    0.000    0.000    0.000 
#    0.000    0.000    0.000    0.000    0.000    0.000 
#
# Total GULP energy -297399.003668 kJ/mol
# GULP energy per Si atom -12391.625153 kJ/mol
# Density = 1.933685 g / cm^3
# Si number density = 19.380961 Si / 1000 Ang^3
#
#
#
# Elastic Constant Matrix: (Units=GPa)
#
#
# Indices 1 2 3 4 5 6 
#
# 1 41.8796 32.2981 19.5676 0.0000 6.6190 0.0000
# 2 32.2981 168.4869 24.6272 0.0000 9.7579 0.0000
# 3 19.5676 24.6272 114.0736 0.0000 -0.0034 0.0000
# 4 0.0000 0.0000 0.0000 22.1621 0.0000 3.3977
# 5 6.6190 9.7579 -0.0034 0.0000 23.4372 0.0000
# 6 0.0000 0.0000 0.0000 3.3977 0.0000 20.2449
#
#
#
# Elastic Compliance Matrix: (Units=1/GPa)
#
#
# Indices 1 2 3 4 5 6 
#
# 1 0.030651 -0.004877 -0.004205 0.000000 -0.006626 0.000000
# 2 -0.004877 0.007061 -0.000688 0.000000 -0.001563 0.000000
# 3 -0.004205 -0.000688 0.009636 0.000000 0.001475 0.000000
# 4 0.000000 0.000000 0.000000 0.046314 0.000000 -0.007773
# 5 -0.006626 -0.001563 0.001475 0.000000 0.045189 0.000000
# 6 0.000000 0.000000 0.000000 -0.007773 0.000000 0.050700
#
#
# Mechanical properties :
#
#
# Convention : Reuss Voigt Hill
#
# Bulk Modulus (GPa) = 35.96044 53.04734 44.50389
# Shear Modulus (GPa) = 22.89780 29.69864 26.29822
#
# Velocity S-wave (km/s) = 3.44096 3.91879 3.68762
# Velocity P-wave (km/s) = 5.86360 6.92142 6.41435
#
# Compressibility (1/GPa) = 0.02780833
#
# Stress axis : x y z
#
# Youngs Moduli (GPa) = 32.62487 141.61955 103.77612
#
# Poissons Ratio (x) = 0.69073 0.43638
# Poissons Ratio (y) = 0.15912 0.07138
# Poissons Ratio (z) = 0.13719 0.09741
#
# Static dielectric constant tensor:
#      x y z
#    x 3.287280 0.000000 0.157830 
#    y 0.000000 3.936220 0.000000 
#    z 0.157830 0.000000 3.732690 
# 
# 
# High freq. dielectric constant tensor:
#      x y z
#    x 1.718280 0.000000 -0.002400 
#    y 0.000000 1.745450 0.000000 
#    z -0.002400 0.000000 1.767340 
# 
# From -- ./inp_files/66108.got.cif
#   From: 2010.06.25/outbox.cif.g09.slc.cpg/sg13_34_cif.got.tgz:66108.got - 2010.06.28 04:50:58.
