data_PCOD8116368
_publ_section_title
;
Structure prediction by ZEFSAII (Michael W. Deem and Ramdas Pophale) SiO2 
 PCOD8116368
Probable space group: C 2/M
;
_chemical_formula_sum "Si O2"
_cell_formula_units_Z 32
_cell_length_a 30.000000
_cell_length_b 9.000000
_cell_length_c 12.000000
_cell_angle_alpha 90.000000
_cell_angle_beta 90.000000
_cell_angle_gamma 90.000000
_cell_volume 3240.000000
_symmetry_space_group_name_H-M "C 2/M"
_symmetry_group_IT_number 12
_symmetry_cell_setting 'monoclinic'
loop_
_space_group_symop_operation_xyz
x,y,z
-x,y,-z
-x,-y,-z
x,-y,z
1/2+x,1/2+y,z
1/2-x,1/2+y,-z
1/2-x,1/2-y,-z
1/2+x,1/2-y,z
loop_
_atom_site_type_symbol
_atom_site_label
_atom_site_fract_x
_atom_site_fract_y
_atom_site_fract_z
Si Si1 0.283468 0.324555 0.585343
Si Si2 0.625788 0.172917 0.405930
Si Si3 0.527991 0.168128 0.790192
Si Si4 0.455068 0.176677 0.449582
Si Si5 0.315467 0.324513 0.045943
Si Si6 0.761389 0.174710 0.832996
Si Si7 0.426136 0.833144 0.813950
Si Si8 0.085510 0.172992 0.964660
O O1 0.279502 0.500000 0.573412
O O2 0.250000 0.250000 0.500000
O O3 0.332823 0.271620 0.557666
O O4 0.274220 0.269287 0.710776
O O5 0.586880 0.236405 0.483414
O O6 0.610891 0.199167 0.278997
O O7 0.636178 0.000000 0.428042
O O8 0.551958 0.225103 0.678413
O O9 0.475605 0.183223 0.764790
O O10 0.545117 0.260689 0.894413
O O11 0.540831 0.000000 0.818193
O O12 0.500000 0.248122 0.500000
O O13 0.458359 0.000000 0.459440
O O14 0.311779 0.500000 0.057903
O O15 0.285515 0.249580 0.139468
O O16 0.365549 0.267369 0.069072
O O17 0.299132 0.275443 0.922074
O O18 0.754461 0.000000 0.836049
O O19 0.419773 0.000000 0.862132
O O20 0.421092 0.709945 0.907051
O O21 0.083135 0.000000 0.948341
#
# Coordination Sequence:
#
# PCOD8116368 Si02
#       8
#     8   8   8   8   8   8   8   8
#     4  11  24  41  59  83 118 154 189 232 283 338
#     4  10  20  36  62  91 114 144 189 236 287 340
#     4  10  20  35  56  81 110 146 188 234 278 325
#     4   9  16  33  60  85 110 143 187 237 283 331
#     4   9  19  36  57  81 108 141 179 226 281 336
#     4   9  19  37  60  81 104 139 185 231 277 329
#     4  10  20  35  57  83 111 145 189 234 274 328
#     4  11  23  36  51  77 116 153 184 224 282 339
#
# _framework density 9.8765429999999999
#
# number of rings (size 3 to 8) (size 9 to 14) (size 15 to 20)
#    0.000    2.125    1.250    1.875    0.000    6.500 
#    0.000    6.875    0.000    0.750    0.000    0.000 
#    0.000    0.000    0.000    0.000    0.000    0.000 
#
# Total GULP energy -396770.259969 kJ/mol
# GULP energy per Si atom -12399.070624 kJ/mol
# Density = 0.985406 g / cm^3
# Si number density = 9.876543 Si / 1000 Ang^3
#
#
#
# Elastic Constant Matrix: (Units=GPa)
#
#
# Indices 1 2 3 4 5 6 
#
# 1 105.0227 36.2212 50.8879 0.0000 11.4913 0.0000
# 2 36.2212 34.0490 32.4647 0.0000 4.5039 0.0000
# 3 50.8879 32.4647 50.8114 0.0000 -3.3847 0.0000
# 4 0.0000 0.0000 0.0000 14.2987 0.0000 -2.9045
# 5 11.4913 4.5039 -3.3847 0.0000 29.3407 0.0000
# 6 0.0000 0.0000 0.0000 -2.9045 0.0000 28.3370
#
#
#
# Elastic Compliance Matrix: (Units=1/GPa)
#
#
# Indices 1 2 3 4 5 6 
#
# 1 0.021531 -0.000549 -0.021937 0.000000 -0.010879 0.000000
# 2 -0.000549 0.084903 -0.054973 0.000000 -0.019160 0.000000
# 3 -0.021937 -0.054973 0.078512 0.000000 0.026087 0.000000
# 4 0.000000 0.000000 0.000000 0.071423 0.000000 0.007321
# 5 -0.010879 -0.019160 0.026087 0.000000 0.044294 0.000000
# 6 0.000000 0.000000 0.000000 0.007321 0.000000 0.036040
#
#
# Mechanical properties :
#
#
# Convention : Reuss Voigt Hill
#
# Bulk Modulus (GPa) = 33.30274 47.67008 40.48641
# Shear Modulus (GPa) = 9.96749 19.08258 14.52503
#
# Velocity S-wave (km/s) = 2.24878 3.11152 2.71464
# Velocity P-wave (km/s) = 4.86197 6.09049 5.51057
#
# Compressibility (1/GPa) = 0.03002756
#
# Stress axis : x y z
#
# Youngs Moduli (GPa) = 46.44472 11.77814 12.73686
#
# Poissons Ratio (x) = 0.00647 0.27941
# Poissons Ratio (y) = 0.02550 0.70018
# Poissons Ratio (z) = 1.01887 0.64748
#
# Static dielectric constant tensor:
#      x y z
#    x 3.816990 0.000000 0.001400 
#    y 0.000000 3.334200 0.000000 
#    z 0.001400 0.000000 3.572900 
# 
# 
# High freq. dielectric constant tensor:
#      x y z
#    x 1.773330 0.000000 0.003800 
#    y 0.000000 1.742060 0.000000 
#    z 0.003800 0.000000 1.766480 
# 
# From -- ./inp_files/187431.got.cif
#   From: 2010.06.25/outbox.ucp.g09.slc.cvg/sg12_94_cif.got.tgz:187431.got - 2010.06.28 13:50:54.
