data_PCOD8116761
_publ_section_title
;
Structure prediction by ZEFSAII (Michael W. Deem and Ramdas Pophale) SiO2 
 PCOD8116761
Probable space group: P 2/C
;
_chemical_formula_sum "Si O2"
_cell_formula_units_Z 26
_cell_length_a 22.103109
_cell_length_b 13.114262
_cell_length_c 5.197142
_cell_angle_alpha 90.000000
_cell_angle_beta 106.675151
_cell_angle_gamma 90.000000
_cell_volume 1443.122841
_symmetry_space_group_name_H-M "P 2/C"
_symmetry_group_IT_number 13
_symmetry_cell_setting 'monoclinic'
loop_
_space_group_symop_operation_xyz
x,y,z
-x,y,1/2-z
-x,-y,-z
x,-y,1/2+z
loop_
_atom_site_type_symbol
_atom_site_label
_atom_site_fract_x
_atom_site_fract_y
_atom_site_fract_z
Si Si1 0.500000 0.568981 0.250000
Si Si2 0.201457 0.567599 0.505999
Si Si3 0.718594 0.960312 0.944861
Si Si4 0.935571 0.435995 0.740273
Si Si5 0.310142 0.269606 0.098597
Si Si6 0.609447 0.275300 0.792949
Si Si7 0.578664 0.952037 0.219770
O O1 0.500000 0.500000 0.500000
O O2 0.438058 0.637691 0.178112
O O3 0.210947 0.483081 0.296361
O O4 0.131455 0.619209 0.396277
O O5 0.250975 0.656762 0.533598
O O6 0.712991 0.842261 0.008115
O O7 0.755364 0.981250 0.721090
O O8 0.651624 0.014126 0.796876
O O9 0.937692 0.531548 0.541734
O O10 0.000000 0.371325 0.750000
O O11 0.341077 0.263091 0.416355
O O12 0.357551 0.308689 0.934088
O O13 0.572219 0.169850 0.700115
O O14 0.544796 0.994915 0.433699
#
# Coordination Sequence:
#
# PCOD8116761 Si02
#       7
#     2   4   4   4   4   4   4
#     4  12  30  50  58  72 100 134 178 212 230 304
#     4  10  21  33  45  75 110 132 173 213 236 290
#     4  10  16  30  51  77 105 126 149 195 250 304
#     4   8  14  27  46  64  93 137 170 202 247 283
#     4  12  21  33  59  80 102 133 163 203 262 300
#     4  12  23  39  61  76  96 135 169 202 257 302
#     4  10  16  32  56  80 102 118 148 201 255 300
#
# _framework density 18.016483000000001
#
# number of rings (size 3 to 8) (size 9 to 14) (size 15 to 20)
#    0.000    1.538    6.154    1.846    0.000    3.692 
#    0.000    0.769    0.000    0.000    0.000    0.000 
#    0.000    1.231    0.000    0.000    0.000    2.769 
#
# Total GULP energy -322197.715568 kJ/mol
# GULP energy per Si atom -12392.219830 kJ/mol
# Density = 1.797548 g / cm^3
# Si number density = 18.016483 Si / 1000 Ang^3
#
#
#
# Elastic Constant Matrix: (Units=GPa)
#
#
# Indices 1 2 3 4 5 6 
#
# 1 82.8453 42.2850 28.8462 0.0000 -7.3494 0.0000
# 2 42.2850 88.0955 17.9052 0.0000 -1.4217 0.0000
# 3 28.8462 17.9052 112.9451 0.0000 -27.7658 0.0000
# 4 0.0000 0.0000 0.0000 22.6081 0.0000 -10.9243
# 5 -7.3494 -1.4217 -27.7658 0.0000 22.0945 0.0000
# 6 0.0000 0.0000 0.0000 -10.9243 0.0000 -4.0779
#
#
#
# Elastic Compliance Matrix: (Units=1/GPa)
#
#
# Indices 1 2 3 4 5 6 
#
# 1 0.017055 -0.007606 -0.002714 0.000000 0.001773 0.000000
# 2 -0.007606 0.015202 -0.001228 0.000000 -0.003096 0.000000
# 3 -0.002714 -0.001228 0.013748 0.000000 0.016294 0.000000
# 4 0.000000 0.000000 0.000000 0.019278 0.000000 -0.051643
# 5 0.001773 -0.003096 0.016294 0.000000 0.066128 0.000000
# 6 0.000000 0.000000 0.000000 -0.051643 0.000000 -0.106877
#
#
# Mechanical properties :
#
#
# Convention : Reuss Voigt Hill
#
# Bulk Modulus (GPa) = 43.65443 51.32873 47.49158
# Shear Modulus (GPa) = 90.47078 21.11490 55.79284
#
# Velocity S-wave (km/s) = 7.09398 3.42713 5.57090
# Velocity P-wave (km/s) = 9.55941 6.64921 8.23390
#
# Compressibility (1/GPa) = 0.02290718
#
# Stress axis : x y z
#
# Youngs Moduli (GPa) = 58.63291 65.78142 72.74018
#
# Poissons Ratio (x) = 0.50034 0.19744
# Poissons Ratio (y) = 0.44597 0.08935
# Poissons Ratio (z) = 0.15915 0.08080
#
# Static dielectric constant tensor:
#      x y z
#    x 3.510650 0.000000 -0.402150 
#    y 0.000000 3.144780 0.000000 
#    z -0.402150 0.000000 4.136340 
# 
# 
# High freq. dielectric constant tensor:
#      x y z
#    x 1.680840 0.000000 -0.027390 
#    y 0.000000 1.662510 0.000000 
#    z -0.027390 0.000000 1.729090 
# 
# From -- ./inp_files/6875.got.cif
#   From: 2010.06.25/outbox.cif.g09.slc.cpg/sg13_4_cif.got.tgz:6875.got - 2010.06.28 04:50:58.
