data_PCOD8116532
_publ_section_title
;
Structure prediction by ZEFSAII (Michael W. Deem and Ramdas Pophale) SiO2 
 PCOD8116532
Probable space group: C 2/M
;
_chemical_formula_sum "Si O2"
_cell_formula_units_Z 24
_cell_length_a 18.000000
_cell_length_b 9.000000
_cell_length_c 30.000000
_cell_angle_alpha 90.000000
_cell_angle_beta 30.000000
_cell_angle_gamma 90.000000
_cell_volume 2430.000000
_symmetry_space_group_name_H-M "C 2/M"
_symmetry_group_IT_number 12
_symmetry_cell_setting 'monoclinic'
loop_
_space_group_symop_operation_xyz
x,y,z
-x,y,-z
-x,-y,-z
x,-y,z
1/2+x,1/2+y,z
1/2-x,1/2+y,-z
1/2-x,1/2-y,-z
1/2+x,1/2-y,z
loop_
_atom_site_type_symbol
_atom_site_label
_atom_site_fract_x
_atom_site_fract_y
_atom_site_fract_z
Si Si1 0.981095 0.824478 0.135201
Si Si2 0.145051 0.177294 0.517903
Si Si3 0.287299 0.673863 0.359979
Si Si4 0.156430 0.331268 0.331176
Si Si5 0.076942 0.321081 0.175967
Si Si6 0.116880 0.673145 0.978684
O O1 0.803784 0.796412 0.225803
O O2 0.056202 0.735104 0.136420
O O3 0.014448 0.000000 0.123805
O O4 0.052205 0.761953 0.053898
O O5 0.250000 0.250000 0.500000
O O6 0.188431 0.245698 0.448070
O O7 0.973559 0.220147 0.616702
O O8 0.162130 0.000000 0.509369
O O9 0.313051 0.500000 0.357941
O O10 0.195970 0.692335 0.362169
O O11 0.445429 0.756867 0.275158
O O12 0.102417 0.500000 0.351078
O O13 0.078683 0.500000 0.177058
O O14 0.230212 0.253102 0.115247
O O15 0.144594 0.500000 0.976062
O O16 0.000000 0.689532 0.000000
#
# Coordination Sequence:
#
# PCOD8116532 Si02
#       6
#     8   8   8   8   8   8
#     4  10  21  39  63  88 116 151 193 240 289 342
#     4  12  25  39  58  85 119 157 196 238 287 344
#     4  10  21  40  64  88 117 151 191 239 289 342
#     4   9  20  39  62  87 116 150 189 238 292 343
#     4  11  22  38  62  89 118 151 192 239 287 343
#     4  11  24  40  58  83 118 157 196 239 289 345
#
# _framework density 9.8765429999999999
#
# number of rings (size 3 to 8) (size 9 to 14) (size 15 to 20)
#    0.000    1.500    0.000    6.500    0.000    8.667 
#    0.000    3.333    0.000    0.000    0.000    0.000 
#    0.000    0.000    0.000    0.000    0.000    0.000 
#
# Total GULP energy -297680.389620 kJ/mol
# GULP energy per Si atom -12403.349567 kJ/mol
# Density = 0.985406 g / cm^3
# Si number density = 9.876543 Si / 1000 Ang^3
#
#
#
# Elastic Constant Matrix: (Units=GPa)
#
#
# Indices 1 2 3 4 5 6 
#
# 1 53.7398 34.4876 23.2559 0.0002 -28.7407 -0.0014
# 2 34.4876 177.9841 42.9208 0.0004 -25.3975 -0.0022
# 3 23.2559 42.9208 87.2931 0.0001 -28.2408 -0.0004
# 4 0.0002 0.0004 0.0001 44.8131 0.0002 -1.9558
# 5 -28.7407 -25.3975 -28.2408 0.0002 32.8355 0.0001
# 6 -0.0014 -0.0022 -0.0004 -1.9558 0.0001 35.7873
#
#
#
# Elastic Compliance Matrix: (Units=1/GPa)
#
#
# Indices 1 2 3 4 5 6 
#
# 1 0.036396 -0.003067 0.001871 0.000000 0.031095 0.000001
# 2 -0.003067 0.006868 -0.002369 0.000000 0.000591 0.000000
# 3 0.001871 -0.002369 0.016708 0.000000 0.014175 0.000000
# 4 0.000000 0.000000 0.000000 0.022368 0.000000 0.001222
# 5 0.031095 0.000591 0.014175 0.000000 0.070321 0.000001
# 6 0.000001 0.000000 0.000000 0.001222 0.000001 0.028010
#
#
# Mechanical properties :
#
#
# Convention : Reuss Voigt Hill
#
# Bulk Modulus (GPa) = 18.92369 57.81617 38.36993
# Shear Modulus (GPa) = 24.34100 37.24403 30.79251
#
# Velocity S-wave (km/s) = 3.51417 4.34692 3.95254
# Velocity P-wave (km/s) = 5.10556 7.38426 6.34799
#
# Compressibility (1/GPa) = 0.05284380
#
# Stress axis : x y z
#
# Youngs Moduli (GPa) = 27.47527 145.59741 59.85188
#
# Poissons Ratio (x) = 0.44648 -0.11199
# Poissons Ratio (y) = 0.08425 0.14178
# Poissons Ratio (z) = -0.05141 0.34491
#
# Static dielectric constant tensor:
#      x y z
#    x 3.534030 0.000000 -0.140940 
#    y 0.000000 3.907290 0.000000 
#    z -0.140940 0.000000 3.887390 
# 
# 
# High freq. dielectric constant tensor:
#      x y z
#    x 1.765740 0.000000 -0.011800 
#    y 0.000000 1.796150 0.000000 
#    z -0.011800 0.000000 1.791770 
# 
# From -- ./inp_files/274084.got.cif
#   From: 2010.06.25/outbox.ucp.g09.slc.cvg/sg12_138_cif.got.tgz:274084.got - 2010.06.28 13:50:54.
