data_PCOD8116610
_publ_section_title
;
Structure prediction by ZEFSAII (Michael W. Deem and Ramdas Pophale) SiO2 
 PCOD8116610
Probable space group: C 2/M
;
_chemical_formula_sum "Si O2"
_cell_formula_units_Z 20
_cell_length_a 9.000000
_cell_length_b 24.000000
_cell_length_c 18.000000
_cell_angle_alpha 90.000000
_cell_angle_beta 30.000000
_cell_angle_gamma 90.000000
_cell_volume 1944.000000
_symmetry_space_group_name_H-M "C 2/M"
_symmetry_group_IT_number 12
_symmetry_cell_setting 'monoclinic'
loop_
_space_group_symop_operation_xyz
x,y,z
-x,y,-z
-x,-y,-z
x,-y,z
1/2+x,1/2+y,z
1/2-x,1/2+y,-z
1/2-x,1/2-y,-z
1/2+x,1/2-y,z
loop_
_atom_site_type_symbol
_atom_site_label
_atom_site_fract_x
_atom_site_fract_y
_atom_site_fract_z
Si Si1 0.035073 0.843203 0.290270
Si Si2 0.342191 0.191177 0.926088
Si Si3 0.294346 0.641767 0.232599
Si Si4 0.348013 0.220772 0.362092
Si Si5 0.640831 0.062453 0.519818
O O1 0.389413 0.838398 0.146288
O O2 0.974784 0.854638 0.230679
O O3 0.874800 0.784365 0.378483
O O4 0.912213 0.892807 0.397161
O O5 0.454637 0.204264 0.794896
O O6 0.250000 0.250000 0.000000
O O7 0.046298 0.151087 0.059163
O O8 0.023275 0.686548 0.349871
O O9 0.114183 0.582647 0.310474
O O10 0.000000 0.204126 0.500000
O O11 0.500000 0.060110 0.500000
O O12 0.749942 0.000000 0.495935
#
# Coordination Sequence:
#
# PCOD8116610 Si02
#       5
#     8   8   8   8   8
#     4  11  21  36  59  87 120 160 198 240 298 358
#     4  12  23  36  56  89 129 159 186 239 305 371
#     4  11  22  36  60  87 120 159 196 247 297 355
#     4  12  23  36  56  89 127 158 194 238 302 371
#     4   9  20  39  61  86 117 158 210 255 289 339
#
# _framework density 10.288066000000001
#
# number of rings (size 3 to 8) (size 9 to 14) (size 15 to 20)
#    0.000    1.000    4.000    4.200    0.000    2.400 
#    0.000    1.000    0.000   12.600    0.000    0.000 
#    0.000    0.000    0.000    0.000    0.000    0.000 
#
# Total GULP energy -247767.055103 kJ/mol
# GULP energy per Si atom -12388.352755 kJ/mol
# Density = 1.026465 g / cm^3
# Si number density = 10.288066 Si / 1000 Ang^3
#
#
#
# Elastic Constant Matrix: (Units=GPa)
#
#
# Indices 1 2 3 4 5 6 
#
# 1 53.2587 26.6246 31.2442 0.0034 -22.9915 -0.0001
# 2 26.6246 147.0949 76.4984 -0.0055 -9.0309 0.0001
# 3 31.2442 76.4984 176.4774 -0.0238 -22.7058 0.0130
# 4 0.0034 -0.0055 -0.0238 35.0971 -0.0043 -2.8452
# 5 -22.9915 -9.0309 -22.7058 -0.0043 43.5109 -0.0021
# 6 -0.0001 0.0001 0.0130 -2.8452 -0.0021 18.5049
#
#
#
# Elastic Compliance Matrix: (Units=1/GPa)
#
#
# Indices 1 2 3 4 5 6 
#
# 1 0.026832 -0.003170 -0.001754 -0.000003 0.012605 0.000002
# 2 -0.003170 0.009153 -0.003620 -0.000001 -0.001665 0.000002
# 3 -0.001754 -0.003620 0.007858 0.000005 0.002422 -0.000004
# 4 -0.000003 -0.000001 0.000005 0.028852 0.000004 0.004436
# 5 0.012605 -0.001665 0.002422 0.000004 0.030562 0.000003
# 6 0.000002 0.000002 -0.000004 0.004436 0.000003 0.054722
#
#
# Mechanical properties :
#
#
# Convention : Reuss Voigt Hill
#
# Bulk Modulus (GPa) = 37.38008 71.72948 54.55478
# Shear Modulus (GPa) = 27.17605 35.58684 31.38145
#
# Velocity S-wave (km/s) = 3.63816 4.16326 3.90954
# Velocity P-wave (km/s) = 5.98786 7.61883 6.85204
#
# Compressibility (1/GPa) = 0.02675222
#
# Stress axis : x y z
#
# Youngs Moduli (GPa) = 37.26933 109.25617 127.25805
#
# Poissons Ratio (x) = 0.34638 0.22326
# Poissons Ratio (y) = 0.11816 0.46073
# Poissons Ratio (z) = 0.06539 0.39555
#
# Static dielectric constant tensor:
#      x y z
#    x 3.868570 0.000000 -0.108950 
#    y 0.000000 4.047020 0.000100 
#    z -0.108950 0.000100 4.264730 
# 
# 
# High freq. dielectric constant tensor:
#      x y z
#    x 1.804730 0.000000 -0.008370 
#    y 0.000000 1.775180 0.000000 
#    z -0.008370 0.000000 1.837470 
# 
# From -- ./inp_files/39359.got.cif
#   From: 2010.06.25/outbox.ucp.g09.slc.cvg/sg12_20_cif.got.tgz:39359.got - 2010.06.28 13:50:54.
