data_PCOD8116292
_publ_section_title
;
Structure prediction by ZEFSAII (Michael W. Deem and Ramdas Pophale) SiO2 
 PCOD8116292
Probable space group: C 2/M
;
_chemical_formula_sum "Si O2"
_cell_formula_units_Z 28
_cell_length_a 21.000000
_cell_length_b 18.000000
_cell_length_c 21.000000
_cell_angle_alpha 90.000000
_cell_angle_beta 160.000000
_cell_angle_gamma 90.000000
_cell_volume 2714.955898
_symmetry_space_group_name_H-M "C 2/M"
_symmetry_group_IT_number 12
_symmetry_cell_setting 'monoclinic'
loop_
_space_group_symop_operation_xyz
x,y,z
-x,y,-z
-x,-y,-z
x,-y,z
1/2+x,1/2+y,z
1/2-x,1/2+y,-z
1/2-x,1/2-y,-z
1/2+x,1/2-y,z
loop_
_atom_site_type_symbol
_atom_site_label
_atom_site_fract_x
_atom_site_fract_y
_atom_site_fract_z
Si Si1 0.950876 0.319512 0.837622
Si Si2 0.104322 0.086250 0.531453
Si Si3 0.360109 0.703247 0.236565
Si Si4 0.051274 0.287524 0.309423
Si Si5 0.714774 0.854326 0.777301
Si Si6 0.879163 0.841717 0.798668
Si Si7 0.894453 0.416238 0.548016
O O1 0.822197 0.389607 0.735690
O O2 0.997969 0.302571 0.809024
O O3 0.850981 0.247024 0.772732
O O4 0.157247 0.332449 0.059177
O O5 0.000000 0.099366 0.500000
O O6 0.008342 0.138478 0.388924
O O7 0.092900 0.000000 0.500638
O O8 0.400652 0.734116 0.203188
O O9 0.382240 0.773342 0.305302
O O10 0.250000 0.250000 0.500000
O O11 0.048712 0.369180 0.337493
O O12 0.768511 0.872093 0.755582
O O13 0.565030 0.915424 0.658003
O O14 0.901498 0.859862 0.995307
O O15 0.794248 0.880939 0.657439
O O16 0.852883 0.500000 0.530010
#
# Coordination Sequence:
#
# PCOD8116292 Si02
#       7
#     8   8   8   8   8   8   8
#     4  11  21  39  64  87 115 151 201 249 297 348
#     4  11  24  39  57  87 125 159 196 247 305 362
#     4  10  21  38  64  88 114 152 199 247 298 354
#     4  11  20  40  63  87 114 152 197 249 291 342
#     4   9  20  35  57  87 113 143 188 234 276 342
#     4  10  19  35  59  85 112 146 188 231 281 338
#     4  11  23  37  55  81 117 153 185 227 286 342
#
# _framework density 10.313243
#
# number of rings (size 3 to 8) (size 9 to 14) (size 15 to 20)
#    0.000    1.571    2.857    2.571    0.000    4.571 
#    0.000    2.857    0.000    0.000    0.000    0.000 
#    0.000    0.000    0.000    0.000    0.000    0.000 
#
# Total GULP energy -347146.333110 kJ/mol
# GULP energy per Si atom -12398.083325 kJ/mol
# Density = 1.028977 g / cm^3
# Si number density = 10.313243 Si / 1000 Ang^3
#
#
#
# Elastic Constant Matrix: (Units=GPa)
#
#
# Indices 1 2 3 4 5 6 
#
# 1 57.4511 -1.0161 6.9376 0.1111 13.7338 0.0343
# 2 -1.0161 72.6206 24.0207 0.1476 16.2394 0.0602
# 3 6.9376 24.0207 61.2662 0.1794 17.7340 0.0950
# 4 0.1111 0.1476 0.1794 0.0579 0.1862 -4.4281
# 5 13.7338 16.2394 17.7340 0.1862 30.7189 0.0934
# 6 0.0343 0.0602 0.0950 -4.4281 0.0934 14.5834
#
#
#
# Elastic Compliance Matrix: (Units=1/GPa)
#
#
# Indices 1 2 3 4 5 6 
#
# 1 0.019910 0.002659 -0.000377 0.000479 -0.010093 0.000155
# 2 0.002659 0.017068 -0.004848 0.000430 -0.007416 0.000133
# 3 -0.000377 -0.004848 0.020979 0.001170 -0.009388 0.000300
# 4 0.000479 0.000430 0.001170 -0.776190 0.004305 -0.235720
# 5 -0.010093 -0.007416 -0.009388 0.004305 0.046376 0.001125
# 6 0.000155 0.000133 0.000300 -0.235720 0.001125 -0.003013
#
#
# Mechanical properties :
#
#
# Convention : Reuss Voigt Hill
#
# Bulk Modulus (GPa) = 18.93011 27.91359 23.42185
# Shear Modulus (GPa) = -7.66720 19.83177 6.08228
#
# Velocity S-wave (km/s) = -1.93009 3.10412 1.71906
# Velocity P-wave (km/s) = 2.05682 5.13904 3.91409
#
# Compressibility (1/GPa) = 0.05282589
#
# Stress axis : x y z
#
# Youngs Moduli (GPa) = 50.22500 58.58782 47.66642
#
# Poissons Ratio (x) = -0.15580 0.01799
# Poissons Ratio (y) = -0.13356 0.23108
# Poissons Ratio (z) = 0.01896 0.28403
#
# Static dielectric constant tensor:
#      x y z
#    x 3.758440 -0.000130 0.150060 
#    y -0.000130 3.662540 0.000180 
#    z 0.150060 0.000180 3.779770 
# 
# 
# High freq. dielectric constant tensor:
#      x y z
#    x 1.806540 -0.000010 0.019720 
#    y -0.000010 1.783530 -0.000020 
#    z 0.019720 -0.000020 1.810930 
# 
# From -- ./inp_files/322760.got.cif
#   From: 2010.06.25/outbox.ucp.g09.slc.cvg/sg12_162_cif.got.tgz:322760.got - 2010.06.28 13:50:54.
