data_PCOD8116553
_publ_section_title
;
Structure prediction by ZEFSAII (Michael W. Deem and Ramdas Pophale) SiO2 
 PCOD8116553
Probable space group: C 2/M
;
_chemical_formula_sum "Si O2"
_cell_formula_units_Z 28
_cell_length_a 12.000000
_cell_length_b 15.000000
_cell_length_c 30.000000
_cell_angle_alpha 90.000000
_cell_angle_beta 30.000000
_cell_angle_gamma 90.000000
_cell_volume 2700.000000
_symmetry_space_group_name_H-M "C 2/M"
_symmetry_group_IT_number 12
_symmetry_cell_setting 'monoclinic'
loop_
_space_group_symop_operation_xyz
x,y,z
-x,y,-z
-x,-y,-z
x,-y,z
1/2+x,1/2+y,z
1/2-x,1/2+y,-z
1/2-x,1/2-y,-z
1/2+x,1/2-y,z
loop_
_atom_site_type_symbol
_atom_site_label
_atom_site_fract_x
_atom_site_fract_y
_atom_site_fract_z
Si Si1 0.288836 0.648321 0.302639
Si Si2 0.686651 0.396992 0.223231
Si Si3 0.446051 0.102391 0.316235
Si Si4 0.429076 0.600143 0.159713
Si Si5 0.920634 0.606254 0.978830
Si Si6 0.645149 0.344769 0.339411
Si Si7 0.696565 0.101303 0.538766
O O1 0.459760 0.651495 0.285011
O O2 0.415641 0.598862 0.218355
O O3 0.231108 0.745855 0.305855
O O4 0.049967 0.604314 0.398680
O O5 0.659270 0.500000 0.220711
O O6 0.696749 0.387234 0.273257
O O7 0.910086 0.361215 0.119582
O O8 0.695993 0.146217 0.222515
O O9 0.292094 0.107330 0.326415
O O10 0.325466 0.141633 0.402823
O O11 0.492928 0.000000 0.312208
O O12 0.436195 0.500000 0.139101
O O13 0.664216 0.644251 0.061290
O O14 0.910144 0.500000 0.982720
O O15 0.000000 0.640793 0.000000
O O16 0.383870 0.346507 0.444728
O O17 0.782977 0.000000 0.509923
#
# Coordination Sequence:
#
# PCOD8116553 Si02
#       7
#     8   8   8   8   8   8   8
#     4  11  23  37  59  88 124 155 197 247 305 353
#     4  11  23  40  64  91 122 158 201 249 301 357
#     4   9  19  37  63  84 111 155 204 242 288 357
#     4   9  17  35  64  89 111 150 206 252 283 345
#     4   9  16  32  62  92 113 148 204 251 287 346
#     4  12  25  38  57  86 129 157 192 247 310 354
#     4  10  21  41  65  84 110 157 211 246 284 354
#
# _framework density 10.370369999999999
#
# number of rings (size 3 to 8) (size 9 to 14) (size 15 to 20)
#    0.000    1.857    1.429    4.286    4.000    1.714 
#    2.571    2.857    3.143    3.429    0.000    0.000 
#    0.000    0.000    0.000    0.000    0.000    0.000 
#
# Total GULP energy -346916.646368 kJ/mol
# GULP energy per Si atom -12389.880227 kJ/mol
# Density = 1.034677 g / cm^3
# Si number density = 10.370370 Si / 1000 Ang^3
#
#
#
# Elastic Constant Matrix: (Units=GPa)
#
#
# Indices 1 2 3 4 5 6 
#
# 1 127.0901 -1.0512 80.9215 0.0152 -2.0431 0.0159
# 2 -1.0512 33.9933 9.3693 0.0263 -3.3650 -0.0312
# 3 80.9215 9.3693 220.1528 0.0026 -8.2093 0.0749
# 4 0.0152 0.0263 0.0026 22.7527 0.0002 -11.3616
# 5 -2.0431 -3.3650 -8.2093 0.0002 40.5236 -0.0481
# 6 0.0159 -0.0312 0.0749 -11.3616 -0.0481 68.8105
#
#
#
# Elastic Compliance Matrix: (Units=1/GPa)
#
#
# Indices 1 2 3 4 5 6 
#
# 1 0.010337 0.001370 -0.003864 -0.000007 -0.000148 0.000001
# 2 0.001370 0.030150 -0.001704 -0.000030 0.002228 0.000012
# 3 -0.003864 -0.001704 0.006068 0.000001 0.000893 -0.000006
# 4 -0.000007 -0.000030 0.000001 0.047900 0.000007 0.007909
# 5 -0.000148 0.002228 0.000893 0.000007 0.025035 0.000019
# 6 0.000001 0.000012 -0.000006 0.007909 0.000019 0.015839
#
#
# Mechanical properties :
#
#
# Convention : Reuss Voigt Hill
#
# Bulk Modulus (GPa) = 26.20461 62.19061 44.19761
# Shear Modulus (GPa) = 31.96016 45.88379 38.92198
#
# Velocity S-wave (km/s) = 3.92973 4.70856 4.33667
# Velocity P-wave (km/s) = 5.76647 7.72079 6.81406
#
# Compressibility (1/GPa) = 0.03816123
#
# Stress axis : x y z
#
# Youngs Moduli (GPa) = 96.73613 33.16743 164.79291
#
# Poissons Ratio (x) = -0.04544 0.63668
# Poissons Ratio (y) = -0.13252 0.28074
# Poissons Ratio (z) = 0.37374 0.05650
#
# Static dielectric constant tensor:
#      x y z
#    x 3.736500 0.000010 -0.255100 
#    y 0.000010 3.490630 0.000010 
#    z -0.255100 0.000010 4.337750 
# 
# 
# High freq. dielectric constant tensor:
#      x y z
#    x 1.807140 0.000000 -0.016770 
#    y 0.000000 1.786000 0.000000 
#    z -0.016770 0.000000 1.843070 
# 
# From -- ./inp_files/374184.got.cif
#   From: 2010.06.25/outbox.ucp.g09.slc.cvg/sg12_188_cif.got.tgz:374184.got - 2010.06.28 13:50:54.
