data_PCOD8116000
_publ_section_title
;
Structure prediction by ZEFSAII (Michael W. Deem and Ramdas Pophale) SiO2 
 PCOD8116000
Probable space group: C 2/M
;
_chemical_formula_sum "Si O2"
_cell_formula_units_Z 48
_cell_length_a 24.400963
_cell_length_b 9.267443
_cell_length_c 15.267943
_cell_angle_alpha 90.000000
_cell_angle_beta 62.325956
_cell_angle_gamma 90.000000
_cell_volume 3057.644895
_symmetry_space_group_name_H-M "C 2/M"
_symmetry_group_IT_number 12
_symmetry_cell_setting 'monoclinic'
loop_
_space_group_symop_operation_xyz
x,y,z
-x,y,-z
-x,-y,-z
x,-y,z
1/2+x,1/2+y,z
1/2-x,1/2+y,-z
1/2-x,1/2-y,-z
1/2+x,1/2-y,z
loop_
_atom_site_type_symbol
_atom_site_label
_atom_site_fract_x
_atom_site_fract_y
_atom_site_fract_z
Si Si1 0.069141 0.328543 0.939490
Si Si2 0.282930 0.667148 0.675251
Si Si3 0.314135 0.669246 0.466146
Si Si4 0.300513 0.333934 0.850871
Si Si5 0.148572 0.671017 0.717669
Si Si6 0.838171 0.666189 0.983018
O O1 0.069651 0.500000 0.944537
O O2 0.096171 0.281355 0.825332
O O3 0.111322 0.268306 0.987313
O O4 0.000000 0.265661 0.000000
O O5 0.271816 0.500000 0.703438
O O6 0.329861 0.690661 0.558267
O O7 0.311151 0.730933 0.744632
O O8 0.214558 0.728517 0.704956
O O9 0.307865 0.500000 0.448728
O O10 0.250000 0.750000 0.500000
O O11 0.364358 0.745313 0.365005
O O12 0.320066 0.500000 0.844150
O O13 0.343532 0.247769 0.886516
O O14 0.228545 0.310643 0.924908
O O15 0.148695 0.500000 0.699732
O O16 0.851768 0.500000 0.953696
#
# Coordination Sequence:
#
# PCOD8116000 Si02
#       6
#     8   8   8   8   8   8
#     4   9  16  27  45  64  82 112 149 176 204 248
#     4   8  13  23  39  57  79 109 135 158 198 252
#     4   9  16  25  39  59  83 110 138 167 205 251
#     4   9  15  25  41  58  81 111 135 161 205 254
#     4   9  15  26  41  58  83 110 138 173 207 243
#     4   9  16  26  40  60  83 106 137 174 205 241
#
# _framework density 15.698357
#
# number of rings (size 3 to 8) (size 9 to 14) (size 15 to 20)
#    0.000    3.167    1.667    1.500    0.000    0.000 
#    0.000    5.000    0.000    2.000    0.000    1.167 
#    0.000    9.333    0.000    0.000    0.000    0.000 
#
# Total GULP energy -297344.679847 kJ/mol
# GULP energy per Si atom -12389.361660 kJ/mol
# Density = 1.566263 g / cm^3
# Si number density = 15.698357 Si / 1000 Ang^3
#
#
#
# Elastic Constant Matrix: (Units=GPa)
#
#
# Indices 1 2 3 4 5 6 
#
# 1 57.9110 22.7881 51.8671 0.0000 7.3884 0.0000
# 2 22.7881 46.6098 46.2687 0.0000 10.0901 0.0000
# 3 51.8671 46.2687 158.4806 0.0000 21.4789 0.0000
# 4 0.0000 0.0000 0.0000 25.5668 0.0000 5.7194
# 5 7.3884 10.0901 21.4789 0.0000 23.4616 0.0000
# 6 0.0000 0.0000 0.0000 5.7194 0.0000 12.2786
#
#
#
# Elastic Compliance Matrix: (Units=1/GPa)
#
#
# Indices 1 2 3 4 5 6 
#
# 1 0.025538 -0.005975 -0.006704 0.000000 0.000665 0.000000
# 2 -0.005975 0.032270 -0.006667 0.000000 -0.005893 0.000000
# 3 -0.006704 -0.006667 0.011160 0.000000 -0.005239 0.000000
# 4 0.000000 0.000000 0.000000 0.043663 0.000000 -0.020338
# 5 0.000665 -0.005893 -0.005239 0.000000 0.049744 0.000000
# 6 0.000000 0.000000 0.000000 -0.020338 0.000000 0.090916
#
#
# Mechanical properties :
#
#
# Convention : Reuss Voigt Hill
#
# Bulk Modulus (GPa) = 33.02851 56.09434 44.56143
# Shear Modulus (GPa) = 16.55212 21.73325 19.14268
#
# Velocity S-wave (km/s) = 3.25065 3.72483 3.49579
# Velocity P-wave (km/s) = 5.93078 7.36949 6.68893
#
# Compressibility (1/GPa) = 0.03027687
#
# Stress axis : x y z
#
# Youngs Moduli (GPa) = 39.15660 30.98845 89.60264
#
# Poissons Ratio (x) = 0.18516 0.60067
# Poissons Ratio (y) = 0.23397 0.59739
# Poissons Ratio (z) = 0.26250 0.20660
#
# Static dielectric constant tensor:
#      x y z
#    x 2.756740 0.000000 0.261640 
#    y 0.000000 2.821130 0.000000 
#    z 0.261640 0.000000 3.520150 
# 
# 
# High freq. dielectric constant tensor:
#      x y z
#    x 1.549580 0.000000 0.025480 
#    y 0.000000 1.574220 0.000000 
#    z 0.025480 0.000000 1.616640 
# 
# From -- ./inp_files/188120.got.cif
#   From: 2010.06.25/outbox.cif.g09.slc.cpg/sg12_95_cif.got.tgz:188120.got - 2010.06.28 00:19:55.
