data_PCOD8116207
_publ_section_title
;
Structure prediction by ZEFSAII (Michael W. Deem and Ramdas Pophale) SiO2 
 PCOD8116207
Probable space group: C 2/M
;
_chemical_formula_sum "Si O2"
_cell_formula_units_Z 32
_cell_length_a 24.000000
_cell_length_b 9.000000
_cell_length_c 30.000000
_cell_angle_alpha 90.000000
_cell_angle_beta 30.000000
_cell_angle_gamma 90.000000
_cell_volume 3240.000000
_symmetry_space_group_name_H-M "C 2/M"
_symmetry_group_IT_number 12
_symmetry_cell_setting 'monoclinic'
loop_
_space_group_symop_operation_xyz
x,y,z
-x,y,-z
-x,-y,-z
x,-y,z
1/2+x,1/2+y,z
1/2-x,1/2+y,-z
1/2-x,1/2-y,-z
1/2+x,1/2-y,z
loop_
_atom_site_type_symbol
_atom_site_label
_atom_site_fract_x
_atom_site_fract_y
_atom_site_fract_z
Si Si1 0.885308 0.334639 0.594218
Si Si2 0.695479 0.665748 0.658998
Si Si3 0.535636 0.324938 0.060833
Si Si4 0.920670 0.671009 0.783623
Si Si5 0.994474 0.672505 0.832373
Si Si6 0.666892 0.827175 0.591023
Si Si7 0.719915 0.176129 0.877109
Si Si8 0.219817 0.176167 0.784304
O O1 0.917955 0.500000 0.588105
O O2 0.814807 0.343838 0.598373
O O3 0.809986 0.262603 0.685607
O O4 0.000000 0.249424 0.500000
O O5 0.658103 0.500000 0.669211
O O6 0.607221 0.730586 0.755202
O O7 0.708091 0.781562 0.610784
O O8 0.558702 0.500000 0.048403
O O9 0.576942 0.242142 0.077510
O O10 0.406283 0.287578 0.142554
O O11 0.607318 0.257707 0.970841
O O12 0.889596 0.500000 0.794502
O O13 0.932808 0.693358 0.828185
O O14 0.823579 0.780995 0.836465
O O15 0.035543 0.714930 0.678197
O O16 0.020681 0.500000 0.823196
O O17 0.750000 0.750000 0.500000
O O18 0.682372 0.000000 0.573701
O O19 0.749513 0.233363 0.807717
O O20 0.702140 0.000000 0.890118
O O21 0.232862 0.000000 0.782783
#
# Coordination Sequence:
#
# PCOD8116207 Si02
#       8
#     8   8   8   8   8   8   8   8
#     4   9  18  34  58  88 117 150 196 241 286 346
#     4  10  18  33  56  84 115 152 197 241 293 352
#     4  11  22  39  64  90 116 157 204 244 295 364
#     4   9  21  41  60  82 117 160 199 240 297 360
#     4  10  20  36  61  89 117 151 194 247 299 350
#     4  10  21  37  59  87 116 153 199 246 300 357
#     4  12  26  40  58  88 121 158 199 251 308 354
#     4  10  21  40  62  86 118 160 204 243 292 360
#
# _framework density 9.8765429999999999
#
# number of rings (size 3 to 8) (size 9 to 14) (size 15 to 20)
#    0.000    1.875    1.250    3.750    0.000    7.000 
#    0.000    2.500    0.000    2.625    0.000    0.000 
#    0.000    0.000    0.000    0.000    0.000    0.000 
#
# Total GULP energy -396662.681114 kJ/mol
# GULP energy per Si atom -12395.708785 kJ/mol
# Density = 0.985406 g / cm^3
# Si number density = 9.876543 Si / 1000 Ang^3
#
#
#
# Elastic Constant Matrix: (Units=GPa)
#
#
# Indices 1 2 3 4 5 6 
#
# 1 66.8331 30.2413 46.4600 -0.0678 -4.4606 0.1059
# 2 30.2413 85.3561 42.3468 -0.0584 -11.9131 0.0803
# 3 46.4600 42.3468 146.5508 -0.0075 1.4619 0.0343
# 4 -0.0678 -0.0584 -0.0075 33.7712 0.0084 5.6797
# 5 -4.4606 -11.9131 1.4619 0.0084 22.5352 -0.0211
# 6 0.1059 0.0803 0.0343 5.6797 -0.0211 29.4248
#
#
#
# Elastic Compliance Matrix: (Units=1/GPa)
#
#
# Indices 1 2 3 4 5 6 
#
# 1 0.020823 -0.004430 -0.005342 0.000043 0.002126 -0.000063
# 2 -0.004430 0.016011 -0.003300 0.000020 0.007801 -0.000022
# 3 -0.005342 -0.003300 0.009505 -0.000016 -0.003419 0.000018
# 4 0.000043 0.000020 -0.000016 0.030605 0.000003 -0.005908
# 5 0.002126 0.007801 -0.003419 0.000003 0.049142 0.000010
# 6 -0.000063 -0.000022 0.000018 -0.005908 0.000010 0.035126
#
#
# Mechanical properties :
#
#
# Convention : Reuss Voigt Hill
#
# Bulk Modulus (GPa) = 49.51928 59.64847 54.58387
# Shear Modulus (GPa) = 25.76150 29.12570 27.44360
#
# Velocity S-wave (km/s) = 3.61526 3.84407 3.73142
# Velocity P-wave (km/s) = 6.52306 7.06860 6.80130
#
# Compressibility (1/GPa) = 0.02019416
#
# Stress axis : x y z
#
# Youngs Moduli (GPa) = 48.02327 62.45612 105.20913
#
# Poissons Ratio (x) = 0.27670 0.56208
# Poissons Ratio (y) = 0.21275 0.34718
# Poissons Ratio (z) = 0.25656 0.20610
#
# Static dielectric constant tensor:
#      x y z
#    x 3.398730 -0.000040 0.014690 
#    y -0.000040 3.589690 -0.000040 
#    z 0.014690 -0.000040 3.671390 
# 
# 
# High freq. dielectric constant tensor:
#      x y z
#    x 1.760330 0.000000 0.007850 
#    y 0.000000 1.762270 0.000000 
#    z 0.007850 0.000000 1.782320 
# 
# From -- ./inp_files/382398.got.cif
#   From: 2010.06.25/outbox.ucp.g09.slc.cvg/sg12_192_cif.got.tgz:382398.got - 2010.06.28 13:50:54.
