data_PCOD8116733
_publ_section_title
;
Structure prediction by ZEFSAII (Michael W. Deem and Ramdas Pophale) SiO2 
 PCOD8116733
Probable space group: P 2/C
;
_chemical_formula_sum "Si O2"
_cell_formula_units_Z 30
_cell_length_a 11.898558
_cell_length_b 11.638894
_cell_length_c 19.057762
_cell_angle_alpha 90.000000
_cell_angle_beta 40.275187
_cell_angle_gamma 90.000000
_cell_volume 1706.157893
_symmetry_space_group_name_H-M "P 2/C"
_symmetry_group_IT_number 13
_symmetry_cell_setting 'monoclinic'
loop_
_space_group_symop_operation_xyz
x,y,z
-x,y,1/2-z
-x,-y,-z
x,-y,1/2+z
loop_
_atom_site_type_symbol
_atom_site_label
_atom_site_fract_x
_atom_site_fract_y
_atom_site_fract_z
Si Si1 0.348679 0.948202 0.668014
Si Si2 0.016967 0.031430 0.660614
Si Si3 0.522042 0.722975 0.821412
Si Si4 0.000000 0.452404 0.750000
Si Si5 0.214911 0.735221 0.070324
Si Si6 0.487208 0.319109 0.545197
Si Si7 0.341157 0.898855 0.506942
Si Si8 0.323798 0.540196 0.665359
O O1 0.375522 0.831688 0.697496
O O2 0.338351 0.922059 0.590926
O O3 0.511197 0.031063 0.604737
O O4 0.173231 0.009068 0.781794
O O5 0.084573 0.160745 0.615679
O O6 0.000000 0.007728 0.750000
O O7 0.156111 0.939299 0.563079
O O8 0.500000 0.737035 0.750000
O O9 0.642131 0.610476 0.779416
O O10 0.330642 0.709306 0.946807
O O11 0.107758 0.377485 0.642717
O O12 0.122263 0.533313 0.739288
O O13 0.341900 0.763485 0.076481
O O14 0.621201 0.236995 0.523146
O O15 0.398014 0.410527 0.639943
O O16 0.579282 0.390660 0.441246
#
# Coordination Sequence:
#
# PCOD8116733 Si02
#       8
#     4   4   4   2   4   4   4   4
#     4  10  19  30  50  83 106 141 181 220 276 327
#     4  10  18  26  50  87 114 131 164 217 290 343
#     4  11  22  40  56  70 110 162 194 208 255 345
#     4  10  20  30  58  86 114 124 172 258 290 320
#     4  10  17  33  52  82 107 143 175 215 287 332
#     4   9  16  30  51  75 112 135 171 225 286 325
#     4  10  16  29  52  80 117 130 162 239 287 328
#     4   9  19  32  50  81 104 142 180 222 282 322
#
# _framework density 17.583365000000001
#
# number of rings (size 3 to 8) (size 9 to 14) (size 15 to 20)
#    0.000    2.133    4.667    2.400    1.867    1.067 
#    0.000    1.333    0.000    0.800    0.000    0.000 
#    0.000    0.000    0.000    0.000    0.000    0.000 
#
# Total GULP energy -371793.225985 kJ/mol
# GULP energy per Si atom -12393.107533 kJ/mol
# Density = 1.754334 g / cm^3
# Si number density = 17.583365 Si / 1000 Ang^3
#
#
#
# Elastic Constant Matrix: (Units=GPa)
#
#
# Indices 1 2 3 4 5 6 
#
# 1 54.3823 30.5810 48.3979 0.0000 -19.9327 0.0000
# 2 30.5810 89.9838 35.1724 0.0000 -11.2639 0.0000
# 3 48.3979 35.1724 81.9248 0.0000 -25.0478 0.0000
# 4 0.0000 0.0000 0.0000 14.1323 0.0000 -6.7386
# 5 -19.9327 -11.2639 -25.0478 0.0000 25.8074 0.0000
# 6 0.0000 0.0000 0.0000 -6.7386 0.0000 11.2766
#
#
#
# Elastic Compliance Matrix: (Units=1/GPa)
#
#
# Indices 1 2 3 4 5 6 
#
# 1 0.043305 -0.005586 -0.019486 0.000000 0.012097 0.000000
# 2 -0.005586 0.014077 -0.003106 0.000000 -0.001185 0.000000
# 3 -0.019486 -0.003106 0.028489 0.000000 0.011245 0.000000
# 4 0.000000 0.000000 0.000000 0.098956 0.000000 0.059133
# 5 0.012097 -0.001185 0.011245 0.000000 0.058488 0.000000
# 6 0.000000 0.000000 0.000000 0.059133 0.000000 0.124015
#
#
# Mechanical properties :
#
#
# Convention : Reuss Voigt Hill
#
# Bulk Modulus (GPa) = 33.88090 50.51039 42.19565
# Shear Modulus (GPa) = 11.53329 17.71924 14.62626
#
# Velocity S-wave (km/s) = 2.56387 3.17792 2.88726
# Velocity P-wave (km/s) = 5.29860 6.50032 5.92998
#
# Compressibility (1/GPa) = 0.02951515
#
# Stress axis : x y z
#
# Youngs Moduli (GPa) = 23.09179 71.03634 35.10066
#
# Poissons Ratio (x) = 0.39684 0.68398
# Poissons Ratio (y) = 0.12900 0.10902
# Poissons Ratio (z) = 0.44997 0.22062
#
# Static dielectric constant tensor:
#      x y z
#    x 3.181720 0.000000 -0.611420 
#    y 0.000000 3.503380 0.000000 
#    z -0.611420 0.000000 3.399910 
# 
# 
# High freq. dielectric constant tensor:
#      x y z
#    x 1.630860 0.000000 -0.046550 
#    y 0.000000 1.690290 0.000000 
#    z -0.046550 0.000000 1.663490 
# 
# From -- ./inp_files/50906.got.cif
#   From: 2010.06.25/outbox.cif.g09.slc.cpg/sg13_26_cif.got.tgz:50906.got - 2010.06.28 04:50:58.
