data_PCOD8116178
_publ_section_title
;
Structure prediction by ZEFSAII (Michael W. Deem and Ramdas Pophale) SiO2 
 PCOD8116178
Probable space group: C 2/M
;
_chemical_formula_sum "Si O2"
_cell_formula_units_Z 32
_cell_length_a 30.000000
_cell_length_b 9.000000
_cell_length_c 30.000000
_cell_angle_alpha 90.000000
_cell_angle_beta 30.000000
_cell_angle_gamma 90.000000
_cell_volume 4050.000000
_symmetry_space_group_name_H-M "C 2/M"
_symmetry_group_IT_number 12
_symmetry_cell_setting 'monoclinic'
loop_
_space_group_symop_operation_xyz
x,y,z
-x,y,-z
-x,-y,-z
x,-y,z
1/2+x,1/2+y,z
1/2-x,1/2+y,-z
1/2-x,1/2-y,-z
1/2+x,1/2-y,z
loop_
_atom_site_type_symbol
_atom_site_label
_atom_site_fract_x
_atom_site_fract_y
_atom_site_fract_z
Si Si1 0.168310 0.174244 0.384486
Si Si2 0.645710 0.174786 0.732285
Si Si3 0.139954 0.170708 0.552973
Si Si4 0.668419 0.177178 0.288807
Si Si5 0.974078 0.675460 0.086115
Si Si6 0.676840 0.670315 0.619594
Si Si7 0.491231 0.327107 0.410012
Si Si8 0.147466 0.676232 0.889733
O O1 0.257451 0.224811 0.333247
O O2 0.161306 0.266119 0.345349
O O3 0.081526 0.211175 0.489056
O O4 0.173206 0.000000 0.368317
O O5 0.564856 0.232296 0.833401
O O6 0.623212 0.245070 0.704217
O O7 0.643774 0.000000 0.729071
O O8 0.222642 0.271143 0.468011
O O9 0.122668 0.194758 0.620518
O O10 0.052360 0.213239 0.600360
O O11 0.166482 0.000000 0.519459
O O12 0.580779 0.231627 0.338052
O O13 0.758143 0.239634 0.187479
O O14 0.671188 0.000000 0.285488
O O15 0.971319 0.500000 0.084462
O O16 0.904051 0.732354 0.109735
O O17 0.077739 0.723663 0.989622
O O18 0.682609 0.500000 0.627514
O O19 0.517336 0.500000 0.389905
O O20 0.167004 0.500000 0.872515
#
# Coordination Sequence:
#
# PCOD8116178 Si02
#       8
#     8   8   8   8   8   8   8   8
#     4  10  19  33  51  67  90 129 171 198 221 267
#     4  10  17  30  50  73  98 126 159 192 229 279
#     4   9  18  34  50  67  91 125 165 199 231 275
#     4  12  24  33  44  68 100 129 157 197 245 282
#     4   8  15  28  52  74  89 117 161 202 228 266
#     4  10  19  29  47  73 100 124 151 192 243 287
#     4  10  20  35  52  66  86 127 174 203 225 266
#     4   9  16  32  52  69  89 121 163 199 230 272
#
# _framework density 7.9012349999999998
#
# number of rings (size 3 to 8) (size 9 to 14) (size 15 to 20)
#    0.000    2.250    2.500    2.625    0.000    3.500 
#    0.000    1.875    0.000    0.000    0.000    0.875 
#    0.000    0.000    0.000    0.000    0.000    0.000 
#
# Total GULP energy -396638.538365 kJ/mol
# GULP energy per Si atom -12394.954324 kJ/mol
# Density = 0.788325 g / cm^3
# Si number density = 7.901235 Si / 1000 Ang^3
#
#
#
# Elastic Constant Matrix: (Units=GPa)
#
#
# Indices 1 2 3 4 5 6 
#
# 1 96.8940 38.6879 58.6093 0.0035 -1.8140 0.0043
# 2 38.6879 55.7234 42.2949 0.0233 -3.7524 -0.0007
# 3 58.6093 42.2949 133.0280 0.0216 -5.6186 -0.0053
# 4 0.0035 0.0233 0.0216 17.9116 -0.0078 2.0703
# 5 -1.8140 -3.7524 -5.6186 -0.0078 25.0408 -0.0017
# 6 0.0043 -0.0007 -0.0053 2.0703 -0.0017 22.6465
#
#
#
# Elastic Compliance Matrix: (Units=1/GPa)
#
#
# Indices 1 2 3 4 5 6 
#
# 1 0.016272 -0.007767 -0.004744 0.000013 -0.001050 -0.000006
# 2 -0.007767 0.027449 -0.005204 -0.000027 0.002383 0.000004
# 3 -0.004744 -0.005204 0.011322 -0.000006 0.001417 0.000004
# 4 0.000013 -0.000027 -0.000006 0.056426 0.000013 -0.005158
# 5 -0.001050 0.002383 0.001417 0.000013 0.040534 0.000002
# 6 -0.000006 0.000004 0.000004 -0.005158 0.000002 0.044628
#
#
# Mechanical properties :
#
#
# Convention : Reuss Voigt Hill
#
# Bulk Modulus (GPa) = 50.99006 62.75885 56.87446
# Shear Modulus (GPa) = 20.95567 22.85667 21.90617
#
# Velocity S-wave (km/s) = 3.64552 3.80728 3.72728
# Velocity P-wave (km/s) = 7.07509 7.68947 7.38867
#
# Compressibility (1/GPa) = 0.01961167
#
# Stress axis : x y z
#
# Youngs Moduli (GPa) = 61.45672 36.43098 88.32552
#
# Poissons Ratio (x) = 0.28297 0.41899
# Poissons Ratio (y) = 0.47735 0.45969
# Poissons Ratio (z) = 0.29154 0.18960
#
# Static dielectric constant tensor:
#      x y z
#    x 3.075630 -0.000020 0.081310 
#    y -0.000020 2.882890 0.000030 
#    z 0.081310 0.000030 3.237450 
# 
# 
# High freq. dielectric constant tensor:
#      x y z
#    x 1.592880 0.000000 0.001860 
#    y 0.000000 1.594750 0.000000 
#    z 0.001860 0.000000 1.603880 
# 
# From -- ./inp_files/384520.got.cif
#   From: 2010.06.25/outbox.ucp.g09.slc.cvg/sg12_193_cif.got.tgz:384520.got - 2010.06.28 13:50:54.
