data_PCOD8116963
_publ_section_title
;
Structure prediction by ZEFSAII (Michael W. Deem and Ramdas Pophale) SiO2 
 PCOD8116963
Probable space group: P 2/C
;
_chemical_formula_sum "Si O2"
_cell_formula_units_Z 32
_cell_length_a 9.247726
_cell_length_b 11.829723
_cell_length_c 14.044294
_cell_angle_alpha 90.000000
_cell_angle_beta 96.275571
_cell_angle_gamma 90.000000
_cell_volume 1527.211442
_symmetry_space_group_name_H-M "P 2/C"
_symmetry_group_IT_number 13
_symmetry_cell_setting 'monoclinic'
loop_
_space_group_symop_operation_xyz
x,y,z
-x,y,1/2-z
-x,-y,-z
x,-y,1/2+z
loop_
_atom_site_type_symbol
_atom_site_label
_atom_site_fract_x
_atom_site_fract_y
_atom_site_fract_z
Si Si1 0.200666 0.920621 0.341362
Si Si2 0.118309 0.953845 0.128057
Si Si3 0.825803 0.250755 0.999277
Si Si4 0.628354 0.866890 0.630276
Si Si5 0.126471 0.631995 0.567895
Si Si6 0.160537 0.330333 0.865101
Si Si7 0.840532 0.604896 0.335492
Si Si8 0.695482 0.836553 0.853773
O O1 0.204063 0.907023 0.226791
O O2 0.223805 0.795696 0.386276
O O3 0.049467 0.978380 0.361045
O O4 0.327298 0.003034 0.389223
O O5 0.190579 0.071094 0.099221
O O6 0.127465 0.868044 0.041816
O O7 0.705970 0.226751 0.070466
O O8 0.966057 0.313320 0.054471
O O9 0.750487 0.332162 0.912869
O O10 0.678557 0.842966 0.740221
O O11 0.456667 0.855207 0.603433
O O12 0.183351 0.599882 0.464900
O O13 0.120818 0.522382 0.633822
O O14 0.245022 0.712935 0.621714
O O15 0.231771 0.390046 0.776004
O O16 0.986935 0.319484 0.838534
#
# Coordination Sequence:
#
# PCOD8116963 Si02
#       8
#     4   4   4   4   4   4   4   4
#     4  10  17  35  60  89 116 165 190 249 300 359
#     4  10  18  33  60  86 123 148 199 247 298 354
#     4  11  20  36  60  94 116 155 200 253 298 357
#     4  10  24  39  60  81 125 166 203 242 308 360
#     4  11  23  36  64  91 122 155 207 244 300 356
#     4  10  18  35  58  89 125 152 194 246 307 355
#     4  10  20  37  58  93 125 157 194 255 300 352
#     4  10  24  43  52  87 122 168 200 248 298 361
#
# _framework density 20.953222
#
# number of rings (size 3 to 8) (size 9 to 14) (size 15 to 20)
#    0.000    1.750    3.750    3.000    1.750    6.000 
#    0.000    0.625    0.000    0.750    0.000    0.000 
#    0.000    0.000    0.000    0.000    0.000    0.000 
#
# Total GULP energy -396686.074761 kJ/mol
# GULP energy per Si atom -12396.439836 kJ/mol
# Density = 2.090553 g / cm^3
# Si number density = 20.953222 Si / 1000 Ang^3
#
#
#
# Elastic Constant Matrix: (Units=GPa)
#
#
# Indices 1 2 3 4 5 6 
#
# 1 79.1581 48.8179 38.3816 0.0000 -19.0131 0.0000
# 2 48.8179 120.0067 50.4126 0.0000 -12.1339 0.0000
# 3 38.3816 50.4126 77.7723 0.0000 -19.8490 0.0000
# 4 0.0000 0.0000 0.0000 32.9294 0.0000 0.8195
# 5 -19.0131 -12.1339 -19.8490 0.0000 22.8132 0.0000
# 6 0.0000 0.0000 0.0000 0.8195 0.0000 10.9155
#
#
#
# Elastic Compliance Matrix: (Units=1/GPa)
#
#
# Indices 1 2 3 4 5 6 
#
# 1 0.020553 -0.005726 -0.003647 0.000000 0.010911 0.000000
# 2 -0.005726 0.013050 -0.006530 0.000000 -0.003512 0.000000
# 3 -0.003647 -0.006530 0.022146 0.000000 0.012756 0.000000
# 4 0.000000 0.000000 0.000000 0.030425 0.000000 -0.002284
# 5 0.010911 -0.003512 0.012756 0.000000 0.062158 0.000000
# 6 0.000000 0.000000 0.000000 -0.002284 0.000000 0.091784
#
#
# Mechanical properties :
#
#
# Convention : Reuss Voigt Hill
#
# Bulk Modulus (GPa) = 41.76385 61.35128 51.55756
# Shear Modulus (GPa) = 17.86333 22.61995 20.24164
#
# Velocity S-wave (km/s) = 2.92299 3.28921 3.11149
# Velocity P-wave (km/s) = 5.60063 6.61580 6.12927
#
# Compressibility (1/GPa) = 0.02394415
#
# Stress axis : x y z
#
# Youngs Moduli (GPa) = 48.65452 76.62891 45.15438
#
# Poissons Ratio (x) = 0.43874 0.16469
# Poissons Ratio (y) = 0.27857 0.29485
# Poissons Ratio (z) = 0.17745 0.50037
#
# Static dielectric constant tensor:
#      x y z
#    x 3.433080 0.000000 -0.225270 
#    y 0.000000 3.707330 0.000000 
#    z -0.225270 0.000000 4.233060 
# 
# 
# High freq. dielectric constant tensor:
#      x y z
#    x 1.766730 0.000000 -0.012430 
#    y 0.000000 1.817560 0.000000 
#    z -0.012430 0.000000 1.842280 
# 
# From -- ./inp_files/47259.got.cif
#   From: 2010.06.25/outbox.cif.g09.slc.cpg/sg13_24_cif.got.tgz:47259.got - 2010.06.28 04:50:58.
