data_PCOD8116986
_publ_section_title
;
Structure prediction by ZEFSAII (Michael W. Deem and Ramdas Pophale) SiO2 
 PCOD8116986
Probable space group: P 2/C
;
_chemical_formula_sum "Si O2"
_cell_formula_units_Z 24
_cell_length_a 16.835529
_cell_length_b 8.594082
_cell_length_c 16.922562
_cell_angle_alpha 90.000000
_cell_angle_beta 151.226046
_cell_angle_gamma 90.000000
_cell_volume 1178.577379
_symmetry_space_group_name_H-M "P 2/C"
_symmetry_group_IT_number 13
_symmetry_cell_setting 'monoclinic'
loop_
_space_group_symop_operation_xyz
x,y,z
-x,y,1/2-z
-x,-y,-z
x,-y,1/2+z
loop_
_atom_site_type_symbol
_atom_site_label
_atom_site_fract_x
_atom_site_fract_y
_atom_site_fract_z
Si Si1 0.516056 0.295950 0.353100
Si Si2 0.627940 0.540817 0.180232
Si Si3 0.346247 0.092428 0.333534
Si Si4 0.132198 0.348016 0.198334
Si Si5 0.884263 0.353803 0.722956
Si Si6 0.147757 0.201354 0.642502
O O1 0.500000 0.242134 0.250000
O O2 0.443166 0.472035 0.300025
O O3 0.403154 0.178641 0.304049
O O4 0.702970 0.294324 0.544101
O O5 0.807362 0.462916 0.319072
O O6 0.669792 0.723169 0.215948
O O7 0.500000 0.500000 0.000000
O O8 0.279446 0.220285 0.338928
O O9 0.500000 0.000000 0.500000
O O10 0.187897 0.982332 0.175808
O O11 0.106519 0.458746 0.252761
O O12 0.969457 0.253436 0.031649
O O13 0.932206 0.255051 0.843162
O O14 0.000000 0.312595 0.750000
#
# Coordination Sequence:
#
# PCOD8116986 Si02
#       6
#     4   4   4   4   4   4
#     4  11  24  39  62  93 123 158 210 264 313 368
#     4  10  17  37  63  87 115 158 207 249 294 362
#     4  11  22  42  65  87 123 170 213 249 304 380
#     4  10  22  37  61  91 120 156 209 248 305 369
#     4  11  23  39  60  92 127 156 199 263 322 355
#     4  11  21  39  65  92 119 165 206 254 300 380
#
# _framework density 20.363534000000001
#
# number of rings (size 3 to 8) (size 9 to 14) (size 15 to 20)
#    0.000    1.333    5.000    3.500    7.000    0.000 
#    0.000    3.333    0.000    0.000    0.000    0.000 
#    0.000    0.000    0.000    0.000    0.000    0.000 
#
# Total GULP energy -297369.648837 kJ/mol
# GULP energy per Si atom -12390.402035 kJ/mol
# Density = 2.031719 g / cm^3
# Si number density = 20.363534 Si / 1000 Ang^3
#
#
#
# Elastic Constant Matrix: (Units=GPa)
#
#
# Indices 1 2 3 4 5 6 
#
# 1 110.4091 39.9346 20.5138 0.0000 4.0063 0.0000
# 2 39.9346 96.4457 12.9110 0.0000 0.1528 0.0000
# 3 20.5138 12.9110 70.5210 0.0000 0.2933 0.0000
# 4 0.0000 0.0000 0.0000 33.9888 0.0000 6.5003
# 5 4.0063 0.1528 0.2933 0.0000 27.4570 0.0000
# 6 0.0000 0.0000 0.0000 6.5003 0.0000 26.8369
#
#
#
# Elastic Compliance Matrix: (Units=1/GPa)
#
#
# Indices 1 2 3 4 5 6 
#
# 1 0.011114 -0.004272 -0.002444 0.000000 -0.001572 0.000000
# 2 -0.004272 0.012271 -0.001006 0.000000 0.000566 0.000000
# 3 -0.002444 -0.001006 0.015075 0.000000 0.000201 0.000000
# 4 0.000000 0.000000 0.000000 0.030851 0.000000 -0.007472
# 5 -0.001572 0.000566 0.000201 0.000000 0.036645 0.000000
# 6 0.000000 0.000000 0.000000 -0.007472 0.000000 0.039072
#
#
# Mechanical properties :
#
#
# Convention : Reuss Voigt Hill
#
# Bulk Modulus (GPa) = 43.45107 47.12163 45.28635
# Shear Modulus (GPa) = 29.73657 31.25761 30.49709
#
# Velocity S-wave (km/s) = 3.82551 3.92213 3.87412
# Velocity P-wave (km/s) = 6.39506 6.61069 6.50377
#
# Compressibility (1/GPa) = 0.02301439
#
# Stress axis : x y z
#
# Youngs Moduli (GPa) = 89.98016 81.49135 66.33698
#
# Poissons Ratio (x) = 0.34813 0.16214
# Poissons Ratio (y) = 0.38440 0.06675
# Poissons Ratio (z) = 0.21993 0.08200
#
# Static dielectric constant tensor:
#      x y z
#    x 3.772790 0.000000 0.235200 
#    y 0.000000 4.290540 0.000000 
#    z 0.235200 0.000000 3.660740 
# 
# 
# High freq. dielectric constant tensor:
#      x y z
#    x 1.760500 0.000000 0.028070 
#    y 0.000000 1.801640 0.000000 
#    z 0.028070 0.000000 1.802440 
# 
# From -- ./inp_files/69531.got.cif
#   From: 2010.06.25/outbox.cif.g09.slc.cpg/sg13_35_cif.got.tgz:69531.got - 2010.06.28 04:50:58.
