data_PCOD8116383
_publ_section_title
;
Structure prediction by ZEFSAII (Michael W. Deem and Ramdas Pophale) SiO2 
 PCOD8116383
Probable space group: C 2/M
;
_chemical_formula_sum "Si O2"
_cell_formula_units_Z 32
_cell_length_a 30.000000
_cell_length_b 9.000000
_cell_length_c 24.000000
_cell_angle_alpha 90.000000
_cell_angle_beta 30.000000
_cell_angle_gamma 90.000000
_cell_volume 3240.000000
_symmetry_space_group_name_H-M "C 2/M"
_symmetry_group_IT_number 12
_symmetry_cell_setting 'monoclinic'
loop_
_space_group_symop_operation_xyz
x,y,z
-x,y,-z
-x,-y,-z
x,-y,z
1/2+x,1/2+y,z
1/2-x,1/2+y,-z
1/2-x,1/2-y,-z
1/2+x,1/2-y,z
loop_
_atom_site_type_symbol
_atom_site_label
_atom_site_fract_x
_atom_site_fract_y
_atom_site_fract_z
Si Si1 0.760695 0.334179 0.329608
Si Si2 0.324788 0.165606 0.385037
Si Si3 0.071682 0.174938 0.376261
Si Si4 0.260028 0.674959 0.158525
Si Si5 0.397673 0.324713 0.103195
Si Si6 0.514980 0.323747 0.742296
Si Si7 0.065770 0.823879 0.565355
Si Si8 0.812179 0.175648 0.978415
O O1 0.761110 0.500000 0.302454
O O2 0.791295 0.343797 0.359209
O O3 0.832090 0.231421 0.222067
O O4 0.659554 0.265060 0.437391
O O5 0.250000 0.250000 0.500000
O O6 0.419992 0.249590 0.282866
O O7 0.336345 0.000000 0.397174
O O8 0.168111 0.251299 0.279865
O O9 0.000000 0.224341 0.500000
O O10 0.023028 0.224897 0.371864
O O11 0.089583 0.000000 0.359432
O O12 0.245823 0.500000 0.178187
O O13 0.347993 0.722004 0.099170
O O14 0.278185 0.726458 0.075838
O O15 0.403944 0.500000 0.101431
O O16 0.500000 0.260771 0.000000
O O17 0.521105 0.500000 0.741971
O O18 0.550997 0.266051 0.643773
O O19 0.413812 0.269553 0.860952
O O20 0.074083 0.000000 0.556373
O O21 0.806294 0.000000 0.977062
O O22 0.750000 0.250000 0.000000
#
# Coordination Sequence:
#
# PCOD8116383 Si02
#       8
#     8   8   8   8   8   8   8   8
#     4  10  21  38  59  84 116 150 190 243 291 335
#     4  11  22  37  58  87 120 154 193 242 294 351
#     4  10  20  35  60  87 110 147 195 234 282 349
#     4  10  22  40  58  85 122 153 190 243 296 342
#     4  10  23  41  61  84 112 153 200 240 287 352
#     4  10  20  36  58  82 114 156 195 237 294 349
#     4   9  17  33  55  82 114 145 184 233 281 339
#     4  10  22  39  62  88 120 161 199 242 293 347
#
# _framework density 9.8765429999999999
#
# number of rings (size 3 to 8) (size 9 to 14) (size 15 to 20)
#    0.000    2.000    1.250    1.875    1.750    5.000 
#    0.000    1.250    0.000    0.000    0.000    0.000 
#    0.000    0.000    0.000    0.000    0.000    0.000 
#
# Total GULP energy -396671.717310 kJ/mol
# GULP energy per Si atom -12395.991166 kJ/mol
# Density = 0.985406 g / cm^3
# Si number density = 9.876543 Si / 1000 Ang^3
#
#
#
# Elastic Constant Matrix: (Units=GPa)
#
#
# Indices 1 2 3 4 5 6 
#
# 1 110.1944 32.3816 58.2349 -0.0067 -23.8027 0.0042
# 2 32.3816 36.4683 35.8616 -0.0207 -7.7610 0.0107
# 3 58.2349 35.8616 165.2407 -0.0278 -28.9305 0.0120
# 4 -0.0067 -0.0207 -0.0278 30.9194 0.0126 -4.3161
# 5 -23.8027 -7.7610 -28.9305 0.0126 46.2929 -0.0054
# 6 0.0042 0.0107 0.0120 -4.3161 -0.0054 29.3255
#
#
#
# Elastic Compliance Matrix: (Units=1/GPa)
#
#
# Indices 1 2 3 4 5 6 
#
# 1 0.013844 -0.009310 -0.002117 -0.000007 0.004234 0.000002
# 2 -0.009310 0.041186 -0.005936 0.000020 -0.001592 -0.000009
# 3 -0.002117 -0.005936 0.008670 0.000002 0.003334 0.000000
# 4 -0.000007 0.000020 0.000002 0.033021 -0.000007 0.004860
# 5 0.004234 -0.001592 0.003334 -0.000007 0.025596 0.000002
# 6 0.000002 -0.000009 0.000000 0.004860 0.000002 0.034815
#
#
# Mechanical properties :
#
#
# Convention : Reuss Voigt Hill
#
# Bulk Modulus (GPa) = 34.51341 62.76219 48.63780
# Shear Modulus (GPa) = 24.81188 33.66923 29.24056
#
# Velocity S-wave (km/s) = 3.54800 4.13304 3.85164
# Velocity P-wave (km/s) = 5.85617 7.39043 6.66758
#
# Compressibility (1/GPa) = 0.02897424
#
# Stress axis : x y z
#
# Youngs Moduli (GPa) = 72.23270 24.28000 115.33945
#
# Poissons Ratio (x) = 0.22604 0.24420
# Poissons Ratio (y) = 0.67246 0.68468
# Poissons Ratio (z) = 0.15293 0.14413
#
# Static dielectric constant tensor:
#      x y z
#    x 3.548430 -0.000050 -0.740370 
#    y -0.000050 3.490690 0.000060 
#    z -0.740370 0.000060 3.150080 
# 
# 
# High freq. dielectric constant tensor:
#      x y z
#    x 1.788630 0.000000 -0.016610 
#    y 0.000000 1.743520 0.000010 
#    z -0.016610 0.000010 1.788850 
# 
# From -- ./inp_files/353323.got.cif
#   From: 2010.06.25/outbox.ucp.g09.slc.cvg/sg12_177_cif.got.tgz:353323.got - 2010.06.28 13:50:54.
