data_PCOD8116956
_publ_section_title
;
Structure prediction by ZEFSAII (Michael W. Deem and Ramdas Pophale) SiO2 
 PCOD8116956
Probable space group: P 2/C
;
_chemical_formula_sum "Si O2"
_cell_formula_units_Z 20
_cell_length_a 12.453056
_cell_length_b 5.094690
_cell_length_c 24.149839
_cell_angle_alpha 90.000000
_cell_angle_beta 149.378368
_cell_angle_gamma 90.000000
_cell_volume 780.437622
_symmetry_space_group_name_H-M "P 2/C"
_symmetry_group_IT_number 13
_symmetry_cell_setting 'monoclinic'
loop_
_space_group_symop_operation_xyz
x,y,z
-x,y,1/2-z
-x,-y,-z
x,-y,1/2+z
loop_
_atom_site_type_symbol
_atom_site_label
_atom_site_fract_x
_atom_site_fract_y
_atom_site_fract_z
Si Si1 0.321270 0.639271 0.555721
Si Si2 0.709961 0.829526 0.076219
Si Si3 0.497802 0.870400 0.312550
Si Si4 0.903783 0.679239 0.317455
Si Si5 0.767203 0.661857 0.666939
O O1 0.416192 0.752146 0.538607
O O2 0.390125 0.348128 0.600666
O O3 0.068187 0.606357 0.438857
O O4 0.385781 0.850022 0.630872
O O5 0.662263 0.598587 0.096783
O O6 0.962248 0.830281 0.171801
O O7 0.641218 0.093025 0.080664
O O8 0.500000 0.782482 0.250000
O O9 0.259735 0.887030 0.229833
O O10 0.787100 0.410723 0.242182
O O11 0.000000 0.715574 0.750000
#
# Coordination Sequence:
#
# PCOD8116956 Si02
#       5
#     4   4   4   4   4
#     4  10  25  44  66  99 135 171 232 276 330 405
#     4   9  20  37  63  93 131 172 208 261 323 396
#     4  12  26  46  69  97 132 176 234 286 333 392
#     4   9  24  42  70  98 139 180 212 281 333 393
#     4  10  17  34  65  93 126 178 204 251 331 391
#
# _framework density 25.626647999999999
#
# number of rings (size 3 to 8) (size 9 to 14) (size 15 to 20)
#    1.200    0.800    0.000    3.600    0.000    8.000 
#    0.000    6.000    0.000    0.000    0.000    0.000 
#    0.000    0.000    0.000    0.000    0.000    0.000 
#
# Total GULP energy -247791.189482 kJ/mol
# GULP energy per Si atom -12389.559474 kJ/mol
# Density = 2.556832 g / cm^3
# Si number density = 25.626648 Si / 1000 Ang^3
#
#
#
# Elastic Constant Matrix: (Units=GPa)
#
#
# Indices 1 2 3 4 5 6 
#
# 1 75.8884 23.3779 47.2565 0.0000 -5.9691 0.0000
# 2 23.3779 125.1351 26.9503 0.0000 -1.3906 0.0000
# 3 47.2565 26.9503 110.1287 0.0000 -6.5686 0.0000
# 4 0.0000 0.0000 0.0000 42.8396 0.0000 -14.0540
# 5 -5.9691 -1.3906 -6.5686 0.0000 20.1740 0.0000
# 6 0.0000 0.0000 0.0000 -14.0540 0.0000 14.7745
#
#
#
# Elastic Compliance Matrix: (Units=1/GPa)
#
#
# Indices 1 2 3 4 5 6 
#
# 1 0.018544 -0.001854 -0.007327 0.000000 0.002974 0.000000
# 2 -0.001854 0.008621 -0.001338 0.000000 -0.000390 0.000000
# 3 -0.007327 -0.001338 0.012663 0.000000 0.001863 0.000000
# 4 0.000000 0.000000 0.000000 0.033932 0.000000 0.032277
# 5 0.002974 -0.000390 0.001863 0.000000 0.051028 0.000000
# 6 0.000000 0.000000 0.000000 0.032277 0.000000 0.098387
#
#
# Mechanical properties :
#
#
# Convention : Reuss Voigt Hill
#
# Bulk Modulus (GPa) = 53.21146 56.25797 54.73472
# Shear Modulus (GPa) = 19.96206 29.79544 24.87875
#
# Velocity S-wave (km/s) = 2.79401 3.41350 3.11917
# Velocity P-wave (km/s) = 5.58729 6.12671 5.86321
#
# Compressibility (1/GPa) = 0.01879294
#
# Stress axis : x y z
#
# Youngs Moduli (GPa) = 53.92459 115.99037 78.97282
#
# Poissons Ratio (x) = 0.21499 0.57860
# Poissons Ratio (y) = 0.09995 0.10564
# Poissons Ratio (z) = 0.39508 0.15516
#
# Static dielectric constant tensor:
#      x y z
#    x 4.438180 0.000000 0.285070 
#    y 0.000000 4.380980 0.000000 
#    z 0.285070 0.000000 5.357300 
# 
# 
# High freq. dielectric constant tensor:
#      x y z
#    x 2.002320 0.000000 0.027980 
#    y 0.000000 2.019210 0.000000 
#    z 0.027980 0.000000 2.069630 
# 
# From -- ./inp_files/92583.got.cif
#   From: 2010.06.25/outbox.cif.g09.slc.cpg/sg13_47_cif.got.tgz:92583.got - 2010.06.28 04:50:58.
