data_PCOD8116312
_publ_section_title
;
Structure prediction by ZEFSAII (Michael W. Deem and Ramdas Pophale) SiO2 
 PCOD8116312
Probable space group: C 2/M
;
_chemical_formula_sum "Si O2"
_cell_formula_units_Z 20
_cell_length_a 18.000000
_cell_length_b 15.000000
_cell_length_c 21.000000
_cell_angle_alpha 90.000000
_cell_angle_beta 20.000000
_cell_angle_gamma 90.000000
_cell_volume 1939.254213
_symmetry_space_group_name_H-M "C 2/M"
_symmetry_group_IT_number 12
_symmetry_cell_setting 'monoclinic'
loop_
_space_group_symop_operation_xyz
x,y,z
-x,y,-z
-x,-y,-z
x,-y,z
1/2+x,1/2+y,z
1/2-x,1/2+y,-z
1/2-x,1/2-y,-z
1/2+x,1/2-y,z
loop_
_atom_site_type_symbol
_atom_site_label
_atom_site_fract_x
_atom_site_fract_y
_atom_site_fract_z
Si Si1 0.564377 0.246961 0.015072
Si Si2 0.241955 0.901071 0.315249
Si Si3 0.977356 0.176934 0.743478
Si Si4 0.629719 0.135724 0.649541
Si Si5 0.841634 0.903630 0.976900
O O1 0.406588 0.163661 0.148136
O O2 0.520803 0.327011 0.099468
O O3 0.500000 0.290459 0.000000
O O4 0.813200 0.212883 0.821127
O O5 0.300868 0.908924 0.341343
O O6 0.000000 0.863130 0.500000
O O7 0.260092 0.000000 0.270307
O O8 0.840442 0.117010 0.902470
O O9 0.170677 0.117984 0.558955
O O10 0.086208 0.258994 0.693944
O O11 0.410146 0.092093 0.798555
O O12 0.948271 0.000000 0.904703
#
# Coordination Sequence:
#
# PCOD8116312 Si02
#       5
#     8   8   8   8   8
#     4  11  22  40  60  87 123 160 199 245 297 356
#     4  11  22  36  57  87 121 154 191 245 307 356
#     4  10  20  37  64  89 113 159 203 240 299 349
#     4  10  19  37  61  88 118 153 198 249 293 350
#     4  11  22  39  63  89 122 159 200 248 294 350
#
# _framework density 10.313243
#
# number of rings (size 3 to 8) (size 9 to 14) (size 15 to 20)
#    0.000    1.400    4.000    3.000    0.000    2.400 
#    0.000    0.000    0.000    0.600    0.000    0.000 
#    0.000    0.000    0.000    0.000    0.000    0.000 
#
# Total GULP energy -247896.240885 kJ/mol
# GULP energy per Si atom -12394.812044 kJ/mol
# Density = 1.028977 g / cm^3
# Si number density = 10.313243 Si / 1000 Ang^3
#
#
#
# Elastic Constant Matrix: (Units=GPa)
#
#
# Indices 1 2 3 4 5 6 
#
# 1 87.0477 20.8921 26.5614 -0.1368 -8.8437 0.0366
# 2 20.8921 66.6676 30.3391 -0.0594 2.0954 0.0298
# 3 26.5614 30.3391 94.7716 0.3176 -7.7962 -0.0462
# 4 -0.1368 -0.0594 0.3176 82.1216 -0.0430 -14.1289
# 5 -8.8437 2.0954 -7.7962 -0.0430 24.2526 -0.0042
# 6 0.0366 0.0298 -0.0462 -14.1289 -0.0042 1.0086
#
#
#
# Elastic Compliance Matrix: (Units=1/GPa)
#
#
# Indices 1 2 3 4 5 6 
#
# 1 0.013444 -0.003281 -0.002353 0.000036 0.004429 0.000028
# 2 -0.003281 0.018638 -0.005421 0.000066 -0.004549 0.000232
# 3 -0.002353 -0.005421 0.013266 -0.000066 0.003875 -0.000050
# 4 0.000036 0.000066 -0.000066 -0.008635 -0.000050 -0.120969
# 5 0.004429 -0.004549 0.003875 -0.000050 0.044486 -0.000362
# 6 0.000028 0.000232 -0.000050 -0.120969 -0.000362 -0.703108
#
#
# Mechanical properties :
#
#
# Convention : Reuss Voigt Hill
#
# Bulk Modulus (GPa) = 43.03676 44.89691 43.96683
# Shear Modulus (GPa) = -8.44518 32.85620 12.20551
#
# Velocity S-wave (km/s) = -2.02564 3.99546 2.43521
# Velocity P-wave (km/s) = 3.92927 6.56497 5.41008
#
# Compressibility (1/GPa) = 0.02323595
#
# Stress axis : x y z
#
# Youngs Moduli (GPa) = 74.38520 53.65351 75.38279
#
# Poissons Ratio (x) = 0.17605 0.17738
# Poissons Ratio (y) = 0.24407 0.40867
# Poissons Ratio (z) = 0.17504 0.29087
#
# Static dielectric constant tensor:
#      x y z
#    x 3.622200 0.000050 -0.017090 
#    y 0.000050 3.646500 0.000360 
#    z -0.017090 0.000360 3.725690 
# 
# 
# High freq. dielectric constant tensor:
#      x y z
#    x 1.779720 0.000000 -0.010370 
#    y 0.000000 1.796680 0.000020 
#    z -0.010370 0.000020 1.797350 
# 
# From -- ./inp_files/96637.got.cif
#   From: 2010.06.25/outbox.ucp.g09.slc.cvg/sg12_49_cif.got.tgz:96637.got - 2010.06.28 13:50:54.
