data_PCOD8116476
_publ_section_title
;
Structure prediction by ZEFSAII (Michael W. Deem and Ramdas Pophale) SiO2 
 PCOD8116476
Probable space group: C 2/M
;
_chemical_formula_sum "Si O2"
_cell_formula_units_Z 24
_cell_length_a 18.000000
_cell_length_b 21.000000
_cell_length_c 18.000000
_cell_angle_alpha 90.000000
_cell_angle_beta 20.000000
_cell_angle_gamma 90.000000
_cell_volume 2327.105055
_symmetry_space_group_name_H-M "C 2/M"
_symmetry_group_IT_number 12
_symmetry_cell_setting 'monoclinic'
loop_
_space_group_symop_operation_xyz
x,y,z
-x,y,-z
-x,-y,-z
x,-y,z
1/2+x,1/2+y,z
1/2-x,1/2+y,-z
1/2-x,1/2-y,-z
1/2+x,1/2-y,z
loop_
_atom_site_type_symbol
_atom_site_label
_atom_site_fract_x
_atom_site_fract_y
_atom_site_fract_z
Si Si1 0.516310 0.185071 0.395396
Si Si2 0.544104 0.572474 0.544609
Si Si3 0.755216 0.426358 0.912402
Si Si4 0.179983 0.190477 0.161819
Si Si5 0.056342 0.384137 0.752257
Si Si6 0.883824 0.156986 0.317650
O O1 0.500000 0.182738 0.500000
O O2 0.627295 0.120218 0.258770
O O3 0.652909 0.247136 0.239257
O O4 0.267431 0.192767 0.600548
O O5 0.500000 0.585128 0.500000
O O6 0.471979 0.500000 0.634061
O O7 0.411131 0.625722 0.714857
O O8 0.804058 0.578916 0.316288
O O9 0.746812 0.500000 0.891174
O O10 0.876892 0.426605 0.877945
O O11 0.510197 0.400795 0.157278
O O12 0.059883 0.202370 0.194397
O O13 0.434543 0.176413 0.905391
O O14 0.225676 0.365404 0.530512
#
# Coordination Sequence:
#
# PCOD8116476 Si02
#       6
#     8   8   8   8   8   8
#     4  11  24  41  62  91 124 160 202 252 310 368
#     4  10  21  36  55  85 125 163 200 247 303 361
#     4  10  22  40  63  90 120 160 209 257 306 362
#     4  10  21  39  63  89 119 159 206 252 301 361
#     4   9  20  37  62  88 116 155 202 250 299 357
#     4   9  21  39  61  87 117 153 197 250 303 360
#
# _framework density 10.313243
#
# number of rings (size 3 to 8) (size 9 to 14) (size 15 to 20)
#    0.000    2.167    0.000    1.500    0.000   19.667 
#    0.000    4.167    0.000    0.000    0.000    0.000 
#    0.000    0.000    0.000    0.000    0.000    0.000 
#
# Total GULP energy -297384.210193 kJ/mol
# GULP energy per Si atom -12391.008758 kJ/mol
# Density = 1.028977 g / cm^3
# Si number density = 10.313243 Si / 1000 Ang^3
#
#
#
# Elastic Constant Matrix: (Units=GPa)
#
#
# Indices 1 2 3 4 5 6 
#
# 1 145.9630 41.5568 42.3203 -0.0620 5.1223 0.0905
# 2 41.5568 147.4738 46.7389 0.0089 16.6415 0.0409
# 3 42.3203 46.7389 120.2323 0.0383 4.9954 0.0293
# 4 -0.0620 0.0089 0.0383 40.6897 0.0141 6.2470
# 5 5.1223 16.6415 4.9954 0.0141 30.2902 -0.0592
# 6 0.0905 0.0409 0.0293 6.2470 -0.0592 29.7143
#
#
#
# Elastic Compliance Matrix: (Units=1/GPa)
#
#
# Indices 1 2 3 4 5 6 
#
# 1 0.007925 -0.001523 -0.002192 0.000018 -0.000142 -0.000024
# 2 -0.001523 0.008481 -0.002596 0.000002 -0.003974 -0.000013
# 3 -0.002192 -0.002596 0.010092 -0.000013 0.000132 0.000003
# 4 0.000018 0.000002 -0.000013 0.025396 -0.000024 -0.005339
# 5 -0.000142 -0.003974 0.000132 -0.000024 0.035200 0.000081
# 6 -0.000024 -0.000013 0.000003 -0.005339 0.000081 0.034777
#
#
# Mechanical properties :
#
#
# Convention : Reuss Voigt Hill
#
# Bulk Modulus (GPa) = 72.05595 74.98903 73.52249
# Shear Modulus (GPa) = 35.94100 39.00905 37.47502
#
# Velocity S-wave (km/s) = 4.17882 4.35352 4.26706
# Velocity P-wave (km/s) = 7.63498 7.85529 7.74592
#
# Compressibility (1/GPa) = 0.01387810
#
# Stress axis : x y z
#
# Youngs Moduli (GPa) = 126.18291 117.90997 99.08521
#
# Poissons Ratio (x) = 0.17952 0.21717
# Poissons Ratio (y) = 0.19211 0.25722
# Poissons Ratio (z) = 0.27656 0.30608
#
# Static dielectric constant tensor:
#      x y z
#    x 4.216950 -0.000230 -0.383160 
#    y -0.000230 3.797880 0.000560 
#    z -0.383160 0.000560 4.216310 
# 
# 
# High freq. dielectric constant tensor:
#      x y z
#    x 1.809260 -0.000020 -0.002990 
#    y -0.000020 1.812560 0.000060 
#    z -0.002990 0.000060 1.827960 
# 
# From -- ./inp_files/25737.got.cif
#   From: 2010.06.25/outbox.ucp.g09.slc.cvg/sg12_13_cif.got.tgz:25737.got - 2010.06.28 13:50:54.
