data_PCOD8116453
_publ_section_title
;
Structure prediction by ZEFSAII (Michael W. Deem and Ramdas Pophale) SiO2 
 PCOD8116453
Probable space group: C 2/M
;
_chemical_formula_sum "Si O2"
_cell_formula_units_Z 32
_cell_length_a 18.000000
_cell_length_b 9.000000
_cell_length_c 30.000000
_cell_angle_alpha 90.000000
_cell_angle_beta 40.000000
_cell_angle_gamma 90.000000
_cell_volume 3123.947783
_symmetry_space_group_name_H-M "C 2/M"
_symmetry_group_IT_number 12
_symmetry_cell_setting 'monoclinic'
loop_
_space_group_symop_operation_xyz
x,y,z
-x,y,-z
-x,-y,-z
x,-y,z
1/2+x,1/2+y,z
1/2-x,1/2+y,-z
1/2-x,1/2-y,-z
1/2+x,1/2-y,z
loop_
_atom_site_type_symbol
_atom_site_label
_atom_site_fract_x
_atom_site_fract_y
_atom_site_fract_z
Si Si1 0.671460 0.675689 0.999024
Si Si2 0.287905 0.166241 0.276169
Si Si3 0.837707 0.665757 0.352205
Si Si4 0.067726 0.673843 0.362623
Si Si5 0.583308 0.673878 0.500663
Si Si6 0.759562 0.669915 0.122293
Si Si7 0.568520 0.827915 0.875297
Si Si8 0.945323 0.828993 0.721529
O O1 0.681114 0.500000 0.998840
O O2 0.713791 0.722167 0.930642
O O3 0.750000 0.750000 0.000000
O O4 0.540855 0.724582 0.067123
O O5 0.356876 0.162158 0.290472
O O6 0.181306 0.274248 0.336840
O O7 0.368893 0.224543 0.198967
O O8 0.242855 0.000000 0.284767
O O9 0.866858 0.500000 0.357386
O O10 0.712418 0.714171 0.427106
O O11 0.921971 0.790988 0.331535
O O12 0.051977 0.500000 0.371004
O O13 0.096622 0.729295 0.299879
O O14 0.951947 0.744770 0.437166
O O15 0.500000 0.732832 0.500000
O O16 0.565759 0.500000 0.516263
O O17 0.767963 0.500000 0.101616
O O18 0.848721 0.698316 0.121034
O O19 0.631841 0.706716 0.199568
O O20 0.530463 0.000000 0.889169
O O21 0.931539 0.000000 0.714447
#
# Coordination Sequence:
#
# PCOD8116453 Si02
#       8
#     8   8   8   8   8   8   8   8
#     4  12  27  44  64  94 132 168 209 255 308 366
#     4  10  20  40  66  93 125 165 210 253 313 376
#     4  10  22  39  63  94 125 161 209 260 315 376
#     4  12  24  38  62  94 128 162 210 264 309 365
#     4  10  20  39  65  88 120 167 211 256 315 379
#     4  10  22  43  69  94 124 166 210 253 309 375
#     4  10  21  41  69  96 126 165 209 255 308 371
#     4  11  24  43  65  91 127 167 208 255 315 376
#
# _framework density 10.243449
#
# number of rings (size 3 to 8) (size 9 to 14) (size 15 to 20)
#    0.000    1.375    2.500    3.000    1.750    5.250 
#    0.000    0.000    0.000    0.000    0.000    0.000 
#    0.000    0.000    0.000    0.000    0.000    0.000 
#
# Total GULP energy -396832.732716 kJ/mol
# GULP energy per Si atom -12401.022897 kJ/mol
# Density = 1.022013 g / cm^3
# Si number density = 10.243449 Si / 1000 Ang^3
#
#
#
# Elastic Constant Matrix: (Units=GPa)
#
#
# Indices 1 2 3 4 5 6 
#
# 1 37.7125 32.1182 22.0443 0.0007 -9.0931 -0.0017
# 2 32.1182 106.2148 60.0070 0.0020 -3.4358 -0.0004
# 3 22.0443 60.0070 130.8395 -0.0002 -2.4555 -0.0009
# 4 0.0007 0.0020 -0.0002 25.0974 0.0002 -0.4322
# 5 -9.0931 -3.4358 -2.4555 0.0002 34.2377 0.0002
# 6 -0.0017 -0.0004 -0.0009 -0.4322 0.0002 30.3954
#
#
#
# Elastic Compliance Matrix: (Units=1/GPa)
#
#
# Indices 1 2 3 4 5 6 
#
# 1 0.038532 -0.010510 -0.001502 0.000000 0.009071 0.000002
# 2 -0.010510 0.015599 -0.005414 -0.000001 -0.001614 -0.000001
# 3 -0.001502 -0.005414 0.010375 0.000001 -0.000198 0.000000
# 4 0.000000 -0.000001 0.000001 0.039855 0.000000 0.000567
# 5 0.009071 -0.001614 -0.000198 0.000000 0.031441 0.000000
# 6 0.000002 -0.000001 0.000000 0.000567 0.000000 0.032908
#
#
# Mechanical properties :
#
#
# Convention : Reuss Voigt Hill
#
# Bulk Modulus (GPa) = 33.71999 55.90064 44.81032
# Shear Modulus (GPa) = 23.42508 28.65257 26.03882
#
# Velocity S-wave (km/s) = 3.38511 3.74382 3.56897
# Velocity P-wave (km/s) = 5.63682 6.78480 6.23727
#
# Compressibility (1/GPa) = 0.02965600
#
# Stress axis : x y z
#
# Youngs Moduli (GPa) = 25.95217 64.10502 96.38360
#
# Poissons Ratio (x) = 0.67374 0.14473
# Poissons Ratio (y) = 0.27276 0.52181
# Poissons Ratio (z) = 0.03897 0.34706
#
# Static dielectric constant tensor:
#      x y z
#    x 3.659870 0.000000 0.043550 
#    y 0.000000 3.653440 0.000000 
#    z 0.043550 0.000000 3.996930 
# 
# 
# High freq. dielectric constant tensor:
#      x y z
#    x 1.790870 0.000000 0.007130 
#    y 0.000000 1.789190 0.000000 
#    z 0.007130 0.000000 1.820220 
# 
# From -- ./inp_files/378089.got.cif
#   From: 2010.06.25/outbox.ucp.g09.slc.cvg/sg12_190_cif.got.tgz:378089.got - 2010.06.28 13:50:54.
