data_PCOD8116967
_publ_section_title
;
Structure prediction by ZEFSAII (Michael W. Deem and Ramdas Pophale) SiO2 
 PCOD8116967
Probable space group: P 2/C
;
_chemical_formula_sum "Si O2"
_cell_formula_units_Z 32
_cell_length_a 9.030659
_cell_length_b 10.299445
_cell_length_c 18.274343
_cell_angle_alpha 90.000000
_cell_angle_beta 90.946697
_cell_angle_gamma 90.000000
_cell_volume 1699.478805
_symmetry_space_group_name_H-M "P 2/C"
_symmetry_group_IT_number 13
_symmetry_cell_setting 'monoclinic'
loop_
_space_group_symop_operation_xyz
x,y,z
-x,y,1/2-z
-x,-y,-z
x,-y,1/2+z
loop_
_atom_site_type_symbol
_atom_site_label
_atom_site_fract_x
_atom_site_fract_y
_atom_site_fract_z
Si Si1 0.290551 0.685217 0.697297
Si Si2 0.071270 0.942904 0.429228
Si Si3 0.147941 0.733422 0.059792
Si Si4 0.355209 0.925168 0.971612
Si Si5 0.088912 0.442417 0.680535
Si Si6 0.870371 0.392832 0.086577
Si Si7 0.599445 0.707103 0.644502
Si Si8 0.025114 0.163066 0.165346
O O1 0.195218 0.555592 0.710320
O O2 0.433525 0.651181 0.649863
O O3 0.337305 0.745901 0.775322
O O4 0.194066 0.791375 0.651640
O O5 0.015497 0.795152 0.426266
O O6 0.247565 0.962579 0.437848
O O7 0.000000 0.000000 0.500000
O O8 0.003046 0.015003 0.357310
O O9 0.186380 0.666822 0.138805
O O10 0.272723 0.838301 0.034653
O O11 0.125295 0.616959 0.001186
O O12 0.404186 0.834046 0.905761
O O13 0.500000 0.000000 0.000000
O O14 0.000000 0.386146 0.750000
O O15 0.972398 0.495058 0.619249
O O16 0.699037 0.408547 0.110474
O O17 0.913337 0.249144 0.116488
O O18 0.000000 0.189072 0.250000
#
# Coordination Sequence:
#
# PCOD8116967 Si02
#       8
#     4   4   4   4   4   4   4   4
#     4  10  20  31  58  83 112 141 197 238 294 329
#     4  10  19  35  54  79 116 150 186 233 287 336
#     4  10  22  36  57  83 116 151 194 232 295 350
#     4  10  21  36  59  84 123 150 189 237 292 354
#     4  11  21  37  58  83 113 150 194 241 288 342
#     4  10  17  36  55  82 111 143 190 242 284 330
#     4  10  18  34  53  88 109 147 189 239 292 340
#     4  11  17  31  56  84 105 144 193 248 275 335
#
# _framework density 18.829301999999998
#
# number of rings (size 3 to 8) (size 9 to 14) (size 15 to 20)
#    0.000    1.750    6.250    1.125    3.500    0.500 
#    0.000    3.750    0.000    0.000    0.000    0.000 
#    0.000    0.000    0.000    0.000    0.000    0.000 
#
# Total GULP energy -396527.716467 kJ/mol
# GULP energy per Si atom -12391.491140 kJ/mol
# Density = 1.878645 g / cm^3
# Si number density = 18.829302 Si / 1000 Ang^3
#
#
#
# Elastic Constant Matrix: (Units=GPa)
#
#
# Indices 1 2 3 4 5 6 
#
# 1 116.4863 30.7272 40.9619 0.0000 -4.4272 0.0000
# 2 30.7272 47.6452 31.9911 0.0000 -2.8981 0.0000
# 3 40.9619 31.9911 96.8905 0.0000 -10.0070 0.0000
# 4 0.0000 0.0000 0.0000 29.2044 0.0000 -0.6811
# 5 -4.4272 -2.8981 -10.0070 0.0000 26.1672 0.0000
# 6 0.0000 0.0000 0.0000 -0.6811 0.0000 20.1452
#
#
#
# Elastic Compliance Matrix: (Units=1/GPa)
#
#
# Indices 1 2 3 4 5 6 
#
# 1 0.010967 -0.005089 -0.002939 0.000000 0.000168 0.000000
# 2 -0.005089 0.029333 -0.007587 0.000000 -0.000514 0.000000
# 3 -0.002939 -0.007587 0.014503 0.000000 0.004209 0.000000
# 4 0.000000 0.000000 0.000000 0.034268 0.000000 0.001159
# 5 0.000168 -0.000514 0.004209 0.000000 0.039797 0.000000
# 6 0.000000 0.000000 0.000000 0.001159 0.000000 0.049679
#
#
# Mechanical properties :
#
#
# Convention : Reuss Voigt Hill
#
# Bulk Modulus (GPa) = 42.41990 52.04251 47.23121
# Shear Modulus (GPa) = 22.97424 25.59281 24.28352
#
# Velocity S-wave (km/s) = 3.49683 3.69073 3.59509
# Velocity P-wave (km/s) = 6.23549 6.77209 6.50932
#
# Compressibility (1/GPa) = 0.02357384
#
# Stress axis : x y z
#
# Youngs Moduli (GPa) = 91.18291 34.09073 68.95144
#
# Poissons Ratio (x) = 0.17350 0.20263
# Poissons Ratio (y) = 0.46407 0.52311
# Poissons Ratio (z) = 0.26796 0.25864
#
# Static dielectric constant tensor:
#      x y z
#    x 3.832700 0.000000 -0.047480 
#    y 0.000000 3.113440 0.000000 
#    z -0.047480 0.000000 3.426350 
# 
# 
# High freq. dielectric constant tensor:
#      x y z
#    x 1.731920 0.000000 -0.009270 
#    y 0.000000 1.696220 0.000000 
#    z -0.009270 0.000000 1.734340 
# 
# From -- ./inp_files/64276.got.cif
#   From: 2010.06.25/outbox.cif.g09.slc.cpg/sg13_33_cif.got.tgz:64276.got - 2010.06.28 04:50:58.
