data_PCOD8116548
_publ_section_title
;
Structure prediction by ZEFSAII (Michael W. Deem and Ramdas Pophale) SiO2 
 PCOD8116548
Probable space group: C 2/M
;
_chemical_formula_sum "Si O2"
_cell_formula_units_Z 24
_cell_length_a 15.000000
_cell_length_b 18.000000
_cell_length_c 15.000000
_cell_angle_alpha 90.000000
_cell_angle_beta 40.000000
_cell_angle_gamma 90.000000
_cell_volume 2603.289819
_symmetry_space_group_name_H-M "C 2/M"
_symmetry_group_IT_number 12
_symmetry_cell_setting 'monoclinic'
loop_
_space_group_symop_operation_xyz
x,y,z
-x,y,-z
-x,-y,-z
x,-y,z
1/2+x,1/2+y,z
1/2-x,1/2+y,-z
1/2-x,1/2-y,-z
1/2+x,1/2-y,z
loop_
_atom_site_type_symbol
_atom_site_label
_atom_site_fract_x
_atom_site_fract_y
_atom_site_fract_z
Si Si1 0.207641 0.342684 0.884744
Si Si2 0.447261 0.086253 0.362396
Si Si3 0.235796 0.334447 0.171327
Si Si4 0.791731 0.914408 0.312162
Si Si5 0.892053 0.086627 0.889796
Si Si6 0.929858 0.412404 0.171107
O O1 0.237104 0.254252 0.855472
O O2 0.334346 0.378947 0.842119
O O3 0.194169 0.379406 0.796027
O O4 0.066858 0.363277 0.045917
O O5 0.575238 0.142239 0.280840
O O6 0.324533 0.106855 0.525312
O O7 0.390783 0.097771 0.304873
O O8 0.493991 0.000000 0.339842
O O9 0.280683 0.362066 0.234515
O O10 0.328517 0.373005 0.024680
O O11 0.942608 0.902141 0.239671
O O12 0.772783 0.000000 0.296659
O O13 0.851115 0.000000 0.926624
O O14 0.954890 0.500000 0.130219
#
# Coordination Sequence:
#
# PCOD8116548 Si02
#       6
#     8   8   8   8   8   8
#     4  11  23  36  61  90 124 150 199 255 301 347
#     4  10  21  41  65  88 117 161 208 243 289 360
#     4  12  23  36  61  90 124 156 196 248 304 353
#     4  10  23  40  61  88 123 162 200 244 295 358
#     4  11  22  39  61  88 119 157 202 249 296 351
#     4  10  21  40  66  89 114 160 208 248 291 350
#
# _framework density 9.2191039999999997
#
# number of rings (size 3 to 8) (size 9 to 14) (size 15 to 20)
#    0.000    1.333    1.667    5.000    4.667    2.667 
#    0.000    5.833    0.000    4.000    0.000    0.000 
#    0.000    0.000    0.000    0.000    0.000    0.000 
#
# Total GULP energy -297567.077653 kJ/mol
# GULP energy per Si atom -12398.628236 kJ/mol
# Density = 0.919812 g / cm^3
# Si number density = 9.219104 Si / 1000 Ang^3
#
#
#
# Elastic Constant Matrix: (Units=GPa)
#
#
# Indices 1 2 3 4 5 6 
#
# 1 157.3333 73.1277 58.9310 -0.0003 9.0111 0.0001
# 2 73.1277 173.6107 60.7941 0.0000 0.5226 0.0000
# 3 58.9310 60.7941 118.9958 -0.0005 -4.8516 0.0003
# 4 -0.0003 0.0000 -0.0005 25.4070 0.0006 1.2308
# 5 9.0111 0.5226 -4.8516 0.0006 33.1601 -0.0003
# 6 0.0001 0.0000 0.0003 1.2308 -0.0003 36.5899
#
#
#
# Elastic Compliance Matrix: (Units=1/GPa)
#
#
# Indices 1 2 3 4 5 6 
#
# 1 0.008944 -0.002639 -0.003198 0.000000 -0.002857 0.000000
# 2 -0.002639 0.007807 -0.002673 0.000000 0.000203 0.000000
# 3 -0.003198 -0.002673 0.011459 0.000000 0.002588 0.000000
# 4 0.000000 0.000000 0.000000 0.039424 -0.000001 -0.001326
# 5 -0.002857 0.000203 0.002588 -0.000001 0.031308 0.000000
# 6 0.000000 0.000000 0.000000 -0.001326 0.000000 0.027375
#
#
# Mechanical properties :
#
#
# Convention : Reuss Voigt Hill
#
# Bulk Modulus (GPa) = 89.36865 92.84949 91.10907
# Shear Modulus (GPa) = 33.99840 36.17052 35.08446
#
# Velocity S-wave (km/s) = 4.29874 4.43393 4.36686
# Velocity P-wave (km/s) = 8.55648 8.75668 8.65716
#
# Compressibility (1/GPa) = 0.01118961
#
# Stress axis : x y z
#
# Youngs Moduli (GPa) = 111.80920 128.08767 87.27126
#
# Poissons Ratio (x) = 0.33802 0.27905
# Poissons Ratio (y) = 0.29506 0.23331
# Poissons Ratio (z) = 0.35751 0.34243
#
# Static dielectric constant tensor:
#      x y z
#    x 3.813840 0.000000 0.089630 
#    y 0.000000 3.704070 0.000000 
#    z 0.089630 0.000000 3.481850 
# 
# 
# High freq. dielectric constant tensor:
#      x y z
#    x 1.746440 0.000000 0.009150 
#    y 0.000000 1.735300 0.000000 
#    z 0.009150 0.000000 1.717630 
# 
# From -- ./inp_files/216220.got.cif
#   From: 2010.06.25/outbox.ucp.g09.slc.cvg/sg12_109_cif.got.tgz:216220.got - 2010.06.28 13:50:54.
