data_PCOD8116427
_publ_section_title
;
Structure prediction by ZEFSAII (Michael W. Deem and Ramdas Pophale) SiO2 
 PCOD8116427
Probable space group: C 2/M
;
_chemical_formula_sum "Si O2"
_cell_formula_units_Z 32
_cell_length_a 30.000000
_cell_length_b 9.000000
_cell_length_c 18.000000
_cell_angle_alpha 90.000000
_cell_angle_beta 40.000000
_cell_angle_gamma 90.000000
_cell_volume 3123.947783
_symmetry_space_group_name_H-M "C 2/M"
_symmetry_group_IT_number 12
_symmetry_cell_setting 'monoclinic'
loop_
_space_group_symop_operation_xyz
x,y,z
-x,y,-z
-x,-y,-z
x,-y,z
1/2+x,1/2+y,z
1/2-x,1/2+y,-z
1/2-x,1/2-y,-z
1/2+x,1/2-y,z
loop_
_atom_site_type_symbol
_atom_site_label
_atom_site_fract_x
_atom_site_fract_y
_atom_site_fract_z
Si Si1 0.341497 0.822211 0.829759
Si Si2 0.696444 0.175218 0.625259
Si Si3 0.537506 0.334181 0.375168
Si Si4 0.919154 0.335924 0.451560
Si Si5 0.217166 0.832972 0.343736
Si Si6 0.721390 0.170707 0.896630
Si Si7 0.551497 0.834196 0.751210
Si Si8 0.591737 0.321856 0.106486
O O1 0.395718 0.771997 0.696669
O O2 0.267509 0.747266 0.903582
O O3 0.381662 0.753822 0.850323
O O4 0.333491 0.000000 0.845578
O O5 0.750000 0.250000 0.500000
O O6 0.722930 0.215206 0.674620
O O7 0.615098 0.229601 0.721706
O O8 0.697777 0.000000 0.608295
O O9 0.500000 0.344017 0.500000
O O10 0.560054 0.500000 0.320119
O O11 0.484979 0.269010 0.381584
O O12 0.932512 0.500000 0.468807
O O13 0.848197 0.273778 0.573958
O O14 0.909690 0.346246 0.376250
O O15 0.243771 0.824606 0.226787
O O16 0.192450 0.000000 0.394708
O O17 0.707284 0.000000 0.940129
O O18 0.650594 0.263627 0.975015
O O19 0.482879 0.731644 0.830834
O O20 0.528143 0.000000 0.807554
O O21 0.590586 0.500000 0.114228
#
# Coordination Sequence:
#
# PCOD8116427 Si02
#       8
#     8   8   8   8   8   8   8   8
#     4  12  24  40  62  89 120 157 203 251 299 357
#     4  10  20  37  62  92 124 158 199 243 296 359
#     4  11  23  37  54  81 119 161 202 245 295 355
#     4  11  21  34  57  87 121 159 195 242 300 354
#     4  10  22  39  62  90 123 162 202 246 301 361
#     4  11  24  43  63  87 121 161 204 252 301 356
#     4  10  21  38  60  90 123 156 196 245 297 354
#     4  12  25  42  65  90 118 159 206 254 302 354
#
# _framework density 10.243449
#
# number of rings (size 3 to 8) (size 9 to 14) (size 15 to 20)
#    0.000    1.125    2.500    4.500    0.000    6.000 
#    0.000    0.625    0.000    3.750    0.000    0.000 
#    0.000    0.000    0.000    0.000    0.000    0.000 
#
# Total GULP energy -396546.224555 kJ/mol
# GULP energy per Si atom -12392.069517 kJ/mol
# Density = 1.022013 g / cm^3
# Si number density = 10.243449 Si / 1000 Ang^3
#
#
#
# Elastic Constant Matrix: (Units=GPa)
#
#
# Indices 1 2 3 4 5 6 
#
# 1 110.1403 28.6855 17.4696 -0.0094 -25.8278 -0.0003
# 2 28.6855 131.7098 24.6171 -0.0215 -16.3721 0.0045
# 3 17.4696 24.6171 54.9442 -0.0170 -23.3316 0.0107
# 4 -0.0094 -0.0215 -0.0170 34.4060 0.0030 -10.9605
# 5 -25.8278 -16.3721 -23.3316 0.0030 41.9298 0.0019
# 6 -0.0003 0.0045 0.0107 -10.9605 0.0019 34.0369
#
#
#
# Elastic Compliance Matrix: (Units=1/GPa)
#
#
# Indices 1 2 3 4 5 6 
#
# 1 0.010934 -0.001596 -0.000217 0.000002 0.005991 0.000001
# 2 -0.001596 0.008595 -0.003059 0.000004 0.000671 0.000001
# 3 -0.000217 -0.003059 0.024978 0.000007 0.012571 -0.000006
# 4 0.000002 0.000004 0.000007 0.032387 0.000004 0.010429
# 5 0.005991 0.000671 0.012571 0.000004 0.034797 -0.000005
# 6 0.000001 0.000001 -0.000006 0.010429 -0.000005 0.032738
#
#
# Mechanical properties :
#
#
# Convention : Reuss Voigt Hill
#
# Bulk Modulus (GPa) = 28.76599 48.70429 38.73514
# Shear Modulus (GPa) = 30.16392 37.14269 33.65331
#
# Velocity S-wave (km/s) = 3.84129 4.26255 4.05739
# Velocity P-wave (km/s) = 5.80910 6.93187 6.39517
#
# Compressibility (1/GPa) = 0.03476328
#
# Stress axis : x y z
#
# Youngs Moduli (GPa) = 91.45424 116.34499 40.03571
#
# Poissons Ratio (x) = 0.18570 0.00870
# Poissons Ratio (y) = 0.14597 0.12245
# Poissons Ratio (z) = 0.01988 0.35584
#
# Static dielectric constant tensor:
#      x y z
#    x 4.135770 -0.000150 -0.285410 
#    y -0.000150 4.261180 0.000080 
#    z -0.285410 0.000080 3.943450 
# 
# 
# High freq. dielectric constant tensor:
#      x y z
#    x 1.813490 0.000000 -0.019620 
#    y 0.000000 1.811600 0.000000 
#    z -0.019620 0.000000 1.799260 
# 
# From -- ./inp_files/295549.got.cif
#   From: 2010.06.25/outbox.ucp.g09.slc.cvg/sg12_148_cif.got.tgz:295549.got - 2010.06.28 13:50:54.
