data_PCOD8116611
_publ_section_title
;
Structure prediction by ZEFSAII (Michael W. Deem and Ramdas Pophale) SiO2 
 PCOD8116611
Probable space group: C 2/M
;
_chemical_formula_sum "Si O2"
_cell_formula_units_Z 28
_cell_length_a 21.000000
_cell_length_b 18.000000
_cell_length_c 21.000000
_cell_angle_alpha 90.000000
_cell_angle_beta 160.000000
_cell_angle_gamma 90.000000
_cell_volume 2714.955898
_symmetry_space_group_name_H-M "C 2/M"
_symmetry_group_IT_number 12
_symmetry_cell_setting 'monoclinic'
loop_
_space_group_symop_operation_xyz
x,y,z
-x,y,-z
-x,-y,-z
x,-y,z
1/2+x,1/2+y,z
1/2-x,1/2+y,-z
1/2-x,1/2-y,-z
1/2+x,1/2-y,z
loop_
_atom_site_type_symbol
_atom_site_label
_atom_site_fract_x
_atom_site_fract_y
_atom_site_fract_z
Si Si1 0.755445 0.841976 0.629130
Si Si2 0.231973 0.316343 0.165658
Si Si3 0.783903 0.581635 0.281681
Si Si4 0.971584 0.087428 0.611930
Si Si5 0.821075 0.684186 0.737844
Si Si6 0.671360 0.160686 0.802484
Si Si7 0.075197 0.087619 0.854132
O O1 0.800384 0.866594 0.743378
O O2 0.814252 0.756080 0.685642
O O3 0.549427 0.853990 0.407153
O O4 0.879929 0.893638 0.702308
O O5 0.361078 0.387477 0.276018
O O6 0.260885 0.298437 0.268268
O O7 0.296857 0.247201 0.183112
O O8 0.029911 0.341255 0.950681
O O9 0.694382 0.500000 0.200902
O O10 0.734051 0.613770 0.165427
O O11 0.000000 0.577626 0.500000
O O12 0.784435 0.123495 0.405213
O O13 0.037895 0.111709 0.745635
O O14 0.939741 0.000000 0.579195
O O15 0.760724 0.134574 0.954559
O O16 0.122393 0.000000 0.903637
#
# Coordination Sequence:
#
# PCOD8116611 Si02
#       7
#     8   8   8   8   8   8   8
#     4  11  21  38  64  95 133 171 217 264 319 383
#     4  11  23  42  70 101 130 162 212 278 335 386
#     4   9  18  31  55  91 128 168 209 255 316 376
#     4  11  27  48  68  92 129 175 220 271 330 388
#     4  11  23  42  70 101 130 162 212 278 335 386
#     4  11  21  38  64  95 133 171 217 264 319 383
#     4  11  26  44  62  94 137 180 224 261 307 384
#
# _framework density 10.313243
#
# number of rings (size 3 to 8) (size 9 to 14) (size 15 to 20)
#    0.000    1.286    4.286    1.286    0.000    6.286 
#    0.000    5.714    0.000    0.000    0.000    0.000 
#    0.000    0.000    0.000    0.000    0.000    0.000 
#
# Total GULP energy -346940.451497 kJ/mol
# GULP energy per Si atom -12390.730411 kJ/mol
# Density = 1.028977 g / cm^3
# Si number density = 10.313243 Si / 1000 Ang^3
#
#
#
# Elastic Constant Matrix: (Units=GPa)
#
#
# Indices 1 2 3 4 5 6 
#
# 1 55.8988 8.8171 23.0828 0.0034 -22.3096 0.0123
# 2 8.8171 85.1834 15.7723 -0.0609 -14.1153 -0.0316
# 3 23.0828 15.7723 125.8819 -0.0676 -24.5127 -0.0481
# 4 0.0034 -0.0609 -0.0676 34.7527 -0.0132 -10.6986
# 5 -22.3096 -14.1153 -24.5127 -0.0132 43.5684 -0.0017
# 6 0.0123 -0.0316 -0.0481 -10.6986 -0.0017 32.5080
#
#
#
# Elastic Compliance Matrix: (Units=1/GPa)
#
#
# Indices 1 2 3 4 5 6 
#
# 1 0.023001 -0.000245 -0.002144 -0.000007 0.010492 -0.000014
# 2 -0.000245 0.012493 -0.000850 0.000028 0.003444 0.000020
# 3 -0.002144 -0.000850 0.009182 0.000025 0.003793 0.000022
# 4 -0.000007 0.000028 0.000025 0.032019 0.000029 0.010538
# 5 0.010492 0.003444 0.003793 0.000029 0.031575 0.000016
# 6 -0.000014 0.000020 0.000022 0.010538 0.000016 0.034230
#
#
# Mechanical properties :
#
#
# Convention : Reuss Voigt Hill
#
# Bulk Modulus (GPa) = 26.17909 40.25650 33.21779
# Shear Modulus (GPa) = 30.91965 36.78530 33.85247
#
# Velocity S-wave (km/s) = 3.87593 4.22761 4.05558
# Velocity P-wave (km/s) = 5.72276 6.58708 6.17007
#
# Compressibility (1/GPa) = 0.03819843
#
# Stress axis : x y z
#
# Youngs Moduli (GPa) = 43.47650 80.04638 108.90685
#
# Poissons Ratio (x) = 0.01963 0.23347
# Poissons Ratio (y) = 0.01066 0.09254
# Poissons Ratio (z) = 0.09320 0.06801
#
# Static dielectric constant tensor:
#      x y z
#    x 3.857190 -0.000110 -0.316630 
#    y -0.000110 3.776880 -0.000240 
#    z -0.316630 -0.000240 4.011670 
# 
# 
# High freq. dielectric constant tensor:
#      x y z
#    x 1.798470 -0.000020 -0.024580 
#    y -0.000020 1.809140 -0.000030 
#    z -0.024580 -0.000030 1.834660 
# 
# From -- ./inp_files/322710.got.cif
#   From: 2010.06.25/outbox.ucp.g09.slc.cvg/sg12_162_cif.got.tgz:322710.got - 2010.06.28 13:50:54.
