data_PCOD8116556
_publ_section_title
;
Structure prediction by ZEFSAII (Michael W. Deem and Ramdas Pophale) SiO2 
 PCOD8116556
Probable space group: C 2/M
;
_chemical_formula_sum "Si O2"
_cell_formula_units_Z 32
_cell_length_a 9.000000
_cell_length_b 24.000000
_cell_length_c 30.000000
_cell_angle_alpha 90.000000
_cell_angle_beta 150.000000
_cell_angle_gamma 90.000000
_cell_volume 3240.000000
_symmetry_space_group_name_H-M "C 2/M"
_symmetry_group_IT_number 12
_symmetry_cell_setting 'monoclinic'
loop_
_space_group_symop_operation_xyz
x,y,z
-x,y,-z
-x,-y,-z
x,-y,z
1/2+x,1/2+y,z
1/2-x,1/2+y,-z
1/2-x,1/2-y,-z
1/2+x,1/2-y,z
loop_
_atom_site_type_symbol
_atom_site_label
_atom_site_fract_x
_atom_site_fract_y
_atom_site_fract_z
Si Si1 0.311197 0.935624 0.908895
Si Si2 0.603286 0.168458 0.187285
Si Si3 0.236296 0.175609 0.673944
Si Si4 0.802582 0.233249 0.063697
Si Si5 0.862270 0.691705 0.511843
Si Si6 0.149963 0.438880 0.907254
Si Si7 0.191612 0.849629 0.211356
Si Si8 0.684923 0.697795 0.301808
O O1 0.519936 0.923005 0.921419
O O2 0.002657 0.902448 0.825844
O O3 0.221322 0.000000 0.889179
O O4 0.500000 0.915746 0.000000
O O5 0.788542 0.180257 0.279616
O O6 0.352493 0.213363 0.108973
O O7 0.458650 0.107597 0.155250
O O8 0.856459 0.171002 0.215408
O O9 0.489700 0.131654 0.725094
O O10 0.321219 0.238944 0.681926
O O11 0.931456 0.153823 0.572345
O O12 0.057343 0.187560 0.136194
O O13 0.500000 0.203497 0.000000
O O14 0.750000 0.250000 0.000000
O O15 0.750000 0.750000 0.500000
O O16 0.000000 0.702564 0.500000
O O17 0.086723 0.664283 0.606109
O O18 0.037144 0.500000 0.862599
O O19 0.500000 0.438351 0.000000
O O20 0.276973 0.809400 0.274643
#
# Coordination Sequence:
#
# PCOD8116556 Si02
#       8
#     8   8   8   8   8   8   8   8
#     4  10  23  41  59  81 111 149 196 245 283 328
#     4  12  21  37  56  81 113 151 189 237 278 331
#     4  11  22  36  55  85 117 150 187 233 280 351
#     4  12  24  35  50  75 116 154 185 224 278 337
#     4  10  22  35  55  82 117 156 188 227 290 342
#     4  10  23  41  60  82 109 149 199 242 284 329
#     4  12  23  37  58  83 114 153 194 234 285 337
#     4  11  20  38  56  81 122 151 185 235 278 348
#
# _framework density 9.8765429999999999
#
# number of rings (size 3 to 8) (size 9 to 14) (size 15 to 20)
#    0.000    1.000    5.000    2.250    8.750    0.000 
#    0.000    0.000    0.000    0.000    0.000    5.250 
#    0.000    0.000    0.000    0.000    0.000    0.000 
#
# Total GULP energy -396512.995786 kJ/mol
# GULP energy per Si atom -12391.031118 kJ/mol
# Density = 0.985406 g / cm^3
# Si number density = 9.876543 Si / 1000 Ang^3
#
#
#
# Elastic Constant Matrix: (Units=GPa)
#
#
# Indices 1 2 3 4 5 6 
#
# 1 67.8118 10.0917 35.4051 0.0257 6.2715 0.0227
# 2 10.0917 61.7158 26.5582 0.0009 8.4158 0.0065
# 3 35.4051 26.5582 109.3215 0.0618 -1.5367 0.0367
# 4 0.0257 0.0009 0.0618 11.9080 0.0457 0.1910
# 5 6.2715 8.4158 -1.5367 0.0457 30.2405 0.0188
# 6 0.0227 0.0065 0.0367 0.1910 0.0188 8.0090
#
#
#
# Elastic Compliance Matrix: (Units=1/GPa)
#
#
# Indices 1 2 3 4 5 6 
#
# 1 0.018240 0.000166 -0.006006 0.000008 -0.004134 -0.000015
# 2 0.000166 0.018974 -0.004741 0.000044 -0.005556 0.000018
# 3 -0.006006 -0.004741 0.012289 -0.000062 0.003190 -0.000042
# 4 0.000008 0.000044 -0.000062 0.084010 -0.000143 -0.002003
# 5 -0.004134 -0.005556 0.003190 -0.000143 0.035634 -0.000079
# 6 -0.000015 0.000018 -0.000042 -0.002003 -0.000079 0.124908
#
#
# Mechanical properties :
#
#
# Convention : Reuss Voigt Hill
#
# Bulk Modulus (GPa) = 35.28511 42.55100 38.91806
# Shear Modulus (GPa) = 15.40048 21.15110 18.27579
#
# Velocity S-wave (km/s) = 2.79525 3.27582 3.04503
# Velocity P-wave (km/s) = 5.32163 5.99134 5.66639
#
# Compressibility (1/GPa) = 0.02834056
#
# Stress axis : x y z
#
# Youngs Moduli (GPa) = 54.82475 52.70330 81.37356
#
# Poissons Ratio (x) = -0.00872 0.48869
# Poissons Ratio (y) = -0.00908 0.38581
# Poissons Ratio (z) = 0.32925 0.24988
#
# Static dielectric constant tensor:
#      x y z
#    x 3.401830 -0.000080 0.099750 
#    y -0.000080 3.251950 0.000020 
#    z 0.099750 0.000020 3.936920 
# 
# 
# High freq. dielectric constant tensor:
#      x y z
#    x 1.775560 0.000000 0.002290 
#    y 0.000000 1.709280 -0.000010 
#    z 0.002290 -0.000010 1.770990 
# 
# From -- ./inp_files/199757.got.cif
#   From: 2010.06.25/outbox.ucp.g09.slc.cvg/sg12_100_cif.got.tgz:199757.got - 2010.06.28 13:50:54.
