data_PCOD8116871
_publ_section_title
;
Structure prediction by ZEFSAII (Michael W. Deem and Ramdas Pophale) SiO2 
 PCOD8116871
Probable space group: P 2/C
;
_chemical_formula_sum "Si O2"
_cell_formula_units_Z 32
_cell_length_a 27.852093
_cell_length_b 11.620973
_cell_length_c 17.682758
_cell_angle_alpha 90.000000
_cell_angle_beta 160.918328
_cell_angle_gamma 90.000000
_cell_volume 1871.052563
_symmetry_space_group_name_H-M "P 2/C"
_symmetry_group_IT_number 13
_symmetry_cell_setting 'monoclinic'
loop_
_space_group_symop_operation_xyz
x,y,z
-x,y,1/2-z
-x,-y,-z
x,-y,1/2+z
loop_
_atom_site_type_symbol
_atom_site_label
_atom_site_fract_x
_atom_site_fract_y
_atom_site_fract_z
Si Si1 0.356945 0.949479 0.372837
Si Si2 0.444188 0.375830 0.394648
Si Si3 0.161744 0.253738 0.001659
Si Si4 0.810970 0.119301 0.603496
Si Si5 0.538943 0.247515 0.225178
Si Si6 0.430447 0.837529 0.335943
Si Si7 0.853824 0.114071 0.375246
Si Si8 0.343036 0.901520 0.055789
O O1 0.449213 0.866908 0.566225
O O2 0.324046 0.886892 0.243835
O O3 0.441122 0.069413 0.484959
O O4 0.203530 0.986711 0.184271
O O5 0.500000 0.500000 0.500000
O O6 0.495471 0.349339 0.385329
O O7 0.508340 0.283767 0.547822
O O8 0.268569 0.359921 0.140678
O O9 0.181042 0.140703 0.975639
O O10 0.000000 0.305417 0.750000
O O11 0.185823 0.211338 0.122860
O O12 0.714639 0.226103 0.490279
O O13 0.717653 0.009451 0.487716
O O14 0.971822 0.110884 0.879920
O O15 0.500000 0.291487 0.250000
O O16 0.356853 0.810306 0.145071
O O17 0.772718 0.147463 0.176616
O O18 0.500000 0.929689 0.250000
#
# Coordination Sequence:
#
# PCOD8116871 Si02
#       8
#     4   4   4   4   4   4   4   4
#     4  10  17  30  52  71 102 131 165 198 252 310
#     4  10  20  36  56  77  95 129 179 221 245 288
#     4   9  18  33  51  70  97 129 167 209 251 295
#     4  10  19  29  46  72 104 134 166 197 242 306
#     4  10  19  33  54  77 103 136 166 206 255 302
#     4  10  19  31  50  71  99 133 167 204 255 300
#     4  11  19  28  45  76 103 132 164 202 244 304
#     4  12  19  28  43  69 105 137 159 194 250 307
#
# _framework density 17.102671000000001
#
# number of rings (size 3 to 8) (size 9 to 14) (size 15 to 20)
#    0.000    1.750    3.750    2.250    0.000    0.000 
#    0.000    1.875    0.000    4.500    0.000    5.250 
#    0.000    0.000    0.000    0.000    0.000    0.000 
#
# Total GULP energy -396462.189163 kJ/mol
# GULP energy per Si atom -12389.443411 kJ/mol
# Density = 1.706375 g / cm^3
# Si number density = 17.102671 Si / 1000 Ang^3
#
#
#
# Elastic Constant Matrix: (Units=GPa)
#
#
# Indices 1 2 3 4 5 6 
#
# 1 129.1396 40.5217 60.1129 0.0000 -18.9460 0.0000
# 2 40.5217 90.0022 42.0953 0.0000 -5.3786 0.0000
# 3 60.1129 42.0953 115.4362 0.0000 -4.3481 0.0000
# 4 0.0000 0.0000 0.0000 15.3746 0.0000 -0.8927
# 5 -18.9460 -5.3786 -4.3481 0.0000 30.2457 0.0000
# 6 0.0000 0.0000 0.0000 -0.8927 0.0000 13.8658
#
#
#
# Elastic Compliance Matrix: (Units=1/GPa)
#
#
# Indices 1 2 3 4 5 6 
#
# 1 0.011776 -0.002619 -0.004944 0.000000 0.006200 0.000000
# 2 -0.002619 0.014064 -0.003753 0.000000 0.000321 0.000000
# 3 -0.004944 -0.003753 0.012532 0.000000 -0.001963 0.000000
# 4 0.000000 0.000000 0.000000 0.065286 0.000000 0.004203
# 5 0.006200 0.000321 -0.001963 0.000000 0.036721 0.000000
# 6 0.000000 0.000000 0.000000 0.004203 0.000000 0.072390
#
#
# Mechanical properties :
#
#
# Convention : Reuss Voigt Hill
#
# Bulk Modulus (GPa) = 63.52813 68.89310 66.21061
# Shear Modulus (GPa) = 20.77713 24.68710 22.73211
#
# Velocity S-wave (km/s) = 3.48925 3.80342 3.64971
# Velocity P-wave (km/s) = 7.31156 7.72383 7.52052
#
# Compressibility (1/GPa) = 0.01574106
#
# Stress axis : x y z
#
# Youngs Moduli (GPa) = 84.91603 71.10104 79.79692
#
# Poissons Ratio (x) = 0.18623 0.39450
# Poissons Ratio (y) = 0.22242 0.29946
# Poissons Ratio (z) = 0.41981 0.26682
#
# Static dielectric constant tensor:
#      x y z
#    x 3.587080 0.000000 0.003790 
#    y 0.000000 2.686550 0.000000 
#    z 0.003790 0.000000 3.370510 
# 
# 
# High freq. dielectric constant tensor:
#      x y z
#    x 1.680590 0.000000 -0.004750 
#    y 0.000000 1.596370 0.000000 
#    z -0.004750 0.000000 1.658290 
# 
# From -- ./inp_files/71942.got.cif
#   From: 2010.06.25/outbox.cif.g09.slc.cpg/sg13_36_cif.got.tgz:71942.got - 2010.06.28 04:50:58.
