data_PCOD8116409
_publ_section_title
;
Structure prediction by ZEFSAII (Michael W. Deem and Ramdas Pophale) SiO2 
 PCOD8116409
Probable space group: C 2/M
;
_chemical_formula_sum "Si O2"
_cell_formula_units_Z 24
_cell_length_a 18.000000
_cell_length_b 30.000000
_cell_length_c 9.000000
_cell_angle_alpha 90.000000
_cell_angle_beta 150.000000
_cell_angle_gamma 90.000000
_cell_volume 2430.000000
_symmetry_space_group_name_H-M "C 2/M"
_symmetry_group_IT_number 12
_symmetry_cell_setting 'monoclinic'
loop_
_space_group_symop_operation_xyz
x,y,z
-x,y,-z
-x,-y,-z
x,-y,z
1/2+x,1/2+y,z
1/2-x,1/2+y,-z
1/2-x,1/2-y,-z
1/2+x,1/2-y,z
loop_
_atom_site_type_symbol
_atom_site_label
_atom_site_fract_x
_atom_site_fract_y
_atom_site_fract_z
Si Si1 0.945764 0.448159 0.237662
Si Si2 0.419354 0.786210 0.565125
Si Si3 0.310871 0.879634 0.373252
Si Si4 0.327361 0.611393 0.171687
Si Si5 0.738453 0.703268 0.787668
Si Si6 0.829161 0.814271 0.663246
O O1 0.937508 0.500000 0.166072
O O2 0.000000 0.447441 0.500000
O O3 0.073164 0.418575 0.374204
O O4 0.785476 0.423402 0.940534
O O5 0.402994 0.836199 0.470159
O O6 0.367324 0.746813 0.360242
O O7 0.297173 0.780352 0.487922
O O8 0.589658 0.780561 0.911952
O O9 0.210226 0.863735 0.338897
O O10 0.200724 0.895408 0.052404
O O11 0.500000 0.598823 0.500000
O O12 0.294774 0.663100 0.156115
O O13 0.689891 0.683374 0.545155
O O14 0.000000 0.800832 0.000000
#
# Coordination Sequence:
#
# PCOD8116409 Si02
#       6
#     8   8   8   8   8   8
#     4   9  18  38  64  83 108 147 186 231 286 341
#     4  10  23  35  55  78 112 152 195 228 262 335
#     4   9  21  39  55  83 112 145 188 234 274 336
#     4  11  22  36  56  86 116 140 183 236 284 336
#     4  12  22  37  55  78 114 157 193 225 274 326
#     4  10  20  37  57  78 113 152 191 233 269 322
#
# _framework density 9.8765429999999999
#
# number of rings (size 3 to 8) (size 9 to 14) (size 15 to 20)
#    1.000    0.833    1.667    3.000    2.333    1.000 
#    0.000    0.000    0.000    2.500    0.000    0.000 
#    0.000    0.000    0.000    0.000    0.000    0.000 
#
# Total GULP energy -297324.889769 kJ/mol
# GULP energy per Si atom -12388.537074 kJ/mol
# Density = 0.985406 g / cm^3
# Si number density = 9.876543 Si / 1000 Ang^3
#
#
#
# Elastic Constant Matrix: (Units=GPa)
#
#
# Indices 1 2 3 4 5 6 
#
# 1 37.2335 5.1157 25.4312 0.0000 16.6798 0.0000
# 2 5.1157 140.7696 38.5550 0.0000 17.0064 0.0000
# 3 25.4312 38.5550 174.7499 0.0000 39.0999 0.0000
# 4 0.0000 0.0000 0.0000 32.7691 0.0000 7.0637
# 5 16.6798 17.0064 39.0999 0.0000 32.9006 0.0000
# 6 0.0000 0.0000 0.0000 7.0637 0.0000 31.2270
#
#
#
# Elastic Compliance Matrix: (Units=1/GPa)
#
#
# Indices 1 2 3 4 5 6 
#
# 1 0.035225 0.001173 -0.001708 0.000000 -0.016435 0.000000
# 2 0.001173 0.007770 -0.001162 0.000000 -0.003230 0.000000
# 3 -0.001708 -0.001162 0.008036 0.000000 -0.008084 0.000000
# 4 0.000000 0.000000 0.000000 0.032081 0.000000 -0.007257
# 5 -0.016435 -0.003230 -0.008084 0.000000 0.050003 0.000000
# 6 0.000000 0.000000 0.000000 -0.007257 0.000000 0.033665
#
#
# Mechanical properties :
#
#
# Convention : Reuss Voigt Hill
#
# Bulk Modulus (GPa) = 20.99200 54.55076 37.77138
# Shear Modulus (GPa) = 26.87401 38.28941 32.58171
#
# Velocity S-wave (km/s) = 3.69249 4.40750 4.06575
# Velocity P-wave (km/s) = 5.36932 7.31968 6.41901
#
# Compressibility (1/GPa) = 0.04763720
#
# Stress axis : x y z
#
# Youngs Moduli (GPa) = 28.38862 128.70531 124.43744
#
# Poissons Ratio (x) = -0.15099 0.21252
# Poissons Ratio (y) = -0.03330 0.14464
# Poissons Ratio (z) = 0.04848 0.14960
#
# Static dielectric constant tensor:
#      x y z
#    x 3.374520 0.000000 0.271590 
#    y 0.000000 3.879620 0.000000 
#    z 0.271590 0.000000 3.831710 
# 
# 
# High freq. dielectric constant tensor:
#      x y z
#    x 1.750770 0.000000 0.021390 
#    y 0.000000 1.767530 0.000000 
#    z 0.021390 0.000000 1.795180 
# 
# From -- ./inp_files/80848.got.cif
#   From: 2010.06.25/outbox.ucp.g09.slc.cvg/sg12_41_cif.got.tgz:80848.got - 2010.06.28 13:50:54.
