data_PCOD8116083
_publ_section_title
;
Structure prediction by ZEFSAII (Michael W. Deem and Ramdas Pophale) SiO2 
 PCOD8116083
Probable space group: C 2/M
;
_chemical_formula_sum "Si O2"
_cell_formula_units_Z 40
_cell_length_a 19.446612
_cell_length_b 9.313156
_cell_length_c 23.809869
_cell_angle_alpha 90.000000
_cell_angle_beta 31.994698
_cell_angle_gamma 90.000000
_cell_volume 2284.773847
_symmetry_space_group_name_H-M "C 2/M"
_symmetry_group_IT_number 12
_symmetry_cell_setting 'monoclinic'
loop_
_space_group_symop_operation_xyz
x,y,z
-x,y,-z
-x,-y,-z
x,-y,z
1/2+x,1/2+y,z
1/2-x,1/2+y,-z
1/2-x,1/2-y,-z
1/2+x,1/2-y,z
loop_
_atom_site_type_symbol
_atom_site_label
_atom_site_fract_x
_atom_site_fract_y
_atom_site_fract_z
Si Si1 0.663156 0.831184 0.184467
Si Si2 0.949187 0.337409 0.239835
Si Si3 0.828369 0.333361 0.992612
Si Si4 0.071874 0.670141 0.367931
Si Si5 0.305801 0.830157 0.602671
O O1 0.546183 0.795937 0.223045
O O2 0.793140 0.743940 0.075948
O O3 0.623786 0.770778 0.272801
O O4 0.695903 0.000000 0.162100
O O5 0.901562 0.500000 0.280567
O O6 0.825610 0.236458 0.329466
O O7 0.020355 0.319434 0.129811
O O8 0.786410 0.500000 0.023265
O O9 0.750000 0.250000 0.000000
O O10 0.068801 0.500000 0.368653
O O11 0.166623 0.721167 0.352484
O O12 0.924992 0.723614 0.481152
O O13 0.291272 0.000000 0.610016
#
# Coordination Sequence:
#
# PCOD8116083 Si02
#       5
#     8   8   8   8   8
#     4   9  17  31  50  69  93 123 154 191 230 270
#     4   9  18  30  45  68  96 121 146 186 237 277
#     4   9  17  30  47  68  95 124 153 187 229 274
#     4   8  16  32  50  68  91 121 157 194 230 266
#     4   9  17  31  51  69  89 122 159 191 226 274
#
# _framework density 17.507204000000002
#
# number of rings (size 3 to 8) (size 9 to 14) (size 15 to 20)
#    0.000    3.200    0.000    3.000    0.000    4.800 
#    0.000    5.000    0.000    6.000    0.000    0.000 
#    0.000    0.000    0.000    0.000    0.000    0.000 
#
# Total GULP energy -247846.886623 kJ/mol
# GULP energy per Si atom -12392.344331 kJ/mol
# Density = 1.746736 g / cm^3
# Si number density = 17.507204 Si / 1000 Ang^3
#
#
#
# Elastic Constant Matrix: (Units=GPa)
#
#
# Indices 1 2 3 4 5 6 
#
# 1 33.5213 8.1724 16.0899 0.0001 17.8966 0.0001
# 2 8.1724 45.5551 17.3187 0.0000 5.2974 0.0003
# 3 16.0899 17.3187 64.7085 0.0002 31.5824 0.0000
# 4 0.0001 0.0000 0.0002 31.8105 0.0000 -5.3936
# 5 17.8966 5.2974 31.5824 0.0000 33.3571 0.0000
# 6 0.0001 0.0003 0.0000 -5.3936 0.0000 17.5895
#
#
#
# Elastic Compliance Matrix: (Units=1/GPa)
#
#
# Indices 1 2 3 4 5 6 
#
# 1 0.043266 -0.006037 0.003196 0.000000 -0.025280 0.000000
# 2 -0.006037 0.025616 -0.009203 0.000000 0.007884 0.000000
# 3 0.003196 -0.009203 0.032062 0.000000 -0.030609 0.000000
# 4 0.000000 0.000000 0.000000 0.033160 0.000000 0.010168
# 5 -0.025280 0.007884 -0.030609 0.000000 0.071271 0.000000
# 6 0.000000 0.000000 0.000000 0.010168 0.000000 0.059970
#
#
# Mechanical properties :
#
#
# Convention : Reuss Voigt Hill
#
# Bulk Modulus (GPa) = 13.01125 25.21632 19.11378
# Shear Modulus (GPa) = 15.87041 23.36500 19.61771
#
# Velocity S-wave (km/s) = 3.01409 3.65717 3.35109
# Velocity P-wave (km/s) = 4.42279 5.68048 5.09063
#
# Compressibility (1/GPa) = 0.07685660
#
# Stress axis : x y z
#
# Youngs Moduli (GPa) = 23.11271 39.03762 31.18980
#
# Poissons Ratio (x) = 0.23567 -0.09969
# Poissons Ratio (y) = 0.13953 0.28704
# Poissons Ratio (z) = -0.07387 0.35926
#
# Static dielectric constant tensor:
#      x y z
#    x 3.134100 0.000000 0.379460 
#    y 0.000000 3.094140 0.000000 
#    z 0.379460 0.000000 3.871260 
# 
# 
# High freq. dielectric constant tensor:
#      x y z
#    x 1.647310 0.000000 0.011230 
#    y 0.000000 1.656890 0.000000 
#    z 0.011230 0.000000 1.688380 
# 
# From -- ./inp_files/162501.got.cif
#   From: 2010.06.25/outbox.cif.g09.slc.cpg/sg12_82_cif.got.tgz:162501.got - 2010.06.28 00:19:55.
