data_PCOD8116804
_publ_section_title
;
Structure prediction by ZEFSAII (Michael W. Deem and Ramdas Pophale) SiO2 
 PCOD8116804
Probable space group: P 2/C
;
_chemical_formula_sum "Si O2"
_cell_formula_units_Z 24
_cell_length_a 19.220750
_cell_length_b 9.482871
_cell_length_c 14.500236
_cell_angle_alpha 90.000000
_cell_angle_beta 20.766062
_cell_angle_gamma 90.000000
_cell_volume 937.058322
_symmetry_space_group_name_H-M "P 2/C"
_symmetry_group_IT_number 13
_symmetry_cell_setting 'monoclinic'
loop_
_space_group_symop_operation_xyz
x,y,z
-x,y,1/2-z
-x,-y,-z
x,-y,1/2+z
loop_
_atom_site_type_symbol
_atom_site_label
_atom_site_fract_x
_atom_site_fract_y
_atom_site_fract_z
Si Si1 0.281731 0.710425 0.429393
Si Si2 0.922542 0.109755 0.997640
Si Si3 0.263288 0.036069 0.462776
Si Si4 0.743165 0.352321 0.339343
Si Si5 0.683130 0.402406 0.795473
Si Si6 0.380823 0.911145 0.070491
O O1 0.198858 0.640429 0.625073
O O2 0.188440 0.628374 0.456635
O O3 0.212925 0.871517 0.513689
O O4 0.516904 0.699604 0.120248
O O5 0.819835 0.118193 0.024335
O O6 0.877751 0.246310 0.114111
O O7 0.841976 0.971327 0.153514
O O8 0.157634 0.095632 0.686575
O O9 0.500019 0.058948 0.172633
O O10 0.794963 0.507765 0.234939
O O11 0.611738 0.254372 0.923258
O O12 0.500000 0.500000 0.000000
O O13 0.500000 0.000000 0.000000
#
# Coordination Sequence:
#
# PCOD8116804 Si02
#       6
#     4   4   4   4   4   4
#     4  10  18  35  60  87 118 163 202 245 322 368
#     4  10  19  33  59  91 114 155 208 255 305 368
#     4  10  18  32  62  88 115 156 205 259 306 365
#     4  10  21  34  60  90 121 160 202 253 311 380
#     4  10  18  33  62  83 119 167 197 252 306 372
#     4  10  16  33  60  85 114 153 206 252 301 363
#
# _framework density 25.612065999999999
#
# number of rings (size 3 to 8) (size 9 to 14) (size 15 to 20)
#    0.000    2.000    5.000    3.000    0.000    0.667 
#    0.000    0.000   36.667    1.000    0.000    0.000 
#    0.000    0.000    0.000    0.000    0.000    0.000 
#
# Total GULP energy -297387.404348 kJ/mol
# GULP energy per Si atom -12391.141848 kJ/mol
# Density = 2.555377 g / cm^3
# Si number density = 25.612066 Si / 1000 Ang^3
#
#
#
# Elastic Constant Matrix: (Units=GPa)
#
#
# Indices 1 2 3 4 5 6 
#
# 1 63.8157 47.5877 69.7211 0.0000 42.5114 0.0000
# 2 47.5877 215.6625 81.2341 0.0000 40.6438 0.0000
# 3 69.7211 81.2341 212.9463 0.0000 41.0461 0.0000
# 4 0.0000 0.0000 0.0000 28.3353 0.0000 15.2354
# 5 42.5114 40.6438 41.0461 0.0000 66.2149 0.0000
# 6 0.0000 0.0000 0.0000 15.2354 0.0000 26.2194
#
#
#
# Elastic Compliance Matrix: (Units=1/GPa)
#
#
# Indices 1 2 3 4 5 6 
#
# 1 0.038354 -0.001881 -0.008309 0.000000 -0.018319 0.000000
# 2 -0.001881 0.005841 -0.001311 0.000000 -0.001565 0.000000
# 3 -0.008309 -0.001311 0.007647 0.000000 0.001399 0.000000
# 4 0.000000 0.000000 0.000000 0.051328 0.000000 -0.029826
# 5 -0.018319 -0.001565 0.001399 0.000000 0.026957 0.000000
# 6 0.000000 0.000000 0.000000 -0.029826 0.000000 0.055471
#
#
# Mechanical properties :
#
#
# Convention : Reuss Voigt Hill
#
# Bulk Modulus (GPa) = 34.67376 98.83449 66.75413
# Shear Modulus (GPa) = 22.91357 43.74603 33.32980
#
# Velocity S-wave (km/s) = 2.99430 4.13731 3.61131
# Velocity P-wave (km/s) = 5.05192 7.84193 6.59613
#
# Compressibility (1/GPa) = 0.02884025
#
# Stress axis : x y z
#
# Youngs Moduli (GPa) = 26.07303 171.21821 130.77415
#
# Poissons Ratio (x) = 0.32206 1.08659
# Poissons Ratio (y) = 0.04904 0.17138
# Poissons Ratio (z) = 0.21664 0.22438
#
# Static dielectric constant tensor:
#      x y z
#    x 5.161790 0.000000 0.504820 
#    y 0.000000 4.748890 0.000000 
#    z 0.504820 0.000000 5.809400 
# 
# 
# High freq. dielectric constant tensor:
#      x y z
#    x 2.039280 0.000000 0.019190 
#    y 0.000000 1.996690 0.000000 
#    z 0.019190 0.000000 2.044850 
# 
# From -- ./inp_files/71798.got.cif
#   From: 2010.06.25/outbox.cif.g09.slc.cpg/sg13_36_cif.got.tgz:71798.got - 2010.06.28 04:50:58.
