data_PCOD8116152
_publ_section_title
;
Structure prediction by ZEFSAII (Michael W. Deem and Ramdas Pophale) SiO2 
 PCOD8116152
Probable space group: C 2/M
;
_chemical_formula_sum "Si O2"
_cell_formula_units_Z 56
_cell_length_a 9.565713
_cell_length_b 19.366072
_cell_length_c 29.682190
_cell_angle_alpha 90.000000
_cell_angle_beta 143.675903
_cell_angle_gamma 90.000000
_cell_volume 3257.127395
_symmetry_space_group_name_H-M "C 2/M"
_symmetry_group_IT_number 12
_symmetry_cell_setting 'monoclinic'
loop_
_space_group_symop_operation_xyz
x,y,z
-x,y,-z
-x,-y,-z
x,-y,z
1/2+x,1/2+y,z
1/2-x,1/2+y,-z
1/2-x,1/2-y,-z
1/2+x,1/2-y,z
loop_
_atom_site_type_symbol
_atom_site_label
_atom_site_fract_x
_atom_site_fract_y
_atom_site_fract_z
Si Si1 0.911191 0.815702 0.299942
Si Si2 0.847247 0.817232 0.873616
Si Si3 0.588523 0.815701 0.299942
Si Si4 0.665184 0.576999 1.000000
Si Si5 0.589958 0.579141 0.571219
Si Si6 0.520833 0.182768 0.873616
Si Si7 0.733862 0.579140 0.428781
O O1 0.773478 0.795571 0.309390
O O2 0.728681 0.837545 0.213487
O O3 0.064024 0.750001 0.325608
O O4 0.086993 0.879276 0.353369
O O5 0.661244 0.837544 0.786513
O O6 0.717188 0.800791 0.886875
O O7 0.995243 0.750000 0.898098
O O8 0.025818 0.881467 0.924918
O O9 0.679852 0.879274 0.353369
O O10 0.732570 0.500000 1.000000
O O11 0.901227 0.618533 0.075081
O O12 0.500000 0.569621 0.000000
O O13 0.500000 0.607575 0.500000
O O14 0.670792 0.500000 0.588259
O O15 0.376550 0.588498 0.550620
O O16 0.729505 0.500000 0.411743
O O17 0.000000 0.607575 0.500000
#
# Coordination Sequence:
#
# PCOD8116152 Si02
#       7
#     8   8   8   8   8   8   8
#     4   9  18  31  47  68  92 118 149 185 224 265
#     4   9  17  30  48  68  91 120 151 183 221 265
#     4   9  18  31  47  68  92 118 149 185 224 265
#     4   9  17  28  45  71  96 117 148 188 224 259
#     4   9  18  32  48  66  89 118 151 185 223 267
#     4   9  17  30  48  68  91 120 151 183 221 265
#     4   9  18  32  48  66  89 118 151 185 223 267
#
# _framework density 17.193062999999999
#
# number of rings (size 3 to 8) (size 9 to 14) (size 15 to 20)
#    0.000    3.000    0.000    0.429    0.000    2.857 
#    0.000    8.571    0.000    1.714    0.000    8.000 
#    0.000    0.000    0.000    0.000    0.000    0.000 
#
# Total GULP energy -347198.494510 kJ/mol
# GULP energy per Si atom -12399.946232 kJ/mol
# Density = 1.715393 g / cm^3
# Si number density = 17.193063 Si / 1000 Ang^3
#
#
#
# Elastic Constant Matrix: (Units=GPa)
#
#
# Indices 1 2 3 4 5 6 
#
# 1 40.3910 45.9826 42.9093 -0.0001 -0.5832 0.0000
# 2 45.9826 133.0317 88.6667 -0.0003 -0.5732 -0.0001
# 3 42.9093 88.6667 123.5934 -0.0026 -0.5361 -0.0009
# 4 -0.0001 -0.0003 -0.0026 35.3913 -0.0005 -0.1337
# 5 -0.5832 -0.5732 -0.5361 -0.0005 20.4385 -0.0001
# 6 0.0000 -0.0001 -0.0009 -0.1337 -0.0001 25.4699
#
#
#
# Elastic Compliance Matrix: (Units=1/GPa)
#
#
# Indices 1 2 3 4 5 6 
#
# 1 0.045127 -0.009878 -0.008577 -0.000001 0.000786 0.000000
# 2 -0.009878 0.016567 -0.008456 -0.000001 -0.000039 0.000000
# 3 -0.008577 -0.008456 0.017135 0.000001 -0.000032 0.000001
# 4 -0.000001 -0.000001 0.000001 0.028256 0.000001 0.000148
# 5 0.000786 -0.000039 -0.000032 0.000001 0.048948 0.000000
# 6 0.000000 0.000000 0.000001 0.000148 0.000000 0.039263
#
#
# Mechanical properties :
#
#
# Convention : Reuss Voigt Hill
#
# Bulk Modulus (GPa) = 39.98956 72.45925 56.22440
# Shear Modulus (GPa) = 19.42094 24.22379 21.82236
#
# Velocity S-wave (km/s) = 3.36457 3.75764 3.56652
# Velocity P-wave (km/s) = 6.19705 7.81425 7.05216
#
# Compressibility (1/GPa) = 0.02500653
#
# Stress axis : x y z
#
# Youngs Moduli (GPa) = 22.15983 60.35985 58.35908
#
# Poissons Ratio (x) = 0.59623 0.50056
# Poissons Ratio (y) = 0.21889 0.49350
# Poissons Ratio (z) = 0.19007 0.51042
#
# Static dielectric constant tensor:
#      x y z
#    x 3.084210 0.000000 -0.003650 
#    y 0.000000 3.296230 0.000000 
#    z -0.003650 0.000000 3.356180 
# 
# 
# High freq. dielectric constant tensor:
#      x y z
#    x 1.644870 0.000000 -0.000380 
#    y 0.000000 1.657760 0.000000 
#    z -0.000380 0.000000 1.673130 
# 
# From -- ./inp_files/256995.got.cif
#   From: 2010.06.25/outbox.cif.g09.slc.cpg/sg12_129_cif.got.tgz:256995.got - 2010.06.28 00:19:55.
