data_PCOD8116545
_publ_section_title
;
Structure prediction by ZEFSAII (Michael W. Deem and Ramdas Pophale) SiO2 
 PCOD8116545
Probable space group: C 2/M
;
_chemical_formula_sum "Si O2"
_cell_formula_units_Z 32
_cell_length_a 18.000000
_cell_length_b 9.000000
_cell_length_c 30.000000
_cell_angle_alpha 90.000000
_cell_angle_beta 140.000000
_cell_angle_gamma 90.000000
_cell_volume 3123.947783
_symmetry_space_group_name_H-M "C 2/M"
_symmetry_group_IT_number 12
_symmetry_cell_setting 'monoclinic'
loop_
_space_group_symop_operation_xyz
x,y,z
-x,y,-z
-x,-y,-z
x,-y,z
1/2+x,1/2+y,z
1/2-x,1/2+y,-z
1/2-x,1/2-y,-z
1/2+x,1/2-y,z
loop_
_atom_site_type_symbol
_atom_site_label
_atom_site_fract_x
_atom_site_fract_y
_atom_site_fract_z
Si Si1 0.231073 0.174251 0.921273
Si Si2 0.292416 0.831406 0.424985
Si Si3 0.421943 0.173294 0.078197
Si Si4 0.160246 0.666213 0.653632
Si Si5 0.668421 0.831062 0.803568
Si Si6 0.923982 0.675732 0.653759
Si Si7 0.346457 0.666801 0.806479
Si Si8 0.063491 0.175100 0.432053
O O1 0.126576 0.240556 0.901618
O O2 0.226962 0.237289 0.869720
O O3 0.213640 0.000000 0.910525
O O4 0.352629 0.215977 0.001119
O O5 0.353500 0.834645 0.405477
O O6 0.180119 0.730310 0.363084
O O7 0.376658 0.755891 0.499140
O O8 0.262409 0.000000 0.426397
O O9 0.554897 0.217659 0.134588
O O10 0.410656 0.000000 0.082685
O O11 0.127598 0.500000 0.656803
O O12 0.288498 0.704088 0.731727
O O13 0.072443 0.788519 0.631703
O O14 0.542380 0.770239 0.731332
O O15 0.746432 0.816056 0.796381
O O16 0.658215 0.000000 0.815680
O O17 0.924620 0.500000 0.646107
O O18 0.888374 0.759717 0.591808
O O19 0.398364 0.500000 0.830501
O O20 0.085439 0.000000 0.445475
#
# Coordination Sequence:
#
# PCOD8116545 Si02
#       8
#     8   8   8   8   8   8   8   8
#     4  10  22  40  63  90 125 162 200 245 294 354
#     4  11  24  40  62  90 120 158 202 249 303 362
#     4  10  22  40  62  92 125 160 201 246 296 348
#     4  10  22  42  63  87 121 159 200 247 301 360
#     4  10  22  40  63  89 121 159 200 248 300 356
#     4  11  23  42  63  87 122 158 200 252 302 358
#     4  10  21  40  63  89 121 160 201 245 301 358
#     4  12  24  40  63  89 120 158 202 250 301 359
#
# _framework density 10.243449
#
# number of rings (size 3 to 8) (size 9 to 14) (size 15 to 20)
#    0.000    1.500    1.250    3.375    1.750    6.500 
#    0.000    2.500    0.000    0.000    0.000    0.000 
#    0.000    0.000    0.000    0.000    0.000    0.000 
#
# Total GULP energy -396815.081553 kJ/mol
# GULP energy per Si atom -12400.471299 kJ/mol
# Density = 1.022013 g / cm^3
# Si number density = 10.243449 Si / 1000 Ang^3
#
#
#
# Elastic Constant Matrix: (Units=GPa)
#
#
# Indices 1 2 3 4 5 6 
#
# 1 36.2336 24.1083 23.2526 0.0000 -2.3542 0.0000
# 2 24.1083 94.5022 46.7958 0.0000 -5.9349 -0.0002
# 3 23.2526 46.7958 120.4580 0.0000 -4.7446 0.0000
# 4 0.0000 0.0000 0.0000 35.5259 0.0000 4.0900
# 5 -2.3542 -5.9349 -4.7446 0.0000 38.1102 0.0000
# 6 0.0000 -0.0002 0.0000 4.0900 0.0000 30.3521
#
#
#
# Elastic Compliance Matrix: (Units=1/GPa)
#
#
# Indices 1 2 3 4 5 6 
#
# 1 0.034774 -0.006837 -0.004034 0.000000 0.000581 0.000000
# 2 -0.006837 0.014523 -0.004271 0.000000 0.001308 0.000000
# 3 -0.004034 -0.004271 0.010756 0.000000 0.000425 0.000000
# 4 0.000000 0.000000 0.000000 0.028592 0.000000 -0.003853
# 5 0.000581 0.001308 0.000425 0.000000 0.026532 0.000000
# 6 0.000000 0.000000 0.000000 -0.003853 0.000000 0.033466
#
#
# Mechanical properties :
#
#
# Convention : Reuss Voigt Hill
#
# Bulk Modulus (GPa) = 33.59057 48.83413 41.21235
# Shear Modulus (GPa) = 26.47612 31.26677 28.87144
#
# Velocity S-wave (km/s) = 3.59882 3.91088 3.75809
# Velocity P-wave (km/s) = 5.80520 6.65446 6.24428
#
# Compressibility (1/GPa) = 0.02977026
#
# Stress axis : x y z
#
# Youngs Moduli (GPa) = 28.75689 68.85719 92.97112
#
# Poissons Ratio (x) = 0.47080 0.37501
# Poissons Ratio (y) = 0.19662 0.39703
# Poissons Ratio (z) = 0.11599 0.29406
#
# Static dielectric constant tensor:
#      x y z
#    x 3.521410 0.000000 -0.062230 
#    y 0.000000 3.823010 0.000000 
#    z -0.062230 0.000000 3.858440 
# 
# 
# High freq. dielectric constant tensor:
#      x y z
#    x 1.787580 0.000000 -0.004680 
#    y 0.000000 1.802510 0.000000 
#    z -0.004680 0.000000 1.819690 
# 
# From -- ./inp_files/378456.got.cif
#   From: 2010.06.25/outbox.ucp.g09.slc.cvg/sg12_190_cif.got.tgz:378456.got - 2010.06.28 13:50:54.
