data_PCOD8116824
_publ_section_title
;
Structure prediction by ZEFSAII (Michael W. Deem and Ramdas Pophale) SiO2 
 PCOD8116824
Probable space group: P 2/C
;
_chemical_formula_sum "Si O2"
_cell_formula_units_Z 20
_cell_length_a 9.233100
_cell_length_b 24.385667
_cell_length_c 5.211877
_cell_angle_alpha 90.000000
_cell_angle_beta 128.579358
_cell_angle_gamma 90.000000
_cell_volume 917.363703
_symmetry_space_group_name_H-M "P 2/C"
_symmetry_group_IT_number 13
_symmetry_cell_setting 'monoclinic'
loop_
_space_group_symop_operation_xyz
x,y,z
-x,y,1/2-z
-x,-y,-z
x,-y,1/2+z
loop_
_atom_site_type_symbol
_atom_site_label
_atom_site_fract_x
_atom_site_fract_y
_atom_site_fract_z
Si Si1 0.708984 0.646986 0.460132
Si Si2 0.721530 0.704662 0.975221
Si Si3 0.000000 0.799074 0.250000
Si Si4 0.000000 0.127783 0.250000
Si Si5 0.292116 0.521981 0.209801
Si Si6 0.716499 0.033656 0.994345
O O1 0.500000 0.666742 0.250000
O O2 0.791689 0.662633 0.829240
O O3 0.719747 0.583152 0.407580
O O4 0.803451 0.680698 0.332801
O O5 0.500000 0.710837 0.750000
O O6 0.813790 0.763026 0.020892
O O7 0.978036 0.835555 0.475998
O O8 0.182624 0.091278 0.421607
O O9 0.500000 0.500000 0.500000
O O10 0.193097 0.514796 0.377226
O O11 0.500000 0.046478 0.750000
O O12 0.776263 0.994355 0.826775
#
# Coordination Sequence:
#
# PCOD8116824 Si02
#       6
#     4   4   2   2   4   4
#     4  10  18  32  53  81 114 145 186 235 302 363
#     4  10  23  39  59  80 112 150 204 249 295 358
#     4  12  26  43  60  88 118 161 212 264 300 332
#     4  12  24  39  66  90 124 167 210 250 306 340
#     4  10  17  24  44  80 122 133 170 239 286 364
#     4  10  21  39  64  98 135 167 202 241 296 363
#
# _framework density 21.801601000000002
#
# number of rings (size 3 to 8) (size 9 to 14) (size 15 to 20)
#    0.000    1.600    2.000    4.200    5.600    1.600 
#    0.000    0.000    0.000    0.000    0.000   14.000 
#    0.000    0.000    0.000    0.000    0.000    0.000 
#
# Total GULP energy -247854.330612 kJ/mol
# GULP energy per Si atom -12392.716531 kJ/mol
# Density = 2.175198 g / cm^3
# Si number density = 21.801601 Si / 1000 Ang^3
#
#
#
# Elastic Constant Matrix: (Units=GPa)
#
#
# Indices 1 2 3 4 5 6 
#
# 1 101.5598 66.3273 70.8858 0.0000 -31.2977 0.0000
# 2 66.3273 159.2070 62.8116 0.0000 -24.3241 0.0000
# 3 70.8858 62.8116 109.0115 0.0000 -57.2302 0.0000
# 4 0.0000 0.0000 0.0000 37.9029 0.0000 -26.0344
# 5 -31.2977 -24.3241 -57.2302 0.0000 52.5950 0.0000
# 6 0.0000 0.0000 0.0000 -26.0344 0.0000 9.4932
#
#
#
# Elastic Compliance Matrix: (Units=1/GPa)
#
#
# Indices 1 2 3 4 5 6 
#
# 1 0.020238 -0.003925 -0.012896 0.000000 -0.003805 0.000000
# 2 -0.003925 0.009116 -0.003996 0.000000 -0.002467 0.000000
# 3 -0.012896 -0.003996 0.034665 0.000000 0.028198 0.000000
# 4 0.000000 0.000000 0.000000 -0.029856 0.000000 -0.081877
# 5 -0.003805 -0.002467 0.028198 0.000000 0.046292 0.000000
# 6 0.000000 0.000000 0.000000 -0.081877 0.000000 -0.119202
#
#
# Mechanical properties :
#
#
# Convention : Reuss Voigt Hill
#
# Bulk Modulus (GPa) = 44.67029 85.53643 65.10336
# Shear Modulus (GPa) = 483.19259 31.31512 257.25385
#
# Velocity S-wave (km/s) = 14.90345 3.79406 10.87446
# Velocity P-wave (km/s) = 17.79563 7.64934 13.69666
#
# Compressibility (1/GPa) = 0.02238624
#
# Stress axis : x y z
#
# Youngs Moduli (GPa) = 49.41119 109.70116 28.84738
#
# Poissons Ratio (x) = 0.43057 0.37202
# Poissons Ratio (y) = 0.19394 0.11526
# Poissons Ratio (z) = 0.63721 0.43832
#
# Static dielectric constant tensor:
#      x y z
#    x 3.299290 0.000000 1.531900 
#    y 0.000000 3.779940 0.000000 
#    z 1.531900 0.000000 0.529990 
# 
# 
# High freq. dielectric constant tensor:
#      x y z
#    x 1.868620 0.000000 -0.029570 
#    y 0.000000 1.846040 0.000000 
#    z -0.029570 0.000000 1.867800 
# 
# From -- ./inp_files/2251.got.cif
#   From: 2010.06.25/outbox.cif.g09.slc.cpg/sg13_2_cif.got.tgz:2251.got - 2010.06.28 04:50:58.
