data_PCOD8116629
_publ_section_title
;
Structure prediction by ZEFSAII (Michael W. Deem and Ramdas Pophale) SiO2 
 PCOD8116629
Probable space group: C 2/M
;
_chemical_formula_sum "Si O2"
_cell_formula_units_Z 28
_cell_length_a 9.000000
_cell_length_b 30.000000
_cell_length_c 21.000000
_cell_angle_alpha 90.000000
_cell_angle_beta 150.000000
_cell_angle_gamma 90.000000
_cell_volume 2835.000000
_symmetry_space_group_name_H-M "C 2/M"
_symmetry_group_IT_number 12
_symmetry_cell_setting 'monoclinic'
loop_
_space_group_symop_operation_xyz
x,y,z
-x,y,-z
-x,-y,-z
x,-y,z
1/2+x,1/2+y,z
1/2-x,1/2+y,-z
1/2-x,1/2-y,-z
1/2+x,1/2-y,z
loop_
_atom_site_type_symbol
_atom_site_label
_atom_site_fract_x
_atom_site_fract_y
_atom_site_fract_z
Si Si1 0.984777 0.050585 0.389866
Si Si2 0.159194 0.875326 0.365776
Si Si3 0.318978 0.703482 0.281775
Si Si4 0.690181 0.361445 0.230356
Si Si5 0.491356 0.948605 0.680201
Si Si6 0.351637 0.791717 0.642199
Si Si7 0.160497 0.298212 0.993540
O O1 0.692221 0.059467 0.323331
O O2 0.976837 0.082174 0.324804
O O3 0.278666 0.059797 0.540799
O O4 0.986212 0.000000 0.365549
O O5 0.500000 0.887057 0.500000
O O6 0.089827 0.864342 0.266543
O O7 0.081860 0.832965 0.382227
O O8 0.469862 0.750250 0.320402
O O9 0.121689 0.708543 0.271869
O O10 0.089257 0.682834 0.146014
O O11 0.739671 0.412251 0.222832
O O12 0.002984 0.335600 0.335513
O O13 0.432567 0.333690 0.097874
O O14 0.612206 0.000000 0.723579
O O15 0.000000 0.789321 0.500000
O O16 0.250000 0.250000 0.000000
O O17 0.000000 0.290207 0.000000
#
# Coordination Sequence:
#
# PCOD8116629 Si02
#       7
#     8   8   8   8   8   8   8
#     4   9  19  36  61  91 131 171 205 257 324 391
#     4  12  22  36  58  91 131 164 208 259 327 383
#     4  12  24  42  62  86 125 174 208 270 313 377
#     4  12  24  38  64  94 126 171 213 267 310 377
#     4   9  19  38  62  93 128 166 212 261 318 386
#     4  12  25  41  63  94 130 162 212 257 333 386
#     4  12  25  46  65  86 125 167 230 265 307 372
#
# _framework density 9.8765429999999999
#
# number of rings (size 3 to 8) (size 9 to 14) (size 15 to 20)
#    0.000    0.857    4.286    5.143    2.000    0.857 
#    0.000    0.000    0.000    1.286    0.000    3.000 
#    0.000    0.000    0.000    0.000    0.000    0.000 
#
# Total GULP energy -347134.991996 kJ/mol
# GULP energy per Si atom -12397.678286 kJ/mol
# Density = 0.985406 g / cm^3
# Si number density = 9.876543 Si / 1000 Ang^3
#
#
#
# Elastic Constant Matrix: (Units=GPa)
#
#
# Indices 1 2 3 4 5 6 
#
# 1 139.7334 68.7012 23.1885 -0.0001 -5.0749 -0.0002
# 2 68.7012 164.4600 28.5497 -0.0001 8.5137 -0.0001
# 3 23.1885 28.5497 78.9866 -0.0009 1.0490 -0.0014
# 4 -0.0001 -0.0001 -0.0009 31.7452 -0.0002 5.1203
# 5 -5.0749 8.5137 1.0490 -0.0002 28.4744 -0.0007
# 6 -0.0002 -0.0001 -0.0014 5.1203 -0.0007 48.0968
#
#
#
# Elastic Compliance Matrix: (Units=1/GPa)
#
#
# Indices 1 2 3 4 5 6 
#
# 1 0.009372 -0.003819 -0.001409 0.000000 0.002864 0.000000
# 2 -0.003819 0.008143 -0.001782 0.000000 -0.003050 0.000000
# 3 -0.001409 -0.001782 0.013721 0.000000 -0.000224 0.000000
# 4 0.000000 0.000000 0.000000 0.032051 0.000000 -0.003412
# 5 0.002864 -0.003050 -0.000224 0.000000 0.036550 0.000000
# 6 0.000000 0.000000 0.000000 -0.003412 0.000000 0.021155
#
#
# Mechanical properties :
#
#
# Convention : Reuss Voigt Hill
#
# Bulk Modulus (GPa) = 58.08268 69.33987 63.71127
# Shear Modulus (GPa) = 35.52423 39.17933 37.35178
#
# Velocity S-wave (km/s) = 4.24537 4.45843 4.35320
# Velocity P-wave (km/s) = 7.31431 7.85385 7.58888
#
# Compressibility (1/GPa) = 0.01721684
#
# Stress axis : x y z
#
# Youngs Moduli (GPa) = 106.70326 122.80722 72.88089
#
# Poissons Ratio (x) = 0.46895 0.10270
# Poissons Ratio (y) = 0.40746 0.12985
# Poissons Ratio (z) = 0.15036 0.21880
#
# Static dielectric constant tensor:
#      x y z
#    x 4.079840 0.000000 0.123050 
#    y 0.000000 3.775620 0.000000 
#    z 0.123050 0.000000 3.610110 
# 
# 
# High freq. dielectric constant tensor:
#      x y z
#    x 1.797770 0.000000 0.008440 
#    y 0.000000 1.785260 0.000000 
#    z 0.008440 0.000000 1.739760 
# 
# From -- ./inp_files/302993.got.cif
#   From: 2010.06.25/outbox.ucp.g09.slc.cvg/sg12_152_cif.got.tgz:302993.got - 2010.06.28 13:50:54.
