data_PCOD8116118
_publ_section_title
;
Structure prediction by ZEFSAII (Michael W. Deem and Ramdas Pophale) SiO2 
 PCOD8116118
Probable space group: C 2/M
;
_chemical_formula_sum "Si O2"
_cell_formula_units_Z 64
_cell_length_a 22.963416
_cell_length_b 9.671166
_cell_length_c 19.222179
_cell_angle_alpha 90.000000
_cell_angle_beta 60.151468
_cell_angle_gamma 90.000000
_cell_volume 3702.622355
_symmetry_space_group_name_H-M "C 2/M"
_symmetry_group_IT_number 12
_symmetry_cell_setting 'monoclinic'
loop_
_space_group_symop_operation_xyz
x,y,z
-x,y,-z
-x,-y,-z
x,-y,z
1/2+x,1/2+y,z
1/2-x,1/2+y,-z
1/2-x,1/2-y,-z
1/2+x,1/2-y,z
loop_
_atom_site_type_symbol
_atom_site_label
_atom_site_fract_x
_atom_site_fract_y
_atom_site_fract_z
Si Si1 0.077937 0.835059 0.766284
Si Si2 0.460226 0.335491 0.737976
Si Si3 0.287419 0.346197 0.383103
Si Si4 0.930882 0.835470 0.071926
Si Si5 0.819683 0.160369 0.882473
Si Si6 0.807933 0.160288 0.050804
Si Si7 0.324807 0.346323 0.520383
Si Si8 0.525136 0.335280 0.558690
O O1 0.147070 0.780469 0.691795
O O2 0.075115 0.778548 0.846324
O O3 0.014870 0.776233 0.760163
O O4 0.076802 0.000000 0.764182
O O5 0.462706 0.500000 0.739124
O O6 0.386144 0.284803 0.803565
O O7 0.478443 0.280635 0.649705
O O8 0.272845 0.500000 0.362329
O O9 0.298442 0.354619 0.458301
O O10 0.223598 0.249642 0.404198
O O11 0.868068 0.784193 0.063497
O O12 0.932955 0.000000 0.069794
O O13 0.000000 0.775102 0.000000
O O14 0.757639 0.250565 0.891921
O O15 0.805242 0.000000 0.874240
O O16 0.830889 0.182363 0.957859
O O17 0.791414 0.000000 0.075427
O O18 0.325121 0.500000 0.553504
O O19 0.399169 0.281832 0.475766
O O20 0.500000 0.275709 0.500000
O O21 0.523872 0.500000 0.560165
#
# Coordination Sequence:
#
# PCOD8116118 Si02
#       8
#     8   8   8   8   8   8   8   8
#     4   9  15  25  43  65  88 114 146 186 225 259
#     4   9  15  26  44  65  86 111 151 191 219 255
#     4   9  16  27  45  66  87 115 146 177 218 267
#     4   9  16  26  43  68  93 115 144 184 225 259
#     4   9  17  29  48  69  89 119 152 181 214 258
#     4   9  17  30  46  67  95 120 145 179 220 263
#     4   9  16  28  45  65  88 113 144 182 223 263
#     4   9  16  27  43  63  88 116 147 186 226 260
#
# _framework density 17.285046000000001
#
# number of rings (size 3 to 8) (size 9 to 14) (size 15 to 20)
#    0.000    3.000    1.250    0.750    0.000    3.000 
#    2.250    0.000    0.000    2.250    0.000    0.000 
#    0.000    0.000    0.000    0.000    0.000    0.000 
#
# Total GULP energy -396686.917149 kJ/mol
# GULP energy per Si atom -12396.466161 kJ/mol
# Density = 1.724570 g / cm^3
# Si number density = 17.285046 Si / 1000 Ang^3
#
#
#
# Elastic Constant Matrix: (Units=GPa)
#
#
# Indices 1 2 3 4 5 6 
#
# 1 127.9530 33.3775 79.2177 -0.0001 -17.6818 -0.0001
# 2 33.3775 32.2366 30.6296 -0.0002 -12.5875 -0.0003
# 3 79.2177 30.6296 127.3130 0.0000 -24.3820 0.0000
# 4 -0.0001 -0.0002 0.0000 14.4820 0.0000 -7.7055
# 5 -17.6818 -12.5875 -24.3820 0.0000 38.0528 0.0000
# 6 -0.0001 -0.0003 0.0000 -7.7055 0.0000 19.6254
#
#
#
# Elastic Compliance Matrix: (Units=1/GPa)
#
#
# Indices 1 2 3 4 5 6 
#
# 1 0.014213 -0.008349 -0.006952 0.000000 -0.000612 0.000000
# 2 -0.008349 0.047432 -0.004508 0.000001 0.008922 0.000001
# 3 -0.006952 -0.004508 0.014090 0.000000 0.004306 0.000000
# 4 0.000000 0.000001 0.000000 0.087286 0.000000 0.034271
# 5 -0.000612 0.008922 0.004306 0.000000 0.031706 0.000000
# 6 0.000000 0.000001 0.000000 0.034271 0.000000 0.064410
#
#
# Mechanical properties :
#
#
# Convention : Reuss Voigt Hill
#
# Bulk Modulus (GPa) = 27.68805 63.77246 45.73025
# Shear Modulus (GPa) = 16.08782 24.05055 20.06919
#
# Velocity S-wave (km/s) = 3.05411 3.73421 3.41115
# Velocity P-wave (km/s) = 5.33761 7.45433 6.48294
#
# Compressibility (1/GPa) = 0.03611666
#
# Stress axis : x y z
#
# Youngs Moduli (GPa) = 70.35811 21.08269 70.97387
#
# Poissons Ratio (x) = 0.17603 0.49343
# Poissons Ratio (y) = 0.58745 0.31992
# Poissons Ratio (z) = 0.48915 0.09503
#
# Static dielectric constant tensor:
#      x y z
#    x 3.297190 0.000000 -0.105820 
#    y 0.000000 2.839680 0.000000 
#    z -0.105820 0.000000 3.372150 
# 
# 
# High freq. dielectric constant tensor:
#      x y z
#    x 1.669650 0.000000 -0.012160 
#    y 0.000000 1.604050 0.000000 
#    z -0.012160 0.000000 1.671550 
# 
# From -- ./inp_files/282889.got.cif
#   From: 2010.06.25/outbox.cif.g09.slc.cpg/sg12_142_cif.got.tgz:282889.got - 2010.06.28 00:19:55.
