data_PCOD8116426
_publ_section_title
;
Structure prediction by ZEFSAII (Michael W. Deem and Ramdas Pophale) SiO2 
 PCOD8116426
Probable space group: C 2/M
;
_chemical_formula_sum "Si O2"
_cell_formula_units_Z 28
_cell_length_a 24.000000
_cell_length_b 9.000000
_cell_length_c 15.000000
_cell_angle_alpha 90.000000
_cell_angle_beta 110.000000
_cell_angle_gamma 90.000000
_cell_volume 3044.604091
_symmetry_space_group_name_H-M "C 2/M"
_symmetry_group_IT_number 12
_symmetry_cell_setting 'monoclinic'
loop_
_space_group_symop_operation_xyz
x,y,z
-x,y,-z
-x,-y,-z
x,-y,z
1/2+x,1/2+y,z
1/2-x,1/2+y,-z
1/2-x,1/2-y,-z
1/2+x,1/2-y,z
loop_
_atom_site_type_symbol
_atom_site_label
_atom_site_fract_x
_atom_site_fract_y
_atom_site_fract_z
Si Si1 0.266056 0.673072 0.917036
Si Si2 0.386630 0.174960 0.959580
Si Si3 0.671381 0.324886 0.379602
Si Si4 0.647066 0.171526 0.743898
Si Si5 0.933001 0.324681 0.789984
Si Si6 0.441267 0.679026 0.166467
Si Si7 0.307325 0.825996 0.424684
O O1 0.281127 0.500000 0.940779
O O2 0.322241 0.755846 0.904702
O O3 0.211270 0.694221 0.821658
O O4 0.250000 0.750000 0.000000
O O5 0.426188 0.200909 0.892879
O O6 0.381130 0.000000 0.978744
O O7 0.414369 0.257135 0.060118
O O8 0.657665 0.500000 0.370561
O O9 0.623749 0.240465 0.292429
O O10 0.666054 0.267132 0.478430
O O11 0.737000 0.290928 0.376156
O O12 0.597854 0.269400 0.769111
O O13 0.656006 0.218733 0.644876
O O14 0.627059 0.000000 0.739912
O O15 0.938407 0.500000 0.772449
O O16 0.991935 0.241141 0.787557
O O17 0.441857 0.500000 0.163833
O O18 0.315753 0.000000 0.449652
#
# Coordination Sequence:
#
# PCOD8116426 Si02
#       7
#     8   8   8   8   8   8   8
#     4  11  21  34  56  85 118 154 190 235 286 338
#     4  11  23  39  59  84 115 154 197 241 290 344
#     4  10  20  37  62  92 121 147 186 240 289 341
#     4  10  21  38  59  83 118 158 195 234 284 346
#     4  11  24  41  61  83 113 154 197 241 289 346
#     4  12  25  39  58  83 115 154 196 244 291 343
#     4   9  19  37  62  90 119 154 188 229 288 347
#
# _framework density 9.1965979999999998
#
# number of rings (size 3 to 8) (size 9 to 14) (size 15 to 20)
#    0.000    1.429    1.429    4.286    0.000    6.857 
#    0.000    0.714    0.000    4.286    0.000    0.000 
#    0.000    0.000    0.000    0.000    0.000    0.000 
#
# Total GULP energy -347224.584317 kJ/mol
# GULP energy per Si atom -12400.878011 kJ/mol
# Density = 0.917567 g / cm^3
# Si number density = 9.196598 Si / 1000 Ang^3
#
#
#
# Elastic Constant Matrix: (Units=GPa)
#
#
# Indices 1 2 3 4 5 6 
#
# 1 133.7790 62.9818 51.2205 0.0000 -12.7359 0.0000
# 2 62.9818 149.8829 53.0351 0.0000 -7.1277 0.0000
# 3 51.2205 53.0351 113.2497 0.0000 -15.8315 0.0000
# 4 0.0000 0.0000 0.0000 36.0049 0.0000 1.6967
# 5 -12.7359 -7.1277 -15.8315 0.0000 37.0814 0.0000
# 6 0.0000 0.0000 0.0000 1.6967 0.0000 38.6922
#
#
#
# Elastic Compliance Matrix: (Units=1/GPa)
#
#
# Indices 1 2 3 4 5 6 
#
# 1 0.010253 -0.003201 -0.002905 0.000000 0.001666 0.000000
# 2 -0.003201 0.008997 -0.002847 0.000000 -0.000586 0.000000
# 3 -0.002905 -0.002847 0.011976 0.000000 0.003568 0.000000
# 4 0.000000 0.000000 0.000000 0.027831 0.000000 -0.001220
# 5 0.001666 -0.000586 0.003568 0.000000 0.028951 0.000000
# 6 0.000000 0.000000 0.000000 -0.001220 0.000000 0.025899
#
#
# Mechanical properties :
#
#
# Convention : Reuss Voigt Hill
#
# Bulk Modulus (GPa) = 75.08314 81.26517 78.17416
# Shear Modulus (GPa) = 36.69641 37.66733 37.18187
#
# Velocity S-wave (km/s) = 4.47151 4.53028 4.50099
# Velocity P-wave (km/s) = 8.22003 8.46420 8.34301
#
# Compressibility (1/GPa) = 0.01331857
#
# Stress axis : x y z
#
# Youngs Moduli (GPa) = 97.53226 111.15261 83.49922
#
# Poissons Ratio (x) = 0.35582 0.24259
# Poissons Ratio (y) = 0.31222 0.23774
# Poissons Ratio (z) = 0.28336 0.31647
#
# Static dielectric constant tensor:
#      x y z
#    x 3.761180 0.000000 -0.229000 
#    y 0.000000 3.742520 0.000000 
#    z -0.229000 0.000000 3.844210 
# 
# 
# High freq. dielectric constant tensor:
#      x y z
#    x 1.732320 0.000000 -0.009360 
#    y 0.000000 1.736680 0.000000 
#    z -0.009360 0.000000 1.723560 
# 
# From -- ./inp_files/237818.got.cif
#   From: 2010.06.25/outbox.ucp.g09.slc.cvg/sg12_119_cif.got.tgz:237818.got - 2010.06.28 13:50:54.
