data_PCOD8116076
_publ_section_title
;
Structure prediction by ZEFSAII (Michael W. Deem and Ramdas Pophale) SiO2 
 PCOD8116076
Probable space group: C 2/M
;
_chemical_formula_sum "Si O2"
_cell_formula_units_Z 40
_cell_length_a 24.979787
_cell_length_b 18.420712
_cell_length_c 10.354401
_cell_angle_alpha 90.000000
_cell_angle_beta 32.225182
_cell_angle_gamma 90.000000
_cell_volume 2540.677069
_symmetry_space_group_name_H-M "C 2/M"
_symmetry_group_IT_number 12
_symmetry_cell_setting 'monoclinic'
loop_
_space_group_symop_operation_xyz
x,y,z
-x,y,-z
-x,-y,-z
x,-y,z
1/2+x,1/2+y,z
1/2-x,1/2+y,-z
1/2-x,1/2-y,-z
1/2+x,1/2-y,z
loop_
_atom_site_type_symbol
_atom_site_label
_atom_site_fract_x
_atom_site_fract_y
_atom_site_fract_z
Si Si1 0.700242 0.835985 0.714811
Si Si2 0.391836 0.914190 0.574000
Si Si3 0.756424 0.585330 0.616951
Si Si4 0.112301 0.193743 0.812308
Si Si5 0.618421 0.914107 0.117224
O O1 0.679474 0.895140 0.643096
O O2 0.813413 0.803766 0.464973
O O3 0.619299 0.770941 0.870690
O O4 0.693873 0.873860 0.866533
O O5 0.317388 0.884694 0.616281
O O6 0.505323 0.888247 0.315075
O O7 0.354842 0.889157 0.791413
O O8 0.393240 0.000000 0.567916
O O9 0.735037 0.500000 0.668147
O O10 0.650342 0.628669 0.829187
O O11 0.000000 0.176331 0.000000
O O12 0.631328 0.000000 0.074467
#
# Coordination Sequence:
#
# PCOD8116076 Si02
#       5
#     8   8   8   8   8
#     4   9  19  30  49  72  90 125 161 199 235 282
#     4   8  16  28  45  73 104 125 148 194 248 282
#     4   9  17  31  49  72  93 122 163 197 233 282
#     4   9  20  34  47  68  99 128 155 201 247 272
#     4   9  16  28  47  73 102 128 154 191 241 290
#
# _framework density 15.743835000000001
#
# number of rings (size 3 to 8) (size 9 to 14) (size 15 to 20)
#    1.200    2.000    0.000    1.800    2.800    0.400 
#    0.000    4.000    0.000    1.200    0.000    4.200 
#    0.000    0.000    0.000    0.000    0.000    0.000 
#
# Total GULP energy -247780.925933 kJ/mol
# GULP energy per Si atom -12389.046297 kJ/mol
# Density = 1.570800 g / cm^3
# Si number density = 15.743835 Si / 1000 Ang^3
#
#
#
# Elastic Constant Matrix: (Units=GPa)
#
#
# Indices 1 2 3 4 5 6 
#
# 1 97.6906 28.7832 40.1836 0.0000 -3.3936 0.0000
# 2 28.7832 61.5737 19.9803 0.0000 1.1117 0.0000
# 3 40.1836 19.9803 70.2925 0.0000 10.8844 0.0000
# 4 0.0000 0.0000 0.0000 21.0560 0.0000 -0.7738
# 5 -3.3936 1.1117 10.8844 0.0000 26.6920 0.0000
# 6 0.0000 0.0000 0.0000 -0.7738 0.0000 12.6895
#
#
#
# Elastic Compliance Matrix: (Units=1/GPa)
#
#
# Indices 1 2 3 4 5 6 
#
# 1 0.015134 -0.004507 -0.008216 0.000000 0.005462 0.000000
# 2 -0.004507 0.019284 -0.002873 0.000000 -0.000205 0.000000
# 3 -0.008216 -0.002873 0.021223 0.000000 -0.009579 0.000000
# 4 0.000000 0.000000 0.000000 0.047599 0.000000 0.002903
# 5 0.005462 -0.000205 -0.009579 0.000000 0.042074 0.000000
# 6 0.000000 0.000000 0.000000 0.002903 0.000000 0.078982
#
#
# Mechanical properties :
#
#
# Convention : Reuss Voigt Hill
#
# Bulk Modulus (GPa) = 40.90316 45.27233 43.08774
# Shear Modulus (GPa) = 18.96551 21.46147 20.21349
#
# Velocity S-wave (km/s) = 3.47454 3.69611 3.58704
# Velocity P-wave (km/s) = 6.49103 6.85806 6.67707
#
# Compressibility (1/GPa) = 0.02444799
#
# Stress axis : x y z
#
# Youngs Moduli (GPa) = 66.07822 51.85780 47.11867
#
# Poissons Ratio (x) = 0.23372 0.38713
# Poissons Ratio (y) = 0.29781 0.13538
# Poissons Ratio (z) = 0.54290 0.14899
#
# Static dielectric constant tensor:
#      x y z
#    x 3.119810 0.000000 0.130140 
#    y 0.000000 2.798410 0.000000 
#    z 0.130140 0.000000 2.744300 
# 
# 
# High freq. dielectric constant tensor:
#      x y z
#    x 1.594590 0.000000 0.008390 
#    y 0.000000 1.593950 0.000000 
#    z 0.008390 0.000000 1.580290 
# 
# From -- ./inp_files/98498.got.cif
#   From: 2010.06.25/outbox.cif.g09.slc.cpg/sg12_50_cif.got.tgz:98498.got - 2010.06.28 00:19:55.
