data_PCOD8116096
_publ_section_title
;
Structure prediction by ZEFSAII (Michael W. Deem and Ramdas Pophale) SiO2 
 PCOD8116096
Probable space group: C 2/M
;
_chemical_formula_sum "Si O2"
_cell_formula_units_Z 48
_cell_length_a 24.028163
_cell_length_b 9.561920
_cell_length_c 15.401704
_cell_angle_alpha 90.000000
_cell_angle_beta 122.414092
_cell_angle_gamma 90.000000
_cell_volume 2987.292824
_symmetry_space_group_name_H-M "C 2/M"
_symmetry_group_IT_number 12
_symmetry_cell_setting 'monoclinic'
loop_
_space_group_symop_operation_xyz
x,y,z
-x,y,-z
-x,-y,-z
x,-y,z
1/2+x,1/2+y,z
1/2-x,1/2+y,-z
1/2-x,1/2-y,-z
1/2+x,1/2-y,z
loop_
_atom_site_type_symbol
_atom_site_label
_atom_site_fract_x
_atom_site_fract_y
_atom_site_fract_z
Si Si1 0.532123 0.335783 0.116675
Si Si2 0.177904 0.162189 0.280138
Si Si3 0.181540 0.663496 0.634008
Si Si4 0.495985 0.157590 0.745716
Si Si5 0.052765 0.666806 0.614887
Si Si6 0.656345 0.842611 0.422501
O O1 0.522523 0.500000 0.124502
O O2 0.609771 0.294027 0.176522
O O3 0.494641 0.255812 0.162618
O O4 0.500000 0.286922 0.000000
O O5 0.242290 0.193201 0.272778
O O6 0.189815 0.245261 0.378816
O O7 0.175607 0.000000 0.303461
O O8 0.166688 0.500000 0.616521
O O9 0.126102 0.725588 0.652369
O O10 0.172364 0.723553 0.529491
O O11 0.537663 0.220447 0.699751
O O12 0.421477 0.157092 0.652860
O O13 0.518768 0.000000 0.789101
O O14 0.048609 0.500000 0.612794
O O15 0.000000 0.724056 0.500000
O O16 0.684358 0.000000 0.435868
#
# Coordination Sequence:
#
# PCOD8116096 Si02
#       6
#     8   8   8   8   8   8
#     4   9  18  32  47  60  79 110 143 177 217 252
#     4   9  17  27  40  60  82 105 139 176 206 240
#     4   9  15  23  38  60  86 113 137 163 196 242
#     4   9  16  26  44  68  87 106 137 173 206 242
#     4   9  14  23  40  63  90 116 138 161 195 245
#     4   9  15  24  39  60  86 112 134 160 201 248
#
# _framework density 16.068061
#
# number of rings (size 3 to 8) (size 9 to 14) (size 15 to 20)
#    0.000    3.000    1.667    0.500    0.000    0.333 
#    0.000    0.000    0.000    3.500    0.000    0.000 
#    0.000    0.000    0.000    0.000    0.000    0.000 
#
# Total GULP energy -297381.242514 kJ/mol
# GULP energy per Si atom -12390.885105 kJ/mol
# Density = 1.603149 g / cm^3
# Si number density = 16.068061 Si / 1000 Ang^3
#
#
#
# Elastic Constant Matrix: (Units=GPa)
#
#
# Indices 1 2 3 4 5 6 
#
# 1 131.5388 26.3067 56.8896 0.0000 -16.3035 0.0000
# 2 26.3067 28.7106 26.3285 0.0000 -7.5593 0.0000
# 3 56.8896 26.3285 99.8356 0.0000 -12.8769 0.0000
# 4 0.0000 0.0000 0.0000 12.0648 0.0000 -3.4310
# 5 -16.3035 -7.5593 -12.8769 0.0000 14.9401 0.0000
# 6 0.0000 0.0000 0.0000 -3.4310 0.0000 14.8253
#
#
#
# Elastic Compliance Matrix: (Units=1/GPa)
#
#
# Indices 1 2 3 4 5 6 
#
# 1 0.011168 -0.004635 -0.004356 0.000000 0.006087 0.000000
# 2 -0.004635 0.050795 -0.009104 0.000000 0.012796 0.000000
# 3 -0.004356 -0.009104 0.015405 0.000000 0.003917 0.000000
# 4 0.000000 0.000000 0.000000 0.088725 0.000000 0.020534
# 5 0.006087 0.012796 0.003917 0.000000 0.083427 0.000000
# 6 0.000000 0.000000 0.000000 0.020534 0.000000 0.072205
#
#
# Mechanical properties :
#
#
# Convention : Reuss Voigt Hill
#
# Bulk Modulus (GPa) = 24.28528 53.23717 38.76122
# Shear Modulus (GPa) = 13.45382 18.40339 15.92861
#
# Velocity S-wave (km/s) = 2.89676 3.38796 3.15194
# Velocity P-wave (km/s) = 5.13177 6.96481 6.11734
#
# Compressibility (1/GPa) = 0.04117721
#
# Stress axis : x y z
#
# Youngs Moduli (GPa) = 89.54284 19.68691 64.91428
#
# Poissons Ratio (x) = 0.09125 0.28279
# Poissons Ratio (y) = 0.41505 0.59097
# Poissons Ratio (z) = 0.39008 0.17923
#
# Static dielectric constant tensor:
#      x y z
#    x 3.364330 0.000000 -0.023140 
#    y 0.000000 2.850720 0.000000 
#    z -0.023140 0.000000 2.890040 
# 
# 
# High freq. dielectric constant tensor:
#      x y z
#    x 1.625970 0.000000 0.001920 
#    y 0.000000 1.581700 0.000000 
#    z 0.001920 0.000000 1.588180 
# 
# From -- ./inp_files/164090.got.cif
#   From: 2010.06.25/outbox.cif.g09.slc.cpg/sg12_83_cif.got.tgz:164090.got - 2010.06.28 00:19:55.
