data_PCOD8116708
_publ_section_title
;
Structure prediction by ZEFSAII (Michael W. Deem and Ramdas Pophale) SiO2 
 PCOD8116708
Probable space group: P 2/C
;
_chemical_formula_sum "Si O2"
_cell_formula_units_Z 30
_cell_length_a 26.475463
_cell_length_b 9.294532
_cell_length_c 9.188465
_cell_angle_alpha 90.000000
_cell_angle_beta 130.486779
_cell_angle_gamma 90.000000
_cell_volume 1719.670106
_symmetry_space_group_name_H-M "P 2/C"
_symmetry_group_IT_number 13
_symmetry_cell_setting 'monoclinic'
loop_
_space_group_symop_operation_xyz
x,y,z
-x,y,1/2-z
-x,-y,-z
x,-y,1/2+z
loop_
_atom_site_type_symbol
_atom_site_label
_atom_site_fract_x
_atom_site_fract_y
_atom_site_fract_z
Si Si1 0.088916 0.419505 0.166231
Si Si2 0.204831 0.605574 0.315154
Si Si3 0.220216 0.659239 0.008747
Si Si4 0.582060 0.610670 0.762518
Si Si5 0.000000 0.471592 0.750000
Si Si6 0.565295 0.667963 0.056761
Si Si7 0.673983 0.887579 0.235614
Si Si8 0.692945 0.827159 0.939336
O O1 0.127338 0.574866 0.213196
O O2 0.145688 0.300911 0.309371
O O3 0.039374 0.428179 0.209843
O O4 0.050031 0.376680 0.944121
O O5 0.214921 0.601649 0.162294
O O6 0.248324 0.473446 0.464305
O O7 0.232887 0.757467 0.429779
O O8 0.267038 0.795812 0.081186
O O9 0.513738 0.691985 0.590405
O O10 0.584502 0.446494 0.715472
O O11 0.641083 0.701974 0.803017
O O12 0.590253 0.602654 0.951112
O O13 0.603559 0.819090 0.155365
O O14 0.683142 0.049890 0.302995
O O15 0.678583 0.891710 0.070904
#
# Coordination Sequence:
#
# PCOD8116708 Si02
#       8
#     4   4   4   4   2   4   4   4
#     4   9  16  28  46  76 103 124 152 198 245 288
#     4   9  17  31  48  72 100 127 161 199 249 287
#     4   9  17  31  48  72 100 127 161 199 249 287
#     4   9  18  33  52  74  99 129 166 210 256 297
#     4  10  16  26  48  78 106 118 152 196 246 290
#     4   9  18  33  52  74  99 129 166 210 256 297
#     4  10  21  34  48  70 100 136 170 207 246 289
#     4  10  21  34  48  70 100 136 170 207 246 289
#
# _framework density 17.445205999999999
#
# number of rings (size 3 to 8) (size 9 to 14) (size 15 to 20)
#    0.800    1.867    1.333    0.800    0.000    2.667 
#    0.000    0.000    0.000    0.000    0.000    5.600 
#    0.000    0.000    0.000    0.000    0.000    0.000 
#
# Total GULP energy -371665.732120 kJ/mol
# GULP energy per Si atom -12388.857737 kJ/mol
# Density = 1.740550 g / cm^3
# Si number density = 17.445206 Si / 1000 Ang^3
#
#
#
# Elastic Constant Matrix: (Units=GPa)
#
#
# Indices 1 2 3 4 5 6 
#
# 1 61.9857 13.7120 19.1466 0.0000 8.0990 0.0000
# 2 13.7120 41.6927 13.7297 0.0000 0.6342 0.0000
# 3 19.1466 13.7297 82.1871 0.0000 4.2700 0.0000
# 4 0.0000 0.0000 0.0000 22.4246 0.0000 -5.5067
# 5 8.0990 0.6342 4.2700 0.0000 21.4520 0.0000
# 6 0.0000 0.0000 0.0000 -5.5067 0.0000 13.4665
#
#
#
# Elastic Compliance Matrix: (Units=1/GPa)
#
#
# Indices 1 2 3 4 5 6 
#
# 1 0.019110 -0.005112 -0.003265 0.000000 -0.006414 0.000000
# 2 -0.005112 0.026749 -0.003372 0.000000 0.001810 0.000000
# 3 -0.003265 -0.003372 0.013562 0.000000 -0.001367 0.000000
# 4 0.000000 0.000000 0.000000 0.049572 0.000000 0.020271
# 5 -0.006414 0.001810 -0.001367 0.000000 0.049256 0.000000
# 6 0.000000 0.000000 0.000000 0.020271 0.000000 0.082547
#
#
# Mechanical properties :
#
#
# Convention : Reuss Voigt Hill
#
# Bulk Modulus (GPa) = 27.83643 31.00468 29.42056
# Shear Modulus (GPa) = 18.09835 20.75378 19.42607
#
# Velocity S-wave (km/s) = 3.22443 3.45288 3.34061
# Velocity P-wave (km/s) = 5.46385 5.80583 5.63744
#
# Compressibility (1/GPa) = 0.03592415
#
# Stress axis : x y z
#
# Youngs Moduli (GPa) = 52.32833 37.38442 73.73441
#
# Poissons Ratio (x) = 0.19112 0.24072
# Poissons Ratio (y) = 0.26752 0.24860
# Poissons Ratio (z) = 0.17084 0.12605
#
# Static dielectric constant tensor:
#      x y z
#    x 3.265880 0.000000 0.160930 
#    y 0.000000 2.846050 0.000000 
#    z 0.160930 0.000000 3.503710 
# 
# 
# High freq. dielectric constant tensor:
#      x y z
#    x 1.672490 0.000000 0.004390 
#    y 0.000000 1.622830 0.000000 
#    z 0.004390 0.000000 1.693160 
# 
# From -- ./inp_files/24840.got.cif
#   From: 2010.06.25/outbox.cif.g09.slc.cpg/sg13_13_cif.got.tgz:24840.got - 2010.06.28 04:50:58.
