data_PCOD8116177
_publ_section_title
;
Structure prediction by ZEFSAII (Michael W. Deem and Ramdas Pophale) SiO2 
 PCOD8116177
Probable space group: C 2/M
;
_chemical_formula_sum "Si O2"
_cell_formula_units_Z 24
_cell_length_a 24.000000
_cell_length_b 9.000000
_cell_length_c 21.000000
_cell_angle_alpha 90.000000
_cell_angle_beta 40.000000
_cell_angle_gamma 90.000000
_cell_volume 2915.684598
_symmetry_space_group_name_H-M "C 2/M"
_symmetry_group_IT_number 12
_symmetry_cell_setting 'monoclinic'
loop_
_space_group_symop_operation_xyz
x,y,z
-x,y,-z
-x,-y,-z
x,-y,z
1/2+x,1/2+y,z
1/2-x,1/2+y,-z
1/2-x,1/2-y,-z
1/2+x,1/2-y,z
loop_
_atom_site_type_symbol
_atom_site_label
_atom_site_fract_x
_atom_site_fract_y
_atom_site_fract_z
Si Si1 0.052965 0.823943 0.656607
Si Si2 0.640536 0.328736 0.147938
Si Si3 0.878209 0.680068 0.275011
Si Si4 0.667601 0.173108 0.992762
Si Si5 0.786124 0.319270 0.533336
Si Si6 0.988340 0.172704 0.935400
O O1 0.073846 0.744701 0.705016
O O2 0.114419 0.744963 0.548526
O O3 0.949260 0.799659 0.733756
O O4 0.074577 0.000000 0.640977
O O5 0.641432 0.500000 0.123489
O O6 0.728953 0.298138 0.111350
O O7 0.642452 0.220623 0.086045
O O8 0.872383 0.500000 0.282723
O O9 0.780514 0.752584 0.355165
O O10 0.935656 0.732297 0.164857
O O11 0.645274 0.000000 0.004270
O O12 0.607774 0.266408 0.997002
O O13 0.786394 0.500000 0.533809
O O14 0.750000 0.250000 0.500000
O O15 0.995137 0.000000 0.908665
O O16 0.000000 0.191654 0.000000
#
# Coordination Sequence:
#
# PCOD8116177 Si02
#       6
#     8   8   8   8   8   8
#     4  10  17  28  46  69  99 130 159 190 235 288
#     4   9  18  30  47  70 100 132 158 192 240 289
#     4  11  20  31  47  68  94 124 161 201 242 285
#     4  10  19  31  48  71  96 126 164 201 238 284
#     4  10  18  28  43  65  95 127 159 193 236 286
#     4  11  23  37  51  68  94 130 167 203 245 289
#
# _framework density 8.2313430000000007
#
# number of rings (size 3 to 8) (size 9 to 14) (size 15 to 20)
#    0.000    1.833    1.667    6.500    0.000    2.667 
#    0.000    0.000    0.000    0.000    0.000    1.167 
#    0.000    9.333    0.000    0.000    0.000    0.000 
#
# Total GULP energy -297375.199840 kJ/mol
# GULP energy per Si atom -12390.633327 kJ/mol
# Density = 0.821261 g / cm^3
# Si number density = 8.231343 Si / 1000 Ang^3
#
#
#
# Elastic Constant Matrix: (Units=GPa)
#
#
# Indices 1 2 3 4 5 6 
#
# 1 70.2337 35.4552 45.0827 -0.0009 -20.7488 0.0001
# 2 35.4552 153.8172 54.0439 -0.0068 -14.1603 0.0046
# 3 45.0827 54.0439 135.9643 -0.0026 -39.0032 0.0021
# 4 -0.0009 -0.0068 -0.0026 35.1664 0.0018 -6.5188
# 5 -20.7488 -14.1603 -39.0032 0.0018 33.8313 -0.0011
# 6 0.0001 0.0046 0.0021 -6.5188 -0.0011 23.4902
#
#
#
# Elastic Compliance Matrix: (Units=1/GPa)
#
#
# Indices 1 2 3 4 5 6 
#
# 1 0.019945 -0.002714 -0.003513 0.000000 0.007046 0.000001
# 2 -0.002714 0.007931 -0.002656 0.000001 -0.001407 -0.000001
# 3 -0.003513 -0.002656 0.012907 0.000000 0.011614 0.000000
# 4 0.000000 0.000001 0.000000 0.029978 -0.000001 0.008319
# 5 0.007046 -0.001407 0.011614 -0.000001 0.046680 0.000001
# 6 0.000001 -0.000001 0.000000 0.008319 0.000001 0.044880
#
#
# Mechanical properties :
#
#
# Convention : Reuss Voigt Hill
#
# Bulk Modulus (GPa) = 43.44870 69.90877 56.67874
# Shear Modulus (GPa) = 26.62978 33.52648 30.07813
#
# Velocity S-wave (km/s) = 4.02628 4.51767 4.27904
# Velocity P-wave (km/s) = 6.93283 8.35282 7.67573
#
# Compressibility (1/GPa) = 0.02301565
#
# Stress axis : x y z
#
# Youngs Moduli (GPa) = 50.13765 126.09536 77.47695
#
# Poissons Ratio (x) = 0.34227 0.27219
# Poissons Ratio (y) = 0.13609 0.20578
# Poissons Ratio (z) = 0.17614 0.33490
#
# Static dielectric constant tensor:
#      x y z
#    x 2.943530 0.000000 -0.624570 
#    y 0.000000 3.505670 0.000010 
#    z -0.624570 0.000010 3.823490 
# 
# 
# High freq. dielectric constant tensor:
#      x y z
#    x 1.587930 0.000000 -0.047270 
#    y 0.000000 1.669900 0.000000 
#    z -0.047270 0.000000 1.652750 
# 
# From -- ./inp_files/323497.got.cif
#   From: 2010.06.25/outbox.ucp.g09.slc.cvg/sg12_162_cif.got.tgz:323497.got - 2010.06.28 13:50:54.
