data_PCOD8116123
_publ_section_title
;
Structure prediction by ZEFSAII (Michael W. Deem and Ramdas Pophale) SiO2 
 PCOD8116123
Probable space group: C 2/M
;
_chemical_formula_sum "Si O2"
_cell_formula_units_Z 56
_cell_length_a 19.475012
_cell_length_b 9.506958
_cell_length_c 29.147850
_cell_angle_alpha 90.000000
_cell_angle_beta 141.569744
_cell_angle_gamma 90.000000
_cell_volume 3354.362286
_symmetry_space_group_name_H-M "C 2/M"
_symmetry_group_IT_number 12
_symmetry_cell_setting 'monoclinic'
loop_
_space_group_symop_operation_xyz
x,y,z
-x,y,-z
-x,-y,-z
x,-y,z
1/2+x,1/2+y,z
1/2-x,1/2+y,-z
1/2-x,1/2-y,-z
1/2+x,1/2-y,z
loop_
_atom_site_type_symbol
_atom_site_label
_atom_site_fract_x
_atom_site_fract_y
_atom_site_fract_z
Si Si1 0.461525 0.165452 0.758597
Si Si2 0.366180 0.340236 0.299592
Si Si3 0.377898 0.834792 0.810405
Si Si4 0.817557 0.663958 0.600295
Si Si5 0.398400 0.339960 0.557794
Si Si6 0.659866 0.837155 0.801733
Si Si7 0.593018 0.663961 0.084174
O O1 0.440330 0.227116 0.798317
O O2 0.369493 0.224160 0.674650
O O3 0.585635 0.205400 0.807037
O O4 0.445241 0.000000 0.754298
O O5 0.359558 0.500000 0.278502
O O6 0.252383 0.301916 0.265683
O O7 0.472444 0.318477 0.388799
O O8 0.385713 0.245851 0.265427
O O9 0.423202 0.752360 0.878109
O O10 0.399929 0.000000 0.829735
O O11 0.846885 0.500000 0.611570
O O12 0.684379 0.690897 0.528327
O O13 0.873385 0.738741 0.586707
O O14 0.379071 0.500000 0.564407
O O15 0.788803 0.803499 0.877870
O O16 0.641874 0.000000 0.780976
O O17 0.581379 0.500000 0.090527
O O18 0.500000 0.713029 0.000000
#
# Coordination Sequence:
#
# PCOD8116123 Si02
#       7
#     8   8   8   8   8   8   8
#     4   9  16  28  45  66  89 116 150 182 213 257
#     4   9  16  27  42  63  89 115 146 185 222 253
#     4   9  18  31  47  66  91 119 145 176 216 263
#     4   9  16  26  41  61  86 116 149 183 217 255
#     4   9  16  25  39  62  88 113 146 187 224 251
#     4   9  16  28  48  67  84 114 151 179 209 257
#     4   9  18  33  51  70  90 112 142 180 218 258
#
# _framework density 16.694679000000001
#
# number of rings (size 3 to 8) (size 9 to 14) (size 15 to 20)
#    0.000    3.000    1.429    0.000    0.000    0.286 
#    0.000    2.857    0.000    4.286    0.000    0.000 
#    0.000    9.143    0.000    0.000    0.000    0.000 
#
# Total GULP energy -346937.925317 kJ/mol
# GULP energy per Si atom -12390.640190 kJ/mol
# Density = 1.665668 g / cm^3
# Si number density = 16.694679 Si / 1000 Ang^3
#
#
#
# Elastic Constant Matrix: (Units=GPa)
#
#
# Indices 1 2 3 4 5 6 
#
# 1 122.0791 30.2341 63.1364 0.0000 -2.7038 0.0000
# 2 30.2341 32.9625 27.6444 0.0000 -2.1225 -0.0001
# 3 63.1364 27.6444 132.7903 0.0000 3.5535 0.0000
# 4 0.0000 0.0000 0.0000 18.6593 0.0000 -1.3596
# 5 -2.7038 -2.1225 3.5535 0.0000 20.4074 0.0000
# 6 0.0000 -0.0001 0.0000 -1.3596 0.0000 17.3645
#
#
#
# Elastic Compliance Matrix: (Units=1/GPa)
#
#
# Indices 1 2 3 4 5 6 
#
# 1 0.012347 -0.007588 -0.004334 0.000000 0.001601 0.000000
# 2 -0.007588 0.041970 -0.005244 0.000000 0.004273 0.000000
# 3 -0.004334 -0.005244 0.010763 0.000000 -0.002994 0.000000
# 4 0.000000 0.000000 0.000000 0.053900 0.000000 0.004220
# 5 0.001601 0.004273 -0.002994 0.000000 0.050180 0.000000
# 6 0.000000 0.000000 0.000000 0.004220 0.000000 0.057919
#
#
# Mechanical properties :
#
#
# Convention : Reuss Voigt Hill
#
# Bulk Modulus (GPa) = 32.52092 58.87353 45.69722
# Shear Modulus (GPa) = 18.40528 22.40737 20.40633
#
# Velocity S-wave (km/s) = 3.32394 3.66756 3.49997
# Velocity P-wave (km/s) = 5.85265 7.29905 6.61550
#
# Compressibility (1/GPa) = 0.03074944
#
# Stress axis : x y z
#
# Youngs Moduli (GPa) = 80.98848 23.82639 92.90952
#
# Poissons Ratio (x) = 0.18078 0.40267
# Poissons Ratio (y) = 0.61450 0.48724
# Poissons Ratio (z) = 0.35100 0.12495
#
# Static dielectric constant tensor:
#      x y z
#    x 3.125370 0.000000 0.199940 
#    y 0.000000 3.030610 0.000000 
#    z 0.199940 0.000000 3.332710 
# 
# 
# High freq. dielectric constant tensor:
#      x y z
#    x 1.619580 0.000000 0.020460 
#    y 0.000000 1.628190 0.000000 
#    z 0.020460 0.000000 1.645370 
# 
# From -- ./inp_files/276054.got.cif
#   From: 2010.06.25/outbox.cif.g09.slc.cpg/sg12_139_cif.got.tgz:276054.got - 2010.06.28 00:19:55.
