data_PCOD8116626
_publ_section_title
;
Structure prediction by ZEFSAII (Michael W. Deem and Ramdas Pophale) SiO2 
 PCOD8116626
Probable space group: C 2/M
;
_chemical_formula_sum "Si O2"
_cell_formula_units_Z 28
_cell_length_a 21.000000
_cell_length_b 18.000000
_cell_length_c 21.000000
_cell_angle_alpha 90.000000
_cell_angle_beta 20.000000
_cell_angle_gamma 90.000000
_cell_volume 2714.955898
_symmetry_space_group_name_H-M "C 2/M"
_symmetry_group_IT_number 12
_symmetry_cell_setting 'monoclinic'
loop_
_space_group_symop_operation_xyz
x,y,z
-x,y,-z
-x,-y,-z
x,-y,z
1/2+x,1/2+y,z
1/2-x,1/2+y,-z
1/2-x,1/2-y,-z
1/2+x,1/2-y,z
loop_
_atom_site_type_symbol
_atom_site_label
_atom_site_fract_x
_atom_site_fract_y
_atom_site_fract_z
Si Si1 0.641007 0.338266 0.228796
Si Si2 0.633540 0.843335 0.430143
Si Si3 0.990445 0.084348 0.934250
Si Si4 0.156045 0.327638 0.187847
Si Si5 0.770944 0.915260 0.606784
Si Si6 0.703295 0.193444 0.782183
Si Si7 0.893361 0.583259 0.893873
O O1 0.668770 0.260538 0.166300
O O2 0.435193 0.371439 0.416935
O O3 0.671082 0.328286 0.275913
O O4 0.781630 0.394197 0.062385
O O5 0.500000 0.875714 0.500000
O O6 0.522607 0.842297 0.600370
O O7 0.709099 0.762888 0.337630
O O8 0.804215 0.897970 0.285020
O O9 0.935677 0.000000 0.967251
O O10 0.841594 0.141831 0.046769
O O11 0.000000 0.096182 0.000000
O O12 0.141663 0.363226 0.132296
O O13 0.699195 0.876490 0.738905
O O14 0.609882 0.914317 0.706082
O O15 0.829033 0.000000 0.569140
O O16 0.500000 0.214118 0.000000
O O17 0.831770 0.500000 0.932702
#
# Coordination Sequence:
#
# PCOD8116626 Si02
#       7
#     8   8   8   8   8   8   8
#     4  12  23  43  72 100 134 180 226 285 342 403
#     4  12  22  41  67 101 135 174 221 285 343 402
#     4  11  24  40  64  99 133 173 227 285 343 402
#     4  12  25  44  71  97 136 181 231 276 340 407
#     4  11  25  43  67 102 140 181 229 280 341 406
#     4  12  22  42  72 103 140 175 225 289 344 401
#     4  11  27  47  65  96 141 186 230 279 334 406
#
# _framework density 10.313243
#
# number of rings (size 3 to 8) (size 9 to 14) (size 15 to 20)
#    0.000    0.429    5.714    3.000    0.000    5.143 
#    0.000    1.429    0.000    0.000    0.000    0.000 
#    0.000    0.000    0.000    0.000    0.000    0.000 
#
# Total GULP energy -347306.762426 kJ/mol
# GULP energy per Si atom -12403.812944 kJ/mol
# Density = 1.028977 g / cm^3
# Si number density = 10.313243 Si / 1000 Ang^3
#
#
#
# Elastic Constant Matrix: (Units=GPa)
#
#
# Indices 1 2 3 4 5 6 
#
# 1 80.0062 49.7052 20.5377 0.0403 5.4398 0.1117
# 2 49.7052 125.2104 39.4728 0.1227 -5.0893 0.2182
# 3 20.5377 39.4728 129.4505 -0.2672 -8.5042 -0.2830
# 4 0.0403 0.1227 -0.2672 16.7270 0.0699 -39.0715
# 5 5.4398 -5.0893 -8.5042 0.0699 29.0247 0.0241
# 6 0.1117 0.2182 -0.2830 -39.0715 0.0241 -43.2223
#
#
#
# Elastic Compliance Matrix: (Units=1/GPa)
#
#
# Indices 1 2 3 4 5 6 
#
# 1 0.017253 -0.006727 -0.000995 0.000015 -0.004705 0.000001
# 2 -0.006727 0.011475 -0.002260 0.000006 0.002611 0.000052
# 3 -0.000995 -0.002260 0.008726 -0.000005 0.002347 -0.000066
# 4 0.000015 0.000006 -0.000005 0.019214 -0.000035 -0.017368
# 5 -0.004705 0.002611 0.002347 -0.000035 0.036481 0.000038
# 6 0.000001 0.000052 -0.000066 -0.017368 0.000038 -0.007435
#
#
# Mechanical properties :
#
#
# Convention : Reuss Voigt Hill
#
# Bulk Modulus (GPa) = 57.17364 61.56652 59.37008
# Shear Modulus (GPa) = 44.83943 15.50262 30.17103
#
# Velocity S-wave (km/s) = 4.66754 2.74449 3.82872
# Velocity P-wave (km/s) = 7.53835 6.32108 6.95639
#
# Compressibility (1/GPa) = 0.01749058
#
# Stress axis : x y z
#
# Youngs Moduli (GPa) = 57.95947 87.14259 114.59844
#
# Poissons Ratio (x) = 0.58618 0.11405
# Poissons Ratio (y) = 0.38987 0.25903
# Poissons Ratio (z) = 0.05768 0.19697
#
# Static dielectric constant tensor:
#      x y z
#    x 3.760570 0.000670 -0.147740 
#    y 0.000670 3.991760 0.000000 
#    z -0.147740 0.000000 4.025850 
# 
# 
# High freq. dielectric constant tensor:
#      x y z
#    x 1.798870 -0.000010 0.000850 
#    y -0.000010 1.820360 0.000040 
#    z 0.000850 0.000040 1.828860 
# 
# From -- ./inp_files/322671.got.cif
#   From: 2010.06.25/outbox.ucp.g09.slc.cvg/sg12_162_cif.got.tgz:322671.got - 2010.06.28 13:50:54.
