data_PCOD8116955
_publ_section_title
;
Structure prediction by ZEFSAII (Michael W. Deem and Ramdas Pophale) SiO2 
 PCOD8116955
Probable space group: P 2/C
;
_chemical_formula_sum "Si O2"
_cell_formula_units_Z 32
_cell_length_a 8.727980
_cell_length_b 15.809887
_cell_length_c 25.151812
_cell_angle_alpha 90.000000
_cell_angle_beta 151.431275
_cell_angle_gamma 90.000000
_cell_volume 1659.712042
_symmetry_space_group_name_H-M "P 2/C"
_symmetry_group_IT_number 13
_symmetry_cell_setting 'monoclinic'
loop_
_space_group_symop_operation_xyz
x,y,z
-x,y,1/2-z
-x,-y,-z
x,-y,1/2+z
loop_
_atom_site_type_symbol
_atom_site_label
_atom_site_fract_x
_atom_site_fract_y
_atom_site_fract_z
Si Si1 0.845983 0.636801 0.335576
Si Si2 0.082025 0.322509 0.431102
Si Si3 0.212492 0.751113 0.366593
Si Si4 0.785106 0.154053 0.303369
Si Si5 0.725238 0.541953 0.768115
Si Si6 0.549944 0.901300 0.513308
Si Si7 0.349833 0.201252 0.349408
Si Si8 0.241552 0.358207 0.056748
O O1 0.500000 0.670136 0.250000
O O2 0.818014 0.555967 0.287437
O O3 0.026413 0.711379 0.359861
O O4 0.035816 0.603983 0.445644
O O5 0.449803 0.295421 0.538925
O O6 0.834358 0.252433 0.333641
O O7 0.037903 0.401875 0.377475
O O8 0.993817 0.342953 0.465149
O O9 0.275554 0.850757 0.397231
O O10 0.000000 0.741573 0.250000
O O11 0.500000 0.112540 0.250000
O O12 0.674351 0.141461 0.209135
O O13 0.114543 0.106291 0.415549
O O14 0.500000 0.550720 0.750000
O O15 0.530560 0.576908 0.657804
O O16 0.564534 0.858583 0.575452
O O17 0.500000 0.000000 0.500000
O O18 0.621441 0.270148 0.423196
O O19 0.000000 0.245240 0.250000
#
# Coordination Sequence:
#
# PCOD8116955 Si02
#       8
#     4   4   4   4   4   4   4   4
#     4  11  24  39  56  85 122 167 209 246 295 365
#     4  10  19  35  60  88 117 156 202 253 300 346
#     4  11  24  40  59  81 120 163 198 238 316 378
#     4  10  17  34  64  92 115 146 194 253 302 348
#     4   9  20  35  58  89 121 157 206 256 297 335
#     4  10  23  41  61  88 121 153 196 250 306 370
#     4  10  19  34  63  91 113 149 196 247 298 353
#     4  11  19  36  63  85 117 156 208 251 294 354
#
# _framework density 19.280453000000001
#
# number of rings (size 3 to 8) (size 9 to 14) (size 15 to 20)
#    0.000    1.750    3.750    1.125    0.000    7.500 
#    0.000    1.875    0.000    0.000    0.000    0.000 
#    0.000    0.000    0.000    0.000    0.000    0.000 
#
# Total GULP energy -396693.810116 kJ/mol
# GULP energy per Si atom -12396.681566 kJ/mol
# Density = 1.923657 g / cm^3
# Si number density = 19.280453 Si / 1000 Ang^3
#
#
#
# Elastic Constant Matrix: (Units=GPa)
#
#
# Indices 1 2 3 4 5 6 
#
# 1 98.6741 33.3601 44.6886 0.0000 11.0625 0.0000
# 2 33.3601 103.3644 33.7244 0.0000 17.3698 0.0000
# 3 44.6886 33.7244 118.2135 0.0000 0.2636 0.0000
# 4 0.0000 0.0000 0.0000 17.8805 0.0000 -1.9612
# 5 11.0625 17.3698 0.2636 0.0000 33.0447 0.0000
# 6 0.0000 0.0000 0.0000 -1.9612 0.0000 17.6752
#
#
#
# Elastic Compliance Matrix: (Units=1/GPa)
#
#
# Indices 1 2 3 4 5 6 
#
# 1 0.013240 -0.002325 -0.004335 0.000000 -0.003176 0.000000
# 2 -0.002325 0.012216 -0.002593 0.000000 -0.005622 0.000000
# 3 -0.004335 -0.002593 0.010832 0.000000 0.002728 0.000000
# 4 0.000000 0.000000 0.000000 0.056616 0.000000 0.006282
# 5 -0.003176 -0.005622 0.002728 0.000000 0.034259 0.000000
# 6 0.000000 0.000000 0.000000 0.006282 0.000000 0.057274
#
#
# Mechanical properties :
#
#
# Convention : Reuss Voigt Hill
#
# Bulk Modulus (GPa) = 56.24064 60.42203 58.33134
# Shear Modulus (GPa) = 23.93852 27.61867 25.77859
#
# Velocity S-wave (km/s) = 3.52745 3.78890 3.66051
# Velocity P-wave (km/s) = 6.76932 7.10968 6.94159
#
# Compressibility (1/GPa) = 0.01778074
#
# Stress axis : x y z
#
# Youngs Moduli (GPa) = 75.53115 81.86074 92.32167
#
# Poissons Ratio (x) = 0.19034 0.40018
# Poissons Ratio (y) = 0.17562 0.23944
# Poissons Ratio (z) = 0.32740 0.21230
#
# Static dielectric constant tensor:
#      x y z
#    x 3.605970 0.000000 0.010530 
#    y 0.000000 3.363380 0.000000 
#    z 0.010530 0.000000 3.728800 
# 
# 
# High freq. dielectric constant tensor:
#      x y z
#    x 1.749280 0.000000 -0.000420 
#    y 0.000000 1.721460 0.000000 
#    z -0.000420 0.000000 1.762500 
# 
# From -- ./inp_files/85351.got.cif
#   From: 2010.06.25/outbox.cif.g09.slc.cpg/sg13_43_cif.got.tgz:85351.got - 2010.06.28 04:50:58.
