data_PCOD8116508
_publ_section_title
;
Structure prediction by ZEFSAII (Michael W. Deem and Ramdas Pophale) SiO2 
 PCOD8116508
Probable space group: C 2/M
;
_chemical_formula_sum "Si O2"
_cell_formula_units_Z 32
_cell_length_a 18.000000
_cell_length_b 9.000000
_cell_length_c 30.000000
_cell_angle_alpha 90.000000
_cell_angle_beta 40.000000
_cell_angle_gamma 90.000000
_cell_volume 3123.947783
_symmetry_space_group_name_H-M "C 2/M"
_symmetry_group_IT_number 12
_symmetry_cell_setting 'monoclinic'
loop_
_space_group_symop_operation_xyz
x,y,z
-x,y,-z
-x,-y,-z
x,-y,z
1/2+x,1/2+y,z
1/2-x,1/2+y,-z
1/2-x,1/2-y,-z
1/2+x,1/2-y,z
loop_
_atom_site_type_symbol
_atom_site_label
_atom_site_fract_x
_atom_site_fract_y
_atom_site_fract_z
Si Si1 0.552900 0.334175 0.786370
Si Si2 0.705941 0.822767 0.565455
Si Si3 0.490304 0.331572 0.294053
Si Si4 0.207968 0.675884 0.212743
Si Si5 0.043633 0.176621 0.932810
Si Si6 0.626703 0.323632 0.432612
Si Si7 0.869300 0.829141 0.938459
Si Si8 0.728693 0.674021 0.293030
O O1 0.587359 0.500000 0.788461
O O2 0.571186 0.330739 0.725313
O O3 0.423450 0.300920 0.864233
O O4 0.635477 0.210166 0.769109
O O5 0.750000 0.750000 0.500000
O O6 0.581120 0.757685 0.635711
O O7 0.791557 0.770132 0.565140
O O8 0.699150 0.000000 0.563482
O O9 0.509879 0.500000 0.302057
O O10 0.608722 0.246626 0.228068
O O11 0.201537 0.500000 0.215324
O O12 0.328908 0.736204 0.137905
O O13 0.174786 0.737339 0.276827
O O14 0.958436 0.234692 0.933829
O O15 0.047092 0.000000 0.933105
O O16 0.000000 0.242271 0.000000
O O17 0.500000 0.257741 0.500000
O O18 0.624806 0.500000 0.431982
O O19 0.670373 0.263792 0.364967
O O20 0.844828 0.000000 0.958857
O O21 0.750000 0.750000 0.000000
O O22 0.708459 0.500000 0.295995
#
# Coordination Sequence:
#
# PCOD8116508 Si02
#       8
#     8   8   8   8   8   8   8   8
#     4  10  21  40  62  84 120 160 200 254 309 354
#     4  11  23  41  63  90 125 163 202 246 302 361
#     4  11  24  41  62  88 121 161 205 254 306 359
#     4  11  23  40  62  88 122 159 201 252 307 364
#     4   9  19  37  59  83 116 158 199 242 297 362
#     4   9  20  38  60  87 119 156 196 242 293 349
#     4  10  21  38  59  86 119 155 197 247 304 361
#     4  11  21  37  64  91 118 154 203 251 299 359
#
# _framework density 10.243449
#
# number of rings (size 3 to 8) (size 9 to 14) (size 15 to 20)
#    0.000    1.750    2.500    1.500    3.500    1.000 
#    0.000    0.000    0.000    4.875    0.000    0.000 
#    0.000    0.000    0.000    0.000    0.000    0.000 
#
# Total GULP energy -396725.704814 kJ/mol
# GULP energy per Si atom -12397.678275 kJ/mol
# Density = 1.022013 g / cm^3
# Si number density = 10.243449 Si / 1000 Ang^3
#
#
#
# Elastic Constant Matrix: (Units=GPa)
#
#
# Indices 1 2 3 4 5 6 
#
# 1 58.5107 27.5401 39.7015 0.0008 -3.0846 0.0008
# 2 27.5401 70.9695 37.9460 0.0020 -2.6096 0.0001
# 3 39.7015 37.9460 142.4146 -0.0003 1.1096 -0.0007
# 4 0.0008 0.0020 -0.0003 31.9427 0.0003 -1.3902
# 5 -3.0846 -2.6096 1.1096 0.0003 42.1132 0.0011
# 6 0.0008 0.0001 -0.0007 -1.3902 0.0011 25.1173
#
#
#
# Elastic Compliance Matrix: (Units=1/GPa)
#
#
# Indices 1 2 3 4 5 6 
#
# 1 0.023498 -0.006480 -0.004835 0.000000 0.001447 -0.000001
# 2 -0.006480 0.018273 -0.003068 -0.000001 0.000738 0.000000
# 3 -0.004835 -0.003068 0.009193 0.000000 -0.000787 0.000000
# 4 0.000000 -0.000001 0.000000 0.031382 0.000000 0.001737
# 5 0.001447 0.000738 -0.000787 0.000000 0.023918 -0.000001
# 6 -0.000001 0.000000 0.000000 0.001737 -0.000001 0.039909
#
#
# Mechanical properties :
#
#
# Convention : Reuss Voigt Hill
#
# Bulk Modulus (GPa) = 45.05022 53.58553 49.31788
# Shear Modulus (GPa) = 27.42142 30.94844 29.18493
#
# Velocity S-wave (km/s) = 3.66250 3.89092 3.77844
# Velocity P-wave (km/s) = 6.31844 6.81164 6.56967
#
# Compressibility (1/GPa) = 0.02219745
#
# Stress axis : x y z
#
# Youngs Moduli (GPa) = 42.55643 54.72637 108.77450
#
# Poissons Ratio (x) = 0.35463 0.52597
# Poissons Ratio (y) = 0.27577 0.33372
# Poissons Ratio (z) = 0.20578 0.16790
#
# Static dielectric constant tensor:
#      x y z
#    x 3.706470 0.000000 0.092790 
#    y 0.000000 3.487130 0.000000 
#    z 0.092790 0.000000 3.927280 
# 
# 
# High freq. dielectric constant tensor:
#      x y z
#    x 1.792020 0.000000 0.006340 
#    y 0.000000 1.774830 0.000000 
#    z 0.006340 0.000000 1.816130 
# 
# From -- ./inp_files/377993.got.cif
#   From: 2010.06.25/outbox.ucp.g09.slc.cvg/sg12_189_cif.got.tgz:377993.got - 2010.06.28 13:50:54.
