data_PCOD8116620
_publ_section_title
;
Structure prediction by ZEFSAII (Michael W. Deem and Ramdas Pophale) SiO2 
 PCOD8116620
Probable space group: C 2/M
;
_chemical_formula_sum "Si O2"
_cell_formula_units_Z 24
_cell_length_a 21.000000
_cell_length_b 18.000000
_cell_length_c 18.000000
_cell_angle_alpha 90.000000
_cell_angle_beta 160.000000
_cell_angle_gamma 90.000000
_cell_volume 2327.105055
_symmetry_space_group_name_H-M "C 2/M"
_symmetry_group_IT_number 12
_symmetry_cell_setting 'monoclinic'
loop_
_space_group_symop_operation_xyz
x,y,z
-x,y,-z
-x,-y,-z
x,-y,z
1/2+x,1/2+y,z
1/2-x,1/2+y,-z
1/2-x,1/2-y,-z
1/2+x,1/2-y,z
loop_
_atom_site_type_symbol
_atom_site_label
_atom_site_fract_x
_atom_site_fract_y
_atom_site_fract_z
Si Si1 0.203363 0.329963 0.188941
Si Si2 0.925277 0.910703 0.818089
Si Si3 0.334727 0.087975 0.005521
Si Si4 0.217709 0.657666 0.729462
Si Si5 0.590515 0.587742 0.460824
Si Si6 0.707977 0.838820 0.449174
O O1 0.170278 0.381758 0.082506
O O2 0.272921 0.246301 0.248140
O O3 0.365391 0.372394 0.412579
O O4 0.000000 0.322248 0.000000
O O5 0.794139 0.868423 0.733430
O O6 0.841241 0.885912 0.648398
O O7 0.917104 0.000000 0.819705
O O8 0.141654 0.883531 0.058482
O O9 0.121987 0.099747 0.801453
O O10 0.387437 0.000000 0.065989
O O11 0.488787 0.137414 0.220577
O O12 0.000000 0.632672 0.500000
O O13 0.636106 0.500000 0.515702
O O14 0.736855 0.631123 0.570396
O O15 0.750000 0.750000 0.500000
#
# Coordination Sequence:
#
# PCOD8116620 Si02
#       6
#     8   8   8   8   8   8
#     4  12  21  38  66  94 127 166 205 253 307 362
#     4  11  24  42  63  93 125 158 209 261 309 366
#     4  11  24  41  63  94 128 164 207 253 306 369
#     4  11  23  42  66  92 123 161 207 257 313 368
#     4  11  24  41  63  94 128 164 207 253 306 369
#     4  12  25  42  65  90 126 168 208 254 313 370
#
# _framework density 10.313243
#
# number of rings (size 3 to 8) (size 9 to 14) (size 15 to 20)
#    0.000    0.667    3.333    6.500    0.000    5.333 
#    0.000    0.000    0.000    0.000    0.000    0.000 
#    0.000    0.000    0.000    0.000    0.000    0.000 
#
# Total GULP energy -297412.364910 kJ/mol
# GULP energy per Si atom -12392.181871 kJ/mol
# Density = 1.028977 g / cm^3
# Si number density = 10.313243 Si / 1000 Ang^3
#
#
#
# Elastic Constant Matrix: (Units=GPa)
#
#
# Indices 1 2 3 4 5 6 
#
# 1 35.3466 11.2794 19.1175 -0.0011 0.6241 -0.0004
# 2 11.2794 178.1843 49.8472 -0.0019 -2.5800 -0.0016
# 3 19.1175 49.8472 178.7967 -0.0128 8.1697 -0.0077
# 4 -0.0011 -0.0019 -0.0128 50.7382 -0.0082 -1.8914
# 5 0.6241 -2.5800 8.1697 -0.0082 43.8775 -0.0033
# 6 -0.0004 -0.0016 -0.0077 -1.8914 -0.0033 34.0614
#
#
#
# Elastic Compliance Matrix: (Units=1/GPa)
#
#
# Indices 1 2 3 4 5 6 
#
# 1 0.030223 -0.001093 -0.002929 0.000000 0.000051 0.000000
# 2 -0.001093 0.006147 -0.001628 0.000000 0.000680 0.000000
# 3 -0.002929 -0.001628 0.006417 0.000001 -0.001249 0.000001
# 4 0.000000 0.000000 0.000001 0.019750 0.000004 0.001097
# 5 0.000051 0.000680 -0.001249 0.000004 0.023062 0.000002
# 6 0.000000 0.000000 0.000001 0.001097 0.000002 0.029420
#
#
# Mechanical properties :
#
#
# Convention : Reuss Voigt Hill
#
# Bulk Modulus (GPa) = 31.75916 61.42398 46.59157
# Shear Modulus (GPa) = 36.54574 46.54100 41.54337
#
# Velocity S-wave (km/s) = 4.21383 4.75528 4.49272
# Velocity P-wave (km/s) = 6.25346 7.74558 7.03917
#
# Compressibility (1/GPa) = 0.03148698
#
# Stress axis : x y z
#
# Youngs Moduli (GPa) = 33.08689 162.69181 155.83526
#
# Poissons Ratio (x) = 0.17783 0.45647
# Poissons Ratio (y) = 0.03616 0.25367
# Poissons Ratio (z) = 0.09692 0.26483
#
# Static dielectric constant tensor:
#      x y z
#    x 3.621820 -0.000010 0.150070 
#    y -0.000010 4.181200 -0.000010 
#    z 0.150070 -0.000010 4.509340 
# 
# 
# High freq. dielectric constant tensor:
#      x y z
#    x 1.789190 0.000000 0.006240 
#    y 0.000000 1.842790 0.000000 
#    z 0.006240 0.000000 1.853050 
# 
# From -- ./inp_files/285343.got.cif
#   From: 2010.06.25/outbox.ucp.g09.slc.cvg/sg12_143_cif.got.tgz:285343.got - 2010.06.28 13:50:54.
