data_PCOD8116559
_publ_section_title
;
Structure prediction by ZEFSAII (Michael W. Deem and Ramdas Pophale) SiO2 
 PCOD8116559
Probable space group: C 2/M
;
_chemical_formula_sum "Si O2"
_cell_formula_units_Z 32
_cell_length_a 27.000000
_cell_length_b 18.000000
_cell_length_c 21.000000
_cell_angle_alpha 90.000000
_cell_angle_beta 20.000000
_cell_angle_gamma 90.000000
_cell_volume 3490.657583
_symmetry_space_group_name_H-M "C 2/M"
_symmetry_group_IT_number 12
_symmetry_cell_setting 'monoclinic'
loop_
_space_group_symop_operation_xyz
x,y,z
-x,y,-z
-x,-y,-z
x,-y,z
1/2+x,1/2+y,z
1/2-x,1/2+y,-z
1/2-x,1/2-y,-z
1/2+x,1/2-y,z
loop_
_atom_site_type_symbol
_atom_site_label
_atom_site_fract_x
_atom_site_fract_y
_atom_site_fract_z
Si Si1 0.945620 0.584051 0.137080
Si Si2 0.363829 0.584582 0.813695
Si Si3 0.407748 0.723635 0.332698
Si Si4 0.652614 0.336647 0.464765
Si Si5 0.171281 0.420091 0.301774
Si Si6 0.358656 0.827179 0.004171
Si Si7 0.098181 0.915545 0.086657
Si Si8 0.838577 0.260497 0.667325
O O1 0.920661 0.500000 0.189132
O O2 0.791982 0.624800 0.327851
O O3 0.069029 0.617616 0.032765
O O4 0.000000 0.589383 0.000000
O O5 0.338245 0.500000 0.825444
O O6 0.528844 0.604635 0.594822
O O7 0.340317 0.598785 0.916960
O O8 0.248660 0.631300 0.913488
O O9 0.250000 0.750000 0.500000
O O10 0.408251 0.718516 0.408310
O O11 0.516115 0.790061 0.187831
O O12 0.468867 0.644862 0.228784
O O13 0.694731 0.290609 0.352147
O O14 0.221473 0.500000 0.271979
O O15 0.198097 0.345547 0.310513
O O16 0.000000 0.425580 0.500000
O O17 0.261260 0.407473 0.127995
O O18 0.270966 0.762424 0.145110
O O19 0.033720 0.000000 0.159207
O O20 0.000000 0.252816 0.500000
#
# Coordination Sequence:
#
# PCOD8116559 Si02
#       8
#     8   8   8   8   8   8   8   8
#     4  11  23  38  58  84 118 159 199 234 283 351
#     4  10  22  38  58  87 121 152 191 242 296 345
#     4  11  23  39  59  85 115 154 202 242 286 348
#     4  11  22  39  60  85 118 159 195 238 290 347
#     4   9  18  33  57  85 116 150 187 234 294 357
#     4  12  22  38  59  86 118 152 193 247 295 336
#     4   9  19  37  60  86 117 154 193 239 298 356
#     4  11  21  36  58  90 120 149 192 242 296 345
#
# _framework density 9.1673270000000002
#
# number of rings (size 3 to 8) (size 9 to 14) (size 15 to 20)
#    0.000    1.500    5.000    0.750    0.000    4.500 
#    0.000    0.625    0.000    1.500    0.000    2.625 
#    0.000    0.000    0.000    0.000    0.000    0.000 
#
# Total GULP energy -396567.194194 kJ/mol
# GULP energy per Si atom -12392.724819 kJ/mol
# Density = 0.914646 g / cm^3
# Si number density = 9.167327 Si / 1000 Ang^3
#
#
#
# Elastic Constant Matrix: (Units=GPa)
#
#
# Indices 1 2 3 4 5 6 
#
# 1 52.3414 31.1343 27.5365 -0.0005 -14.3453 -0.0002
# 2 31.1343 116.1465 39.8258 -0.0046 -8.5241 0.0010
# 3 27.5365 39.8258 112.0336 -0.0045 -9.7229 -0.0021
# 4 -0.0005 -0.0046 -0.0045 25.4861 -0.0013 7.8743
# 5 -14.3453 -8.5241 -9.7229 -0.0013 31.0988 0.0032
# 6 -0.0002 0.0010 -0.0021 7.8743 0.0032 -2.7641
#
#
#
# Elastic Compliance Matrix: (Units=1/GPa)
#
#
# Indices 1 2 3 4 5 6 
#
# 1 0.026918 -0.005148 -0.003938 -0.000002 0.009775 0.000005
# 2 -0.005148 0.010872 -0.002618 0.000000 -0.000213 0.000005
# 3 -0.003938 -0.002618 0.010900 0.000002 0.000874 -0.000002
# 4 -0.000002 0.000000 0.000002 0.020869 -0.000006 0.059451
# 5 0.009775 -0.000213 0.000874 -0.000006 0.036879 0.000026
# 6 0.000005 0.000005 -0.000002 0.059451 0.000026 -0.192419
#
#
# Mechanical properties :
#
#
# Convention : Reuss Voigt Hill
#
# Bulk Modulus (GPa) = 39.55284 53.05720 46.30502
# Shear Modulus (GPa) = -92.34471 22.89914 -34.72279
#
# Velocity S-wave (km/s) = -7.10461 3.53789 -4.35654
# Velocity P-wave (km/s) = 6.75879 6.75943 0.06601
#
# Compressibility (1/GPa) = 0.02528264
#
# Stress axis : x y z
#
# Youngs Moduli (GPa) = 37.14951 91.98085 91.74131
#
# Poissons Ratio (x) = 0.47353 0.36126
# Poissons Ratio (y) = 0.19125 0.24017
# Poissons Ratio (z) = 0.14629 0.24080
#
# Static dielectric constant tensor:
#      x y z
#    x 3.150370 -0.000010 0.036420 
#    y -0.000010 3.827680 0.000010 
#    z 0.036420 0.000010 3.607760 
# 
# 
# High freq. dielectric constant tensor:
#      x y z
#    x 1.682730 0.000000 0.005200 
#    y 0.000000 1.731180 0.000000 
#    z 0.005200 0.000000 1.732370 
# 
# From -- ./inp_files/328602.got.cif
#   From: 2010.06.25/outbox.ucp.g09.slc.cvg/sg12_165_cif.got.tgz:328602.got - 2010.06.28 13:50:54.
