data_PCOD8116770
_publ_section_title
;
Structure prediction by ZEFSAII (Michael W. Deem and Ramdas Pophale) SiO2 
 PCOD8116770
Probable space group: P 2/C
;
_chemical_formula_sum "Si O2"
_cell_formula_units_Z 28
_cell_length_a 20.403412
_cell_length_b 13.731703
_cell_length_c 5.314626
_cell_angle_alpha 90.000000
_cell_angle_beta 73.043122
_cell_angle_gamma 90.000000
_cell_volume 1424.282115
_symmetry_space_group_name_H-M "P 2/C"
_symmetry_group_IT_number 13
_symmetry_cell_setting 'monoclinic'
loop_
_space_group_symop_operation_xyz
x,y,z
-x,y,1/2-z
-x,-y,-z
x,-y,1/2+z
loop_
_atom_site_type_symbol
_atom_site_label
_atom_site_fract_x
_atom_site_fract_y
_atom_site_fract_z
Si Si1 0.375470 0.745994 0.104097
Si Si2 0.263038 0.957606 0.658262
Si Si3 0.424050 0.540604 0.064006
Si Si4 0.417228 0.961614 0.987944
Si Si5 0.814045 0.563102 0.706907
Si Si6 0.288681 0.740901 0.700280
Si Si7 0.029133 0.608663 0.967378
O O1 0.428307 0.656509 0.025229
O O2 0.343099 0.736852 0.415288
O O3 0.416098 0.846590 0.037055
O O4 0.321262 0.735946 0.940627
O O5 0.250910 0.844133 0.720707
O O6 0.227843 0.985461 0.431350
O O7 0.342399 0.989339 0.533581
O O8 0.385376 0.507911 0.365556
O O9 0.500000 0.500000 0.000000
O O10 0.454935 0.982885 0.678030
O O11 0.801351 0.501786 0.468180
O O12 0.763637 0.653690 0.772111
O O13 0.889431 0.608148 0.623973
O O14 0.000000 0.662606 0.750000
O O15 0.000000 0.662618 0.250000
O O16 0.000000 0.500000 0.000000
#
# Coordination Sequence:
#
# PCOD8116770 Si02
#       7
#     4   4   4   4   4   4   4
#     4  12  21  35  57  81 106 149 175 208 270 329
#     4  10  16  32  51  70 107 142 173 208 255 321
#     4  10  23  42  60  78 102 142 192 224 244 300
#     4  10  16  30  53  77 105 131 175 212 257 318
#     4  12  23  35  47  75 113 149 175 226 261 311
#     4  12  23  32  51  83 117 144 172 212 274 336
#     4  10  16  32  56  66  86 141 196 219 262 296
#
# _framework density 19.659026999999998
#
# number of rings (size 3 to 8) (size 9 to 14) (size 15 to 20)
#    0.000    1.143    8.571    1.714    0.000    3.429 
#    0.000    0.000    0.000    0.000    0.000   12.000 
#    0.000    3.429    0.000    0.000    0.000    0.000 
#
# Total GULP energy -347051.699850 kJ/mol
# GULP energy per Si atom -12394.703566 kJ/mol
# Density = 1.961428 g / cm^3
# Si number density = 19.659027 Si / 1000 Ang^3
#
#
#
# Elastic Constant Matrix: (Units=GPa)
#
#
# Indices 1 2 3 4 5 6 
#
# 1 24.8065 25.7604 18.3680 0.0000 2.2053 0.0000
# 2 25.7604 143.9766 46.4107 0.0000 -2.0979 0.0000
# 3 18.3680 46.4107 155.1144 0.0000 32.1718 0.0000
# 4 0.0000 0.0000 0.0000 22.8727 0.0000 6.8103
# 5 2.2053 -2.0979 32.1718 0.0000 25.4020 0.0000
# 6 0.0000 0.0000 0.0000 6.8103 0.0000 3.7731
#
#
#
# Elastic Compliance Matrix: (Units=1/GPa)
#
#
# Indices 1 2 3 4 5 6 
#
# 1 0.051356 -0.008058 -0.003537 0.000000 -0.000645 0.000000
# 2 -0.008058 0.009411 -0.002940 0.000000 0.005201 0.000000
# 3 -0.003537 -0.002940 0.010487 0.000000 -0.013217 0.000000
# 4 0.000000 0.000000 0.000000 0.094515 0.000000 -0.170597
# 5 -0.000645 0.005201 -0.013217 0.000000 0.056592 0.000000
# 6 0.000000 0.000000 0.000000 -0.170597 0.000000 0.572954
#
#
# Mechanical properties :
#
#
# Convention : Reuss Voigt Hill
#
# Bulk Modulus (GPa) = 23.70575 56.10840 39.90707
# Shear Modulus (GPa) = 5.96341 25.96677 15.96509
#
# Velocity S-wave (km/s) = 1.74356 3.63830 2.85283
# Velocity P-wave (km/s) = 4.01721 6.80091 5.58527
#
# Compressibility (1/GPa) = 0.04218386
#
# Stress axis : x y z
#
# Youngs Moduli (GPa) = 19.47193 106.26012 95.35872
#
# Poissons Ratio (x) = 0.85625 0.33725
# Poissons Ratio (y) = 0.15691 0.28037
# Poissons Ratio (z) = 0.06887 0.31243
#
# Static dielectric constant tensor:
#      x y z
#    x 2.538410 0.000000 -1.197290 
#    y 0.000000 3.592620 0.000000 
#    z -1.197290 0.000000 0.770400 
# 
# 
# High freq. dielectric constant tensor:
#      x y z
#    x 1.723480 0.000000 0.032870 
#    y 0.000000 1.750080 0.000000 
#    z 0.032870 0.000000 1.807910 
# 
# From -- ./inp_files/6901.got.cif
#   From: 2010.06.25/outbox.cif.g09.slc.cpg/sg13_4_cif.got.tgz:6901.got - 2010.06.28 04:50:58.
