data_PCOD8116607
_publ_section_title
;
Structure prediction by ZEFSAII (Michael W. Deem and Ramdas Pophale) SiO2 
 PCOD8116607
Probable space group: C 2/M
;
_chemical_formula_sum "Si O2"
_cell_formula_units_Z 28
_cell_length_a 30.000000
_cell_length_b 9.000000
_cell_length_c 21.000000
_cell_angle_alpha 90.000000
_cell_angle_beta 30.000000
_cell_angle_gamma 90.000000
_cell_volume 2835.000000
_symmetry_space_group_name_H-M "C 2/M"
_symmetry_group_IT_number 12
_symmetry_cell_setting 'monoclinic'
loop_
_space_group_symop_operation_xyz
x,y,z
-x,y,-z
-x,-y,-z
x,-y,z
1/2+x,1/2+y,z
1/2-x,1/2+y,-z
1/2-x,1/2-y,-z
1/2+x,1/2-y,z
loop_
_atom_site_type_symbol
_atom_site_label
_atom_site_fract_x
_atom_site_fract_y
_atom_site_fract_z
Si Si1 0.699079 0.675540 0.219413
Si Si2 0.108688 0.177315 0.558680
Si Si3 0.061001 0.170939 0.753950
Si Si4 0.912527 0.824420 0.140546
Si Si5 0.272613 0.173906 0.686179
Si Si6 0.862057 0.828532 0.958314
Si Si7 0.082704 0.175419 0.247449
O O1 0.690503 0.500000 0.237507
O O2 0.682358 0.747299 0.308980
O O3 0.627788 0.739475 0.256003
O O4 0.796436 0.719395 0.075766
O O5 0.106317 0.238711 0.634335
O O6 0.187907 0.263539 0.427711
O O7 0.019451 0.225812 0.631130
O O8 0.121071 0.000000 0.540460
O O9 0.096355 0.243763 0.776457
O O10 0.955144 0.189925 0.879124
O O11 0.087147 0.000000 0.721084
O O12 0.831661 0.787882 0.192948
O O13 0.924239 0.000000 0.134345
O O14 0.000000 0.754527 0.000000
O O15 0.289922 0.000000 0.671206
O O16 0.866134 0.773475 0.879931
O O17 0.829874 0.000000 0.002826
O O18 0.088104 0.000000 0.242570
#
# Coordination Sequence:
#
# PCOD8116607 Si02
#       7
#     8   8   8   8   8   8   8
#     4  11  21  33  50  74 105 139 173 207 252 303
#     4   9  18  36  57  75  99 132 172 211 251 301
#     4   8  15  30  55  80 101 133 171 205 246 303
#     4   9  17  31  53  79 103 130 166 204 246 302
#     4  11  23  36  51  74 103 133 171 216 254 293
#     4   9  16  31  55  81 105 128 165 212 254 299
#     4   8  17  33  54  77 101 135 172 205 246 306
#
# _framework density 9.8765429999999999
#
# number of rings (size 3 to 8) (size 9 to 14) (size 15 to 20)
#    0.000    2.714    0.000    3.857    0.000    3.429 
#    0.000    7.857    0.000    8.571    0.000    0.000 
#    0.000    0.000    0.000    0.000    0.000    0.000 
#
# Total GULP energy -347000.794296 kJ/mol
# GULP energy per Si atom -12392.885511 kJ/mol
# Density = 0.985406 g / cm^3
# Si number density = 9.876543 Si / 1000 Ang^3
#
#
#
# Elastic Constant Matrix: (Units=GPa)
#
#
# Indices 1 2 3 4 5 6 
#
# 1 117.9773 22.5550 11.3478 0.0029 26.1760 -0.0017
# 2 22.5550 40.3167 17.0603 0.0004 2.7558 -0.0033
# 3 11.3478 17.0603 65.9225 0.0047 17.8780 -0.0105
# 4 0.0029 0.0004 0.0047 25.6291 -0.0031 3.6388
# 5 26.1760 2.7558 17.8780 -0.0031 20.3260 0.0019
# 6 -0.0017 -0.0033 -0.0105 3.6388 0.0019 19.8078
#
#
#
# Elastic Compliance Matrix: (Units=1/GPa)
#
#
# Indices 1 2 3 4 5 6 
#
# 1 0.014820 -0.009310 0.006162 -0.000006 -0.023243 0.000006
# 2 -0.009310 0.033879 -0.012044 0.000005 0.017989 -0.000004
# 3 0.006162 -0.012044 0.024866 -0.000011 -0.028174 0.000016
# 4 -0.000006 0.000005 -0.000011 0.040063 0.000024 -0.007360
# 5 -0.023243 0.017989 -0.028174 0.000024 0.101473 -0.000028
# 6 0.000006 -0.000004 0.000016 -0.007360 -0.000028 0.051837
#
#
# Mechanical properties :
#
#
# Convention : Reuss Voigt Hill
#
# Bulk Modulus (GPa) = 23.15793 36.23808 29.69801
# Shear Modulus (GPa) = 16.04027 24.70281 20.37154
#
# Velocity S-wave (km/s) = 2.85272 3.54019 3.21488
# Velocity P-wave (km/s) = 4.75393 5.92418 5.37102
#
# Compressibility (1/GPa) = 0.04318175
#
# Stress axis : x y z
#
# Youngs Moduli (GPa) = 67.47416 29.51714 40.21543
#
# Poissons Ratio (x) = 0.27480 -0.24780
# Poissons Ratio (y) = 0.62817 0.48434
# Poissons Ratio (z) = -0.41575 0.35549
#
# Static dielectric constant tensor:
#      x y z
#    x 4.171280 0.000000 0.160590 
#    y 0.000000 3.088500 0.000020 
#    z 0.160590 0.000020 3.460230 
# 
# 
# High freq. dielectric constant tensor:
#      x y z
#    x 1.792220 0.000000 0.011620 
#    y 0.000000 1.717700 0.000000 
#    z 0.011620 0.000000 1.759020 
# 
# From -- ./inp_files/329550.got.cif
#   From: 2010.06.25/outbox.ucp.g09.slc.cvg/sg12_165_cif.got.tgz:329550.got - 2010.06.28 13:50:54.
