data_PCOD8116671
_publ_section_title
;
Structure prediction by ZEFSAII (Michael W. Deem and Ramdas Pophale) SiO2 
 PCOD8116671
Probable space group: P 2/C
;
_chemical_formula_sum "Si O2"
_cell_formula_units_Z 28
_cell_length_a 14.699612
_cell_length_b 26.791277
_cell_length_c 5.331956
_cell_angle_alpha 90.000000
_cell_angle_beta 111.192134
_cell_angle_gamma 90.000000
_cell_volume 1957.833414
_symmetry_space_group_name_H-M "P 2/C"
_symmetry_group_IT_number 13
_symmetry_cell_setting 'monoclinic'
loop_
_space_group_symop_operation_xyz
x,y,z
-x,y,1/2-z
-x,-y,-z
x,-y,1/2+z
loop_
_atom_site_type_symbol
_atom_site_label
_atom_site_fract_x
_atom_site_fract_y
_atom_site_fract_z
Si Si1 0.115210 0.261270 0.114866
Si Si2 0.541144 0.944062 0.041010
Si Si3 0.062906 0.368069 0.062679
Si Si4 0.899555 0.779788 0.399850
Si Si5 0.889297 0.520823 0.889732
Si Si6 0.236974 0.032096 0.740013
Si Si7 0.058044 0.896193 0.057872
O O1 0.136096 0.320666 0.135789
O O2 0.160876 0.235380 0.409811
O O3 0.160885 0.235406 0.910896
O O4 0.998827 0.252116 0.998844
O O5 0.500000 0.916628 0.250000
O O6 0.657248 0.942886 0.157159
O O7 0.500000 0.916629 0.750000
O O8 0.500000 0.000000 0.000000
O O9 0.121511 0.419640 0.120855
O O10 0.000000 0.365686 0.250000
O O11 0.000000 0.365581 0.750000
O O12 0.924365 0.837572 0.424436
O O13 0.836324 0.500021 0.586898
O O14 0.000000 0.500000 0.000000
O O15 0.161329 0.076989 0.660227
O O16 0.221812 0.998927 0.478408
O O17 0.000000 0.912395 0.250000
O O18 0.000000 0.912353 0.750000
#
# Coordination Sequence:
#
# PCOD8116671 Si02
#       7
#     4   4   4   4   4   4   4
#     4  10  16  25  41  50  60  80 125 157 178 208
#     4  10  16  32  56  69  84 102 121 160 199 216
#     4  12  16  20  31  47  54  71 107 146 168 208
#     4  10  16  29  41  51  65  92 121 145 187 208
#     4  10  16  22  26  35  58  81  92 118 176 234
#     4  12  23  35  50  71  84 105 139 154 181 234
#     4  12  23  35  47  59  86 117 132 154 185 230
#
# _framework density 14.301523
#
# number of rings (size 3 to 8) (size 9 to 14) (size 15 to 20)
#    0.000    1.143   11.429    0.857    0.000    1.714 
#    0.000    0.000    0.000    0.000    0.000    0.000 
#    0.000    0.000    0.000    0.000    0.000    0.000 
#
# Total GULP energy -346969.641196 kJ/mol
# GULP energy per Si atom -12391.772900 kJ/mol
# Density = 1.426897 g / cm^3
# Si number density = 14.301523 Si / 1000 Ang^3
#
#
#
# Elastic Constant Matrix: (Units=GPa)
#
#
# Indices 1 2 3 4 5 6 
#
# 1 48.0489 30.0813 36.2510 0.0000 2.2964 0.0000
# 2 30.0813 52.7504 27.2678 0.0000 4.1848 0.0000
# 3 36.2510 27.2678 147.6666 0.0000 -33.5575 0.0000
# 4 0.0000 0.0000 0.0000 10.2115 0.0000 -3.3392
# 5 2.2964 4.1848 -33.5575 0.0000 16.0019 0.0000
# 6 0.0000 0.0000 0.0000 -3.3392 0.0000 1.1035
#
#
#
# Elastic Compliance Matrix: (Units=1/GPa)
#
#
# Indices 1 2 3 4 5 6 
#
# 1 0.043787 -0.012980 -0.017211 0.000000 -0.038983 0.000000
# 2 -0.012980 0.032544 -0.008279 0.000000 -0.024011 0.000000
# 3 -0.017211 -0.008279 0.025943 0.000000 0.059040 0.000000
# 4 0.000000 0.000000 0.000000 9.322070 0.000000 28.208381
# 5 -0.038983 -0.024011 0.059040 0.000000 0.198179 0.000000
# 6 0.000000 0.000000 0.000000 28.208381 0.000000 86.264154
#
#
# Mechanical properties :
#
#
# Convention : Reuss Voigt Hill
#
# Bulk Modulus (GPa) = 39.47608 48.40734 43.94171
# Shear Modulus (GPa) = 0.05210 15.78777 7.91994
#
# Velocity S-wave (km/s) = 0.19107 3.32614 2.35581
# Velocity P-wave (km/s) = 5.26415 6.97654 6.17994
#
# Compressibility (1/GPa) = 0.02533180
#
# Stress axis : x y z
#
# Youngs Moduli (GPa) = 22.83783 30.72772 38.54582
#
# Poissons Ratio (x) = 0.39886 0.66343
# Poissons Ratio (y) = 0.29644 0.31913
# Poissons Ratio (z) = 0.39307 0.25441
#
# Static dielectric constant tensor:
#      x y z
#    x 2.452290 0.000000 -0.598600 
#    y 0.000000 2.858730 0.000000 
#    z -0.598600 0.000000 3.625380 
# 
# 
# High freq. dielectric constant tensor:
#      x y z
#    x 1.466290 0.000000 -0.041650 
#    y 0.000000 1.538020 0.000000 
#    z -0.041650 0.000000 1.580070 
# 
# From -- ./inp_files/4294.got.cif
#   From: 2010.06.25/outbox.cif.g09.slc.cpg/sg13_3_cif.got.tgz:4294.got - 2010.06.28 04:50:58.
