data_PCOD8116188
_publ_section_title
;
Structure prediction by ZEFSAII (Michael W. Deem and Ramdas Pophale) SiO2 
 PCOD8116188
Probable space group: C 2/M
;
_chemical_formula_sum "Si O2"
_cell_formula_units_Z 28
_cell_length_a 18.000000
_cell_length_b 9.000000
_cell_length_c 27.000000
_cell_angle_alpha 90.000000
_cell_angle_beta 40.000000
_cell_angle_gamma 90.000000
_cell_volume 2811.553005
_symmetry_space_group_name_H-M "C 2/M"
_symmetry_group_IT_number 12
_symmetry_cell_setting 'monoclinic'
loop_
_space_group_symop_operation_xyz
x,y,z
-x,y,-z
-x,-y,-z
x,-y,z
1/2+x,1/2+y,z
1/2-x,1/2+y,-z
1/2-x,1/2-y,-z
1/2+x,1/2-y,z
loop_
_atom_site_type_symbol
_atom_site_label
_atom_site_fract_x
_atom_site_fract_y
_atom_site_fract_z
Si Si1 0.275791 0.667791 0.060133
Si Si2 0.367569 0.173086 0.424555
Si Si3 0.115798 0.330684 0.320298
Si Si4 0.837383 0.834779 0.802138
Si Si5 0.085364 0.164301 0.697732
Si Si6 0.175124 0.673237 0.739983
Si Si7 0.933875 0.330192 0.907174
O O1 0.299277 0.500000 0.064809
O O2 0.268703 0.773246 0.111606
O O3 0.154386 0.678937 0.093424
O O4 0.386635 0.722398 0.973422
O O5 0.250000 0.250000 0.500000
O O6 0.478769 0.186698 0.405052
O O7 0.409830 0.273345 0.358957
O O8 0.345780 0.000000 0.422727
O O9 0.153932 0.500000 0.306186
O O10 0.139346 0.281869 0.252543
O O11 0.199727 0.235509 0.311234
O O12 0.949752 0.844479 0.780426
O O13 0.806629 0.000000 0.797201
O O14 0.156418 0.279384 0.693562
O O15 0.141600 0.000000 0.672648
O O16 0.182211 0.500000 0.740435
O O17 0.063141 0.729372 0.828207
O O18 0.939968 0.500000 0.922990
#
# Coordination Sequence:
#
# PCOD8116188 Si02
#       7
#     8   8   8   8   8   8   8
#     4  10  18  30  50  76 106 141 185 234 279 323
#     4  10  21  39  63  88 115 144 178 221 267 320
#     4  10  22  38  57  82 113 146 180 222 273 326
#     4  10  19  33  54  79 107 143 187 231 274 325
#     4  10  20  34  57  85 112 145 185 224 267 323
#     4  11  21  36  56  81 114 148 184 227 275 326
#     4   9  19  32  48  74 108 144 182 228 279 325
#
# _framework density 9.9589090000000002
#
# number of rings (size 3 to 8) (size 9 to 14) (size 15 to 20)
#    0.000    2.000    1.429    2.571    0.000    4.571 
#    0.000    1.429    0.000    8.571    0.000    0.000 
#    0.000    0.000    0.000    0.000    0.000    0.000 
#
# Total GULP energy -346868.526147 kJ/mol
# GULP energy per Si atom -12388.161648 kJ/mol
# Density = 0.993624 g / cm^3
# Si number density = 9.958909 Si / 1000 Ang^3
#
#
#
# Elastic Constant Matrix: (Units=GPa)
#
#
# Indices 1 2 3 4 5 6 
#
# 1 42.0314 2.8251 1.3240 -0.0001 -12.0667 -0.0003
# 2 2.8251 63.0833 31.7886 -0.0003 -10.2391 -0.0011
# 3 1.3240 31.7886 38.8663 0.0000 -13.6829 0.0000
# 4 -0.0001 -0.0003 0.0000 31.8755 0.0000 -2.6296
# 5 -12.0667 -10.2391 -13.6829 0.0000 19.1692 -0.0001
# 6 -0.0003 -0.0011 0.0000 -2.6296 -0.0001 27.1731
#
#
#
# Elastic Compliance Matrix: (Units=1/GPa)
#
#
# Indices 1 2 3 4 5 6 
#
# 1 0.030827 -0.002092 0.009481 0.000000 0.025056 0.000000
# 2 -0.002092 0.027154 -0.023367 0.000000 -0.003492 0.000001
# 3 0.009481 -0.023367 0.056398 0.000000 0.033743 -0.000001
# 4 0.000000 0.000000 0.000000 0.031625 0.000000 0.003060
# 5 0.025056 -0.003492 0.033743 0.000000 0.090160 0.000000
# 6 0.000000 0.000001 -0.000001 0.003060 0.000000 0.037097
#
#
# Mechanical properties :
#
#
# Convention : Reuss Voigt Hill
#
# Bulk Modulus (GPa) = 12.13244 23.98406 18.05825
# Shear Modulus (GPa) = 15.02900 22.84642 18.93771
#
# Velocity S-wave (km/s) = 2.74989 3.39046 3.08684
# Velocity P-wave (km/s) = 4.02331 5.23399 4.66806
#
# Compressibility (1/GPa) = 0.08242366
#
# Stress axis : x y z
#
# Youngs Moduli (GPa) = 32.43926 36.82684 17.73123
#
# Poissons Ratio (x) = 0.07702 -0.16812
# Poissons Ratio (y) = 0.06785 0.41433
# Poissons Ratio (z) = -0.30757 0.86054
#
# Static dielectric constant tensor:
#      x y z
#    x 3.627680 0.000000 -0.540090 
#    y 0.000000 3.656520 0.000000 
#    z -0.540090 0.000000 3.660980 
# 
# 
# High freq. dielectric constant tensor:
#      x y z
#    x 1.743670 0.000000 -0.021250 
#    y 0.000000 1.789200 0.000000 
#    z -0.021250 0.000000 1.757080 
# 
# From -- ./inp_files/275023.got.cif
#   From: 2010.06.25/outbox.ucp.g09.slc.cvg/sg12_138_cif.got.tgz:275023.got - 2010.06.28 13:50:54.
