data_PCOD8116471
_publ_section_title
;
Structure prediction by ZEFSAII (Michael W. Deem and Ramdas Pophale) SiO2 
 PCOD8116471
Probable space group: C 2/M
;
_chemical_formula_sum "Si O2"
_cell_formula_units_Z 28
_cell_length_a 18.000000
_cell_length_b 9.000000
_cell_length_c 27.000000
_cell_angle_alpha 90.000000
_cell_angle_beta 40.000000
_cell_angle_gamma 90.000000
_cell_volume 2811.553005
_symmetry_space_group_name_H-M "C 2/M"
_symmetry_group_IT_number 12
_symmetry_cell_setting 'monoclinic'
loop_
_space_group_symop_operation_xyz
x,y,z
-x,y,-z
-x,-y,-z
x,-y,z
1/2+x,1/2+y,z
1/2-x,1/2+y,-z
1/2-x,1/2-y,-z
1/2+x,1/2-y,z
loop_
_atom_site_type_symbol
_atom_site_label
_atom_site_fract_x
_atom_site_fract_y
_atom_site_fract_z
Si Si1 0.797997 0.176926 0.426644
Si Si2 0.626957 0.826436 0.431154
Si Si3 0.346915 0.665120 0.979556
Si Si4 0.763304 0.834770 0.133004
Si Si5 0.299584 0.337240 0.697612
Si Si6 0.057168 0.829559 0.277362
Si Si7 0.580117 0.832207 0.871422
O O1 0.750000 0.250000 0.500000
O O2 0.713067 0.238984 0.427918
O O3 0.926896 0.232684 0.347207
O O4 0.797582 0.000000 0.432729
O O5 0.500000 0.752420 0.500000
O O6 0.679537 0.793650 0.351145
O O7 0.616904 0.000000 0.444448
O O8 0.360492 0.500000 0.950693
O O9 0.308572 0.657886 0.055130
O O10 0.250000 0.750000 0.000000
O O11 0.467920 0.746174 0.911358
O O12 0.634935 0.763139 0.199066
O O13 0.858529 0.740114 0.112935
O O14 0.756061 0.000000 0.159870
O O15 0.325040 0.500000 0.661420
O O16 0.385193 0.309198 0.698981
O O17 0.166845 0.328579 0.781091
O O18 0.058089 0.000000 0.259327
O O19 0.546940 0.000000 0.902982
#
# Coordination Sequence:
#
# PCOD8116471 Si02
#       7
#     8   8   8   8   8   8   8
#     4  10  21  36  54  78 107 140 180 223 268 323
#     4  10  21  35  52  78 110 141 176 220 270 324
#     4  11  24  39  56  82 115 149 188 233 278 327
#     4  10  21  37  58  84 111 142 185 231 275 331
#     4   9  19  35  55  79 105 136 177 221 264 318
#     4   9  19  36  56  79 107 140 181 225 270 325
#     4  10  21  38  60  85 113 146 185 227 274 332
#
# _framework density 9.9589090000000002
#
# number of rings (size 3 to 8) (size 9 to 14) (size 15 to 20)
#    0.000    2.143    0.000    3.429    0.000    9.429 
#    0.000    2.857    0.000    0.000    0.000    0.000 
#    0.000    0.000    0.000    0.000    0.000    0.000 
#
# Total GULP energy -347174.065486 kJ/mol
# GULP energy per Si atom -12399.073767 kJ/mol
# Density = 0.993624 g / cm^3
# Si number density = 9.958909 Si / 1000 Ang^3
#
#
#
# Elastic Constant Matrix: (Units=GPa)
#
#
# Indices 1 2 3 4 5 6 
#
# 1 84.7869 39.2551 57.5320 -0.0004 -41.5683 0.0015
# 2 39.2551 83.8747 37.7604 -0.0009 -18.7890 0.0024
# 3 57.5320 37.7604 83.7425 0.0000 -30.4855 0.0003
# 4 -0.0004 -0.0009 0.0000 35.7617 0.0000 -1.9167
# 5 -41.5683 -18.7890 -30.4855 0.0000 38.1683 -0.0005
# 6 0.0015 0.0024 0.0003 -1.9167 -0.0005 13.9097
#
#
#
# Elastic Compliance Matrix: (Units=1/GPa)
#
#
# Indices 1 2 3 4 5 6 
#
# 1 0.035477 -0.005098 -0.012580 0.000000 0.026079 -0.000002
# 2 -0.005098 0.015905 -0.004005 0.000000 -0.000921 -0.000002
# 3 -0.012580 -0.004005 0.023525 0.000000 0.003117 0.000002
# 4 0.000000 0.000000 0.000000 0.028171 0.000000 0.003882
# 5 0.026079 -0.000921 0.003117 0.000000 0.056638 0.000000
# 6 -0.000002 -0.000002 0.000002 0.003882 0.000000 0.072427
#
#
# Mechanical properties :
#
#
# Convention : Reuss Voigt Hill
#
# Bulk Modulus (GPa) = 31.70538 57.94434 44.82486
# Shear Modulus (GPa) = 17.48114 25.42506 21.45310
#
# Velocity S-wave (km/s) = 2.96575 3.57669 3.28545
# Velocity P-wave (km/s) = 5.26120 6.79793 6.07832
#
# Compressibility (1/GPa) = 0.03154039
#
# Stress axis : x y z
#
# Youngs Moduli (GPa) = 28.18747 62.87289 42.50859
#
# Poissons Ratio (x) = 0.32054 0.53477
# Poissons Ratio (y) = 0.14370 0.17023
# Poissons Ratio (z) = 0.35461 0.25179
#
# Static dielectric constant tensor:
#      x y z
#    x 3.665930 -0.000020 -0.282060 
#    y -0.000020 3.819490 0.000000 
#    z -0.282060 0.000000 3.587460 
# 
# 
# High freq. dielectric constant tensor:
#      x y z
#    x 1.766530 0.000000 -0.018610 
#    y 0.000000 1.772400 0.000000 
#    z -0.018610 0.000000 1.778150 
# 
# From -- ./inp_files/342264.got.cif
#   From: 2010.06.25/outbox.ucp.g09.slc.cvg/sg12_172_cif.got.tgz:342264.got - 2010.06.28 13:50:54.
