data_PCOD8116115
_publ_section_title
;
Structure prediction by ZEFSAII (Michael W. Deem and Ramdas Pophale) SiO2 
 PCOD8116115
Probable space group: C 2/M
;
_chemical_formula_sum "Si O2"
_cell_formula_units_Z 56
_cell_length_a 27.141445
_cell_length_b 9.646515
_cell_length_c 14.457798
_cell_angle_alpha 90.000000
_cell_angle_beta 104.062939
_cell_angle_gamma 90.000000
_cell_volume 3671.896706
_symmetry_space_group_name_H-M "C 2/M"
_symmetry_group_IT_number 12
_symmetry_cell_setting 'monoclinic'
loop_
_space_group_symop_operation_xyz
x,y,z
-x,y,-z
-x,-y,-z
x,-y,z
1/2+x,1/2+y,z
1/2-x,1/2+y,-z
1/2-x,1/2-y,-z
1/2+x,1/2-y,z
loop_
_atom_site_type_symbol
_atom_site_label
_atom_site_fract_x
_atom_site_fract_y
_atom_site_fract_z
Si Si1 0.312577 0.661212 0.221250
Si Si2 0.442880 0.337538 0.956082
Si Si3 0.299016 0.338696 0.416317
Si Si4 0.141811 0.160142 0.940658
Si Si5 0.683161 0.160126 0.405359
Si Si6 0.291099 0.842493 0.907345
Si Si7 0.121649 0.343921 0.201003
O O1 0.301277 0.500000 0.231259
O O2 0.321708 0.719519 0.328842
O O3 0.359871 0.687142 0.171820
O O4 0.261929 0.722797 0.151061
O O5 0.440256 0.500000 0.933105
O O6 0.421731 0.258763 0.856383
O O7 0.500000 0.287685 0.000000
O O8 0.410958 0.298126 0.034044
O O9 0.311310 0.500000 0.438266
O O10 0.326826 0.252989 0.509150
O O11 0.238718 0.310108 0.388370
O O12 0.154149 0.000000 0.966172
O O13 0.188669 0.247879 0.000636
O O14 0.639665 0.200404 0.311606
O O15 0.678674 0.000000 0.431862
O O16 0.329075 0.835667 0.839371
O O17 0.285354 0.000000 0.941209
O O18 0.099495 0.500000 0.191289
#
# Coordination Sequence:
#
# PCOD8116115 Si02
#       7
#     8   8   8   8   8   8   8
#     4   9  15  25  40  57  80 111 140 163 193 235
#     4   9  18  31  44  61  85 107 131 171 215 245
#     4   9  16  26  40  57  81 113 142 166 194 232
#     4   9  17  27  40  58  79 106 138 166 197 242
#     4   9  16  27  40  58  83 110 138 168 200 232
#     4   9  15  25  39  56  81 110 135 162 195 232
#     4   9  16  27  44  62  82 109 138 166 200 244
#
# _framework density 15.250973999999999
#
# number of rings (size 3 to 8) (size 9 to 14) (size 15 to 20)
#    0.000    3.000    1.429    0.429    0.000    0.857 
#    0.000    1.429    0.000    0.000    0.000    1.000 
#    0.000    8.000    0.000    0.000    0.000    0.000 
#
# Total GULP energy -347014.365844 kJ/mol
# GULP energy per Si atom -12393.370209 kJ/mol
# Density = 1.521626 g / cm^3
# Si number density = 15.250974 Si / 1000 Ang^3
#
#
#
# Elastic Constant Matrix: (Units=GPa)
#
#
# Indices 1 2 3 4 5 6 
#
# 1 60.3334 26.1241 50.5102 0.0000 5.7203 0.0000
# 2 26.1241 47.6514 52.1173 0.0000 3.3523 0.0000
# 3 50.5102 52.1173 137.1725 0.0000 -5.5929 0.0000
# 4 0.0000 0.0000 0.0000 25.2301 0.0000 3.2665
# 5 5.7203 3.3523 -5.5929 0.0000 18.5692 0.0000
# 6 0.0000 0.0000 0.0000 3.2665 0.0000 13.3238
#
#
#
# Elastic Compliance Matrix: (Units=1/GPa)
#
#
# Indices 1 2 3 4 5 6 
#
# 1 0.026579 -0.004674 -0.008414 0.000000 -0.009878 0.000000
# 2 -0.004674 0.038969 -0.013478 0.000000 -0.009655 0.000000
# 3 -0.008414 -0.013478 0.015910 0.000000 0.009817 0.000000
# 4 0.000000 0.000000 0.000000 0.040934 0.000000 -0.010036
# 5 -0.009878 -0.009655 0.009817 0.000000 0.061595 0.000000
# 6 0.000000 0.000000 0.000000 -0.010036 0.000000 0.077514
#
#
# Mechanical properties :
#
#
# Convention : Reuss Voigt Hill
#
# Bulk Modulus (GPa) = 35.30484 55.85115 45.57800
# Shear Modulus (GPa) = 15.42850 19.18503 17.30676
#
# Velocity S-wave (km/s) = 3.18408 3.55061 3.37233
# Velocity P-wave (km/s) = 6.05948 7.31505 6.71667
#
# Compressibility (1/GPa) = 0.02832473
#
# Stress axis : x y z
#
# Youngs Moduli (GPa) = 37.62378 25.66130 62.85540
#
# Poissons Ratio (x) = 0.11994 0.52886
# Poissons Ratio (y) = 0.17586 0.84719
# Poissons Ratio (z) = 0.31656 0.34587
#
# Static dielectric constant tensor:
#      x y z
#    x 2.689980 0.000000 -0.117210 
#    y 0.000000 2.891160 0.000000 
#    z -0.117210 0.000000 3.063340 
# 
# 
# High freq. dielectric constant tensor:
#      x y z
#    x 1.544900 0.000000 -0.011950 
#    y 0.000000 1.573140 0.000000 
#    z -0.011950 0.000000 1.584500 
# 
# From -- ./inp_files/181537.got.cif
#   From: 2010.06.25/outbox.cif.g09.slc.cpg/sg12_91_cif.got.tgz:181537.got - 2010.06.28 00:19:55.
