data_PCOD8116323
_publ_section_title
;
Structure prediction by ZEFSAII (Michael W. Deem and Ramdas Pophale) SiO2 
 PCOD8116323
Probable space group: C 2/M
;
_chemical_formula_sum "Si O2"
_cell_formula_units_Z 28
_cell_length_a 30.000000
_cell_length_b 9.000000
_cell_length_c 18.000000
_cell_angle_alpha 90.000000
_cell_angle_beta 40.000000
_cell_angle_gamma 90.000000
_cell_volume 3123.947783
_symmetry_space_group_name_H-M "C 2/M"
_symmetry_group_IT_number 12
_symmetry_cell_setting 'monoclinic'
loop_
_space_group_symop_operation_xyz
x,y,z
-x,y,-z
-x,-y,-z
x,-y,z
1/2+x,1/2+y,z
1/2-x,1/2+y,-z
1/2-x,1/2-y,-z
1/2+x,1/2-y,z
loop_
_atom_site_type_symbol
_atom_site_label
_atom_site_fract_x
_atom_site_fract_y
_atom_site_fract_z
Si Si1 0.643517 0.826659 0.170559
Si Si2 0.374588 0.660485 0.507959
Si Si3 0.344966 0.163006 0.414378
Si Si4 0.767731 0.670602 0.245613
Si Si5 0.810686 0.836232 0.325900
Si Si6 0.019073 0.836104 0.398490
Si Si7 0.230442 0.671917 0.921626
O O1 0.569280 0.756503 0.281854
O O2 0.701074 0.767978 0.153434
O O3 0.635914 0.000000 0.191375
O O4 0.667740 0.783400 0.056371
O O5 0.350624 0.500000 0.505943
O O6 0.391448 0.771488 0.420013
O O7 0.313398 0.716706 0.641143
O O8 0.445431 0.641677 0.457618
O O9 0.266380 0.170198 0.543063
O O10 0.359746 0.251381 0.320357
O O11 0.371027 0.000000 0.364224
O O12 0.778840 0.500000 0.250885
O O13 0.815971 0.762950 0.238821
O O14 0.794378 0.707225 0.129436
O O15 0.839838 0.000000 0.280639
O O16 0.000000 0.753543 0.500000
O O17 0.052351 0.000000 0.370447
O O18 0.251041 0.500000 0.906047
#
# Coordination Sequence:
#
# PCOD8116323 Si02
#       7
#     8   8   8   8   8   8   8
#     4  10  20  32  48  70  93 119 154 195 233 267
#     4   9  17  28  44  65  88 118 154 188 222 264
#     4   9  16  26  40  59  87 121 151 180 219 267
#     4   9  16  28  46  66  89 118 152 186 222 268
#     4   9  16  25  39  62  91 118 146 182 222 265
#     4  10  20  34  50  67  91 125 159 188 226 277
#     4   9  18  33  50  67  91 123 155 188 229 277
#
# _framework density 8.9630179999999999
#
# number of rings (size 3 to 8) (size 9 to 14) (size 15 to 20)
#    0.000    2.714    0.000    2.143    0.000    7.714 
#    0.000    2.857    0.000    0.000    0.000    1.000 
#    0.000    8.000    0.000    0.000    0.000    0.000 
#
# Total GULP energy -346924.341800 kJ/mol
# GULP energy per Si atom -12390.155064 kJ/mol
# Density = 0.894262 g / cm^3
# Si number density = 8.963018 Si / 1000 Ang^3
#
#
#
# Elastic Constant Matrix: (Units=GPa)
#
#
# Indices 1 2 3 4 5 6 
#
# 1 58.1017 50.0604 34.6854 0.0026 25.7862 -0.0011
# 2 50.0604 65.2653 31.6431 0.0376 26.6583 -0.0146
# 3 34.6854 31.6431 59.2839 0.0109 16.6839 -0.0067
# 4 0.0026 0.0376 0.0109 21.0154 0.0002 2.4785
# 5 25.7862 26.6583 16.6839 0.0002 19.1007 -0.0019
# 6 -0.0011 -0.0146 -0.0067 2.4785 -0.0019 22.1602
#
#
#
# Elastic Compliance Matrix: (Units=1/GPa)
#
#
# Indices 1 2 3 4 5 6 
#
# 1 0.067895 -0.030231 -0.012817 0.000056 -0.038271 -0.000030
# 2 -0.030231 0.051201 -0.001348 -0.000092 -0.029470 0.000039
# 3 -0.012817 -0.001348 0.026104 -0.000010 -0.003617 0.000007
# 4 0.000056 -0.000092 -0.000010 0.048220 0.000060 -0.005393
# 5 -0.038271 -0.029470 -0.003617 0.000060 0.148310 -0.000017
# 6 -0.000030 0.000039 0.000007 -0.005393 -0.000017 0.045729
#
#
# Mechanical properties :
#
#
# Convention : Reuss Voigt Hill
#
# Bulk Modulus (GPa) = 17.72793 46.15876 31.94335
# Shear Modulus (GPa) = 10.09991 16.87275 13.48633
#
# Velocity S-wave (km/s) = 2.37623 3.07130 2.74584
# Velocity P-wave (km/s) = 4.17607 6.19537 5.28309
#
# Compressibility (1/GPa) = 0.05640816
#
# Stress axis : x y z
#
# Youngs Moduli (GPa) = 14.72869 19.53082 38.30807
#
# Poissons Ratio (x) = 0.59044 0.49099
# Poissons Ratio (y) = 0.44526 0.05164
# Poissons Ratio (z) = 0.18878 0.02633
#
# Static dielectric constant tensor:
#      x y z
#    x 3.019200 0.000090 0.309190 
#    y 0.000090 2.115030 0.000090 
#    z 0.309190 0.000090 3.161580 
# 
# 
# High freq. dielectric constant tensor:
#      x y z
#    x 1.664810 0.000000 0.027760 
#    y 0.000000 1.686810 0.000000 
#    z 0.027760 0.000000 1.652850 
# 
# From -- ./inp_files/291482.got.cif
#   From: 2010.06.25/outbox.ucp.g09.slc.cvg/sg12_146_cif.got.tgz:291482.got - 2010.06.28 13:50:54.
