data_PCOD8116806
_publ_section_title
;
Structure prediction by ZEFSAII (Michael W. Deem and Ramdas Pophale) SiO2 
 PCOD8116806
Probable space group: P 2/C
;
_chemical_formula_sum "Si O2"
_cell_formula_units_Z 20
_cell_length_a 8.505261
_cell_length_b 8.275529
_cell_length_c 25.297390
_cell_angle_alpha 90.000000
_cell_angle_beta 36.138406
_cell_angle_gamma 90.000000
_cell_volume 1050.069667
_symmetry_space_group_name_H-M "P 2/C"
_symmetry_group_IT_number 13
_symmetry_cell_setting 'monoclinic'
loop_
_space_group_symop_operation_xyz
x,y,z
-x,y,1/2-z
-x,-y,-z
x,-y,1/2+z
loop_
_atom_site_type_symbol
_atom_site_label
_atom_site_fract_x
_atom_site_fract_y
_atom_site_fract_z
Si Si1 0.000000 0.365388 0.250000
Si Si2 0.064765 0.569628 0.327151
Si Si3 0.474379 0.166101 0.697458
Si Si4 0.477991 0.829569 0.859914
Si Si5 0.983776 0.352767 0.963090
Si Si6 0.500000 0.331983 0.250000
O O1 0.100417 0.482563 0.174820
O O2 0.751024 0.253418 0.303642
O O3 0.198139 0.734088 0.268580
O O4 0.291019 0.443548 0.278791
O O5 0.899009 0.594632 0.426358
O O6 0.500000 0.097310 0.750000
O O7 0.720571 0.281971 0.617545
O O8 0.471181 0.022031 0.655431
O O9 0.376606 0.778547 0.829324
O O10 0.234001 0.783274 0.964181
O O11 0.000000 0.500000 0.000000
#
# Coordination Sequence:
#
# PCOD8116806 Si02
#       6
#     2   4   4   4   4   2
#     4  10  24  38  56  82 120 164 188 220 298 364
#     4  10  19  38  59  83 113 156 194 231 286 352
#     4  10  20  36  61  88 113 149 195 247 287 325
#     4  11  21  35  56  87 118 149 189 244 286 337
#     4  11  19  34  62  90 111 145 204 248 274 330
#     4  10  16  34  58  78 108 154 194 228 274 336
#
# _framework density 19.046357
#
# number of rings (size 3 to 8) (size 9 to 14) (size 15 to 20)
#    0.000    1.600    6.000    1.800    0.000    1.600 
#    0.000    0.000    0.000    7.200    0.000    0.000 
#    0.000    0.000    0.000    0.000    0.000    0.000 
#
# Total GULP energy -247832.824904 kJ/mol
# GULP energy per Si atom -12391.641245 kJ/mol
# Density = 1.900301 g / cm^3
# Si number density = 19.046357 Si / 1000 Ang^3
#
#
#
# Elastic Constant Matrix: (Units=GPa)
#
#
# Indices 1 2 3 4 5 6 
#
# 1 62.0950 37.5128 24.2939 0.0000 18.5759 0.0000
# 2 37.5128 109.8092 44.2638 0.0000 16.3204 0.0000
# 3 24.2939 44.2638 114.1744 0.0000 19.3514 0.0000
# 4 0.0000 0.0000 0.0000 37.7625 0.0000 8.5757
# 5 18.5759 16.3204 19.3514 0.0000 27.2573 0.0000
# 6 0.0000 0.0000 0.0000 8.5757 0.0000 24.5419
#
#
#
# Elastic Compliance Matrix: (Units=1/GPa)
#
#
# Indices 1 2 3 4 5 6 
#
# 1 0.023582 -0.006008 -0.000653 0.000000 -0.012011 0.000000
# 2 -0.006008 0.012716 -0.003473 0.000000 -0.001054 0.000000
# 3 -0.000653 -0.003473 0.011159 0.000000 -0.005398 0.000000
# 4 0.000000 0.000000 0.000000 0.028764 0.000000 -0.010051
# 5 -0.012011 -0.001054 -0.005398 0.000000 0.049336 0.000000
# 6 0.000000 0.000000 0.000000 -0.010051 0.000000 0.044259
#
#
# Mechanical properties :
#
#
# Convention : Reuss Voigt Hill
#
# Bulk Modulus (GPa) = 36.77906 55.35773 46.06840
# Shear Modulus (GPa) = 25.10735 29.91289 27.51012
#
# Velocity S-wave (km/s) = 3.63467 3.96729 3.80462
# Velocity P-wave (km/s) = 6.08002 7.07910 6.59850
#
# Compressibility (1/GPa) = 0.02718939
#
# Stress axis : x y z
#
# Youngs Moduli (GPa) = 42.40477 78.64400 89.61644
#
# Poissons Ratio (x) = 0.47248 0.05852
# Poissons Ratio (y) = 0.25476 0.31121
# Poissons Ratio (z) = 0.02769 0.27311
#
# Static dielectric constant tensor:
#      x y z
#    x 2.990930 0.000000 0.363530 
#    y 0.000000 3.622050 0.000000 
#    z 0.363530 0.000000 3.716900 
# 
# 
# High freq. dielectric constant tensor:
#      x y z
#    x 1.717370 0.000000 0.019550 
#    y 0.000000 1.749540 0.000000 
#    z 0.019550 0.000000 1.740460 
# 
# From -- ./inp_files/84694.got.cif
#   From: 2010.06.25/outbox.cif.g09.slc.cpg/sg13_43_cif.got.tgz:84694.got - 2010.06.28 04:50:58.
