data_PCOD8116143
_publ_section_title
;
Structure prediction by ZEFSAII (Michael W. Deem and Ramdas Pophale) SiO2 
 PCOD8116143
Probable space group: C 2/M
;
_chemical_formula_sum "Si O2"
_cell_formula_units_Z 64
_cell_length_a 24.273974
_cell_length_b 9.649641
_cell_length_c 28.599809
_cell_angle_alpha 90.000000
_cell_angle_beta 144.422172
_cell_angle_gamma 90.000000
_cell_volume 3897.580262
_symmetry_space_group_name_H-M "C 2/M"
_symmetry_group_IT_number 12
_symmetry_cell_setting 'monoclinic'
loop_
_space_group_symop_operation_xyz
x,y,z
-x,y,-z
-x,-y,-z
x,-y,z
1/2+x,1/2+y,z
1/2-x,1/2+y,-z
1/2-x,1/2-y,-z
1/2+x,1/2-y,z
loop_
_atom_site_type_symbol
_atom_site_label
_atom_site_fract_x
_atom_site_fract_y
_atom_site_fract_z
Si Si1 0.539177 0.660242 0.842857
Si Si2 0.891943 0.838984 0.593062
Si Si3 0.283207 0.164728 0.871336
Si Si4 0.931682 0.661035 0.050401
Si Si5 0.772131 0.340910 0.447472
Si Si6 0.178002 0.841921 0.287425
Si Si7 0.649022 0.160852 0.181830
Si Si8 0.916192 0.835214 0.229270
O O1 0.565870 0.500000 0.869728
O O2 0.588330 0.751803 0.916737
O O3 0.426828 0.682173 0.765208
O O4 0.577833 0.716361 0.820069
O O5 0.858121 0.754612 0.524245
O O6 0.822329 0.810863 0.588237
O O7 0.994980 0.781838 0.679030
O O8 0.894840 0.000000 0.581390
O O9 0.309850 0.219743 0.838356
O O10 0.179969 0.222278 0.814068
O O11 0.284505 0.000000 0.871805
O O12 0.360272 0.217519 0.961777
O O13 0.914271 0.500000 0.049925
O O14 0.036899 0.686863 0.103914
O O15 0.802891 0.500000 0.474471
O O16 0.751297 0.304649 0.379174
O O17 0.199579 0.743561 0.258490
O O18 0.190752 0.000000 0.279821
O O19 0.673171 0.000000 0.205544
O O20 0.919416 0.000000 0.230819
#
# Coordination Sequence:
#
# PCOD8116143 Si02
#       8
#     8   8   8   8   8   8   8   8
#     4   9  16  28  45  65  89 117 146 177 217 263
#     4   9  16  27  44  67  91 114 142 177 213 256
#     4   9  17  29  46  65  86 118 153 183 219 260
#     4   9  17  29  45  66  90 114 145 187 227 258
#     4   9  16  27  44  67  92 115 140 172 217 265
#     4   9  16  28  46  66  90 117 143 176 220 266
#     4   9  17  29  46  67  88 112 149 192 223 249
#     4   9  16  28  46  65  89 120 150 177 212 265
#
# _framework density 16.420444
#
# number of rings (size 3 to 8) (size 9 to 14) (size 15 to 20)
#    0.000    3.000    1.250    0.375    0.000    2.500 
#    0.000    1.250    0.000    6.000    0.000    5.250 
#    0.000    0.000    0.000    0.000    0.000    0.000 
#
# Total GULP energy -396772.131991 kJ/mol
# GULP energy per Si atom -12399.129125 kJ/mol
# Density = 1.638307 g / cm^3
# Si number density = 16.420444 Si / 1000 Ang^3
#
#
#
# Elastic Constant Matrix: (Units=GPa)
#
#
# Indices 1 2 3 4 5 6 
#
# 1 98.4807 37.5220 73.8625 -0.0001 -12.0221 0.0000
# 2 37.5220 50.1361 56.8883 -0.0002 -10.7977 0.0006
# 3 73.8625 56.8883 142.3882 0.0001 -21.8833 0.0000
# 4 -0.0001 -0.0002 0.0001 27.5432 0.0000 -7.5145
# 5 -12.0221 -10.7977 -21.8833 0.0000 18.6248 0.0000
# 6 0.0000 0.0006 0.0000 -7.5145 0.0000 16.0942
#
#
#
# Elastic Compliance Matrix: (Units=1/GPa)
#
#
# Indices 1 2 3 4 5 6 
#
# 1 0.017294 -0.005049 -0.006942 0.000000 0.000080 0.000000
# 2 -0.005049 0.038333 -0.011937 0.000000 0.004939 -0.000002
# 3 -0.006942 -0.011937 0.016647 0.000000 0.008158 0.000000
# 4 0.000000 0.000000 0.000000 0.041607 0.000000 0.019427
# 5 0.000080 0.004939 0.008158 0.000000 0.066193 0.000000
# 6 0.000000 -0.000002 0.000000 0.019427 0.000000 0.071205
#
#
# Mechanical properties :
#
#
# Convention : Reuss Voigt Hill
#
# Bulk Modulus (GPa) = 40.95268 69.72784 55.34026
# Shear Modulus (GPa) = 16.27222 20.63457 18.45339
#
# Velocity S-wave (km/s) = 3.15139 3.54876 3.35596
# Velocity P-wave (km/s) = 6.18352 7.70375 6.98511
#
# Compressibility (1/GPa) = 0.02441842
#
# Stress axis : x y z
#
# Youngs Moduli (GPa) = 57.82298 26.08750 60.07173
#
# Poissons Ratio (x) = 0.13173 0.41699
# Poissons Ratio (y) = 0.29197 0.71705
# Poissons Ratio (z) = 0.40138 0.31140
#
# Static dielectric constant tensor:
#      x y z
#    x 3.040960 0.000000 -0.082030 
#    y 0.000000 2.880080 0.000000 
#    z -0.082030 0.000000 3.211610 
# 
# 
# High freq. dielectric constant tensor:
#      x y z
#    x 1.611590 0.000000 -0.010950 
#    y 0.000000 1.604160 0.000000 
#    z -0.010950 0.000000 1.636550 
# 
# From -- ./inp_files/239660.got.cif
#   From: 2010.06.25/outbox.cif.g09.slc.cpg/sg12_120_cif.got.tgz:239660.got - 2010.06.28 00:19:55.
