data_PCOD8116816
_publ_section_title
;
Structure prediction by ZEFSAII (Michael W. Deem and Ramdas Pophale) SiO2 
 PCOD8116816
Probable space group: P 2/C
;
_chemical_formula_sum "Si O2"
_cell_formula_units_Z 28
_cell_length_a 8.940553
_cell_length_b 12.945984
_cell_length_c 14.660031
_cell_angle_alpha 90.000000
_cell_angle_beta 51.718179
_cell_angle_gamma 90.000000
_cell_volume 1331.953436
_symmetry_space_group_name_H-M "P 2/C"
_symmetry_group_IT_number 13
_symmetry_cell_setting 'monoclinic'
loop_
_space_group_symop_operation_xyz
x,y,z
-x,y,1/2-z
-x,-y,-z
x,-y,1/2+z
loop_
_atom_site_type_symbol
_atom_site_label
_atom_site_fract_x
_atom_site_fract_y
_atom_site_fract_z
Si Si1 0.214436 0.894717 0.933256
Si Si2 0.789733 0.559331 0.480864
Si Si3 0.000000 0.324642 0.750000
Si Si4 0.129916 0.202155 0.279164
Si Si5 0.521022 0.716557 0.634703
Si Si6 0.845265 0.819283 0.153256
Si Si7 0.500000 0.049557 0.750000
Si Si8 0.919227 0.347870 0.484571
O O1 0.171167 0.880408 0.842299
O O2 0.304209 0.794990 0.949124
O O3 0.374713 0.985246 0.872848
O O4 0.012589 0.904766 0.063865
O O5 0.862566 0.596414 0.355013
O O6 0.576606 0.605245 0.572497
O O7 0.777706 0.435881 0.499104
O O8 0.921514 0.605022 0.510337
O O9 0.114734 0.249204 0.773542
O O10 0.329241 0.241281 0.160458
O O11 0.000000 0.149642 0.250000
O O12 0.022256 0.302466 0.357346
O O13 0.500000 0.707029 0.750000
O O14 0.651152 0.880534 0.247800
O O15 0.810288 0.743343 0.079816
#
# Coordination Sequence:
#
# PCOD8116816 Si02
#       8
#     4   4   2   4   4   4   2   4
#     4  10  19  41  64  85 117 165 211 249 313 384
#     4  10  18  35  65  86 121 169 207 233 308 387
#     4  10  20  40  62  92 132 162 198 258 312 354
#     4  10  19  34  59  88 123 146 203 274 306 351
#     4  10  16  36  62  87 114 162 208 251 303 372
#     4  10  22  42  61  91 130 161 204 270 306 367
#     4  12  22  40  70  86 116 170 218 246 328 388
#     4   9  19  37  58  88 122 165 202 244 308 373
#
# _framework density 21.021756
#
# number of rings (size 3 to 8) (size 9 to 14) (size 15 to 20)
#    0.000    2.000    7.857    0.429    1.000    0.000 
#    7.714    1.429    0.000    0.000    0.000    0.000 
#    0.000    0.000    0.000    0.000    0.000    0.000 
#
# Total GULP energy -346962.016442 kJ/mol
# GULP energy per Si atom -12391.500587 kJ/mol
# Density = 2.097391 g / cm^3
# Si number density = 21.021756 Si / 1000 Ang^3
#
#
#
# Elastic Constant Matrix: (Units=GPa)
#
#
# Indices 1 2 3 4 5 6 
#
# 1 89.9657 32.9705 47.5518 0.0000 -12.6918 0.0000
# 2 32.9705 98.4590 33.1968 0.0000 -10.8521 0.0000
# 3 47.5518 33.1968 69.5547 0.0000 -14.6651 0.0000
# 4 0.0000 0.0000 0.0000 29.2937 0.0000 -7.0946
# 5 -12.6918 -10.8521 -14.6651 0.0000 29.7815 0.0000
# 6 0.0000 0.0000 0.0000 -7.0946 0.0000 10.2722
#
#
#
# Elastic Compliance Matrix: (Units=1/GPa)
#
#
# Indices 1 2 3 4 5 6 
#
# 1 0.017858 -0.002152 -0.010871 0.000000 0.001473 0.000000
# 2 -0.002152 0.012446 -0.004135 0.000000 0.001582 0.000000
# 3 -0.010871 -0.004135 0.025094 0.000000 0.006217 0.000000
# 4 0.000000 0.000000 0.000000 0.040994 0.000000 0.028313
# 5 0.001473 0.001582 0.006217 0.000000 0.037843 0.000000
# 6 0.000000 0.000000 0.000000 0.028313 0.000000 0.116904
#
#
# Mechanical properties :
#
#
# Convention : Reuss Voigt Hill
#
# Bulk Modulus (GPa) = 47.43711 53.93529 50.68620
# Shear Modulus (GPa) = 17.09507 23.48684 20.29096
#
# Velocity S-wave (km/s) = 2.85477 3.34618 3.11020
# Velocity P-wave (km/s) = 5.78628 6.37509 6.08781
#
# Compressibility (1/GPa) = 0.02108054
#
# Stress axis : x y z
#
# Youngs Moduli (GPa) = 55.99815 80.34833 39.85090
#
# Poissons Ratio (x) = 0.17294 0.43321
# Poissons Ratio (y) = 0.12053 0.16479
# Poissons Ratio (z) = 0.60874 0.33225
#
# Static dielectric constant tensor:
#      x y z
#    x 3.660690 0.000000 -0.225980 
#    y 0.000000 3.969400 0.000000 
#    z -0.225980 0.000000 3.758480 
# 
# 
# High freq. dielectric constant tensor:
#      x y z
#    x 1.798630 0.000000 -0.014370 
#    y 0.000000 1.820430 0.000000 
#    z -0.014370 0.000000 1.812080 
# 
# From -- ./inp_files/47648.got.cif
#   From: 2010.06.25/outbox.cif.g09.slc.cpg/sg13_24_cif.got.tgz:47648.got - 2010.06.28 04:50:58.
