data_PCOD8116790
_publ_section_title
;
Structure prediction by ZEFSAII (Michael W. Deem and Ramdas Pophale) SiO2 
 PCOD8116790
Probable space group: P 2/C
;
_chemical_formula_sum "Si O2"
_cell_formula_units_Z 32
_cell_length_a 28.763766
_cell_length_b 14.256457
_cell_length_c 9.939638
_cell_angle_alpha 90.000000
_cell_angle_beta 154.058967
_cell_angle_gamma 90.000000
_cell_volume 1783.003838
_symmetry_space_group_name_H-M "P 2/C"
_symmetry_group_IT_number 13
_symmetry_cell_setting 'monoclinic'
loop_
_space_group_symop_operation_xyz
x,y,z
-x,y,1/2-z
-x,-y,-z
x,-y,1/2+z
loop_
_atom_site_type_symbol
_atom_site_label
_atom_site_fract_x
_atom_site_fract_y
_atom_site_fract_z
Si Si1 0.204374 0.124564 0.193276
Si Si2 0.091336 0.298565 0.817772
Si Si3 0.853401 0.359151 0.267498
Si Si4 0.437451 0.888769 0.215298
Si Si5 0.213471 0.816324 0.026428
Si Si6 0.932305 0.049274 0.209416
Si Si7 0.569939 0.888920 0.811295
Si Si8 0.931627 0.451090 0.937170
O O1 0.317889 0.149200 0.421550
O O2 0.209348 0.139945 0.366446
O O3 0.117149 0.187427 0.884302
O O4 0.169681 0.016811 0.085838
O O5 0.115119 0.351739 0.737274
O O6 0.971328 0.319694 0.545733
O O7 0.171635 0.338057 0.141462
O O8 0.838604 0.471435 0.215485
O O9 0.782520 0.297539 0.980050
O O10 0.500000 0.848380 0.250000
O O11 0.512458 0.852763 0.529049
O O12 0.424985 0.999699 0.175192
O O13 0.314134 0.845610 0.375203
O O14 0.111166 0.851525 0.845868
O O15 0.000000 0.067124 0.250000
O O16 0.000000 0.000000 0.500000
O O17 0.500000 0.849833 0.750000
O O18 0.000000 0.435312 0.250000
O O19 0.000000 0.500000 0.000000
#
# Coordination Sequence:
#
# PCOD8116790 Si02
#       8
#     4   4   4   4   4   4   4   4
#     4  11  21  36  55  77 108 151 185 221 280 326
#     4   9  18  31  53  78 106 144 182 212 267 335
#     4   9  17  32  53  78 108 143 177 222 266 320
#     4  10  21  34  55  76 107 135 179 241 283 308
#     4  11  21  35  56  79 107 148 192 222 263 332
#     4  12  24  36  53  76 115 156 185 217 259 324
#     4  10  19  34  54  77  96 137 189 232 268 313
#     4  10  16  32  54  78 107 139 179 227 272 313
#
# _framework density 17.947241000000002
#
# number of rings (size 3 to 8) (size 9 to 14) (size 15 to 20)
#    0.000    1.750    6.250    0.750    1.750    1.000 
#    0.000    8.125    0.000    0.000    0.000    1.750 
#    0.000    0.000    0.000    0.000    0.000    0.000 
#
# Total GULP energy -396419.467898 kJ/mol
# GULP energy per Si atom -12388.108372 kJ/mol
# Density = 1.790639 g / cm^3
# Si number density = 17.947241 Si / 1000 Ang^3
#
#
#
# Elastic Constant Matrix: (Units=GPa)
#
#
# Indices 1 2 3 4 5 6 
#
# 1 112.2512 18.3374 38.2177 0.0000 -9.1424 0.0000
# 2 18.3374 62.9895 22.7632 0.0000 -12.9474 0.0000
# 3 38.2177 22.7632 91.7844 0.0000 -10.0829 0.0000
# 4 0.0000 0.0000 0.0000 34.3605 0.0000 -13.2314
# 5 -9.1424 -12.9474 -10.0829 0.0000 29.1938 0.0000
# 6 0.0000 0.0000 0.0000 -13.2314 0.0000 20.1568
#
#
#
# Elastic Compliance Matrix: (Units=1/GPa)
#
#
# Indices 1 2 3 4 5 6 
#
# 1 0.010577 -0.001389 -0.003912 0.000000 0.001345 0.000000
# 2 -0.001389 0.018889 -0.003361 0.000000 0.006781 0.000000
# 3 -0.003912 -0.003361 0.013574 0.000000 0.001973 0.000000
# 4 0.000000 0.000000 0.000000 0.038948 0.000000 0.025567
# 5 0.001345 0.006781 0.001973 0.000000 0.038364 0.000000
# 6 0.000000 0.000000 0.000000 0.025567 0.000000 0.066394
#
#
# Mechanical properties :
#
#
# Convention : Reuss Voigt Hill
#
# Bulk Modulus (GPa) = 38.88677 47.29575 43.09126
# Shear Modulus (GPa) = 23.51373 29.25598 26.38486
#
# Velocity S-wave (km/s) = 3.62354 4.04184 3.83839
# Velocity P-wave (km/s) = 6.26267 6.94204 6.61108
#
# Compressibility (1/GPa) = 0.02571569
#
# Stress axis : x y z
#
# Youngs Moduli (GPa) = 94.54569 52.94209 73.66911
#
# Poissons Ratio (x) = 0.07354 0.28818
# Poissons Ratio (y) = 0.13132 0.24762
# Poissons Ratio (z) = 0.36985 0.17795
#
# Static dielectric constant tensor:
#      x y z
#    x 3.566360 0.000000 -0.239350 
#    y 0.000000 3.593190 0.000000 
#    z -0.239350 0.000000 3.248950 
# 
# 
# High freq. dielectric constant tensor:
#      x y z
#    x 1.689850 0.000000 -0.022670 
#    y 0.000000 1.669880 0.000000 
#    z -0.022670 0.000000 1.677990 
# 
# From -- ./inp_files/24756.got.cif
#   From: 2010.06.25/outbox.cif.g09.slc.cpg/sg13_13_cif.got.tgz:24756.got - 2010.06.28 04:50:58.
