data_PCOD8116181
_publ_section_title
;
Structure prediction by ZEFSAII (Michael W. Deem and Ramdas Pophale) SiO2 
 PCOD8116181
Probable space group: C 2/M
;
_chemical_formula_sum "Si O2"
_cell_formula_units_Z 18
_cell_length_a 30.000000
_cell_length_b 15.000000
_cell_length_c 9.000000
_cell_angle_alpha 90.000000
_cell_angle_beta 150.000000
_cell_angle_gamma 90.000000
_cell_volume 2025.000000
_symmetry_space_group_name_H-M "C 2/M"
_symmetry_group_IT_number 12
_symmetry_cell_setting 'monoclinic'
loop_
_space_group_symop_operation_xyz
x,y,z
-x,y,-z
-x,-y,-z
x,-y,z
1/2+x,1/2+y,z
1/2-x,1/2+y,-z
1/2-x,1/2-y,-z
1/2+x,1/2-y,z
loop_
_atom_site_type_symbol
_atom_site_label
_atom_site_fract_x
_atom_site_fract_y
_atom_site_fract_z
Si Si1 0.241357 0.807127 0.825343
Si Si2 0.875351 0.500000 0.600629
Si Si3 0.983135 0.500000 0.635727
Si Si4 0.424423 0.815925 0.177835
Si Si5 0.219472 0.500000 0.966516
Si Si6 0.598371 0.196588 0.221121
O O1 0.163306 0.763995 0.498910
O O2 0.250000 0.750000 0.000000
O O3 0.333034 0.806910 0.001158
O O4 0.225692 0.911947 0.821592
O O5 0.790558 0.500000 0.242510
O O6 0.869028 0.592411 0.675893
O O7 0.031158 0.500000 0.225895
O O8 0.039295 0.415357 0.747263
O O9 0.884112 0.500000 0.272842
O O10 0.500000 0.767741 0.500000
O O11 0.406759 0.771676 0.965545
O O12 0.500000 0.207371 0.000000
#
# Coordination Sequence:
#
# PCOD8116181 Si02
#       6
#     8   4   4   8   4   8
#     4  12  23  39  58  89 125 160 203 247 302 363
#     4  10  18  37  64  93 126 149 188 261 314 354
#     4  10  17  36  62  94 120 148 194 253 325 347
#     4  12  21  35  58  90 125 155 192 252 306 360
#     4  10  19  39  62  89 122 157 194 248 315 351
#     4  12  22  38  60  93 124 161 200 243 306 361
#
# _framework density 8.8888890000000007
#
# number of rings (size 3 to 8) (size 9 to 14) (size 15 to 20)
#    0.667    0.000    6.667    4.000    0.000    0.000 
#    0.000    0.556    0.000    0.000    0.000    5.444 
#    0.000    0.000    0.000    0.000    0.000    0.000 
#
# Total GULP energy -222985.764629 kJ/mol
# GULP energy per Si atom -12388.098035 kJ/mol
# Density = 0.886866 g / cm^3
# Si number density = 8.888889 Si / 1000 Ang^3
#
#
#
# Elastic Constant Matrix: (Units=GPa)
#
#
# Indices 1 2 3 4 5 6 
#
# 1 104.3297 33.4032 43.6086 0.0000 -23.4721 0.0000
# 2 33.4032 124.0033 63.5948 0.0000 -3.0617 0.0000
# 3 43.6086 63.5948 148.8720 0.0000 -21.5160 0.0000
# 4 0.0000 0.0000 0.0000 37.6353 0.0000 4.7611
# 5 -23.4721 -3.0617 -21.5160 0.0000 43.4101 0.0000
# 6 0.0000 0.0000 0.0000 4.7611 0.0000 20.7296
#
#
#
# Elastic Compliance Matrix: (Units=1/GPa)
#
#
# Indices 1 2 3 4 5 6 
#
# 1 0.012332 -0.002236 -0.001849 0.000000 0.005594 0.000000
# 2 -0.002236 0.010832 -0.004348 0.000000 -0.002600 0.000000
# 3 -0.001849 -0.004348 0.009616 0.000000 0.003460 0.000000
# 4 0.000000 0.000000 0.000000 0.027366 0.000000 -0.006285
# 5 0.005594 -0.002600 0.003460 0.000000 0.027592 0.000000
# 6 0.000000 0.000000 0.000000 -0.006285 0.000000 0.049684
#
#
# Mechanical properties :
#
#
# Convention : Reuss Voigt Hill
#
# Bulk Modulus (GPa) = 62.83302 73.15758 67.99530
# Shear Modulus (GPa) = 31.32966 36.12825 33.72896
#
# Velocity S-wave (km/s) = 4.20252 4.51290 4.36047
# Velocity P-wave (km/s) = 7.67910 8.27016 7.98010
#
# Compressibility (1/GPa) = 0.01591520
#
# Stress axis : x y z
#
# Youngs Moduli (GPa) = 81.08897 92.31654 103.99032
#
# Poissons Ratio (x) = 0.20638 0.19227
# Poissons Ratio (y) = 0.18128 0.45217
# Poissons Ratio (z) = 0.14993 0.40141
#
# Static dielectric constant tensor:
#      x y z
#    x 3.621250 0.000000 -0.475160 
#    y 0.000000 3.400950 0.000000 
#    z -0.475160 0.000000 3.836960 
# 
# 
# High freq. dielectric constant tensor:
#      x y z
#    x 1.701230 0.000000 -0.027540 
#    y 0.000000 1.675950 0.000000 
#    z -0.027540 0.000000 1.704730 
# 
# From -- ./inp_files/111828.got.cif
#   From: 2010.06.25/outbox.ucp.g09.slc.cvg/sg12_56_cif.got.tgz:111828.got - 2010.06.28 13:50:54.
