data_PCOD8116657
_publ_section_title
;
Structure prediction by ZEFSAII (Michael W. Deem and Ramdas Pophale) SiO2 
 PCOD8116657
Probable space group: P 2/C
;
_chemical_formula_sum "Si O2"
_cell_formula_units_Z 22
_cell_length_a 10.686723
_cell_length_b 12.608686
_cell_length_c 9.372120
_cell_angle_alpha 90.000000
_cell_angle_beta 51.315674
_cell_angle_gamma 90.000000
_cell_volume 985.783536
_symmetry_space_group_name_H-M "P 2/C"
_symmetry_group_IT_number 13
_symmetry_cell_setting 'monoclinic'
loop_
_space_group_symop_operation_xyz
x,y,z
-x,y,1/2-z
-x,-y,-z
x,-y,1/2+z
loop_
_atom_site_type_symbol
_atom_site_label
_atom_site_fract_x
_atom_site_fract_y
_atom_site_fract_z
Si Si1 0.183717 0.636093 0.336116
Si Si2 0.544564 0.325682 0.519999
Si Si3 0.173481 0.118419 0.866927
Si Si4 0.775099 0.499621 0.445711
Si Si5 0.500000 0.359860 0.250000
Si Si6 0.000000 0.006377 0.250000
Si Si7 0.500000 0.848042 0.250000
O O1 0.377756 0.632659 0.207142
O O2 0.127949 0.757866 0.378727
O O3 0.116492 0.571169 0.522611
O O4 0.123779 0.575255 0.234889
O O5 0.670305 0.420365 0.423794
O O6 0.515470 0.286246 0.378686
O O7 0.605548 0.225092 0.566576
O O8 0.363632 0.090899 0.756667
O O9 0.125321 0.064244 0.751515
O O10 0.085259 0.078006 0.070923
O O11 0.659828 0.570852 0.624067
#
# Coordination Sequence:
#
# PCOD8116657 Si02
#       7
#     4   4   4   4   2   2   2
#     4  10  18  28  53  86 127 160 204 241 299 373
#     4  10  15  25  42  82 129 167 188 240 301 363
#     4  10  22  44  69  96 118 165 214 272 318 381
#     4  11  14  25  44  81 129 168 188 236 301 372
#     4  10  15  20  36  67 128 180 193 206 286 377
#     4  10  24  48  72  84 116 174 218 260 344 388
#     4  10  19  36  66 101 128 148 211 274 312 353
#
# _framework density 22.317273
#
# number of rings (size 3 to 8) (size 9 to 14) (size 15 to 20)
#    0.000    1.818    7.273    1.091    0.000    0.727 
#    0.000   14.545    0.000    4.364    0.000    0.000 
#    0.000    0.000    0.000    0.000    0.000    0.000 
#
# Total GULP energy -272539.537757 kJ/mol
# GULP energy per Si atom -12388.160807 kJ/mol
# Density = 2.226648 g / cm^3
# Si number density = 22.317273 Si / 1000 Ang^3
#
#
#
# Elastic Constant Matrix: (Units=GPa)
#
#
# Indices 1 2 3 4 5 6 
#
# 1 98.7132 44.7195 37.6351 0.0000 23.7975 0.0000
# 2 44.7195 117.8775 63.3782 0.0000 17.9007 0.0000
# 3 37.6351 63.3782 114.2482 0.0000 40.4648 0.0000
# 4 0.0000 0.0000 0.0000 26.7970 0.0000 -5.0434
# 5 23.7975 17.9007 40.4648 0.0000 27.5254 0.0000
# 6 0.0000 0.0000 0.0000 -5.0434 0.0000 -49.9638
#
#
#
# Elastic Compliance Matrix: (Units=1/GPa)
#
#
# Indices 1 2 3 4 5 6 
#
# 1 0.014551 -0.004922 0.002627 0.000000 -0.013241 0.000000
# 2 -0.004922 0.013987 -0.009228 0.000000 0.008725 0.000000
# 3 0.002627 -0.009228 0.024380 0.000000 -0.032110 0.000000
# 4 0.000000 0.000000 0.000000 0.036622 0.000000 -0.003697
# 5 -0.013241 0.008725 -0.032110 0.000000 0.089308 0.000000
# 6 0.000000 0.000000 0.000000 -0.003697 0.000000 -0.019641
#
#
# Mechanical properties :
#
#
# Convention : Reuss Voigt Hill
#
# Bulk Modulus (GPa) = 33.47743 69.14495 51.31119
# Shear Modulus (GPa) = 26.01327 13.21211 19.61269
#
# Velocity S-wave (km/s) = 3.41781 2.43577 2.96769
# Velocity P-wave (km/s) = 5.53249 6.24184 5.89784
#
# Compressibility (1/GPa) = 0.02987087
#
# Stress axis : x y z
#
# Youngs Moduli (GPa) = 68.72585 71.49342 41.01753
#
# Poissons Ratio (x) = 0.35187 -0.10774
# Poissons Ratio (y) = 0.33825 0.37853
# Poissons Ratio (z) = -0.18052 0.65977
#
# Static dielectric constant tensor:
#      x y z
#    x 3.884700 0.000000 0.413510 
#    y 0.000000 3.857350 0.000000 
#    z 0.413510 0.000000 4.124830 
# 
# 
# High freq. dielectric constant tensor:
#      x y z
#    x 1.871260 0.000000 0.035190 
#    y 0.000000 1.847700 0.000000 
#    z 0.035190 0.000000 1.883990 
# 
# From -- ./inp_files/15627.got.cif
#   From: 2010.06.25/outbox.cif.g09.slc.cpg/sg13_8_cif.got.tgz:15627.got - 2010.06.28 04:50:58.
