data_PCOD8116459
_publ_section_title
;
Structure prediction by ZEFSAII (Michael W. Deem and Ramdas Pophale) SiO2 
 PCOD8116459
Probable space group: C 2/M
;
_chemical_formula_sum "Si O2"
_cell_formula_units_Z 32
_cell_length_a 18.000000
_cell_length_b 9.000000
_cell_length_c 30.000000
_cell_angle_alpha 90.000000
_cell_angle_beta 40.000000
_cell_angle_gamma 90.000000
_cell_volume 3123.947783
_symmetry_space_group_name_H-M "C 2/M"
_symmetry_group_IT_number 12
_symmetry_cell_setting 'monoclinic'
loop_
_space_group_symop_operation_xyz
x,y,z
-x,y,-z
-x,-y,-z
x,-y,z
1/2+x,1/2+y,z
1/2-x,1/2+y,-z
1/2-x,1/2-y,-z
1/2+x,1/2-y,z
loop_
_atom_site_type_symbol
_atom_site_label
_atom_site_fract_x
_atom_site_fract_y
_atom_site_fract_z
Si Si1 0.521662 0.668153 0.706122
Si Si2 0.726577 0.332150 0.301241
Si Si3 0.268118 0.666265 0.799512
Si Si4 0.626765 0.323592 0.563756
Si Si5 0.128095 0.823476 0.066243
Si Si6 0.481284 0.168856 0.205104
Si Si7 0.965961 0.327011 0.566036
Si Si8 0.456536 0.675462 0.067307
O O1 0.565325 0.500000 0.694021
O O2 0.383414 0.675279 0.775362
O O3 0.573590 0.726788 0.635644
O O4 0.562099 0.775174 0.726817
O O5 0.691466 0.500000 0.330917
O O6 0.684062 0.289913 0.271376
O O7 0.667461 0.220466 0.363887
O O8 0.863651 0.316927 0.231692
O O9 0.215525 0.500000 0.823023
O O10 0.173766 0.774784 0.863497
O O11 0.638459 0.500000 0.556020
O O12 0.750000 0.250000 0.500000
O O13 0.543950 0.270570 0.562561
O O14 0.079632 0.767074 0.136054
O O15 0.041527 0.769548 0.067213
O O16 0.141672 0.000000 0.061886
O O17 0.250000 0.750000 0.000000
O O18 0.526643 0.000000 0.187294
O O19 0.983124 0.500000 0.568546
O O20 0.000000 0.289732 0.500000
O O21 0.455689 0.500000 0.065682
O O22 0.500000 0.741244 0.000000
#
# Coordination Sequence:
#
# PCOD8116459 Si02
#       8
#     8   8   8   8   8   8   8   8
#     4  10  23  42  63  90 125 162 201 252 310 367
#     4  10  21  41  65  90 121 160 207 258 310 366
#     4  10  20  40  65  89 118 156 202 250 304 361
#     4  11  24  44  66  91 128 167 208 258 314 376
#     4  11  24  42  63  89 126 167 205 251 310 367
#     4  11  24  41  64  93 124 161 208 256 306 369
#     4  11  25  42  63  94 127 165 211 258 312 372
#     4  10  23  41  61  90 123 157 199 250 303 355
#
# _framework density 10.243449
#
# number of rings (size 3 to 8) (size 9 to 14) (size 15 to 20)
#    0.000    1.500    2.500    1.500    3.500    4.750 
#    0.000    0.000    0.000    0.000    0.000    0.000 
#    0.000    0.000    0.000    0.000    0.000    0.000 
#
# Total GULP energy -396796.406003 kJ/mol
# GULP energy per Si atom -12399.887688 kJ/mol
# Density = 1.022013 g / cm^3
# Si number density = 10.243449 Si / 1000 Ang^3
#
#
#
# Elastic Constant Matrix: (Units=GPa)
#
#
# Indices 1 2 3 4 5 6 
#
# 1 56.7285 32.3350 34.9338 0.0009 11.5634 0.0077
# 2 32.3350 74.3824 46.8043 0.0029 5.5913 0.0062
# 3 34.9338 46.8043 141.5434 0.0006 2.6929 0.0010
# 4 0.0009 0.0029 0.0006 42.8798 0.0002 -2.0768
# 5 11.5634 5.5913 2.6929 0.0002 32.8578 0.0020
# 6 0.0077 0.0062 0.0010 -2.0768 0.0020 27.8437
#
#
#
# Elastic Compliance Matrix: (Units=1/GPa)
#
#
# Indices 1 2 3 4 5 6 
#
# 1 0.026218 -0.008654 -0.003467 0.000000 -0.007470 -0.000005
# 2 -0.008654 0.020029 -0.004487 -0.000001 0.000005 -0.000002
# 3 -0.003467 -0.004487 0.009381 0.000000 0.001215 0.000002
# 4 0.000000 -0.000001 0.000000 0.023406 0.000000 0.001746
# 5 -0.007470 0.000005 0.001215 0.000000 0.032963 0.000000
# 6 -0.000005 -0.000002 0.000002 0.001746 0.000000 0.036045
#
#
# Mechanical properties :
#
#
# Convention : Reuss Voigt Hill
#
# Bulk Modulus (GPa) = 44.61925 55.64450 50.13187
# Shear Modulus (GPa) = 26.49282 31.28835 28.89058
#
# Velocity S-wave (km/s) = 3.59995 3.91223 3.75933
# Velocity P-wave (km/s) = 6.25350 6.90126 6.58535
#
# Compressibility (1/GPa) = 0.02241185
#
# Stress axis : x y z
#
# Youngs Moduli (GPa) = 38.14105 49.92659 106.59443
#
# Poissons Ratio (x) = 0.43208 0.36956
# Poissons Ratio (y) = 0.33009 0.47832
# Poissons Ratio (z) = 0.13224 0.22403
#
# Static dielectric constant tensor:
#      x y z
#    x 3.717150 0.000010 0.030760 
#    y 0.000010 3.697900 -0.000010 
#    z 0.030760 -0.000010 3.889170 
# 
# 
# High freq. dielectric constant tensor:
#      x y z
#    x 1.798240 0.000000 0.002290 
#    y 0.000000 1.796720 0.000000 
#    z 0.002290 0.000000 1.817860 
# 
# From -- ./inp_files/377958.got.cif
#   From: 2010.06.25/outbox.ucp.g09.slc.cvg/sg12_189_cif.got.tgz:377958.got - 2010.06.28 13:50:54.
