data_PCOD8116744
_publ_section_title
;
Structure prediction by ZEFSAII (Michael W. Deem and Ramdas Pophale) SiO2 
 PCOD8116744
Probable space group: P 2/C
;
_chemical_formula_sum "Si O2"
_cell_formula_units_Z 28
_cell_length_a 11.881346
_cell_length_b 23.396432
_cell_length_c 5.406933
_cell_angle_alpha 90.000000
_cell_angle_beta 71.880280
_cell_angle_gamma 90.000000
_cell_volume 1428.488300
_symmetry_space_group_name_H-M "P 2/C"
_symmetry_group_IT_number 13
_symmetry_cell_setting 'monoclinic'
loop_
_space_group_symop_operation_xyz
x,y,z
-x,y,1/2-z
-x,-y,-z
x,-y,1/2+z
loop_
_atom_site_type_symbol
_atom_site_label
_atom_site_fract_x
_atom_site_fract_y
_atom_site_fract_z
Si Si1 0.609614 0.333547 0.526338
Si Si2 0.500000 0.573318 0.750000
Si Si3 0.745424 0.530893 0.492058
Si Si4 0.133070 0.023502 0.406287
Si Si5 0.180177 0.357522 0.766642
Si Si6 0.924171 0.847027 0.552051
Si Si7 0.203847 0.734065 0.866310
Si Si8 0.000000 0.668960 0.750000
O O1 0.500000 0.305343 0.750000
O O2 0.560291 0.386882 0.411310
O O3 0.708246 0.363024 0.629025
O O4 0.664806 0.282982 0.319031
O O5 0.602639 0.533303 0.567887
O O6 0.790261 0.501617 0.714342
O O7 0.802774 0.594490 0.456038
O O8 0.136976 0.091577 0.397158
O O9 0.196915 0.000828 0.614063
O O10 0.000000 0.000000 0.500000
O O11 0.181215 0.294157 0.648801
O O12 0.052872 0.368502 0.988008
O O13 0.815784 0.801972 0.608877
O O14 0.000000 0.837344 0.750000
O O15 0.000000 0.840531 0.250000
O O16 0.108837 0.709205 0.742199
#
# Coordination Sequence:
#
# PCOD8116744 Si02
#       8
#     4   2   4   4   4   4   4   2
#     4  11  21  39  64  86 116 155 186 239 318 366
#     4  12  22  42  64  90 118 146 180 250 310 386
#     4  12  26  41  64  94 116 144 191 246 304 378
#     4  10  16  30  48  76 116 169 192 242 290 336
#     4  11  23  41  61  83 120 152 194 242 306 354
#     4  12  21  33  55  85 122 162 212 239 285 343
#     4  11  23  38  58  87 116 158 204 250 287 355
#     4  10  22  38  62  78 110 160 200 232 292 344
#
# _framework density 19.601140000000001
#
# number of rings (size 3 to 8) (size 9 to 14) (size 15 to 20)
#    0.000    0.857    6.429    2.571    4.000    0.000 
#    0.000    0.714    0.000    0.000    0.000    0.000 
#    0.000    1.143    0.000    0.000    0.000    0.000 
#
# Total GULP energy -347129.812789 kJ/mol
# GULP energy per Si atom -12397.493314 kJ/mol
# Density = 1.955653 g / cm^3
# Si number density = 19.601140 Si / 1000 Ang^3
#
#
#
# Elastic Constant Matrix: (Units=GPa)
#
#
# Indices 1 2 3 4 5 6 
#
# 1 33.9357 11.4085 28.7860 0.0000 -4.7468 0.0000
# 2 11.4085 106.4462 36.8417 0.0000 1.4345 0.0000
# 3 28.7860 36.8417 145.8989 0.0000 3.4565 0.0000
# 4 0.0000 0.0000 0.0000 22.2782 0.0000 3.9662
# 5 -4.7468 1.4345 3.4565 0.0000 42.6852 0.0000
# 6 0.0000 0.0000 0.0000 3.9662 0.0000 21.1809
#
#
#
# Elastic Compliance Matrix: (Units=1/GPa)
#
#
# Indices 1 2 3 4 5 6 
#
# 1 0.036520 -0.001583 -0.006916 0.000000 0.004675 0.000000
# 2 -0.001583 0.010364 -0.002297 0.000000 -0.000338 0.000000
# 3 -0.006916 -0.002297 0.008832 0.000000 -0.001407 0.000000
# 4 0.000000 0.000000 0.000000 0.046435 0.000000 -0.008695
# 5 0.004675 -0.000338 -0.001407 0.000000 0.024072 0.000000
# 6 0.000000 0.000000 0.000000 -0.008695 0.000000 0.048841
#
#
# Mechanical properties :
#
#
# Convention : Reuss Voigt Hill
#
# Bulk Modulus (GPa) = 29.30547 48.92814 39.11681
# Shear Modulus (GPa) = 24.03490 31.17850 27.60670
#
# Velocity S-wave (km/s) = 3.50551 3.99262 3.75697
# Velocity P-wave (km/s) = 5.60073 6.80226 6.23053
#
# Compressibility (1/GPa) = 0.03412332
#
# Stress axis : x y z
#
# Youngs Moduli (GPa) = 27.38191 96.49233 113.22547
#
# Poissons Ratio (x) = 0.15278 0.78312
# Poissons Ratio (y) = 0.04335 0.26003
# Poissons Ratio (z) = 0.18939 0.22160
#
# Static dielectric constant tensor:
#      x y z
#    x 3.508860 0.000000 0.104560 
#    y 0.000000 3.516830 0.000000 
#    z 0.104560 0.000000 4.671440 
# 
# 
# High freq. dielectric constant tensor:
#      x y z
#    x 1.724220 0.000000 0.017100 
#    y 0.000000 1.744850 0.000000 
#    z 0.017100 0.000000 1.791400 
# 
# From -- ./inp_files/4117.got.cif
#   From: 2010.06.25/outbox.cif.g09.slc.cpg/sg13_3_cif.got.tgz:4117.got - 2010.06.28 04:50:58.
