data_PCOD8116604
_publ_section_title
;
Structure prediction by ZEFSAII (Michael W. Deem and Ramdas Pophale) SiO2 
 PCOD8116604
Probable space group: C 2/M
;
_chemical_formula_sum "Si O2"
_cell_formula_units_Z 28
_cell_length_a 12.000000
_cell_length_b 27.000000
_cell_length_c 15.000000
_cell_angle_alpha 90.000000
_cell_angle_beta 140.000000
_cell_angle_gamma 90.000000
_cell_volume 3123.947783
_symmetry_space_group_name_H-M "C 2/M"
_symmetry_group_IT_number 12
_symmetry_cell_setting 'monoclinic'
loop_
_space_group_symop_operation_xyz
x,y,z
-x,y,-z
-x,-y,-z
x,-y,z
1/2+x,1/2+y,z
1/2-x,1/2+y,-z
1/2-x,1/2-y,-z
1/2+x,1/2-y,z
loop_
_atom_site_type_symbol
_atom_site_label
_atom_site_fract_x
_atom_site_fract_y
_atom_site_fract_z
Si Si1 0.839563 0.107779 0.253327
Si Si2 0.691925 0.766505 0.595838
Si Si3 0.193959 0.166276 0.492775
Si Si4 0.485924 0.000000 0.142995
Si Si5 0.427396 0.894209 0.750606
Si Si6 0.301907 0.828253 0.989610
Si Si7 0.772548 0.000000 0.166378
Si Si8 0.508687 0.725211 0.908700
O O1 0.726988 0.108236 0.273067
O O2 0.722845 0.136312 0.109899
O O3 0.881295 0.050995 0.247648
O O4 0.015867 0.136428 0.379803
O O5 0.500000 0.784797 0.500000
O O6 0.771449 0.806711 0.578444
O O7 0.686622 0.709867 0.560795
O O8 0.812452 0.767392 0.756200
O O9 0.346522 0.127021 0.609234
O O10 0.507959 0.951196 0.218441
O O11 0.621646 0.000000 0.146277
O O12 0.299537 0.000000 0.979304
O O13 0.589821 0.859230 0.872086
O O14 0.114110 0.812545 0.911292
O O15 0.401868 0.778496 0.025589
O O16 0.500000 0.700139 0.000000
#
# Coordination Sequence:
#
# PCOD8116604 Si02
#       8
#     8   8   8   4   8   8   4   8
#     4  11  20  36  54  81 114 147 182 218 272 325
#     4  11  24  39  55  78 113 147 183 228 268 317
#     4  11  24  37  53  80 113 149 184 213 272 332
#     4   9  18  31  51  83 110 137 184 221 270 319
#     4  11  20  34  56  82 112 149 176 222 269 329
#     4  11  22  35  55  82 113 144 185 218 269 325
#     4   9  18  31  53  79 110 143 177 228 268 317
#     4  11  24  37  56  83 109 142 187 232 264 314
#
# _framework density 8.9630179999999999
#
# number of rings (size 3 to 8) (size 9 to 14) (size 15 to 20)
#    0.000    1.286    4.286    2.571    4.000    0.571 
#    0.000    2.143    0.000    0.000    0.000    6.000 
#    0.000    0.000    0.000    0.000    0.000    0.000 
#
# Total GULP energy -347163.837944 kJ/mol
# GULP energy per Si atom -12398.708498 kJ/mol
# Density = 0.894262 g / cm^3
# Si number density = 8.963018 Si / 1000 Ang^3
#
#
#
# Elastic Constant Matrix: (Units=GPa)
#
#
# Indices 1 2 3 4 5 6 
#
# 1 37.9850 16.0017 22.0860 0.0000 8.8078 0.0000
# 2 16.0017 124.0069 34.4398 0.0000 2.9939 0.0000
# 3 22.0860 34.4398 119.2637 0.0000 8.7701 0.0000
# 4 0.0000 0.0000 0.0000 24.1528 0.0000 7.8856
# 5 8.8078 2.9939 8.7701 0.0000 27.6168 0.0000
# 6 0.0000 0.0000 0.0000 7.8856 0.0000 16.3495
#
#
#
# Elastic Compliance Matrix: (Units=1/GPa)
#
#
# Indices 1 2 3 4 5 6 
#
# 1 0.032061 -0.002671 -0.004541 0.000000 -0.008494 0.000000
# 2 -0.002671 0.008990 -0.002143 0.000000 0.000558 0.000000
# 3 -0.004541 -0.002143 0.009953 0.000000 -0.001480 0.000000
# 4 0.000000 0.000000 0.000000 0.049141 0.000000 -0.023702
# 5 -0.008494 0.000558 -0.001480 0.000000 0.039328 0.000000
# 6 0.000000 0.000000 0.000000 -0.023702 0.000000 0.072596
#
#
# Mechanical properties :
#
#
# Convention : Reuss Voigt Hill
#
# Bulk Modulus (GPa) = 30.96426 47.36784 39.16605
# Shear Modulus (GPa) = 20.70008 27.53902 24.11955
#
# Velocity S-wave (km/s) = 3.40185 3.92377 3.67209
# Velocity P-wave (km/s) = 5.72197 6.85633 6.31468
#
# Compressibility (1/GPa) = 0.03229530
#
# Stress axis : x y z
#
# Youngs Moduli (GPa) = 31.19021 111.23129 100.46878
#
# Poissons Ratio (x) = 0.29708 0.45628
# Poissons Ratio (y) = 0.08330 0.21526
# Poissons Ratio (z) = 0.14165 0.23832
#
# Static dielectric constant tensor:
#      x y z
#    x 3.004770 0.000000 0.038300 
#    y 0.000000 3.644020 0.000000 
#    z 0.038300 0.000000 3.476640 
# 
# 
# High freq. dielectric constant tensor:
#      x y z
#    x 1.650370 0.000000 0.005860 
#    y 0.000000 1.705910 0.000000 
#    z 0.005860 0.000000 1.710820 
# 
# From -- ./inp_files/209154.got.cif
#   From: 2010.06.25/outbox.ucp.g09.slc.cvg/sg12_105_cif.got.tgz:209154.got - 2010.06.28 13:50:54.
