data_PCOD8116685
_publ_section_title
;
Structure prediction by ZEFSAII (Michael W. Deem and Ramdas Pophale) SiO2 
 PCOD8116685
Probable space group: P 2/C
;
_chemical_formula_sum "Si O2"
_cell_formula_units_Z 28
_cell_length_a 11.332137
_cell_length_b 24.964149
_cell_length_c 5.251210
_cell_angle_alpha 90.000000
_cell_angle_beta 111.006223
_cell_angle_gamma 90.000000
_cell_volume 1386.824792
_symmetry_space_group_name_H-M "P 2/C"
_symmetry_group_IT_number 13
_symmetry_cell_setting 'monoclinic'
loop_
_space_group_symop_operation_xyz
x,y,z
-x,y,1/2-z
-x,-y,-z
x,-y,1/2+z
loop_
_atom_site_type_symbol
_atom_site_label
_atom_site_fract_x
_atom_site_fract_y
_atom_site_fract_z
Si Si1 0.353974 0.692166 0.924155
Si Si2 0.729782 0.809866 0.506851
Si Si3 0.147381 0.851002 0.406745
Si Si4 0.360152 0.522668 0.424999
Si Si5 0.637106 0.647706 0.073014
Si Si6 0.226617 0.027390 0.042359
Si Si7 0.500000 0.948786 0.750000
Si Si8 0.500000 0.884403 0.250000
O O1 0.334243 0.752800 0.993505
O O2 0.288938 0.676917 0.603664
O O3 0.500588 0.675861 0.001205
O O4 0.291151 0.657046 0.103614
O O5 0.793346 0.816188 0.278277
O O6 0.617232 0.851206 0.443528
O O7 0.829744 0.820759 0.809075
O O8 0.205049 0.910283 0.471703
O O9 0.000000 0.856504 0.250000
O O10 0.500000 0.500000 0.500000
O O11 0.289332 0.492937 0.606390
O O12 0.370326 0.585234 0.490023
O O13 0.166147 0.992826 0.763190
O O14 0.376228 0.015282 0.207608
O O15 0.459190 0.916343 0.467802
#
# Coordination Sequence:
#
# PCOD8116685 Si02
#       8
#     4   4   4   4   4   4   2   2
#     4  10  19  30  49  71 104 141 181 239 284 331
#     4  12  23  41  63  89 115 150 193 236 299 341
#     4  12  27  47  65  86 116 151 195 239 278 344
#     4  10  16  24  39  60  95 153 211 231 256 323
#     4  10  18  30  43  73 113 149 192 242 282 329
#     4  12  24  42  66  92 118 151 184 223 286 343
#     4  12  22  39  60  92 126 150 170 221 282 336
#     4  12  20  37  64  88 118 144 180 231 276 344
#
# _framework density 20.190003999999998
#
# number of rings (size 3 to 8) (size 9 to 14) (size 15 to 20)
#    0.000    0.857    2.857    8.571    0.000    2.857 
#    0.000    0.000    0.000    0.000    0.000    0.000 
#    0.000    0.000    0.000    0.000    0.000  608.571 
#
# Total GULP energy -346912.571433 kJ/mol
# GULP energy per Si atom -12389.734694 kJ/mol
# Density = 2.014405 g / cm^3
# Si number density = 20.190004 Si / 1000 Ang^3
#
#
#
# Elastic Constant Matrix: (Units=GPa)
#
#
# Indices 1 2 3 4 5 6 
#
# 1 38.7220 16.3935 26.4843 0.0000 -3.9085 0.0000
# 2 16.3935 121.9074 47.8556 0.0000 -22.3059 0.0000
# 3 26.4843 47.8556 164.7468 0.0000 -41.2146 0.0000
# 4 0.0000 0.0000 0.0000 35.2265 0.0000 -15.9942
# 5 -3.9085 -22.3059 -41.2146 0.0000 38.4368 0.0000
# 6 0.0000 0.0000 0.0000 -15.9942 0.0000 11.2091
#
#
#
# Elastic Compliance Matrix: (Units=1/GPa)
#
#
# Indices 1 2 3 4 5 6 
#
# 1 0.030031 -0.002795 -0.004998 0.000000 -0.003928 0.000000
# 2 -0.002795 0.009856 -0.001440 0.000000 0.003891 0.000000
# 3 -0.004998 -0.001440 0.009505 0.000000 0.008848 0.000000
# 4 0.000000 0.000000 0.000000 0.080616 0.000000 0.115031
# 5 -0.003928 0.003891 0.008848 0.000000 0.037363 0.000000
# 6 0.000000 0.000000 0.000000 0.115031 0.000000 0.253352
#
#
# Mechanical properties :
#
#
# Convention : Reuss Voigt Hill
#
# Bulk Modulus (GPa) = 32.33631 56.31592 44.32611
# Shear Modulus (GPa) = 11.12350 32.61733 21.87041
#
# Velocity S-wave (km/s) = 2.34976 4.02371 3.29482
# Velocity P-wave (km/s) = 4.83866 7.03850 6.03958
#
# Compressibility (1/GPa) = 0.03092499
#
# Stress axis : x y z
#
# Youngs Moduli (GPa) = 33.29934 101.45930 105.20365
#
# Poissons Ratio (x) = 0.28357 0.52585
# Poissons Ratio (y) = 0.09307 0.15152
# Poissons Ratio (z) = 0.16644 0.14613
#
# Static dielectric constant tensor:
#      x y z
#    x 3.234820 0.000000 -0.599820 
#    y 0.000000 3.648310 0.000000 
#    z -0.599820 0.000000 5.233820 
# 
# 
# High freq. dielectric constant tensor:
#      x y z
#    x 1.723170 0.000000 -0.042280 
#    y 0.000000 1.790370 0.000000 
#    z -0.042280 0.000000 1.824800 
# 
# From -- ./inp_files/4183.got.cif
#   From: 2010.06.25/outbox.cif.g09.slc.cpg/sg13_3_cif.got.tgz:4183.got - 2010.06.28 04:50:58.
