data_PCOD8116565
_publ_section_title
;
Structure prediction by ZEFSAII (Michael W. Deem and Ramdas Pophale) SiO2 
 PCOD8116565
Probable space group: C 2/M
;
_chemical_formula_sum "Si O2"
_cell_formula_units_Z 28
_cell_length_a 15.000000
_cell_length_b 24.000000
_cell_length_c 15.000000
_cell_angle_alpha 90.000000
_cell_angle_beta 30.000000
_cell_angle_gamma 90.000000
_cell_volume 2700.000000
_symmetry_space_group_name_H-M "C 2/M"
_symmetry_group_IT_number 12
_symmetry_cell_setting 'monoclinic'
loop_
_space_group_symop_operation_xyz
x,y,z
-x,y,-z
-x,-y,-z
x,-y,z
1/2+x,1/2+y,z
1/2-x,1/2+y,-z
1/2-x,1/2-y,-z
1/2+x,1/2-y,z
loop_
_atom_site_type_symbol
_atom_site_label
_atom_site_fract_x
_atom_site_fract_y
_atom_site_fract_z
Si Si1 0.198954 0.760963 0.298657
Si Si2 0.467266 0.604813 0.238531
Si Si3 0.173485 0.563515 0.620789
Si Si4 0.298947 0.937111 0.857877
Si Si5 0.209197 0.366871 0.303578
Si Si6 0.286368 0.303622 0.911590
Si Si7 0.946508 0.647594 0.145090
O O1 0.258366 0.697414 0.251362
O O2 0.203193 0.784432 0.197403
O O3 0.337045 0.794576 0.240426
O O4 0.000000 0.770082 0.500000
O O5 0.357949 0.575082 0.411068
O O6 0.329009 0.607590 0.277201
O O7 0.533180 0.666111 0.212123
O O8 0.644093 0.568348 0.066330
O O9 0.164197 0.500000 0.658524
O O10 0.177021 0.599460 0.707813
O O11 0.997393 0.579599 0.716942
O O12 0.234685 0.896204 0.835990
O O13 0.303060 0.000000 0.818291
O O14 0.000000 0.377358 0.500000
O O15 0.250000 0.250000 0.000000
O O16 0.117236 0.345278 0.062563
O O17 0.000000 0.628617 0.000000
#
# Coordination Sequence:
#
# PCOD8116565 Si02
#       7
#     8   8   8   8   8   8   8
#     4  10  22  39  62  92 129 167 212 260 321 392
#     4  12  23  40  67  92 129 172 215 264 325 384
#     4  11  24  43  67  95 128 168 221 275 318 379
#     4  11  24  42  64  91 130 173 218 268 317 378
#     4  11  23  41  60  95 132 172 216 260 320 385
#     4  11  22  37  63  96 127 168 213 264 323 388
#     4  10  22  42  65  92 129 166 208 269 330 383
#
# _framework density 10.370369999999999
#
# number of rings (size 3 to 8) (size 9 to 14) (size 15 to 20)
#    0.000    1.143    2.857    3.429    0.000    4.571 
#    0.000    3.571    0.000    3.857    0.000    0.000 
#    0.000    0.000    0.000    0.000    0.000    0.000 
#
# Total GULP energy -347193.528604 kJ/mol
# GULP energy per Si atom -12399.768879 kJ/mol
# Density = 1.034677 g / cm^3
# Si number density = 10.370370 Si / 1000 Ang^3
#
#
#
# Elastic Constant Matrix: (Units=GPa)
#
#
# Indices 1 2 3 4 5 6 
#
# 1 61.1051 41.6024 24.3963 -0.0130 -13.1894 -0.0368
# 2 41.6024 52.7225 74.1547 -0.0466 8.4822 -0.0010
# 3 24.3963 74.1547 91.3666 -0.0603 -4.2315 -0.0469
# 4 -0.0130 -0.0466 -0.0603 44.7162 0.1002 -9.9562
# 5 -13.1894 8.4822 -4.2315 0.1002 26.0302 -0.0389
# 6 -0.0368 -0.0010 -0.0469 -9.9562 -0.0389 42.0597
#
#
#
# Elastic Compliance Matrix: (Units=1/GPa)
#
#
# Indices 1 2 3 4 5 6 
#
# 1 0.009368 0.019782 -0.018777 0.000005 -0.004751 -0.000015
# 2 0.019782 -0.035393 0.024628 -0.000042 0.025560 0.000058
# 3 -0.018777 0.024628 -0.004879 0.000049 -0.018333 -0.000027
# 4 0.000005 -0.000042 0.000049 0.023608 -0.000058 0.005588
# 5 -0.004751 0.025560 -0.018333 -0.000058 0.024700 -0.000015
# 6 -0.000015 0.000058 -0.000027 0.005588 -0.000015 0.025099
#
#
# Mechanical properties :
#
#
# Convention : Reuss Voigt Hill
#
# Bulk Modulus (GPa) = 49.11237 53.94457 51.52847
# Shear Modulus (GPa) = -2531.16148 26.89725 -1252.13211
#
# Velocity S-wave (km/s) = -34.97186 3.60506 -24.59710
# Velocity P-wave (km/s) = 40.08712 6.58742 27.96053
#
# Compressibility (1/GPa) = 0.02036147
#
# Stress axis : x y z
#
# Youngs Moduli (GPa) = 106.74305 -28.25386 -204.97169
#
# Poissons Ratio (x) = 0.55890 -3.84866
# Poissons Ratio (y) = -2.11154 5.04798
# Poissons Ratio (z) = 2.00427 0.69583
#
# Static dielectric constant tensor:
#      x y z
#    x 3.657300 -0.000150 -0.215270 
#    y -0.000150 3.763900 0.000410 
#    z -0.215270 0.000410 3.950210 
# 
# 
# High freq. dielectric constant tensor:
#      x y z
#    x 1.803680 -0.000010 -0.011440 
#    y -0.000010 1.807930 0.000030 
#    z -0.011440 0.000030 1.824540 
# 
# From -- ./inp_files/218646.got.cif
#   From: 2010.06.25/outbox.ucp.g09.slc.cvg/sg12_110_cif.got.tgz:218646.got - 2010.06.28 13:50:54.
