data_PCOD8116689
_publ_section_title
;
Structure prediction by ZEFSAII (Michael W. Deem and Ramdas Pophale) SiO2 
 PCOD8116689
Probable space group: P 2/C
;
_chemical_formula_sum "Si O2"
_cell_formula_units_Z 26
_cell_length_a 23.759808
_cell_length_b 13.029249
_cell_length_c 5.332335
_cell_angle_alpha 90.000000
_cell_angle_beta 117.034427
_cell_angle_gamma 90.000000
_cell_volume 1470.373138
_symmetry_space_group_name_H-M "P 2/C"
_symmetry_group_IT_number 13
_symmetry_cell_setting 'monoclinic'
loop_
_space_group_symop_operation_xyz
x,y,z
-x,y,1/2-z
-x,-y,-z
x,-y,1/2+z
loop_
_atom_site_type_symbol
_atom_site_label
_atom_site_fract_x
_atom_site_fract_y
_atom_site_fract_z
Si Si1 0.336902 0.562271 0.432646
Si Si2 0.689713 0.033785 0.613930
Si Si3 0.569305 0.884546 0.364725
Si Si4 0.810293 0.391840 0.865895
Si Si5 0.609918 0.216082 0.449494
Si Si6 0.137224 0.620002 0.527806
Si Si7 0.000000 0.567068 0.250000
O O1 0.354208 0.500845 0.718976
O O2 0.263630 0.589875 0.284020
O O3 0.378781 0.663585 0.513793
O O4 0.677313 0.155241 0.597159
O O5 0.727810 0.002881 0.438615
O O6 0.621396 0.974682 0.463500
O O7 0.500000 0.936206 0.250000
O O8 0.577851 0.809289 0.619301
O O9 0.569962 0.817141 0.111948
O O10 0.848138 0.498693 0.942673
O O11 0.831191 0.329861 0.657473
O O12 0.831144 0.329880 0.158960
O O13 0.062025 0.638933 0.375619
O O14 0.000000 0.500000 0.500000
#
# Coordination Sequence:
#
# PCOD8116689 Si02
#       7
#     4   4   4   4   4   4   2
#     4  12  21  33  49  61  84 120 157 192 215 221
#     4   8  16  29  47  71  96 107 122 160 211 269
#     4  10  19  34  55  75  91 106 125 165 224 282
#     4  10  16  27  39  53  72 104 146 184 208 227
#     4  10  21  32  47  74  91 108 142 177 210 262
#     4  10  16  25  36  56  77  98 141 181 222 249
#     4  12  16  20  34  52  78 102 118 180 232 258
#
# _framework density 17.682586000000001
#
# number of rings (size 3 to 8) (size 9 to 14) (size 15 to 20)
#    0.000    1.846    6.154    1.385    0.000    5.538 
#    0.000    0.000    0.000    9.231    0.000    0.000 
#    0.000    0.000    0.000    0.000    0.000    0.000 
#
# Total GULP energy -322142.028239 kJ/mol
# GULP energy per Si atom -12390.078009 kJ/mol
# Density = 1.764234 g / cm^3
# Si number density = 17.682586 Si / 1000 Ang^3
#
#
#
# Elastic Constant Matrix: (Units=GPa)
#
#
# Indices 1 2 3 4 5 6 
#
# 1 40.3829 13.2493 26.9666 0.0000 -24.2639 0.0000
# 2 13.2493 52.7811 10.6638 0.0000 -7.0387 0.0000
# 3 26.9666 10.6638 87.9527 0.0000 -52.8181 0.0000
# 4 0.0000 0.0000 0.0000 11.5134 0.0000 -8.1549
# 5 -24.2639 -7.0387 -52.8181 0.0000 46.2403 0.0000
# 6 0.0000 0.0000 0.0000 -8.1549 0.0000 3.6752
#
#
#
# Elastic Compliance Matrix: (Units=1/GPa)
#
#
# Indices 1 2 3 4 5 6 
#
# 1 0.038715 -0.007243 0.001738 0.000000 0.021198 0.000000
# 2 -0.007243 0.020787 -0.002171 0.000000 -0.003116 0.000000
# 3 0.001738 -0.002171 0.036458 0.000000 0.042225 0.000000
# 4 0.000000 0.000000 0.000000 -0.151936 0.000000 -0.337134
# 5 0.021198 -0.003116 0.042225 0.000000 0.080507 0.000000
# 6 0.000000 0.000000 0.000000 -0.337134 0.000000 -0.475978
#
#
# Mechanical properties :
#
#
# Convention : Reuss Voigt Hill
#
# Bulk Modulus (GPa) = 12.40561 31.43067 21.91814
# Shear Modulus (GPa) = -12.21822 20.96825 4.37501
#
# Velocity S-wave (km/s) = -2.63149 3.44730 1.57466
# Velocity P-wave (km/s) = 1.48393 5.80161 3.96589
#
# Compressibility (1/GPa) = 0.08060867
#
# Stress axis : x y z
#
# Youngs Moduli (GPa) = 25.82948 48.10621 27.42904
#
# Poissons Ratio (x) = 0.34842 -0.04767
# Poissons Ratio (y) = 0.18707 0.05955
# Poissons Ratio (z) = -0.04489 0.10444
#
# Static dielectric constant tensor:
#      x y z
#    x 3.652410 0.000000 -1.011940 
#    y 0.000000 2.801420 0.000000 
#    z -1.011940 0.000000 4.564580 
# 
# 
# High freq. dielectric constant tensor:
#      x y z
#    x 1.668110 0.000000 -0.043580 
#    y 0.000000 1.613090 0.000000 
#    z -0.043580 0.000000 1.707820 
# 
# From -- ./inp_files/6926.got.cif
#   From: 2010.06.25/outbox.cif.g09.slc.cpg/sg13_4_cif.got.tgz:6926.got - 2010.06.28 04:50:58.
