data_PCOD8116316
_publ_section_title
;
Structure prediction by ZEFSAII (Michael W. Deem and Ramdas Pophale) SiO2 
 PCOD8116316
Probable space group: C 2/M
;
_chemical_formula_sum "Si O2"
_cell_formula_units_Z 24
_cell_length_a 15.000000
_cell_length_b 18.000000
_cell_length_c 18.000000
_cell_angle_alpha 90.000000
_cell_angle_beta 150.000000
_cell_angle_gamma 90.000000
_cell_volume 2430.000000
_symmetry_space_group_name_H-M "C 2/M"
_symmetry_group_IT_number 12
_symmetry_cell_setting 'monoclinic'
loop_
_space_group_symop_operation_xyz
x,y,z
-x,y,-z
-x,-y,-z
x,-y,z
1/2+x,1/2+y,z
1/2-x,1/2+y,-z
1/2-x,1/2-y,-z
1/2+x,1/2-y,z
loop_
_atom_site_type_symbol
_atom_site_label
_atom_site_fract_x
_atom_site_fract_y
_atom_site_fract_z
Si Si1 0.486372 0.664284 0.077897
Si Si2 0.262989 0.088028 0.525651
Si Si3 0.944291 0.334698 0.876619
Si Si4 0.917194 0.918354 0.362704
Si Si5 0.309370 0.911755 0.392125
Si Si6 0.618924 0.088882 0.869484
O O1 0.521732 0.750083 0.126553
O O2 0.646420 0.615713 0.225323
O O3 0.500000 0.655047 0.000000
O O4 0.294768 0.633510 0.968687
O O5 0.278056 0.117836 0.452807
O O6 0.443234 0.115123 0.697003
O O7 0.074878 0.117345 0.424489
O O8 0.257377 0.000000 0.526231
O O9 0.737146 0.358749 0.730317
O O10 0.070520 0.388764 0.918913
O O11 0.000000 0.345554 0.000000
O O12 0.000000 0.938181 0.500000
O O13 0.850123 0.000000 0.282718
O O14 0.500000 0.881351 0.500000
O O15 0.309991 0.000000 0.390207
O O16 0.653684 0.000000 0.888587
#
# Coordination Sequence:
#
# PCOD8116316 Si02
#       6
#     8   8   8   8   8   8
#     4  11  25  43  61  86 127 168 206 251 308 368
#     4   9  19  36  62  95 122 149 197 259 310 357
#     4  11  25  41  60  89 133 168 201 249 304 372
#     4  10  19  37  63  91 123 160 203 249 303 364
#     4  10  21  39  63  91 120 156 210 263 302 356
#     4  11  22  41  67  92 121 161 207 256 310 362
#
# _framework density 9.8765429999999999
#
# number of rings (size 3 to 8) (size 9 to 14) (size 15 to 20)
#    0.000    1.667    1.667    2.500    2.333    4.667 
#    0.000    0.833    0.000    0.000    0.000    0.000 
#    0.000    0.000    0.000    0.000    0.000    0.000 
#
# Total GULP energy -297416.764460 kJ/mol
# GULP energy per Si atom -12392.365186 kJ/mol
# Density = 0.985406 g / cm^3
# Si number density = 9.876543 Si / 1000 Ang^3
#
#
#
# Elastic Constant Matrix: (Units=GPa)
#
#
# Indices 1 2 3 4 5 6 
#
# 1 168.7834 45.9162 52.2921 0.0043 37.5848 0.0005
# 2 45.9162 87.0570 41.3752 0.0271 19.5767 0.0097
# 3 52.2921 41.3752 100.2942 0.0320 36.6420 0.0149
# 4 0.0043 0.0271 0.0320 27.9967 0.0114 6.7448
# 5 37.5848 19.5767 36.6420 0.0114 52.1342 0.0031
# 6 0.0005 0.0097 0.0149 6.7448 0.0031 35.8276
#
#
#
# Elastic Compliance Matrix: (Units=1/GPa)
#
#
# Indices 1 2 3 4 5 6 
#
# 1 0.007962 -0.002546 -0.001821 0.000005 -0.003504 0.000001
# 2 -0.002546 0.015208 -0.004750 -0.000009 -0.000536 0.000000
# 3 -0.001821 -0.004750 0.015807 -0.000009 -0.008014 -0.000003
# 4 0.000005 -0.000009 -0.000009 0.037415 -0.000001 -0.007044
# 5 -0.003504 -0.000536 -0.008014 -0.000001 0.027541 0.000001
# 6 0.000001 0.000000 -0.000003 -0.007044 0.000001 0.029238
#
#
# Mechanical properties :
#
#
# Convention : Reuss Voigt Hill
#
# Bulk Modulus (GPa) = 48.20889 70.58907 59.39898
# Shear Modulus (GPa) = 31.58165 37.62842 34.60504
#
# Velocity S-wave (km/s) = 4.00286 4.36930 4.19009
# Velocity P-wave (km/s) = 6.76924 7.82736 7.31745
#
# Compressibility (1/GPa) = 0.02074306
#
# Stress axis : x y z
#
# Youngs Moduli (GPa) = 125.60079 65.75533 63.26138
#
# Poissons Ratio (x) = 0.16741 0.11517
# Poissons Ratio (y) = 0.31978 0.30052
# Poissons Ratio (z) = 0.22867 0.31237
#
# Static dielectric constant tensor:
#      x y z
#    x 4.034280 -0.000040 0.138500 
#    y -0.000040 3.671420 -0.000080 
#    z 0.138500 -0.000080 3.634460 
# 
# 
# High freq. dielectric constant tensor:
#      x y z
#    x 1.801970 0.000000 0.015580 
#    y 0.000000 1.760970 -0.000010 
#    z 0.015580 -0.000010 1.782300 
# 
# From -- ./inp_files/61740.got.cif
#   From: 2010.06.25/outbox.ucp.g09.slc.cvg/sg12_31_cif.got.tgz:61740.got - 2010.06.28 13:50:54.
