data_PCOD8116732
_publ_section_title
;
Structure prediction by ZEFSAII (Michael W. Deem and Ramdas Pophale) SiO2 
 PCOD8116732
Probable space group: P 2/C
;
_chemical_formula_sum "Si O2"
_cell_formula_units_Z 32
_cell_length_a 21.679822
_cell_length_b 5.039374
_cell_length_c 19.486813
_cell_angle_alpha 90.000000
_cell_angle_beta 50.175492
_cell_angle_gamma 90.000000
_cell_volume 1635.082978
_symmetry_space_group_name_H-M "P 2/C"
_symmetry_group_IT_number 13
_symmetry_cell_setting 'monoclinic'
loop_
_space_group_symop_operation_xyz
x,y,z
-x,y,1/2-z
-x,-y,-z
x,-y,1/2+z
loop_
_atom_site_type_symbol
_atom_site_label
_atom_site_fract_x
_atom_site_fract_y
_atom_site_fract_z
Si Si1 0.499396 0.749740 0.952844
Si Si2 0.167601 0.134841 0.349253
Si Si3 0.673916 0.762189 0.423709
Si Si4 0.162302 0.734403 0.130740
Si Si5 0.897894 0.629391 0.176929
Si Si6 0.074786 0.746114 0.646003
Si Si7 0.044544 0.929319 0.038786
Si Si8 0.327486 0.738364 0.672040
O O1 0.584905 0.751378 0.851332
O O2 0.500000 0.500000 0.000000
O O3 0.413406 0.744211 0.974542
O O4 0.500000 0.000000 0.000000
O O5 0.114584 0.333824 0.341378
O O6 0.135736 0.150852 0.451061
O O7 0.261082 0.216740 0.278537
O O8 0.154043 0.839115 0.329968
O O9 0.740689 0.735003 0.435422
O O10 0.684799 0.542885 0.356414
O O11 0.682636 0.044305 0.380268
O O12 0.130106 0.633957 0.225835
O O13 0.127589 0.522766 0.100726
O O14 0.131873 0.025516 0.135150
O O15 0.993811 0.688390 0.108218
O O16 0.000000 0.700751 0.750000
O O17 0.045438 0.826006 0.591033
O O18 0.000000 0.000000 0.000000
#
# Coordination Sequence:
#
# PCOD8116732 Si02
#       8
#     4   4   4   4   4   4   4   4
#     4   8  16  26  44  73 110 141 168 214 265 319
#     4  11  20  34  55  80 109 142 186 220 273 329
#     4  10  18  31  49  77 110 142 178 217 272 324
#     4  12  22  36  59  76 110 144 187 223 278 327
#     4  11  21  36  55  79 104 147 181 224 270 327
#     4  12  26  40  56  79 107 145 186 233 276 325
#     4  10  25  41  57  78 109 145 183 229 277 325
#     4  10  16  29  50  78 110 142 177 218 271 318
#
# _framework density 19.570869999999999
#
# number of rings (size 3 to 8) (size 9 to 14) (size 15 to 20)
#    0.000    1.500    3.750    2.250    1.750    2.000 
#    0.000    0.000    0.000    0.000    0.000    0.875 
#    0.000    2.000    0.000    0.000    0.000    0.000 
#
# Total GULP energy -396495.491914 kJ/mol
# GULP energy per Si atom -12390.484122 kJ/mol
# Density = 1.952633 g / cm^3
# Si number density = 19.570870 Si / 1000 Ang^3
#
#
#
# Elastic Constant Matrix: (Units=GPa)
#
#
# Indices 1 2 3 4 5 6 
#
# 1 125.0936 12.8494 42.9297 0.0000 -40.9355 0.0000
# 2 12.8494 71.4195 -3.0894 0.0000 -9.6335 0.0000
# 3 42.9297 -3.0894 72.2671 0.0000 -29.8764 0.0000
# 4 0.0000 0.0000 0.0000 9.1743 0.0000 -7.4458
# 5 -40.9355 -9.6335 -29.8764 0.0000 41.2317 0.0000
# 6 0.0000 0.0000 0.0000 -7.4458 0.0000 27.0058
#
#
#
# Elastic Compliance Matrix: (Units=1/GPa)
#
#
# Indices 1 2 3 4 5 6 
#
# 1 0.012430 -0.001096 -0.003476 0.000000 0.009566 0.000000
# 2 -0.001096 0.014985 0.003268 0.000000 0.004781 0.000000
# 3 -0.003476 0.003268 0.021317 0.000000 0.012759 0.000000
# 4 0.000000 0.000000 0.000000 0.140422 0.000000 0.038716
# 5 0.009566 0.004781 0.012759 0.000000 0.044112 0.000000
# 6 0.000000 0.000000 0.000000 0.038716 0.000000 0.047704
#
#
# Mechanical properties :
#
#
# Convention : Reuss Voigt Hill
#
# Bulk Modulus (GPa) = 21.68074 41.57328 31.62701
# Shear Modulus (GPa) = 16.72506 29.88838 23.30672
#
# Velocity S-wave (km/s) = 2.92651 3.91216 3.45467
# Velocity P-wave (km/s) = 4.74567 6.45719 5.66642
#
# Compressibility (1/GPa) = 0.04612389
#
# Stress axis : x y z
#
# Youngs Moduli (GPa) = 80.45191 66.73199 46.91107
#
# Poissons Ratio (x) = 0.07317 0.16307
# Poissons Ratio (y) = 0.08821 -0.15333
# Poissons Ratio (z) = 0.27966 -0.21811
#
# Static dielectric constant tensor:
#      x y z
#    x 4.075760 0.000000 -0.697450 
#    y 0.000000 3.812520 0.000000 
#    z -0.697450 0.000000 3.927460 
# 
# 
# High freq. dielectric constant tensor:
#      x y z
#    x 1.746880 0.000000 -0.039970 
#    y 0.000000 1.789380 0.000000 
#    z -0.039970 0.000000 1.726840 
# 
# From -- ./inp_files/70220.got.cif
#   From: 2010.06.25/outbox.cif.g09.slc.cpg/sg13_36_cif.got.tgz:70220.got - 2010.06.28 04:50:58.
