data_PCOD8116280
_publ_section_title
;
Structure prediction by ZEFSAII (Michael W. Deem and Ramdas Pophale) SiO2 
 PCOD8116280
Probable space group: C 2/M
;
_chemical_formula_sum "Si O2"
_cell_formula_units_Z 28
_cell_length_a 21.000000
_cell_length_b 15.000000
_cell_length_c 18.000000
_cell_angle_alpha 90.000000
_cell_angle_beta 150.000000
_cell_angle_gamma 90.000000
_cell_volume 2835.000000
_symmetry_space_group_name_H-M "C 2/M"
_symmetry_group_IT_number 12
_symmetry_cell_setting 'monoclinic'
loop_
_space_group_symop_operation_xyz
x,y,z
-x,y,-z
-x,-y,-z
x,-y,z
1/2+x,1/2+y,z
1/2-x,1/2+y,-z
1/2-x,1/2-y,-z
1/2+x,1/2-y,z
loop_
_atom_site_type_symbol
_atom_site_label
_atom_site_fract_x
_atom_site_fract_y
_atom_site_fract_z
Si Si1 0.981972 0.399253 0.589738
Si Si2 0.912662 0.352836 0.147158
Si Si3 0.639771 0.352744 0.916189
Si Si4 0.760317 0.104375 0.819696
Si Si5 0.770094 0.790059 0.685191
Si Si6 0.161691 0.394911 0.311349
Si Si7 0.362203 0.598405 0.644262
O O1 0.927936 0.500000 0.519599
O O2 0.877131 0.321715 0.472391
O O3 0.026002 0.397323 0.719060
O O4 0.106301 0.382316 0.663881
O O5 0.899136 0.247698 0.142116
O O6 0.011282 0.379904 0.180654
O O7 0.762595 0.385991 0.990331
O O8 0.509529 0.405337 0.764609
O O9 0.676524 0.363453 0.039901
O O10 0.816466 0.168134 0.810971
O O11 0.793877 0.000000 0.840058
O O12 0.795090 0.681520 0.706233
O O13 0.852801 0.831746 0.701920
O O14 0.176503 0.500000 0.299279
O O15 0.260080 0.375525 0.477799
O O16 0.326092 0.500000 0.636917
#
# Coordination Sequence:
#
# PCOD8116280 Si02
#       7
#     8   8   8   8   8   8   8
#     4  10  19  34  60  91 119 151 193 239 289 349
#     4  10  19  37  59  82 115 156 196 232 280 336
#     4  10  21  36  57  86 122 154 185 232 286 349
#     4  10  22  37  56  87 124 159 189 225 290 366
#     4  12  21  35  57  84 120 153 193 237 287 344
#     4  11  23  39  61  85 112 152 201 247 290 335
#     4  11  21  34  56  89 118 145 183 238 297 343
#
# _framework density 9.8765429999999999
#
# number of rings (size 3 to 8) (size 9 to 14) (size 15 to 20)
#    0.000    1.429    2.857    3.857    0.000    3.429 
#    0.000    1.429    0.000    4.286    0.000    4.000 
#    0.000    0.000    0.000    0.000    0.000    0.000 
#
# Total GULP energy -346873.634342 kJ/mol
# GULP energy per Si atom -12388.344084 kJ/mol
# Density = 0.985406 g / cm^3
# Si number density = 9.876543 Si / 1000 Ang^3
#
#
#
# Elastic Constant Matrix: (Units=GPa)
#
#
# Indices 1 2 3 4 5 6 
#
# 1 88.7530 43.6107 29.4550 -0.0001 16.5583 0.0000
# 2 43.6107 141.7988 16.2432 0.0001 2.6669 0.0001
# 3 29.4550 16.2432 91.3291 0.0001 27.5954 0.0001
# 4 -0.0001 0.0001 0.0001 27.7422 -0.0001 2.2983
# 5 16.5583 2.6669 27.5954 -0.0001 32.3207 0.0000
# 6 0.0000 0.0001 0.0001 2.2983 0.0000 35.1807
#
#
#
# Elastic Compliance Matrix: (Units=1/GPa)
#
#
# Indices 1 2 3 4 5 6 
#
# 1 0.015199 -0.004283 -0.002553 0.000000 -0.005254 0.000000
# 2 -0.004283 0.008417 -0.000766 0.000000 0.002154 0.000000
# 3 -0.002553 -0.000766 0.015491 0.000000 -0.011855 0.000000
# 4 0.000000 0.000000 0.000000 0.036242 0.000000 -0.002368
# 5 -0.005254 0.002154 -0.011855 0.000000 0.043576 0.000000
# 6 0.000000 0.000000 0.000000 -0.002368 0.000000 0.028579
#
#
# Mechanical properties :
#
#
# Convention : Reuss Voigt Hill
#
# Bulk Modulus (GPa) = 41.83712 55.61099 48.72406
# Shear Modulus (GPa) = 29.29503 34.55351 31.92427
#
# Velocity S-wave (km/s) = 3.85523 4.18697 4.02452
# Velocity P-wave (km/s) = 6.40649 7.18251 6.80557
#
# Compressibility (1/GPa) = 0.02390222
#
# Stress axis : x y z
#
# Youngs Moduli (GPa) = 65.79236 118.80862 64.55301
#
# Poissons Ratio (x) = 0.50890 0.16479
# Poissons Ratio (y) = 0.28181 0.04948
# Poissons Ratio (z) = 0.16795 0.09106
#
# Static dielectric constant tensor:
#      x y z
#    x 3.796350 0.000000 0.401770 
#    y 0.000000 3.925960 0.000000 
#    z 0.401770 0.000000 3.863280 
# 
# 
# High freq. dielectric constant tensor:
#      x y z
#    x 1.762200 0.000000 0.031860 
#    y 0.000000 1.787530 0.000000 
#    z 0.031860 0.000000 1.781880 
# 
# From -- ./inp_files/284586.got.cif
#   From: 2010.06.25/outbox.ucp.g09.slc.cvg/sg12_143_cif.got.tgz:284586.got - 2010.06.28 13:50:54.
