data_PCOD8116669
_publ_section_title
;
Structure prediction by ZEFSAII (Michael W. Deem and Ramdas Pophale) SiO2 
 PCOD8116669
Probable space group: P 2/C
;
_chemical_formula_sum "Si O2"
_cell_formula_units_Z 32
_cell_length_a 8.511545
_cell_length_b 11.825627
_cell_length_c 18.772746
_cell_angle_alpha 90.000000
_cell_angle_beta 116.675146
_cell_angle_gamma 90.000000
_cell_volume 1688.445779
_symmetry_space_group_name_H-M "P 2/C"
_symmetry_group_IT_number 13
_symmetry_cell_setting 'monoclinic'
loop_
_space_group_symop_operation_xyz
x,y,z
-x,y,1/2-z
-x,-y,-z
x,-y,1/2+z
loop_
_atom_site_type_symbol
_atom_site_label
_atom_site_fract_x
_atom_site_fract_y
_atom_site_fract_z
Si Si1 0.964488 0.777811 0.413606
Si Si2 0.821630 0.191513 0.674096
Si Si3 0.392365 0.003461 0.329756
Si Si4 0.843556 0.403215 0.273144
Si Si5 0.843110 0.249721 0.406301
Si Si6 0.457646 0.755645 0.822650
Si Si7 0.230350 0.997943 0.144508
Si Si8 0.700298 0.352334 0.769996
O O1 0.124683 0.755441 0.390960
O O2 0.021680 0.731730 0.501991
O O3 0.788388 0.714100 0.353361
O O4 0.922341 0.911329 0.409128
O O5 0.714579 0.283229 0.698937
O O6 0.000000 0.153847 0.750000
O O7 0.700658 0.080861 0.633192
O O8 0.365080 0.136797 0.342338
O O9 0.295840 0.970106 0.236909
O O10 0.601438 0.982202 0.372677
O O11 0.897126 0.335667 0.354973
O O12 0.669306 0.351328 0.201131
O O13 0.805192 0.531741 0.283668
O O14 0.000000 0.394216 0.250000
O O15 0.645390 0.277471 0.394836
O O16 0.852029 0.122514 0.378072
O O17 0.500000 0.797132 0.750000
O O18 0.500000 0.375013 0.750000
#
# Coordination Sequence:
#
# PCOD8116669 Si02
#       8
#     4   4   4   4   4   4   4   4
#     4  11  22  35  55  84 118 146 179 232 276 326
#     4  10  20  31  52  83 111 140 186 231 267 316
#     4  10  15  30  55  81 105 145 191 224 260 321
#     4  11  22  38  61  85 106 135 191 240 268 322
#     4  10  21  38  56  81 117 152 180 217 285 332
#     4   9  17  34  56  78 108 149 184 223 267 327
#     4  10  17  32  55  80 113 148 183 223 268 327
#     4  11  22  39  61  81 105 146 189 228 276 329
#
# _framework density 18.952341000000001
#
# number of rings (size 3 to 8) (size 9 to 14) (size 15 to 20)
#    0.000    1.750    6.250    3.375    0.000    2.000 
#    0.000    5.000    0.000    3.000    0.000    0.000 
#    0.000    0.000    0.000    0.000    0.000    0.000 
#
# Total GULP energy -396743.256778 kJ/mol
# GULP energy per Si atom -12398.226774 kJ/mol
# Density = 1.890920 g / cm^3
# Si number density = 18.952341 Si / 1000 Ang^3
#
#
#
# Elastic Constant Matrix: (Units=GPa)
#
#
# Indices 1 2 3 4 5 6 
#
# 1 81.3713 30.9320 23.9472 0.0000 -3.2831 0.0000
# 2 30.9320 100.4852 20.3302 0.0000 -5.3834 0.0000
# 3 23.9472 20.3302 77.0228 0.0000 -1.0775 0.0000
# 4 0.0000 0.0000 0.0000 11.5948 0.0000 8.9189
# 5 -3.2831 -5.3834 -1.0775 0.0000 13.0158 0.0000
# 6 0.0000 0.0000 0.0000 8.9189 0.0000 29.2599
#
#
#
# Elastic Compliance Matrix: (Units=1/GPa)
#
#
# Indices 1 2 3 4 5 6 
#
# 1 0.014848 -0.003740 -0.003603 0.000000 0.001900 0.000000
# 2 -0.003740 0.011681 -0.001868 0.000000 0.003733 0.000000
# 3 -0.003603 -0.001868 0.014590 0.000000 -0.000474 0.000000
# 4 0.000000 0.000000 0.000000 0.112662 0.000000 -0.034341
# 5 0.001900 0.003733 -0.000474 0.000000 0.078814 0.000000
# 6 0.000000 0.000000 0.000000 -0.034341 0.000000 0.044644
#
#
# Mechanical properties :
#
#
# Convention : Reuss Voigt Hill
#
# Bulk Modulus (GPa) = 44.05840 45.47755 44.76798
# Shear Modulus (GPa) = 16.48938 23.01876 19.75407
#
# Velocity S-wave (km/s) = 2.95285 3.48884 3.23197
# Velocity P-wave (km/s) = 5.90958 6.34643 6.13190
#
# Compressibility (1/GPa) = 0.02269715
#
# Stress axis : x y z
#
# Youngs Moduli (GPa) = 67.34957 85.60962 68.54130
#
# Poissons Ratio (x) = 0.32017 0.24693
# Poissons Ratio (y) = 0.25188 0.12805
# Poissons Ratio (z) = 0.24264 0.15994
#
# Static dielectric constant tensor:
#      x y z
#    x 3.515640 0.000000 0.146660 
#    y 0.000000 3.483720 0.000000 
#    z 0.146660 0.000000 3.288350 
# 
# 
# High freq. dielectric constant tensor:
#      x y z
#    x 1.729300 0.000000 0.018090 
#    y 0.000000 1.740640 0.000000 
#    z 0.018090 0.000000 1.702300 
# 
# From -- ./inp_files/76466.got.cif
#   From: 2010.06.25/outbox.cif.g09.slc.cpg/sg13_39_cif.got.tgz:76466.got - 2010.06.28 04:50:58.
