data_PCOD8116442
_publ_section_title
;
Structure prediction by ZEFSAII (Michael W. Deem and Ramdas Pophale) SiO2 
 PCOD8116442
Probable space group: C 2/M
;
_chemical_formula_sum "Si O2"
_cell_formula_units_Z 28
_cell_length_a 21.000000
_cell_length_b 18.000000
_cell_length_c 21.000000
_cell_angle_alpha 90.000000
_cell_angle_beta 20.000000
_cell_angle_gamma 90.000000
_cell_volume 2714.955898
_symmetry_space_group_name_H-M "C 2/M"
_symmetry_group_IT_number 12
_symmetry_cell_setting 'monoclinic'
loop_
_space_group_symop_operation_xyz
x,y,z
-x,y,-z
-x,-y,-z
x,-y,z
1/2+x,1/2+y,z
1/2-x,1/2+y,-z
1/2-x,1/2-y,-z
1/2+x,1/2-y,z
loop_
_atom_site_type_symbol
_atom_site_label
_atom_site_fract_x
_atom_site_fract_y
_atom_site_fract_z
Si Si1 0.477195 0.654532 0.592692
Si Si2 0.948780 0.804581 0.184704
Si Si3 0.012375 0.685083 0.594569
Si Si4 0.055940 0.287448 0.692547
Si Si5 0.559484 0.843918 0.013963
Si Si6 0.157245 0.911904 0.906763
Si Si7 0.322186 0.914935 0.337353
O O1 0.500000 0.619878 0.500000
O O2 0.506499 0.742330 0.556803
O O3 0.624264 0.618892 0.502708
O O4 0.279465 0.643944 0.812182
O O5 0.733938 0.835701 0.388941
O O6 0.033209 0.768186 0.170744
O O7 0.979914 0.738696 0.103950
O O8 0.073306 0.875998 0.049847
O O9 0.866072 0.624850 0.700842
O O10 0.943956 0.705144 0.731277
O O11 0.250000 0.250000 0.500000
O O12 0.091313 0.370662 0.684611
O O13 0.467478 0.906898 0.143693
O O14 0.500000 0.864009 0.000000
O O15 0.186315 0.000000 0.887255
O O16 0.000000 0.894893 0.000000
O O17 0.297037 0.000000 0.381191
#
# Coordination Sequence:
#
# PCOD8116442 Si02
#       7
#     8   8   8   8   8   8   8
#     4  12  22  37  66  97 122 163 213 251 312 382
#     4  10  20  38  67  91 120 162 213 262 309 371
#     4  11  22  39  71  92 118 165 217 258 312 377
#     4   9  19  41  66  93 119 162 218 262 305 369
#     4  11  20  38  60  93 124 163 212 250 300 377
#     4  11  26  42  59  93 134 164 205 269 327 371
#     4  11  24  41  60  91 133 166 203 263 316 365
#
# _framework density 10.313243
#
# number of rings (size 3 to 8) (size 9 to 14) (size 15 to 20)
#    0.000    1.286    7.143    0.429    2.000    2.857 
#    0.000    3.571    0.000    0.000    0.000    0.000 
#    0.000    0.000    0.000    0.000    0.000    0.000 
#
# Total GULP energy -346880.228927 kJ/mol
# GULP energy per Si atom -12388.579605 kJ/mol
# Density = 1.028977 g / cm^3
# Si number density = 10.313243 Si / 1000 Ang^3
#
#
#
# Elastic Constant Matrix: (Units=GPa)
#
#
# Indices 1 2 3 4 5 6 
#
# 1 82.6322 13.7574 7.4045 0.0594 2.3186 -0.0825
# 2 13.7574 117.6832 20.8671 0.0893 4.9409 -0.1588
# 3 7.4045 20.8671 116.0150 0.0903 -4.1085 -0.1929
# 4 0.0594 0.0893 0.0903 45.9486 -0.0245 -16.8152
# 5 2.3186 4.9409 -4.1085 -0.0245 28.2638 0.0645
# 6 -0.0825 -0.1588 -0.1929 -16.8152 0.0645 31.1266
#
#
#
# Elastic Compliance Matrix: (Units=1/GPa)
#
#
# Indices 1 2 3 4 5 6 
#
# 1 0.012397 -0.001308 -0.000587 -0.000005 -0.000874 0.000022
# 2 -0.001308 0.009005 -0.001596 0.000000 -0.001699 0.000036
# 3 -0.000587 -0.001596 0.009002 0.000003 0.001636 0.000045
# 4 -0.000005 0.000000 0.000003 0.027126 -0.000009 0.014654
# 5 -0.000874 -0.001699 0.001636 -0.000009 0.035988 -0.000080
# 6 0.000022 0.000036 0.000045 0.014654 -0.000080 0.040044
#
#
# Mechanical properties :
#
#
# Convention : Reuss Voigt Hill
#
# Bulk Modulus (GPa) = 42.69717 44.48761 43.59239
# Shear Modulus (GPa) = 33.70377 39.35455 36.52916
#
# Velocity S-wave (km/s) = 4.04667 4.37276 4.21287
# Velocity P-wave (km/s) = 6.52527 6.86365 6.69660
#
# Compressibility (1/GPa) = 0.02342076
#
# Stress axis : x y z
#
# Youngs Moduli (GPa) = 80.66615 111.05232 111.08488
#
# Poissons Ratio (x) = 0.14531 0.06518
# Poissons Ratio (y) = 0.10555 0.17732
# Poissons Ratio (z) = 0.04733 0.17727
#
# Static dielectric constant tensor:
#      x y z
#    x 4.687420 -0.000300 0.294590 
#    y -0.000300 3.575870 0.000040 
#    z 0.294590 0.000040 4.432890 
# 
# 
# High freq. dielectric constant tensor:
#      x y z
#    x 1.811150 -0.000010 -0.003890 
#    y -0.000010 1.784180 0.000030 
#    z -0.003890 0.000030 1.824590 
# 
# From -- ./inp_files/322674.got.cif
#   From: 2010.06.25/outbox.ucp.g09.slc.cvg/sg12_162_cif.got.tgz:322674.got - 2010.06.28 13:50:54.
