data_PCOD8116725
_publ_section_title
;
Structure prediction by ZEFSAII (Michael W. Deem and Ramdas Pophale) SiO2 
 PCOD8116725
Probable space group: P 2/C
;
_chemical_formula_sum "Si O2"
_cell_formula_units_Z 26
_cell_length_a 14.572465
_cell_length_b 8.653784
_cell_length_c 20.928642
_cell_angle_alpha 90.000000
_cell_angle_beta 31.613908
_cell_angle_gamma 90.000000
_cell_volume 1383.474119
_symmetry_space_group_name_H-M "P 2/C"
_symmetry_group_IT_number 13
_symmetry_cell_setting 'monoclinic'
loop_
_space_group_symop_operation_xyz
x,y,z
-x,y,1/2-z
-x,-y,-z
x,-y,1/2+z
loop_
_atom_site_type_symbol
_atom_site_label
_atom_site_fract_x
_atom_site_fract_y
_atom_site_fract_z
Si Si1 0.500000 0.065603 0.250000
Si Si2 0.373596 0.271886 0.039707
Si Si3 0.500000 0.568208 0.250000
Si Si4 0.000000 0.557359 0.250000
Si Si5 0.078009 0.699998 0.805427
Si Si6 0.639954 0.637900 0.475435
Si Si7 0.700001 0.816537 0.052443
Si Si8 0.361385 0.320930 0.245154
O O1 0.638042 0.966449 0.127248
O O2 0.372684 0.164457 0.279683
O O3 0.554927 0.256001 0.970365
O O4 0.381792 0.174699 0.970090
O O5 0.209198 0.210148 0.179298
O O6 0.352047 0.454706 0.042646
O O7 0.623941 0.665800 0.130865
O O8 0.361888 0.466830 0.291907
O O9 0.016152 0.454744 0.305364
O O10 0.156054 0.679443 0.144309
O O11 0.187683 0.665124 0.805042
O O12 0.911001 0.804729 0.922986
O O13 0.541402 0.672324 0.598990
#
# Coordination Sequence:
#
# PCOD8116725 Si02
#       8
#     2   4   2   2   4   4   4   4
#     4  10  26  38  54  68 116 162 194 218 272 310
#     4   9  16  30  56  87 104 137 165 239 282 328
#     4  10  20  32  56  78 112 150 184 218 280 316
#     4  10  16  28  56 100 110 134 162 244 290 330
#     4  10  18  31  60  83 109 134 185 229 289 314
#     4   9  16  29  56  83 115 127 176 223 293 320
#     4  11  19  36  55  83 108 146 190 232 258 341
#     4  10  20  38  53  79 110 156 180 229 270 334
#
# _framework density 18.793268000000001
#
# number of rings (size 3 to 8) (size 9 to 14) (size 15 to 20)
#    0.000    2.154    4.615    0.923    0.000    1.231 
#    0.000    3.077    6.769    0.000    0.000    0.000 
#    0.000    0.000    0.000    0.000    0.000    0.000 
#
# Total GULP energy -322174.276714 kJ/mol
# GULP energy per Si atom -12391.318335 kJ/mol
# Density = 1.875049 g / cm^3
# Si number density = 18.793268 Si / 1000 Ang^3
#
#
#
# Elastic Constant Matrix: (Units=GPa)
#
#
# Indices 1 2 3 4 5 6 
#
# 1 143.0221 41.0757 54.5422 0.0000 -1.0815 0.0000
# 2 41.0757 65.6978 36.2181 0.0000 1.9121 0.0000
# 3 54.5422 36.2181 117.6223 0.0000 -12.0325 0.0000
# 4 0.0000 0.0000 0.0000 19.7466 0.0000 5.1986
# 5 -1.0815 1.9121 -12.0325 0.0000 32.5430 0.0000
# 6 0.0000 0.0000 0.0000 5.1986 0.0000 8.8894
#
#
#
# Elastic Compliance Matrix: (Units=1/GPa)
#
#
# Indices 1 2 3 4 5 6 
#
# 1 0.009364 -0.004106 -0.003140 0.000000 -0.000609 0.000000
# 2 -0.004106 0.020479 -0.004717 0.000000 -0.003084 0.000000
# 3 -0.003140 -0.004717 0.011877 0.000000 0.004564 0.000000
# 4 0.000000 0.000000 0.000000 0.059858 0.000000 -0.035005
# 5 -0.000609 -0.003084 0.004564 0.000000 0.032577 0.000000
# 6 0.000000 0.000000 0.000000 -0.035005 0.000000 0.132965
#
#
# Mechanical properties :
#
#
# Convention : Reuss Voigt Hill
#
# Bulk Modulus (GPa) = 56.20050 65.55715 60.87882
# Shear Modulus (GPa) = 16.83631 25.20287 21.01959
#
# Velocity S-wave (km/s) = 2.99635 3.66602 3.34797
# Velocity P-wave (km/s) = 6.47614 7.27177 6.88546
#
# Compressibility (1/GPa) = 0.01779344
#
# Stress axis : x y z
#
# Youngs Moduli (GPa) = 106.79179 48.83150 84.19357
#
# Poissons Ratio (x) = 0.20049 0.26438
# Poissons Ratio (y) = 0.43846 0.39717
# Poissons Ratio (z) = 0.33535 0.23036
#
# Static dielectric constant tensor:
#      x y z
#    x 3.762780 0.000000 -0.115820 
#    y 0.000000 3.038390 0.000000 
#    z -0.115820 0.000000 3.806840 
# 
# 
# High freq. dielectric constant tensor:
#      x y z
#    x 1.742950 0.000000 0.005690 
#    y 0.000000 1.683390 0.000000 
#    z 0.005690 0.000000 1.737360 
# 
# From -- ./inp_files/78231.got.cif
#   From: 2010.06.25/outbox.cif.g09.slc.cpg/sg13_40_cif.got.tgz:78231.got - 2010.06.28 04:50:58.
