data_PCOD8116279
_publ_section_title
;
Structure prediction by ZEFSAII (Michael W. Deem and Ramdas Pophale) SiO2 
 PCOD8116279
Probable space group: C 2/M
;
_chemical_formula_sum "Si O2"
_cell_formula_units_Z 24
_cell_length_a 21.000000
_cell_length_b 9.000000
_cell_length_c 15.000000
_cell_angle_alpha 90.000000
_cell_angle_beta 110.000000
_cell_angle_gamma 90.000000
_cell_volume 2664.028580
_symmetry_space_group_name_H-M "C 2/M"
_symmetry_group_IT_number 12
_symmetry_cell_setting 'monoclinic'
loop_
_space_group_symop_operation_xyz
x,y,z
-x,y,-z
-x,-y,-z
x,-y,z
1/2+x,1/2+y,z
1/2-x,1/2+y,-z
1/2-x,1/2-y,-z
1/2+x,1/2-y,z
loop_
_atom_site_type_symbol
_atom_site_label
_atom_site_fract_x
_atom_site_fract_y
_atom_site_fract_z
Si Si1 0.075363 0.324527 0.754103
Si Si2 0.922666 0.675352 0.731139
Si Si3 0.324236 0.176405 0.038404
Si Si4 0.175612 0.176280 0.457240
Si Si5 0.073879 0.825657 0.567854
Si Si6 0.073188 0.675373 0.063095
O O1 0.076653 0.500000 0.744310
O O2 0.131633 0.274757 0.853828
O O3 0.095269 0.252232 0.669759
O O4 0.999353 0.273100 0.744772
O O5 0.913958 0.500000 0.710661
O O6 0.866357 0.761147 0.646769
O O7 0.908810 0.718995 0.827118
O O8 0.314145 0.000000 0.032187
O O9 0.250000 0.250000 0.000000
O O10 0.366824 0.233025 0.972750
O O11 0.250000 0.250000 0.500000
O O12 0.131753 0.214847 0.523996
O O13 0.184603 0.000000 0.450161
O O14 0.000000 0.767230 0.500000
O O15 0.069960 0.000000 0.583653
O O16 0.067636 0.500000 0.049275
O O17 0.000000 0.744024 0.000000
#
# Coordination Sequence:
#
# PCOD8116279 Si02
#       6
#     8   8   8   8   8   8
#     4  10  20  34  58  88 114 145 189 237 278 327
#     4  10  19  34  60  89 112 143 191 236 278 330
#     4  10  21  37  56  83 117 150 185 229 280 331
#     4  11  24  41  59  82 116 151 185 232 285 337
#     4  10  21  38  59  83 112 148 189 231 280 338
#     4   9  16  32  59  84 108 145 191 230 268 327
#
# _framework density 9.0089120000000005
#
# number of rings (size 3 to 8) (size 9 to 14) (size 15 to 20)
#    0.000    2.000    3.333    0.500    0.000    3.667 
#    0.000    5.833    0.000    1.000    0.000    0.000 
#    0.000    0.000    0.000    0.000    0.000    0.000 
#
# Total GULP energy -297577.470418 kJ/mol
# GULP energy per Si atom -12399.061267 kJ/mol
# Density = 0.898841 g / cm^3
# Si number density = 9.008912 Si / 1000 Ang^3
#
#
#
# Elastic Constant Matrix: (Units=GPa)
#
#
# Indices 1 2 3 4 5 6 
#
# 1 184.8753 45.1658 97.9178 0.0000 10.7216 0.0000
# 2 45.1658 49.7260 48.7875 0.0000 4.5309 0.0000
# 3 97.9178 48.7875 179.9451 0.0000 3.7045 0.0000
# 4 0.0000 0.0000 0.0000 30.8791 0.0000 5.3605
# 5 10.7216 4.5309 3.7045 0.0000 44.6215 0.0000
# 6 0.0000 0.0000 0.0000 5.3605 0.0000 33.7340
#
#
#
# Elastic Compliance Matrix: (Units=1/GPa)
#
#
# Indices 1 2 3 4 5 6 
#
# 1 0.008263 -0.004090 -0.003361 0.000000 -0.001291 0.000000
# 2 -0.004090 0.029634 -0.005777 0.000000 -0.001547 0.000000
# 3 -0.003361 -0.005777 0.008939 0.000000 0.000652 0.000000
# 4 0.000000 0.000000 0.000000 0.033303 0.000000 -0.005292
# 5 -0.001291 -0.001547 0.000652 0.000000 0.022824 0.000000
# 6 0.000000 0.000000 0.000000 -0.005292 0.000000 0.030485
#
#
# Mechanical properties :
#
#
# Convention : Reuss Voigt Hill
#
# Bulk Modulus (GPa) = 49.06756 88.69872 68.88314
# Shear Modulus (GPa) = 29.99438 36.69195 33.34317
#
# Velocity S-wave (km/s) = 4.08451 4.51757 4.30649
# Velocity P-wave (km/s) = 7.03819 8.74908 7.93986
#
# Compressibility (1/GPa) = 0.02038006
#
# Stress axis : x y z
#
# Youngs Moduli (GPa) = 121.01678 33.74472 111.86984
#
# Poissons Ratio (x) = 0.13803 0.37599
# Poissons Ratio (y) = 0.49500 0.64627
# Poissons Ratio (z) = 0.40673 0.19494
#
# Static dielectric constant tensor:
#      x y z
#    x 3.628990 0.000000 -0.017240 
#    y 0.000000 3.137380 0.000000 
#    z -0.017240 0.000000 3.577340 
# 
# 
# High freq. dielectric constant tensor:
#      x y z
#    x 1.718130 0.000000 0.001140 
#    y 0.000000 1.679230 0.000000 
#    z 0.001140 0.000000 1.722000 
# 
# From -- ./inp_files/230377.got.cif
#   From: 2010.06.25/outbox.ucp.g09.slc.cvg/sg12_116_cif.got.tgz:230377.got - 2010.06.28 13:50:54.
