data_PCOD8116108
_publ_section_title
;
Structure prediction by ZEFSAII (Michael W. Deem and Ramdas Pophale) SiO2 
 PCOD8116108
Probable space group: C 2/M
;
_chemical_formula_sum "Si O2"
_cell_formula_units_Z 64
_cell_length_a 27.180768
_cell_length_b 9.429248
_cell_length_c 23.950567
_cell_angle_alpha 90.000000
_cell_angle_beta 44.100606
_cell_angle_gamma 90.000000
_cell_volume 4271.831794
_symmetry_space_group_name_H-M "C 2/M"
_symmetry_group_IT_number 12
_symmetry_cell_setting 'monoclinic'
loop_
_space_group_symop_operation_xyz
x,y,z
-x,y,-z
-x,-y,-z
x,-y,z
1/2+x,1/2+y,z
1/2-x,1/2+y,-z
1/2-x,1/2-y,-z
1/2+x,1/2-y,z
loop_
_atom_site_type_symbol
_atom_site_label
_atom_site_fract_x
_atom_site_fract_y
_atom_site_fract_z
Si Si1 0.883793 0.335443 0.448440
Si Si2 0.926214 0.667156 0.535300
Si Si3 0.938375 0.839537 0.005118
Si Si4 0.795178 0.159655 0.670744
Si Si5 0.752077 0.161063 0.579121
Si Si6 0.969196 0.665394 0.147520
Si Si7 0.651609 0.164319 0.843089
Si Si8 0.097023 0.665423 0.687368
O O1 0.864629 0.500000 0.468585
O O2 0.924808 0.286812 0.470968
O O3 0.810327 0.254157 0.500221
O O4 0.930270 0.306065 0.354126
O O5 0.918021 0.500000 0.549442
O O6 0.862806 0.738435 0.621788
O O7 0.000000 0.722071 0.500000
O O8 0.964870 0.755842 0.928911
O O9 0.917414 0.000000 0.005877
O O10 0.870704 0.759809 0.086025
O O11 0.000000 0.837799 0.000000
O O12 0.763298 0.168944 0.635631
O O13 0.732353 0.206745 0.763453
O O14 0.820015 0.000000 0.664134
O O15 0.675701 0.229385 0.628810
O O16 0.758413 0.000000 0.552012
O O17 0.990430 0.500000 0.128431
O O18 0.898447 0.693404 0.169370
O O19 0.955448 0.723802 0.221975
O O20 0.645725 0.000000 0.865095
O O21 0.104446 0.500000 0.694616
#
# Coordination Sequence:
#
# PCOD8116108 Si02
#       8
#     8   8   8   8   8   8   8   8
#     4   9  17  27  39  56  75 100 134 166 195 230
#     4   9  18  31  43  56  79 108 134 163 202 243
#     4   9  17  26  35  52  78 106 135 166 192 218
#     4   9  16  26  42  62  79  99 132 168 199 233
#     4   9  15  25  38  54  78 103 127 160 198 231
#     4   9  15  25  39  53  73 106 138 161 191 229
#     4   9  15  25  40  56  75 102 134 163 192 231
#     4   9  15  24  39  56  76 102 134 166 192 226
#
# _framework density 14.981864
#
# number of rings (size 3 to 8) (size 9 to 14) (size 15 to 20)
#    0.000    3.000    1.250    0.750    0.000    2.250 
#    0.000    1.250    0.000    0.000    0.000    0.000 
#    0.000    1.000    0.000    2.000    0.000    2.625 
#
# Total GULP energy -396590.799868 kJ/mol
# GULP energy per Si atom -12393.462496 kJ/mol
# Density = 1.494776 g / cm^3
# Si number density = 14.981864 Si / 1000 Ang^3
#
#
#
# Elastic Constant Matrix: (Units=GPa)
#
#
# Indices 1 2 3 4 5 6 
#
# 1 47.1357 21.2395 42.4980 0.0022 -3.5093 -0.0007
# 2 21.2395 54.8056 53.5457 0.0057 -1.2483 -0.0019
# 3 42.4980 53.5457 139.0552 0.0033 5.2890 -0.0018
# 4 0.0022 0.0057 0.0033 23.0181 -0.0019 -3.1264
# 5 -3.5093 -1.2483 5.2890 -0.0019 15.8728 0.0002
# 6 -0.0007 -0.0019 -0.0018 -3.1264 0.0002 10.9582
#
#
#
# Elastic Compliance Matrix: (Units=1/GPa)
#
#
# Indices 1 2 3 4 5 6 
#
# 1 0.031211 -0.003541 -0.008535 0.000000 0.009466 0.000000
# 2 -0.003541 0.030254 -0.010765 -0.000005 0.005183 0.000002
# 3 -0.008535 -0.010765 0.014229 0.000001 -0.007475 0.000000
# 4 0.000000 -0.000005 0.000001 0.045195 0.000004 0.012894
# 5 0.009466 0.005183 -0.007475 0.000004 0.067992 0.000000
# 6 0.000000 0.000002 0.000000 0.012894 0.000000 0.094935
#
#
# Mechanical properties :
#
#
# Convention : Reuss Voigt Hill
#
# Bulk Modulus (GPa) = 33.31951 52.84032 43.07991
# Shear Modulus (GPa) = 14.72741 18.21737 16.47239
#
# Velocity S-wave (km/s) = 3.13871 3.49085 3.31945
# Velocity P-wave (km/s) = 5.95176 7.18290 6.59612
#
# Compressibility (1/GPa) = 0.03001245
#
# Stress axis : x y z
#
# Youngs Moduli (GPa) = 32.03990 33.05346 70.27694
#
# Poissons Ratio (x) = 0.11704 0.59983
# Poissons Ratio (y) = 0.11345 0.75652
# Poissons Ratio (z) = 0.27347 0.35581
#
# Static dielectric constant tensor:
#      x y z
#    x 2.571590 0.000000 0.093570 
#    y 0.000000 2.883310 0.000000 
#    z 0.093570 0.000000 3.064960 
# 
# 
# High freq. dielectric constant tensor:
#      x y z
#    x 1.518850 0.000000 0.009570 
#    y 0.000000 1.564450 0.000000 
#    z 0.009570 0.000000 1.578350 
# 
# From -- ./inp_files/350945.got.cif
#   From: 2010.06.25/outbox.cif.g09.slc.cpg/sg12_176_cif.got.tgz:350945.got - 2010.06.28 00:19:55.
