data_PCOD8116061
_publ_section_title
;
Structure prediction by ZEFSAII (Michael W. Deem and Ramdas Pophale) SiO2 
 PCOD8116061
Probable space group: C 2/M
;
_chemical_formula_sum "Si O2"
_cell_formula_units_Z 52
_cell_length_a 12.519002
_cell_length_b 13.545077
_cell_length_c 25.233382
_cell_angle_alpha 90.000000
_cell_angle_beta 47.969776
_cell_angle_gamma 90.000000
_cell_volume 3178.291460
_symmetry_space_group_name_H-M "C 2/M"
_symmetry_group_IT_number 12
_symmetry_cell_setting 'monoclinic'
loop_
_space_group_symop_operation_xyz
x,y,z
-x,y,-z
-x,-y,-z
x,-y,z
1/2+x,1/2+y,z
1/2-x,1/2+y,-z
1/2-x,1/2-y,-z
1/2+x,1/2-y,z
loop_
_atom_site_type_symbol
_atom_site_label
_atom_site_fract_x
_atom_site_fract_y
_atom_site_fract_z
Si Si1 0.833673 0.227581 0.551802
Si Si2 0.255966 0.386666 0.894731
Si Si3 0.000000 0.247211 0.000000
Si Si4 0.361747 0.113719 0.177624
Si Si5 0.593397 0.727713 0.074716
Si Si6 0.679393 0.385676 0.338647
Si Si7 0.651624 0.386121 0.558722
O O1 0.779651 0.178866 0.624044
O O2 0.741402 0.325775 0.572443
O O3 0.807838 0.148353 0.513884
O O4 0.000000 0.258228 0.500000
O O5 0.233353 0.500000 0.917835
O O6 0.254113 0.372122 0.831770
O O7 0.400493 0.347032 0.876900
O O8 0.132074 0.321403 0.960863
O O9 0.003970 0.182805 0.053273
O O10 0.508619 0.174192 0.121217
O O11 0.282414 0.149016 0.257054
O O12 0.408883 0.000000 0.165678
O O13 0.750000 0.750000 0.000000
O O14 0.702302 0.500000 0.345636
O O15 0.516115 0.367738 0.374637
O O16 0.694013 0.500000 0.550538
#
# Coordination Sequence:
#
# PCOD8116061 Si02
#       7
#     8   8   4   8   8   8   8
#     4   9  17  29  46  69  96 126 155 187 229 270
#     4   9  16  27  44  64  85 111 142 177 219 266
#     4   8  15  28  43  62  86 110 139 178 217 262
#     4   9  18  31  47  67  89 115 152 193 231 273
#     4   9  17  28  45  67  89 113 144 184 228 272
#     4   9  17  30  47  66  89 119 154 193 232 269
#     4   9  17  29  46  69  95 123 158 193 224 266
#
# _framework density 16.360992
#
# number of rings (size 3 to 8) (size 9 to 14) (size 15 to 20)
#    0.000    3.077    0.000    0.692    0.000    7.077 
#    0.000    0.385    0.000    5.538    0.000    0.000 
#    0.000    0.000    0.000    0.000    0.000    0.000 
#
# Total GULP energy -322096.078687 kJ/mol
# GULP energy per Si atom -12388.310719 kJ/mol
# Density = 1.632375 g / cm^3
# Si number density = 16.360992 Si / 1000 Ang^3
#
#
#
# Elastic Constant Matrix: (Units=GPa)
#
#
# Indices 1 2 3 4 5 6 
#
# 1 111.0383 60.9627 48.6860 0.0000 19.6517 0.0000
# 2 60.9627 72.9841 40.7099 0.0000 6.8387 0.0000
# 3 48.6860 40.7099 104.0721 0.0000 12.8696 0.0000
# 4 0.0000 0.0000 0.0000 20.6435 0.0000 1.0656
# 5 19.6517 6.8387 12.8696 0.0000 20.1756 0.0000
# 6 0.0000 0.0000 0.0000 1.0656 0.0000 33.0688
#
#
#
# Elastic Compliance Matrix: (Units=1/GPa)
#
#
# Indices 1 2 3 4 5 6 
#
# 1 0.020286 -0.014477 -0.002161 0.000000 -0.013474 0.000000
# 2 -0.014477 0.027911 -0.005123 0.000000 0.007908 0.000000
# 3 -0.002161 -0.005123 0.013189 0.000000 -0.004572 0.000000
# 4 0.000000 0.000000 0.000000 0.048522 0.000000 -0.001564
# 5 -0.013474 0.007908 -0.004572 0.000000 0.062924 0.000000
# 6 0.000000 0.000000 0.000000 -0.001564 0.000000 0.030290
#
#
# Mechanical properties :
#
#
# Convention : Reuss Voigt Hill
#
# Bulk Modulus (GPa) = 55.98005 65.42354 60.70179
# Shear Modulus (GPa) = 19.79416 23.95997 21.87707
#
# Velocity S-wave (km/s) = 3.48205 3.83097 3.66067
# Velocity P-wave (km/s) = 7.10324 7.72288 7.41953
#
# Compressibility (1/GPa) = 0.01786351
#
# Stress axis : x y z
#
# Youngs Moduli (GPa) = 49.29464 35.82857 75.82026
#
# Poissons Ratio (x) = 0.51869 0.16385
# Poissons Ratio (y) = 0.71363 0.38845
# Poissons Ratio (z) = 0.10652 0.18356
#
# Static dielectric constant tensor:
#      x y z
#    x 3.782220 0.000000 0.331290 
#    y 0.000000 3.009280 0.000000 
#    z 0.331290 0.000000 3.044860 
# 
# 
# High freq. dielectric constant tensor:
#      x y z
#    x 1.636190 0.000000 0.018880 
#    y 0.000000 1.608580 0.000000 
#    z 0.018880 0.000000 1.619500 
# 
# From -- ./inp_files/335898.got.cif
#   From: 2010.06.25/outbox.cif.g09.slc.cpg/sg12_168_cif.got.tgz:335898.got - 2010.06.28 00:19:55.
