data_PCOD8116101
_publ_section_title
;
Structure prediction by ZEFSAII (Michael W. Deem and Ramdas Pophale) SiO2 
 PCOD8116101
Probable space group: C 2/M
;
_chemical_formula_sum "Si O2"
_cell_formula_units_Z 48
_cell_length_a 10.232757
_cell_length_b 19.607468
_cell_length_c 16.225621
_cell_angle_alpha 90.000000
_cell_angle_beta 62.972429
_cell_angle_gamma 90.000000
_cell_volume 2899.945533
_symmetry_space_group_name_H-M "C 2/M"
_symmetry_group_IT_number 12
_symmetry_cell_setting 'monoclinic'
loop_
_space_group_symop_operation_xyz
x,y,z
-x,y,-z
-x,-y,-z
x,-y,z
1/2+x,1/2+y,z
1/2-x,1/2+y,-z
1/2-x,1/2-y,-z
1/2+x,1/2-y,z
loop_
_atom_site_type_symbol
_atom_site_label
_atom_site_fract_x
_atom_site_fract_y
_atom_site_fract_z
Si Si1 0.598739 0.581239 0.045171
Si Si2 0.226456 0.808318 0.395445
Si Si3 0.162871 0.423139 0.747076
Si Si4 0.430268 0.691347 0.390859
Si Si5 0.539868 0.577294 0.244188
Si Si6 0.075350 0.581222 0.059655
O O1 0.604151 0.500000 0.041841
O O2 0.533050 0.604374 0.152090
O O3 0.500000 0.611035 0.000000
O O4 0.760815 0.610996 0.982796
O O5 0.301999 0.876598 0.340951
O O6 0.350740 0.750361 0.361777
O O7 0.169306 0.827456 0.502371
O O8 0.091816 0.784723 0.375095
O O9 0.143594 0.500000 0.719145
O O10 0.290712 0.420432 0.778314
O O11 0.014931 0.396290 0.833425
O O12 0.440269 0.624850 0.330469
O O13 0.478903 0.500000 0.269115
O O14 0.075524 0.500000 0.053967
O O15 0.000000 0.612287 0.000000
#
# Coordination Sequence:
#
# PCOD8116101 Si02
#       6
#     8   8   8   8   8   8
#     4   9  16  26  41  65  96 124 151 184 225 275
#     4   9  18  33  51  70  92 123 157 190 230 280
#     4   9  16  27  48  75  96 117 154 198 232 265
#     4   9  18  33  52  69  91 124 158 189 230 282
#     4   9  16  28  48  73  96 120 153 195 235 268
#     4   9  14  24  43  65  90 122 153 183 225 273
#
# _framework density 16.552035
#
# number of rings (size 3 to 8) (size 9 to 14) (size 15 to 20)
#    0.000    3.000    1.667    0.000    0.000    0.667 
#    3.000    3.333    0.000    2.000    0.000    4.667 
#    0.000    0.000    0.000    0.000    0.000    0.000 
#
# Total GULP energy -297520.186489 kJ/mol
# GULP energy per Si atom -12396.674437 kJ/mol
# Density = 1.651436 g / cm^3
# Si number density = 16.552035 Si / 1000 Ang^3
#
#
#
# Elastic Constant Matrix: (Units=GPa)
#
#
# Indices 1 2 3 4 5 6 
#
# 1 94.8892 41.5023 57.3084 0.0000 -1.8996 0.0000
# 2 41.5023 72.8222 60.5861 0.0000 -2.2248 0.0000
# 3 57.3084 60.5861 106.7817 0.0000 -1.0468 0.0000
# 4 0.0000 0.0000 0.0000 7.6970 0.0000 -0.4909
# 5 -1.8996 -2.2248 -1.0468 0.0000 24.5297 0.0000
# 6 0.0000 0.0000 0.0000 -0.4909 0.0000 18.3912
#
#
#
# Elastic Compliance Matrix: (Units=1/GPa)
#
#
# Indices 1 2 3 4 5 6 
#
# 1 0.016130 -0.003744 -0.006527 0.000000 0.000631 0.000000
# 2 -0.003744 0.026952 -0.013268 0.000000 0.001588 0.000000
# 3 -0.006527 -0.013268 0.020387 0.000000 -0.000839 0.000000
# 4 0.000000 0.000000 0.000000 0.130142 0.000000 0.003474
# 5 0.000631 0.001588 -0.000839 0.000000 0.040924 0.000000
# 6 0.000000 0.000000 0.000000 0.003474 0.000000 0.054466
#
#
# Mechanical properties :
#
#
# Convention : Reuss Voigt Hill
#
# Bulk Modulus (GPa) = 60.99703 65.92074 63.45888
# Shear Modulus (GPa) = 14.63944 17.79668 16.21806
#
# Velocity S-wave (km/s) = 2.97720 3.28257 3.13361
# Velocity P-wave (km/s) = 6.98212 7.36749 7.17739
#
# Compressibility (1/GPa) = 0.01639424
#
# Stress axis : x y z
#
# Youngs Moduli (GPa) = 61.99453 37.10241 49.04993
#
# Poissons Ratio (x) = 0.13889 0.32014
# Poissons Ratio (y) = 0.23208 0.65078
# Poissons Ratio (z) = 0.40463 0.49226
#
# Static dielectric constant tensor:
#      x y z
#    x 3.240550 0.000000 -0.027900 
#    y 0.000000 2.779740 0.000000 
#    z -0.027900 0.000000 3.155460 
# 
# 
# High freq. dielectric constant tensor:
#      x y z
#    x 1.630750 0.000000 -0.003860 
#    y 0.000000 1.593720 0.000000 
#    z -0.003860 0.000000 1.646140 
# 
# From -- ./inp_files/133006.got.cif
#   From: 2010.06.25/outbox.cif.g09.slc.cpg/sg12_67_cif.got.tgz:133006.got - 2010.06.28 00:19:55.
