data_PCOD8116138
_publ_section_title
;
Structure prediction by ZEFSAII (Michael W. Deem and Ramdas Pophale) SiO2 
 PCOD8116138
Probable space group: C 2/M
;
_chemical_formula_sum "Si O2"
_cell_formula_units_Z 56
_cell_length_a 12.447047
_cell_length_b 18.673354
_cell_length_c 13.323824
_cell_angle_alpha 90.000000
_cell_angle_beta 54.944854
_cell_angle_gamma 90.000000
_cell_volume 2535.064889
_symmetry_space_group_name_H-M "C 2/M"
_symmetry_group_IT_number 12
_symmetry_cell_setting 'monoclinic'
loop_
_space_group_symop_operation_xyz
x,y,z
-x,y,-z
-x,-y,-z
x,-y,z
1/2+x,1/2+y,z
1/2-x,1/2+y,-z
1/2-x,1/2-y,-z
1/2+x,1/2-y,z
loop_
_atom_site_type_symbol
_atom_site_label
_atom_site_fract_x
_atom_site_fract_y
_atom_site_fract_z
Si Si1 0.289598 0.713777 0.314449
Si Si2 0.980015 0.583104 0.780513
Si Si3 0.374428 0.830940 0.128105
Si Si4 0.139601 0.324970 0.569863
Si Si5 0.949150 0.920989 0.219132
Si Si6 0.760618 0.918988 0.964724
Si Si7 0.896047 0.081436 0.473653
O O1 0.285504 0.768043 0.223826
O O2 0.151394 0.693454 0.444163
O O3 0.374560 0.751231 0.358812
O O4 0.350971 0.640934 0.237686
O O5 0.008729 0.500000 0.748607
O O6 0.075165 0.612554 0.816771
O O7 0.012057 0.625806 0.660071
O O8 0.828491 0.598423 0.890082
O O9 0.274211 0.868768 0.108545
O O10 0.500000 0.799590 0.000000
O O11 0.268261 0.368252 0.539897
O O12 0.970192 0.917265 0.327296
O O13 0.087619 0.908008 0.088804
O O14 0.893672 0.000000 0.218809
O O15 0.731888 0.000000 0.945401
O O16 0.000000 0.110161 0.500000
O O17 0.851964 0.000000 0.523611
#
# Coordination Sequence:
#
# PCOD8116138 Si02
#       7
#     8   8   8   8   8   8   8
#     4   9  18  31  46  64  94 132 166 201 234 288
#     4   9  16  26  44  69  97 126 157 189 233 292
#     4   9  17  29  45  68  96 132 164 195 235 284
#     4   9  17  29  43  63  94 134 164 196 231 283
#     4   9  18  31  46  67  97 126 157 200 246 287
#     4   9  17  29  47  75 104 128 155 191 241 298
#     4   9  17  26  41  68  98 128 157 190 239 294
#
# _framework density 22.090164999999999
#
# number of rings (size 3 to 8) (size 9 to 14) (size 15 to 20)
#    0.000    3.000    0.000    0.857    4.000    2.286 
#    0.000    6.429    0.000    0.429    0.000    0.000 
#    0.000    7.429    0.000    8.714    0.000    0.000 
#
# Total GULP energy -346962.090658 kJ/mol
# GULP energy per Si atom -12391.503238 kJ/mol
# Density = 2.203989 g / cm^3
# Si number density = 22.090165 Si / 1000 Ang^3
#
#
#
# Elastic Constant Matrix: (Units=GPa)
#
#
# Indices 1 2 3 4 5 6 
#
# 1 5.0830 8.3214 8.6270 0.0000 -6.9669 0.0000
# 2 8.3214 125.6223 69.3007 0.0000 -12.2423 0.0000
# 3 8.6270 69.3007 149.5773 0.0000 -17.2779 0.0000
# 4 0.0000 0.0000 0.0000 46.1022 0.0000 -0.1640
# 5 -6.9669 -12.2423 -17.2779 0.0000 20.7625 0.0000
# 6 0.0000 0.0000 0.0000 -0.1640 0.0000 11.4918
#
#
#
# Elastic Compliance Matrix: (Units=1/GPa)
#
#
# Indices 1 2 3 4 5 6 
#
# 1 0.386049 -0.012414 -0.002651 0.000000 0.120014 0.000000
# 2 -0.012414 0.011203 -0.004639 0.000000 -0.001420 0.000000
# 3 -0.002651 -0.004639 0.009480 0.000000 0.004264 0.000000
# 4 0.000000 0.000000 0.000000 0.021692 0.000000 0.000310
# 5 0.120014 -0.001420 0.004264 0.000000 0.091146 0.000000
# 6 0.000000 0.000000 0.000000 0.000310 0.000000 0.087023
#
#
# Mechanical properties :
#
#
# Convention : Reuss Voigt Hill
#
# Bulk Modulus (GPa) = 2.72239 50.30900 26.51570
# Shear Modulus (GPa) = 6.50666 28.60686 17.55676
#
# Velocity S-wave (km/s) = 1.71811 3.60252 2.82224
# Velocity P-wave (km/s) = 2.27397 6.33467 4.75915
#
# Compressibility (1/GPa) = 0.36732433
#
# Stress axis : x y z
#
# Youngs Moduli (GPa) = 2.59034 89.25973 105.48399
#
# Poissons Ratio (x) = 1.10809 0.27967
# Poissons Ratio (y) = 0.03216 0.48930
# Poissons Ratio (z) = 0.00687 0.41404
#
# Static dielectric constant tensor:
#      x y z
#    x 3.111370 0.000000 -0.162540 
#    y 0.000000 4.188830 0.000000 
#    z -0.162540 0.000000 4.525160 
# 
# 
# High freq. dielectric constant tensor:
#      x y z
#    x 1.795070 0.000000 -0.013240 
#    y 0.000000 1.880480 0.000000 
#    z -0.013240 0.000000 1.888750 
# 
# From -- ./inp_files/216313.got.cif
#   From: 2010.06.25/outbox.cif.g09.slc.cpg/sg12_109_cif.got.tgz:216313.got - 2010.06.28 00:19:55.
