data_PCOD8116631
_publ_section_title
;
Structure prediction by ZEFSAII (Michael W. Deem and Ramdas Pophale) SiO2 
 PCOD8116631
Probable space group: C 2/M
;
_chemical_formula_sum "Si O2"
_cell_formula_units_Z 28
_cell_length_a 15.000000
_cell_length_b 9.000000
_cell_length_c 27.000000
_cell_angle_alpha 90.000000
_cell_angle_beta 60.000000
_cell_angle_gamma 90.000000
_cell_volume 3156.662597
_symmetry_space_group_name_H-M "C 2/M"
_symmetry_group_IT_number 12
_symmetry_cell_setting 'monoclinic'
loop_
_space_group_symop_operation_xyz
x,y,z
-x,y,-z
-x,-y,-z
x,-y,z
1/2+x,1/2+y,z
1/2-x,1/2+y,-z
1/2-x,1/2-y,-z
1/2+x,1/2-y,z
loop_
_atom_site_type_symbol
_atom_site_label
_atom_site_fract_x
_atom_site_fract_y
_atom_site_fract_z
Si Si1 0.705148 0.174967 0.941635
Si Si2 0.229967 0.824750 0.268179
Si Si3 0.499068 0.675076 0.352606
Si Si4 0.873571 0.676473 0.140204
Si Si5 0.896809 0.675012 0.928624
Si Si6 0.706314 0.325135 0.649611
Si Si7 0.937612 0.326192 0.565424
O O1 0.657292 0.239556 0.904719
O O2 0.817585 0.245696 0.914415
O O3 0.719780 0.000000 0.935249
O O4 0.629491 0.220558 0.007464
O O5 0.108299 0.782914 0.295537
O O6 0.292311 0.764611 0.203282
O O7 0.286757 0.750846 0.298951
O O8 0.241636 0.000000 0.271575
O O9 0.489113 0.500000 0.361930
O O10 0.396082 0.733090 0.351833
O O11 0.505746 0.745433 0.405004
O O12 0.872078 0.500000 0.139389
O O13 0.989757 0.731687 0.118300
O O14 0.886194 0.500000 0.924766
O O15 0.695157 0.500000 0.660727
O O16 0.815685 0.286443 0.592207
O O17 0.950003 0.500000 0.571675
O O18 0.000000 0.273715 0.500000
#
# Coordination Sequence:
#
# PCOD8116631 Si02
#       7
#     8   8   8   8   8   8   8
#     4   9  17  30  48  68  90 118 151 186 227 275
#     4   9  18  32  48  67  90 118 156 194 224 265
#     4   9  18  32  49  68  92 123 155 188 227 268
#     4   9  17  30  48  67  89 120 154 186 225 275
#     4   9  17  30  47  67  91 118 149 186 228 274
#     4   9  18  33  50  68  94 125 153 186 230 271
#     4   9  18  32  49  71  98 124 152 187 225 268
#
# _framework density 8.8701279999999993
#
# number of rings (size 3 to 8) (size 9 to 14) (size 15 to 20)
#    0.000    3.000    0.000    0.429    0.000    4.286 
#    0.000    3.571    0.000    3.429    0.000    0.000 
#    0.000    0.000    0.000    0.000    0.000    0.000 
#
# Total GULP energy -347015.452930 kJ/mol
# GULP energy per Si atom -12393.409033 kJ/mol
# Density = 0.884994 g / cm^3
# Si number density = 8.870128 Si / 1000 Ang^3
#
#
#
# Elastic Constant Matrix: (Units=GPa)
#
#
# Indices 1 2 3 4 5 6 
#
# 1 161.2152 23.0728 60.1449 0.0000 -16.3868 0.0000
# 2 23.0728 12.7354 16.7453 0.0000 -1.7180 0.0000
# 3 60.1449 16.7453 110.2753 0.0000 -20.1399 0.0000
# 4 0.0000 0.0000 0.0000 20.6172 0.0000 1.9911
# 5 -16.3868 -1.7180 -20.1399 0.0000 25.8271 0.0000
# 6 0.0000 0.0000 0.0000 1.9911 0.0000 29.0724
#
#
#
# Elastic Compliance Matrix: (Units=1/GPa)
#
#
# Indices 1 2 3 4 5 6 
#
# 1 0.009349 -0.013191 -0.002534 0.000000 0.003078 0.000000
# 2 -0.013191 0.117508 -0.012536 0.000000 -0.010328 0.000000
# 3 -0.002534 -0.012536 0.013885 0.000000 0.008386 0.000000
# 4 0.000000 0.000000 0.000000 0.048826 0.000000 -0.003344
# 5 0.003078 -0.010328 0.008386 0.000000 0.046525 0.000000
# 6 0.000000 0.000000 0.000000 -0.003344 0.000000 0.034626
#
#
# Mechanical properties :
#
#
# Convention : Reuss Voigt Hill
#
# Bulk Modulus (GPa) = 11.87332 53.79466 32.83399
# Shear Modulus (GPa) = 14.07209 27.38752 20.72981
#
# Velocity S-wave (km/s) = 2.81949 3.93339 3.42207
# Velocity P-wave (km/s) = 4.16014 7.14270 5.84486
#
# Compressibility (1/GPa) = 0.08422241
#
# Stress axis : x y z
#
# Youngs Moduli (GPa) = 106.96471 8.51005 72.01890
#
# Poissons Ratio (x) = 0.11225 0.18248
# Poissons Ratio (y) = 1.41093 0.90280
# Poissons Ratio (z) = 0.27102 0.10668
#
# Static dielectric constant tensor:
#      x y z
#    x 3.656800 0.000000 -0.203670 
#    y 0.000000 3.036730 0.000000 
#    z -0.203670 0.000000 3.463240 
# 
# 
# High freq. dielectric constant tensor:
#      x y z
#    x 1.703800 0.000000 -0.012920 
#    y 0.000000 1.662100 0.000000 
#    z -0.012920 0.000000 1.686750 
# 
# From -- ./inp_files/304231.got.cif
#   From: 2010.06.25/outbox.ucp.g09.slc.cvg/sg12_153_cif.got.tgz:304231.got - 2010.06.28 13:50:54.
