data_PCOD8116971
_publ_section_title
;
Structure prediction by ZEFSAII (Michael W. Deem and Ramdas Pophale) SiO2 
 PCOD8116971
Probable space group: P 2/C
;
_chemical_formula_sum "Si O2"
_cell_formula_units_Z 24
_cell_length_a 11.446038
_cell_length_b 20.298408
_cell_length_c 5.602778
_cell_angle_alpha 90.000000
_cell_angle_beta 84.833614
_cell_angle_gamma 90.000000
_cell_volume 1296.440581
_symmetry_space_group_name_H-M "P 2/C"
_symmetry_group_IT_number 13
_symmetry_cell_setting 'monoclinic'
loop_
_space_group_symop_operation_xyz
x,y,z
-x,y,1/2-z
-x,-y,-z
x,-y,1/2+z
loop_
_atom_site_type_symbol
_atom_site_label
_atom_site_fract_x
_atom_site_fract_y
_atom_site_fract_z
Si Si1 0.345151 0.652980 0.407170
Si Si2 0.127612 0.700869 0.689716
Si Si3 0.285036 0.758708 0.043013
Si Si4 0.500000 0.539674 0.250000
Si Si5 0.118552 0.168997 0.873372
Si Si6 0.500000 0.724070 0.750000
Si Si7 0.132212 0.025079 0.995677
O O1 0.215732 0.648360 0.551565
O O2 0.343958 0.710450 0.218024
O O3 0.381365 0.583911 0.280273
O O4 0.447723 0.673095 0.569319
O O5 0.111685 0.767087 0.539112
O O6 0.000000 0.667561 0.750000
O O7 0.178369 0.720878 0.935706
O O8 0.230433 0.823629 0.174552
O O9 0.394519 0.773814 0.847647
O O10 0.500000 0.500000 0.500000
O O11 0.138652 0.103971 0.026763
O O12 0.000000 0.159703 0.750000
O O13 0.192049 0.004363 0.728051
O O14 0.000000 0.000000 0.000000
#
# Coordination Sequence:
#
# PCOD8116971 Si02
#       7
#     4   4   4   2   4   2   4
#     4  10  21  37  56  87 121 146 190 242 297 340
#     4  10  21  32  56  82 117 159 188 243 292 353
#     4  10  20  32  56  79 117 152 183 251 288 352
#     4  12  25  40  68  94 118 153 196 244 284 346
#     4  11  20  31  48  80 117 144 208 234 296 359
#     4  10  17  36  58  78 118 151 186 234 314 338
#     4  10  21  32  49  71 109 164 188 249 293 339
#
# _framework density 18.512224
#
# number of rings (size 3 to 8) (size 9 to 14) (size 15 to 20)
#    0.000    1.667    5.000    0.500    7.000    0.000 
#    0.000    0.000    0.000    1.000    0.000    1.167 
#    0.000    0.000    0.000    0.000    0.000    0.000 
#
# Total GULP energy -297340.467847 kJ/mol
# GULP energy per Si atom -12389.186160 kJ/mol
# Density = 1.847009 g / cm^3
# Si number density = 18.512224 Si / 1000 Ang^3
#
#
#
# Elastic Constant Matrix: (Units=GPa)
#
#
# Indices 1 2 3 4 5 6 
#
# 1 117.6537 29.4748 28.4562 0.0000 -19.2587 0.0000
# 2 29.4748 80.2354 26.9568 0.0000 -14.3286 0.0000
# 3 28.4562 26.9568 105.1010 0.0000 2.8577 0.0000
# 4 0.0000 0.0000 0.0000 250.6579 0.0000 300.6546
# 5 -19.2587 -14.3286 2.8577 0.0000 35.2462 0.0000
# 6 0.0000 0.0000 0.0000 300.6546 0.0000 454.1612
#
#
#
# Elastic Compliance Matrix: (Units=1/GPa)
#
#
# Indices 1 2 3 4 5 6 
#
# 1 0.010441 -0.002123 -0.002419 0.000000 0.005038 0.000000
# 2 -0.002123 0.015386 -0.003518 0.000000 0.005380 0.000000
# 3 -0.002419 -0.003518 0.011171 0.000000 -0.003658 0.000000
# 4 0.000000 0.000000 0.000000 0.019371 0.000000 -0.012823
# 5 0.005038 0.005380 -0.003658 0.000000 0.033608 0.000000
# 6 0.000000 0.000000 0.000000 -0.012823 0.000000 0.010691
#
#
# Mechanical properties :
#
#
# Convention : Reuss Voigt Hill
#
# Bulk Modulus (GPa) = 47.89696 52.52953 50.21324
# Shear Modulus (GPa) = 40.40461 162.55322 101.47892
#
# Velocity S-wave (km/s) = 4.67689 9.38079 7.41190
# Velocity P-wave (km/s) = 7.42251 12.07350 10.02156
#
# Compressibility (1/GPa) = 0.02087815
#
# Stress axis : x y z
#
# Youngs Moduli (GPa) = 95.77378 64.99486 89.51413
#
# Poissons Ratio (x) = 0.13799 0.21658
# Poissons Ratio (y) = 0.20333 0.31488
# Poissons Ratio (z) = 0.23172 0.22863
#
# Static dielectric constant tensor:
#      x y z
#    x 3.635760 0.000000 -0.485550 
#    y 0.000000 3.192170 0.000000 
#    z -0.485550 0.000000 5.452950 
# 
# 
# High freq. dielectric constant tensor:
#      x y z
#    x 1.701660 0.000000 -0.006730 
#    y 0.000000 1.675290 0.000000 
#    z -0.006730 0.000000 1.746610 
# 
# From -- ./inp_files/3662.got.cif
#   From: 2010.06.25/outbox.cif.g09.slc.cpg/sg13_2_cif.got.tgz:3662.got - 2010.06.28 04:50:58.
