data_PCOD8116601
_publ_section_title
;
Structure prediction by ZEFSAII (Michael W. Deem and Ramdas Pophale) SiO2 
 PCOD8116601
Probable space group: C 2/M
;
_chemical_formula_sum "Si O2"
_cell_formula_units_Z 28
_cell_length_a 18.000000
_cell_length_b 21.000000
_cell_length_c 15.000000
_cell_angle_alpha 90.000000
_cell_angle_beta 30.000000
_cell_angle_gamma 90.000000
_cell_volume 2835.000000
_symmetry_space_group_name_H-M "C 2/M"
_symmetry_group_IT_number 12
_symmetry_cell_setting 'monoclinic'
loop_
_space_group_symop_operation_xyz
x,y,z
-x,y,-z
-x,-y,-z
x,-y,z
1/2+x,1/2+y,z
1/2-x,1/2+y,-z
1/2-x,1/2-y,-z
1/2+x,1/2-y,z
loop_
_atom_site_type_symbol
_atom_site_label
_atom_site_fract_x
_atom_site_fract_y
_atom_site_fract_z
Si Si1 0.363850 0.428375 0.080897
Si Si2 0.881516 0.371870 0.194374
Si Si3 0.337008 0.275043 0.495501
Si Si4 0.855555 0.574275 0.403704
Si Si5 0.940570 0.000000 0.703413
Si Si6 0.235776 0.000000 0.283274
Si Si7 0.487732 0.613461 0.251489
Si Si8 0.122650 0.356290 0.445396
O O1 0.295571 0.500000 0.128065
O O2 0.266247 0.381471 0.243756
O O3 0.500000 0.445742 0.000000
O O4 0.417019 0.387717 0.938809
O O5 0.755036 0.319238 0.340486
O O6 0.938449 0.389615 0.235446
O O7 0.826036 0.436545 0.207661
O O8 0.000000 0.343485 0.000000
O O9 0.250000 0.250000 0.500000
O O10 0.477476 0.316423 0.310036
O O11 0.375022 0.214578 0.516391
O O12 0.878870 0.500000 0.365565
O O13 0.681034 0.590951 0.589118
O O14 0.924722 0.596307 0.425327
O O15 0.802563 0.000000 0.780609
O O16 0.094934 0.000000 0.492419
O O17 0.927395 0.935962 0.773890
O O18 0.000000 0.358403 0.500000
#
# Coordination Sequence:
#
# PCOD8116601 Si02
#       8
#     8   8   8   8   4   4   8   8
#     4  11  21  38  70  99 123 163 225 273 308 380
#     4  11  22  39  65  95 120 161 217 261 314 386
#     4  11  22  41  65  86 121 176 218 253 311 384
#     4  11  19  39  67  89 124 168 209 261 315 377
#     4  11  20  36  61  94 128 155 211 266 331 375
#     4  11  21  36  62  96 124 159 201 270 333 378
#     4  11  19  38  66  94 119 162 220 268 309 373
#     4  12  27  44  61  97 136 171 212 262 325 379
#
# _framework density 9.8765429999999999
#
# number of rings (size 3 to 8) (size 9 to 14) (size 15 to 20)
#    0.000    0.857    9.286    0.643    0.000    4.000 
#    2.571    0.714    0.000    0.000    0.000    0.000 
#    0.000    0.000    0.000    0.000    0.000    0.000 
#
# Total GULP energy -346887.777820 kJ/mol
# GULP energy per Si atom -12388.849208 kJ/mol
# Density = 0.985406 g / cm^3
# Si number density = 9.876543 Si / 1000 Ang^3
#
#
#
# Elastic Constant Matrix: (Units=GPa)
#
#
# Indices 1 2 3 4 5 6 
#
# 1 109.5047 15.3512 36.1265 0.0420 23.5142 -0.0071
# 2 15.3512 104.0027 35.4151 0.0536 13.8367 -0.0063
# 3 36.1265 35.4151 95.0220 0.0264 43.4751 -0.0109
# 4 0.0420 0.0536 0.0264 29.3967 -0.0109 13.0268
# 5 23.5142 13.8367 43.4751 -0.0109 37.4673 0.0030
# 6 -0.0071 -0.0063 -0.0109 13.0268 0.0030 33.0871
#
#
#
# Elastic Compliance Matrix: (Units=1/GPa)
#
#
# Indices 1 2 3 4 5 6 
#
# 1 0.010764 -0.000336 -0.001989 -0.000019 -0.004323 0.000009
# 2 -0.000336 0.011062 -0.004738 -0.000018 0.001623 0.000007
# 3 -0.001989 -0.004738 0.024886 -0.000030 -0.025878 0.000021
# 4 -0.000019 -0.000018 -0.000030 0.041207 0.000066 -0.016224
# 5 -0.004323 0.001623 -0.025878 0.000066 0.058832 -0.000041
# 6 0.000009 0.000007 0.000021 -0.016224 -0.000041 0.036611
#
#
# Mechanical properties :
#
#
# Convention : Reuss Voigt Hill
#
# Bulk Modulus (GPa) = 30.68820 53.59057 42.13938
# Shear Modulus (GPa) = 23.99822 34.76599 29.38211
#
# Velocity S-wave (km/s) = 3.48934 4.19982 3.86096
# Velocity P-wave (km/s) = 5.63947 7.12089 6.42303
#
# Compressibility (1/GPa) = 0.03258581
#
# Stress axis : x y z
#
# Youngs Moduli (GPa) = 92.90512 90.39862 40.18336
#
# Poissons Ratio (x) = 0.03040 0.07992
# Poissons Ratio (y) = 0.03125 0.19038
# Poissons Ratio (z) = 0.18478 0.42828
#
# Static dielectric constant tensor:
#      x y z
#    x 3.774640 -0.000030 0.483090 
#    y -0.000030 3.621310 0.000030 
#    z 0.483090 0.000030 3.584140 
# 
# 
# High freq. dielectric constant tensor:
#      x y z
#    x 1.765270 0.000000 0.043590 
#    y 0.000000 1.788500 0.000000 
#    z 0.043590 0.000000 1.758790 
# 
# From -- ./inp_files/227623.got.cif
#   From: 2010.06.25/outbox.ucp.g09.slc.cvg/sg12_114_cif.got.tgz:227623.got - 2010.06.28 13:50:54.
