data_PCOD8116529
_publ_section_title
;
Structure prediction by ZEFSAII (Michael W. Deem and Ramdas Pophale) SiO2 
 PCOD8116529
Probable space group: C 2/M
;
_chemical_formula_sum "Si O2"
_cell_formula_units_Z 32
_cell_length_a 15.000000
_cell_length_b 9.000000
_cell_length_c 30.000000
_cell_angle_alpha 90.000000
_cell_angle_beta 50.000000
_cell_angle_gamma 90.000000
_cell_volume 3102.479995
_symmetry_space_group_name_H-M "C 2/M"
_symmetry_group_IT_number 12
_symmetry_cell_setting 'monoclinic'
loop_
_space_group_symop_operation_xyz
x,y,z
-x,y,-z
-x,-y,-z
x,-y,z
1/2+x,1/2+y,z
1/2-x,1/2+y,-z
1/2-x,1/2-y,-z
1/2+x,1/2-y,z
loop_
_atom_site_type_symbol
_atom_site_label
_atom_site_fract_x
_atom_site_fract_y
_atom_site_fract_z
Si Si1 0.147950 0.672594 0.004054
Si Si2 0.329808 0.169625 0.364720
Si Si3 0.882475 0.325620 0.088942
Si Si4 0.406491 0.666586 0.595625
Si Si5 0.630996 0.168353 0.547504
Si Si6 0.945292 0.176999 0.247345
Si Si7 0.173396 0.676791 0.201871
Si Si8 0.237619 0.828146 0.268246
O O1 0.167351 0.500000 0.006019
O O2 0.015304 0.717163 0.059886
O O3 0.250000 0.750000 0.000000
O O4 0.154067 0.711847 0.949922
O O5 0.190302 0.207121 0.411175
O O6 0.390636 0.182891 0.392812
O O7 0.395438 0.285082 0.312126
O O8 0.342882 0.000000 0.341657
O O9 0.862153 0.500000 0.104755
O O10 0.801307 0.222682 0.144796
O O11 0.453024 0.500000 0.574065
O O12 0.520246 0.768805 0.556219
O O13 0.340015 0.685683 0.663229
O O14 0.750000 0.250000 0.500000
O O15 0.646190 0.000000 0.527237
O O16 0.863318 0.250811 0.235992
O O17 0.074756 0.246829 0.202569
O O18 0.950504 0.000000 0.238819
O O19 0.156831 0.500000 0.206567
O O20 0.164410 0.739310 0.254805
O O21 0.256900 0.000000 0.248004
#
# Coordination Sequence:
#
# PCOD8116529 Si02
#       8
#     8   8   8   8   8   8   8   8
#     4   9  19  37  62  84 108 145 188 234 283 334
#     4   9  20  39  59  79 108 147 184 224 276 336
#     4   9  20  39  57  80 114 151 188 229 282 339
#     4   9  19  37  59  80 105 139 180 223 273 330
#     4  11  23  37  55  79 108 141 180 226 277 331
#     4  11  22  37  59  86 115 150 189 232 280 337
#     4  12  24  37  56  85 120 156 191 234 283 333
#     4  10  21  39  61  85 114 150 189 232 280 337
#
# _framework density 10.314329000000001
#
# number of rings (size 3 to 8) (size 9 to 14) (size 15 to 20)
#    0.000    2.000    0.000    5.250    0.000    8.000 
#    0.000    6.250    0.000    0.000    0.000    0.000 
#    0.000    0.000    0.000    0.000    0.000    0.000 
#
# Total GULP energy -396715.033366 kJ/mol
# GULP energy per Si atom -12397.344793 kJ/mol
# Density = 1.029085 g / cm^3
# Si number density = 10.314329 Si / 1000 Ang^3
#
#
#
# Elastic Constant Matrix: (Units=GPa)
#
#
# Indices 1 2 3 4 5 6 
#
# 1 115.5315 36.2867 7.2917 0.0000 -27.9793 0.0002
# 2 36.2867 133.4295 20.8731 0.0000 -18.6484 0.0002
# 3 7.2917 20.8731 41.6260 0.0000 -20.5691 0.0000
# 4 0.0000 0.0000 0.0000 31.4859 0.0000 -5.7093
# 5 -27.9793 -18.6484 -20.5691 0.0000 32.3986 0.0000
# 6 0.0002 0.0002 0.0000 -5.7093 0.0000 44.0748
#
#
#
# Elastic Compliance Matrix: (Units=1/GPa)
#
#
# Indices 1 2 3 4 5 6 
#
# 1 0.012059 -0.002364 0.005168 0.000000 0.012335 0.000000
# 2 -0.002364 0.008808 -0.003652 0.000000 0.000710 0.000000
# 3 0.005168 -0.003652 0.038054 0.000000 0.026521 0.000000
# 4 0.000000 0.000000 0.000000 0.032524 0.000000 0.004213
# 5 0.012335 0.000710 0.026521 0.000000 0.058764 0.000000
# 6 0.000000 0.000000 0.000000 0.004213 0.000000 0.023234
#
#
# Mechanical properties :
#
#
# Convention : Reuss Voigt Hill
#
# Bulk Modulus (GPa) = 17.47467 46.60998 32.04233
# Shear Modulus (GPa) = 25.74467 36.66756 31.20611
#
# Velocity S-wave (km/s) = 3.53654 4.22062 3.89364
# Velocity P-wave (km/s) = 5.01654 6.81141 5.98168
#
# Compressibility (1/GPa) = 0.05722569
#
# Stress axis : x y z
#
# Youngs Moduli (GPa) = 82.92443 113.53324 26.27816
#
# Poissons Ratio (x) = 0.26840 -0.13581
# Poissons Ratio (y) = 0.19604 0.09597
# Poissons Ratio (z) = -0.42856 0.41461
#
# Static dielectric constant tensor:
#      x y z
#    x 4.254230 0.000000 -0.067060 
#    y 0.000000 3.744740 0.000000 
#    z -0.067060 0.000000 3.521590 
# 
# 
# High freq. dielectric constant tensor:
#      x y z
#    x 1.835570 0.000000 -0.012630 
#    y 0.000000 1.807870 0.000000 
#    z -0.012630 0.000000 1.788760 
# 
# From -- ./inp_files/375439.got.cif
#   From: 2010.06.25/outbox.ucp.g09.slc.cvg/sg12_188_cif.got.tgz:375439.got - 2010.06.28 13:50:54.
