data_PCOD8116017
_publ_section_title
;
Structure prediction by ZEFSAII (Michael W. Deem and Ramdas Pophale) SiO2 
 PCOD8116017
Probable space group: C 2/M
;
_chemical_formula_sum "Si O2"
_cell_formula_units_Z 40
_cell_length_a 27.887891
_cell_length_b 8.992674
_cell_length_c 26.264503
_cell_angle_alpha 90.000000
_cell_angle_beta 160.569055
_cell_angle_gamma 90.000000
_cell_volume 2191.230246
_symmetry_space_group_name_H-M "C 2/M"
_symmetry_group_IT_number 12
_symmetry_cell_setting 'monoclinic'
loop_
_space_group_symop_operation_xyz
x,y,z
-x,y,-z
-x,-y,-z
x,-y,z
1/2+x,1/2+y,z
1/2-x,1/2+y,-z
1/2-x,1/2-y,-z
1/2+x,1/2-y,z
loop_
_atom_site_type_symbol
_atom_site_label
_atom_site_fract_x
_atom_site_fract_y
_atom_site_fract_z
Si Si1 0.580012 0.176443 0.432842
Si Si2 0.093167 0.826716 0.235913
Si Si3 0.586784 0.322524 0.037825
Si Si4 0.911451 0.322953 0.363245
Si Si5 0.403241 0.673825 0.649140
O O1 0.743616 0.235927 0.604399
O O2 0.485991 0.232604 0.386072
O O3 0.512899 0.249628 0.314061
O O4 0.574359 0.000000 0.420687
O O5 0.022179 0.798924 0.220833
O O6 0.105360 0.000000 0.236496
O O7 0.991034 0.755562 0.090424
O O8 0.590691 0.500000 0.040260
O O9 0.749173 0.259897 0.202822
O O10 0.500000 0.265213 0.000000
O O11 0.911496 0.500000 0.365132
O O12 0.000000 0.259344 0.500000
O O13 0.385018 0.500000 0.620079
O O14 0.250000 0.750000 0.500000
#
# Coordination Sequence:
#
# PCOD8116017 Si02
#       5
#     8   8   8   8   8
#     4   9  16  27  43  64  90 116 144 178 215 255
#     4   8  14  24  38  57  82 111 140 172 210 253
#     4   9  15  23  37  58  84 112 141 175 218 262
#     4   9  16  25  39  61  88 115 143 179 220 258
#     4   9  16  27  44  65  89 116 147 179 212 253
#
# _framework density 18.254586
#
# number of rings (size 3 to 8) (size 9 to 14) (size 15 to 20)
#    0.000    3.200    0.000    3.000    0.000    4.800 
#    0.000    1.000    0.000    0.600    0.000    5.600 
#    0.000   27.200    0.000    0.000    0.000    0.000 
#
# Total GULP energy -247817.437063 kJ/mol
# GULP energy per Si atom -12390.871853 kJ/mol
# Density = 1.821304 g / cm^3
# Si number density = 18.254586 Si / 1000 Ang^3
#
#
#
# Elastic Constant Matrix: (Units=GPa)
#
#
# Indices 1 2 3 4 5 6 
#
# 1 198.9001 29.0919 89.1368 0.0011 -15.6491 0.0003
# 2 29.0919 25.9589 13.3961 0.0063 -6.4022 0.0027
# 3 89.1368 13.3961 123.5850 0.0082 -11.5277 0.0041
# 4 0.0011 0.0063 0.0082 7.8160 0.0040 -4.1135
# 5 -15.6491 -6.4022 -11.5277 0.0040 34.0393 0.0014
# 6 0.0003 0.0027 0.0041 -4.1135 0.0014 22.8280
#
#
#
# Elastic Compliance Matrix: (Units=1/GPa)
#
#
# Indices 1 2 3 4 5 6 
#
# 1 0.008412 -0.006489 -0.005284 0.000011 0.000857 0.000004
# 2 -0.006489 0.047198 0.000118 -0.000048 0.005934 -0.000014
# 3 -0.005284 0.000118 0.012046 -0.000015 0.001672 -0.000005
# 4 0.000011 -0.000048 -0.000015 0.141348 -0.000027 0.025470
# 5 0.000857 0.005934 0.001672 -0.000027 0.031454 -0.000008
# 6 0.000004 -0.000014 -0.000005 0.025470 -0.000008 0.048395
#
#
# Mechanical properties :
#
#
# Convention : Reuss Voigt Hill
#
# Bulk Modulus (GPa) = 22.55049 67.96597 45.25823
# Shear Modulus (GPa) = 15.29303 27.39127 21.34215
#
# Velocity S-wave (km/s) = 2.89755 3.87785 3.42298
# Velocity P-wave (km/s) = 4.85537 7.57386 6.36152
#
# Compressibility (1/GPa) = 0.04434493
#
# Stress axis : x y z
#
# Youngs Moduli (GPa) = 118.87356 21.18755 83.01520
#
# Poissons Ratio (x) = 0.13749 0.43866
# Poissons Ratio (y) = 0.77140 -0.00979
# Poissons Ratio (z) = 0.62813 -0.00250
#
# Static dielectric constant tensor:
#      x y z
#    x 3.803520 0.000020 -0.324030 
#    y 0.000020 2.845270 0.000000 
#    z -0.324030 0.000000 3.481530 
# 
# 
# High freq. dielectric constant tensor:
#      x y z
#    x 1.726910 0.000000 -0.019470 
#    y 0.000000 1.639230 0.000000 
#    z -0.019470 0.000000 1.688910 
# 
# From -- ./inp_files/93645.got.cif
#   From: 2010.06.25/outbox.cif.g09.slc.cpg/sg12_47_cif.got.tgz:93645.got - 2010.06.28 00:19:55.
