data_PCOD8116724
_publ_section_title
;
Structure prediction by ZEFSAII (Michael W. Deem and Ramdas Pophale) SiO2 
 PCOD8116724
Probable space group: P 2/C
;
_chemical_formula_sum "Si O2"
_cell_formula_units_Z 30
_cell_length_a 10.783655
_cell_length_b 9.739615
_cell_length_c 17.135219
_cell_angle_alpha 90.000000
_cell_angle_beta 61.688149
_cell_angle_gamma 90.000000
_cell_volume 1584.408795
_symmetry_space_group_name_H-M "P 2/C"
_symmetry_group_IT_number 13
_symmetry_cell_setting 'monoclinic'
loop_
_space_group_symop_operation_xyz
x,y,z
-x,y,1/2-z
-x,-y,-z
x,-y,1/2+z
loop_
_atom_site_type_symbol
_atom_site_label
_atom_site_fract_x
_atom_site_fract_y
_atom_site_fract_z
Si Si1 0.746056 0.931269 0.100170
Si Si2 0.971516 0.727874 0.081241
Si Si3 0.500000 0.767601 0.250000
Si Si4 0.817324 0.118593 0.410314
Si Si5 0.108142 0.804921 0.889461
Si Si6 0.861689 0.158664 0.834150
Si Si7 0.837679 0.656335 0.779659
Si Si8 0.744730 0.376204 0.755186
O O1 0.881420 0.866650 0.101667
O O2 0.601601 0.875439 0.177626
O O3 0.777306 0.093955 0.103159
O O4 0.730004 0.880758 0.015990
O O5 0.862593 0.614051 0.149337
O O6 0.101219 0.751249 0.100816
O O7 0.039610 0.700167 0.974998
O O8 0.411822 0.657105 0.226488
O O9 0.777040 0.246390 0.366456
O O10 0.982903 0.114117 0.382790
O O11 0.774494 0.978060 0.379822
O O12 0.186990 0.720479 0.798685
O O13 0.772821 0.249456 0.802844
O O14 0.000000 0.105612 0.750000
O O15 0.749371 0.515408 0.804294
O O16 0.000000 0.622826 0.750000
#
# Coordination Sequence:
#
# PCOD8116724 Si02
#       8
#     4   4   2   4   4   4   4   4
#     4  10  18  35  56  84 110 148 191 235 273 332
#     4   9  16  29  57  85 109 144 173 229 289 339
#     4  10  24  40  58  70 108 164 200 228 266 326
#     4  10  18  31  58  89 116 138 174 237 298 332
#     4  10  17  31  57  90 118 134 178 238 297 335
#     4  10  16  28  55  84 109 139 173 225 287 334
#     4  10  21  33  54  89 117 142 175 234 292 341
#     4  10  22  37  52  76 117 155 192 220 271 343
#
# _framework density 18.934508999999998
#
# number of rings (size 3 to 8) (size 9 to 14) (size 15 to 20)
#    0.000    2.133    2.667    3.200    3.733    0.533 
#    0.000    4.667    0.000    0.000    0.000    0.000 
#    0.000    0.000    0.000    0.000    0.000    0.000 
#
# Total GULP energy -371680.219438 kJ/mol
# GULP energy per Si atom -12389.340648 kJ/mol
# Density = 1.889141 g / cm^3
# Si number density = 18.934509 Si / 1000 Ang^3
#
#
#
# Elastic Constant Matrix: (Units=GPa)
#
#
# Indices 1 2 3 4 5 6 
#
# 1 81.3471 39.9184 40.0950 0.0000 9.6410 0.0000
# 2 39.9184 80.8493 33.8173 0.0000 7.0480 0.0000
# 3 40.0950 33.8173 87.2872 0.0000 21.7879 0.0000
# 4 0.0000 0.0000 0.0000 6.7145 0.0000 -0.7610
# 5 9.6410 7.0480 21.7879 0.0000 22.4474 0.0000
# 6 0.0000 0.0000 0.0000 -0.7610 0.0000 21.6806
#
#
#
# Elastic Compliance Matrix: (Units=1/GPa)
#
#
# Indices 1 2 3 4 5 6 
#
# 1 0.018467 -0.006650 -0.005870 0.000000 -0.000146 0.000000
# 2 -0.006650 0.017180 -0.003917 0.000000 0.001264 0.000000
# 3 -0.005870 -0.003917 0.019445 0.000000 -0.015123 0.000000
# 4 0.000000 0.000000 0.000000 0.149526 0.000000 0.005249
# 5 -0.000146 0.001264 -0.015123 0.000000 0.058893 0.000000
# 6 0.000000 0.000000 0.000000 0.005249 0.000000 0.046308
#
#
# Mechanical properties :
#
#
# Convention : Reuss Voigt Hill
#
# Bulk Modulus (GPa) = 45.00685 53.01612 49.01149
# Shear Modulus (GPa) = 14.28171 19.21204 16.74688
#
# Velocity S-wave (km/s) = 2.74938 3.18882 2.97722
# Velocity P-wave (km/s) = 5.82238 6.45125 6.14487
#
# Compressibility (1/GPa) = 0.02221884
#
# Stress axis : x y z
#
# Youngs Moduli (GPa) = 54.15180 58.20688 51.42690
#
# Poissons Ratio (x) = 0.38706 0.30187
# Poissons Ratio (y) = 0.36010 0.20143
# Poissons Ratio (z) = 0.31786 0.22799
#
# Static dielectric constant tensor:
#      x y z
#    x 3.304930 0.000000 0.189970 
#    y 0.000000 3.396110 0.000000 
#    z 0.189970 0.000000 3.810900 
# 
# 
# High freq. dielectric constant tensor:
#      x y z
#    x 1.700830 0.000000 0.033270 
#    y 0.000000 1.721100 0.000000 
#    z 0.033270 0.000000 1.734460 
# 
# From -- ./inp_files/66277.got.cif
#   From: 2010.06.25/outbox.cif.g09.slc.cpg/sg13_34_cif.got.tgz:66277.got - 2010.06.28 04:50:58.
