data_PCOD8116310
_publ_section_title
;
Structure prediction by ZEFSAII (Michael W. Deem and Ramdas Pophale) SiO2 
 PCOD8116310
Probable space group: C 2/M
;
_chemical_formula_sum "Si O2"
_cell_formula_units_Z 28
_cell_length_a 15.000000
_cell_length_b 24.000000
_cell_length_c 24.000000
_cell_angle_alpha 90.000000
_cell_angle_beta 160.000000
_cell_angle_gamma 90.000000
_cell_volume 2955.054038
_symmetry_space_group_name_H-M "C 2/M"
_symmetry_group_IT_number 12
_symmetry_cell_setting 'monoclinic'
loop_
_space_group_symop_operation_xyz
x,y,z
-x,y,-z
-x,-y,-z
x,-y,z
1/2+x,1/2+y,z
1/2-x,1/2+y,-z
1/2-x,1/2-y,-z
1/2+x,1/2-y,z
loop_
_atom_site_type_symbol
_atom_site_label
_atom_site_fract_x
_atom_site_fract_y
_atom_site_fract_z
Si Si1 0.721596 0.638981 0.896322
Si Si2 0.394291 0.753456 0.348641
Si Si3 0.257298 0.436131 0.621330
Si Si4 0.082694 0.249691 0.279268
Si Si5 0.794734 0.565910 0.540561
Si Si6 0.194195 0.337136 0.805271
Si Si7 0.300394 0.365333 0.246640
O O1 0.498638 0.598194 0.789313
O O2 0.639938 0.703042 0.855807
O O3 0.734901 0.625594 0.839241
O O4 0.998851 0.627826 0.091078
O O5 0.678779 0.768784 0.540393
O O6 0.190339 0.742583 0.279438
O O7 0.314340 0.801815 0.257772
O O8 0.412669 0.695786 0.325588
O O9 0.309167 0.500000 0.667589
O O10 0.210924 0.428050 0.528916
O O11 0.000000 0.412744 0.500000
O O12 0.944068 0.304338 0.224413
O O13 0.826250 0.500000 0.576535
O O14 0.510688 0.589869 0.394953
O O15 0.035208 0.604024 0.704867
O O16 0.500000 0.348814 0.000000
#
# Coordination Sequence:
#
# PCOD8116310 Si02
#       7
#     8   8   8   8   8   8   8
#     4  10  20  31  56  88 114 153 191 241 298 352
#     4  11  22  38  62  88 122 162 194 240 306 363
#     4   9  19  35  54  82 120 153 193 246 301 359
#     4  11  23  37  60  91 123 155 197 242 302 367
#     4  10  22  40  62  83 113 163 209 248 294 347
#     4  12  24  40  62  90 125 159 199 251 299 359
#     4  10  19  37  57  81 119 150 196 248 287 351
#
# _framework density 9.4752919999999996
#
# number of rings (size 3 to 8) (size 9 to 14) (size 15 to 20)
#    0.000    1.571    2.857    3.000    4.000    3.143 
#    0.000    2.857    0.000    1.714    0.000    0.000 
#    0.000    0.000    0.000    0.000    0.000    0.000 
#
# Total GULP energy -346986.665249 kJ/mol
# GULP energy per Si atom -12392.380902 kJ/mol
# Density = 0.945373 g / cm^3
# Si number density = 9.475292 Si / 1000 Ang^3
#
#
#
# Elastic Constant Matrix: (Units=GPa)
#
#
# Indices 1 2 3 4 5 6 
#
# 1 65.4348 26.5599 37.2486 0.1776 12.4086 -0.0164
# 2 26.5599 140.9269 69.8694 0.0385 11.0725 -0.0012
# 3 37.2486 69.8694 167.6836 0.4376 23.0165 0.0446
# 4 0.1776 0.0385 0.4376 33.9761 0.0815 6.5179
# 5 12.4086 11.0725 23.0165 0.0815 33.0993 -0.0013
# 6 -0.0164 -0.0012 0.0446 6.5179 -0.0013 24.5297
#
#
#
# Elastic Compliance Matrix: (Units=1/GPa)
#
#
# Indices 1 2 3 4 5 6 
#
# 1 0.018395 -0.001758 -0.002750 -0.000054 -0.004396 0.000031
# 2 -0.001758 0.009117 -0.003405 0.000044 -0.000023 -0.000006
# 3 -0.002750 -0.003405 0.008508 -0.000083 -0.003746 0.000004
# 4 -0.000054 0.000044 -0.000083 0.031015 -0.000013 -0.008241
# 5 -0.004396 -0.000023 -0.003746 -0.000013 0.034472 0.000009
# 6 0.000031 -0.000006 0.000004 -0.008241 0.000009 0.042957
#
#
# Mechanical properties :
#
#
# Convention : Reuss Voigt Hill
#
# Bulk Modulus (GPa) = 49.52184 71.26678 60.39431
# Shear Modulus (GPa) = 29.93608 34.34552 32.14080
#
# Velocity S-wave (km/s) = 3.97885 4.26182 4.12276
# Velocity P-wave (km/s) = 6.87729 7.86802 7.38928
#
# Compressibility (1/GPa) = 0.02019311
#
# Stress axis : x y z
#
# Youngs Moduli (GPa) = 54.36200 109.68111 117.53848
#
# Poissons Ratio (x) = 0.19281 0.32326
# Poissons Ratio (y) = 0.09557 0.40027
# Poissons Ratio (z) = 0.14951 0.37351
#
# Static dielectric constant tensor:
#      x y z
#    x 3.599420 -0.000170 0.260850 
#    y -0.000170 3.651530 -0.001030 
#    z 0.260850 -0.001030 4.040470 
# 
# 
# High freq. dielectric constant tensor:
#      x y z
#    x 1.730870 0.000000 0.019950 
#    y 0.000000 1.739970 -0.000060 
#    z 0.019950 -0.000060 1.763550 
# 
# From -- ./inp_files/160242.got.cif
#   From: 2010.06.25/outbox.ucp.g09.slc.cvg/sg12_81_cif.got.tgz:160242.got - 2010.06.28 13:50:54.
