data_PCOD8116772
_publ_section_title
;
Structure prediction by ZEFSAII (Michael W. Deem and Ramdas Pophale) SiO2 
 PCOD8116772
Probable space group: P 2/C
;
_chemical_formula_sum "Si O2"
_cell_formula_units_Z 30
_cell_length_a 27.714778
_cell_length_b 8.548474
_cell_length_c 16.263253
_cell_angle_alpha 90.000000
_cell_angle_beta 25.054192
_cell_angle_gamma 90.000000
_cell_volume 1631.681863
_symmetry_space_group_name_H-M "P 2/C"
_symmetry_group_IT_number 13
_symmetry_cell_setting 'monoclinic'
loop_
_space_group_symop_operation_xyz
x,y,z
-x,y,1/2-z
-x,-y,-z
x,-y,1/2+z
loop_
_atom_site_type_symbol
_atom_site_label
_atom_site_fract_x
_atom_site_fract_y
_atom_site_fract_z
Si Si1 0.057297 0.578346 0.539837
Si Si2 0.587836 0.583112 0.471490
Si Si3 0.776229 0.840487 0.626372
Si Si4 0.745965 0.386127 0.325640
Si Si5 0.805200 0.639776 0.909882
Si Si6 0.000000 0.313094 0.750000
Si Si7 0.650764 0.614846 0.716535
Si Si8 0.225353 0.204988 0.874725
O O1 0.152745 0.517839 0.328508
O O2 0.018965 0.422027 0.643479
O O3 0.112630 0.706091 0.515752
O O4 0.941174 0.647787 0.680825
O O5 0.628471 0.477764 0.485982
O O6 0.454184 0.627737 0.686062
O O7 0.611784 0.490807 0.351597
O O8 0.663253 0.739056 0.346812
O O9 0.764793 0.751806 0.731065
O O10 0.893518 0.799133 0.400660
O O11 0.680421 0.785188 0.708439
O O12 0.775622 0.023130 0.643370
O O13 0.740500 0.312648 0.425351
O O14 0.761472 0.466652 0.004444
O O15 0.769846 0.764351 0.034519
#
# Coordination Sequence:
#
# PCOD8116772 Si02
#       8
#     4   4   4   4   4   2   4   4
#     4  10  17  34  51  73 101 142 176 220 258 319
#     4   8  17  35  53  76  96 136 172 225 255 314
#     4  10  20  33  50  80 107 145 169 223 265 332
#     4   9  20  33  52  75 106 132 179 223 275 302
#     4  11  18  32  53  78  99 138 180 228 259 319
#     4  10  16  30  54  70 102 134 190 218 250 298
#     4   9  17  33  57  74  99 129 187 213 255 309
#     4  10  20  32  54  76 109 142 181 211 276 319
#
# _framework density 18.385936999999998
#
# number of rings (size 3 to 8) (size 9 to 14) (size 15 to 20)
#    0.000    2.400    2.667    2.000    1.867    1.067 
#    0.000    3.333    0.000    0.000    0.000    0.000 
#    0.000    0.000    0.000    0.000    0.000    0.000 
#
# Total GULP energy -371709.787449 kJ/mol
# GULP energy per Si atom -12390.326248 kJ/mol
# Density = 1.834409 g / cm^3
# Si number density = 18.385937 Si / 1000 Ang^3
#
#
#
# Elastic Constant Matrix: (Units=GPa)
#
#
# Indices 1 2 3 4 5 6 
#
# 1 120.3868 39.6527 38.0489 0.0000 -8.9125 0.0000
# 2 39.6527 115.7089 25.1073 0.0000 -9.2371 0.0000
# 3 38.0489 25.1073 51.0672 0.0000 -19.6194 0.0000
# 4 0.0000 0.0000 0.0000 12.2948 0.0000 -1.9328
# 5 -8.9125 -9.2371 -19.6194 0.0000 32.8777 0.0000
# 6 0.0000 0.0000 0.0000 -1.9328 0.0000 14.4243
#
#
#
# Elastic Compliance Matrix: (Units=1/GPa)
#
#
# Indices 1 2 3 4 5 6 
#
# 1 0.011555 -0.002331 -0.008448 0.000000 -0.002564 0.000000
# 2 -0.002331 0.010145 -0.003112 0.000000 0.000361 0.000000
# 3 -0.008448 -0.003112 0.033981 0.000000 0.017114 0.000000
# 4 0.000000 0.000000 0.000000 0.083085 0.000000 0.011133
# 5 -0.002564 0.000361 0.017114 0.000000 0.040035 0.000000
# 6 0.000000 0.000000 0.000000 0.011133 0.000000 0.070819
#
#
# Mechanical properties :
#
#
# Convention : Reuss Voigt Hill
#
# Bulk Modulus (GPa) = 35.84429 54.75342 45.29885
# Shear Modulus (GPa) = 17.43963 24.20961 20.82462
#
# Velocity S-wave (km/s) = 3.08316 3.63264 3.36912
# Velocity P-wave (km/s) = 5.67559 6.88763 6.31078
#
# Compressibility (1/GPa) = 0.02789845
#
# Stress axis : x y z
#
# Youngs Moduli (GPa) = 86.54534 98.56631 29.42786
#
# Poissons Ratio (x) = 0.22979 0.24860
# Poissons Ratio (y) = 0.20176 0.09159
# Poissons Ratio (z) = 0.73113 0.30677
#
# Static dielectric constant tensor:
#      x y z
#    x 3.518220 0.000000 -0.453160 
#    y 0.000000 3.060820 0.000000 
#    z -0.453160 0.000000 3.731690 
# 
# 
# High freq. dielectric constant tensor:
#      x y z
#    x 1.708970 0.000000 -0.018190 
#    y 0.000000 1.678720 0.000000 
#    z -0.018190 0.000000 1.707120 
# 
# From -- ./inp_files/59402.got.cif
#   From: 2010.06.25/outbox.cif.g09.slc.cpg/sg13_30_cif.got.tgz:59402.got - 2010.06.28 04:50:58.
