data_PCOD8116562
_publ_section_title
;
Structure prediction by ZEFSAII (Michael W. Deem and Ramdas Pophale) SiO2 
 PCOD8116562
Probable space group: C 2/M
;
_chemical_formula_sum "Si O2"
_cell_formula_units_Z 32
_cell_length_a 30.000000
_cell_length_b 9.000000
_cell_length_c 18.000000
_cell_angle_alpha 90.000000
_cell_angle_beta 40.000000
_cell_angle_gamma 90.000000
_cell_volume 3123.947783
_symmetry_space_group_name_H-M "C 2/M"
_symmetry_group_IT_number 12
_symmetry_cell_setting 'monoclinic'
loop_
_space_group_symop_operation_xyz
x,y,z
-x,y,-z
-x,-y,-z
x,-y,z
1/2+x,1/2+y,z
1/2-x,1/2+y,-z
1/2-x,1/2-y,-z
1/2+x,1/2-y,z
loop_
_atom_site_type_symbol
_atom_site_label
_atom_site_fract_x
_atom_site_fract_y
_atom_site_fract_z
Si Si1 0.036495 0.831687 0.786329
Si Si2 0.756946 0.673289 0.570307
Si Si3 0.001592 0.831276 0.410574
Si Si4 0.411428 0.827691 0.418773
Si Si5 0.608648 0.667782 0.958415
Si Si6 0.780174 0.174196 0.066244
Si Si7 0.347651 0.325002 0.827074
Si Si8 0.127186 0.674185 0.790995
O O1 0.045408 0.773896 0.692373
O O2 0.079437 0.724230 0.784579
O O3 0.064366 0.000000 0.759660
O O4 0.955070 0.824217 0.904145
O O5 0.743515 0.500000 0.576282
O O6 0.750000 0.750000 0.500000
O O7 0.830303 0.705716 0.514462
O O8 0.700681 0.742792 0.697029
O O9 0.938947 0.725471 0.463457
O O10 0.000000 0.824795 0.500000
O O11 0.074979 0.767136 0.287508
O O12 0.990332 0.000000 0.396624
O O13 0.427310 0.000000 0.384771
O O14 0.616297 0.500000 0.917196
O O15 0.677719 0.717373 0.913516
O O16 0.591656 0.780876 0.913676
O O17 0.706044 0.254855 0.163563
O O18 0.767050 0.000000 0.078768
O O19 0.825200 0.226700 0.937894
O O20 0.344660 0.500000 0.819838
O O21 0.138587 0.500000 0.770148
#
# Coordination Sequence:
#
# PCOD8116562 Si02
#       8
#     8   8   8   8   8   8   8   8
#     4  11  22  39  64  87 117 159 200 245 300 362
#     4  11  23  41  64  89 120 158 200 250 302 358
#     4  10  22  40  61  86 119 158 199 244 297 361
#     4  11  24  40  63  93 121 153 201 254 305 361
#     4  10  22  39  58  85 120 159 200 241 299 366
#     4   9  18  34  57  83 112 148 191 239 291 352
#     4   9  18  35  58  84 114 148 191 239 290 351
#     4  12  25  39  58  87 121 158 200 249 299 353
#
# _framework density 10.243449
#
# number of rings (size 3 to 8) (size 9 to 14) (size 15 to 20)
#    0.000    1.625    1.250    3.375    0.000    8.250 
#    0.000    5.000    0.000    0.000    0.000    0.000 
#    0.000    0.000    0.000    0.000    0.000    0.000 
#
# Total GULP energy -396910.534302 kJ/mol
# GULP energy per Si atom -12403.454197 kJ/mol
# Density = 1.022013 g / cm^3
# Si number density = 10.243449 Si / 1000 Ang^3
#
#
#
# Elastic Constant Matrix: (Units=GPa)
#
#
# Indices 1 2 3 4 5 6 
#
# 1 104.3483 49.9041 26.6546 0.0209 -18.5404 -0.0084
# 2 49.9041 93.5471 28.6956 0.0566 -12.2352 -0.0329
# 3 26.6546 28.6956 43.6725 0.0340 -10.8372 -0.0234
# 4 0.0209 0.0566 0.0340 23.8065 -0.0042 -2.0864
# 5 -18.5404 -12.2352 -10.8372 -0.0042 27.4201 -0.0051
# 6 -0.0084 -0.0329 -0.0234 -2.0864 -0.0051 37.5515
#
#
#
# Elastic Compliance Matrix: (Units=1/GPa)
#
#
# Indices 1 2 3 4 5 6 
#
# 1 0.014251 -0.005792 -0.003484 0.000007 0.005675 -0.000003
# 2 -0.005792 0.015934 -0.006810 -0.000022 0.000502 0.000007
# 3 -0.003484 -0.006810 0.031223 -0.000023 0.006945 0.000012
# 4 0.000007 -0.000022 -0.000023 0.042211 -0.000007 0.002345
# 5 0.005675 0.000502 0.006945 -0.000007 0.043276 0.000012
# 6 -0.000003 0.000007 0.000012 0.002345 0.000012 0.026760
#
#
# Mechanical properties :
#
#
# Convention : Reuss Voigt Hill
#
# Bulk Modulus (GPa) = 34.20496 50.23074 42.21785
# Shear Modulus (GPa) = 23.19398 26.84320 25.01859
#
# Velocity S-wave (km/s) = 3.36838 3.62368 3.49836
# Velocity P-wave (km/s) = 5.64448 6.48689 6.08030
#
# Compressibility (1/GPa) = 0.02923552
#
# Stress axis : x y z
#
# Youngs Moduli (GPa) = 70.16847 62.75814 32.02807
#
# Poissons Ratio (x) = 0.36347 0.11160
# Poissons Ratio (y) = 0.40638 0.21812
# Poissons Ratio (z) = 0.24450 0.42740
#
# Static dielectric constant tensor:
#      x y z
#    x 3.666470 -0.000050 -0.110270 
#    y -0.000050 3.727780 -0.000190 
#    z -0.110270 -0.000190 3.932780 
# 
# 
# High freq. dielectric constant tensor:
#      x y z
#    x 1.805140 0.000000 -0.009610 
#    y 0.000000 1.795430 0.000000 
#    z -0.009610 0.000000 1.794030 
# 
# From -- ./inp_files/295669.got.cif
#   From: 2010.06.25/outbox.ucp.g09.slc.cvg/sg12_148_cif.got.tgz:295669.got - 2010.06.28 13:50:54.
