data_PCOD8116892
_publ_section_title
;
Structure prediction by ZEFSAII (Michael W. Deem and Ramdas Pophale) SiO2 
 PCOD8116892
Probable space group: P 2/C
;
_chemical_formula_sum "Si O2"
_cell_formula_units_Z 30
_cell_length_a 15.288016
_cell_length_b 11.198084
_cell_length_c 8.654304
_cell_angle_alpha 90.000000
_cell_angle_beta 99.740176
_cell_angle_gamma 90.000000
_cell_volume 1460.229497
_symmetry_space_group_name_H-M "P 2/C"
_symmetry_group_IT_number 13
_symmetry_cell_setting 'monoclinic'
loop_
_space_group_symop_operation_xyz
x,y,z
-x,y,1/2-z
-x,-y,-z
x,-y,1/2+z
loop_
_atom_site_type_symbol
_atom_site_label
_atom_site_fract_x
_atom_site_fract_y
_atom_site_fract_z
Si Si1 0.273452 0.747295 0.339017
Si Si2 0.536503 0.317914 0.597378
Si Si3 0.386564 0.579146 0.889119
Si Si4 0.851017 0.897590 0.383897
Si Si5 0.733421 0.517659 0.367125
Si Si6 0.136920 0.325708 0.027875
Si Si7 0.101876 0.866738 0.755818
Si Si8 0.000000 0.750882 0.250000
O O1 0.377289 0.762568 0.415549
O O2 0.242369 0.848971 0.210595
O O3 0.254410 0.615941 0.262159
O O4 0.215208 0.754126 0.476075
O O5 0.500000 0.271635 0.750000
O O6 0.562089 0.455670 0.620141
O O7 0.458130 0.314438 0.442938
O O8 0.329241 0.592839 0.714512
O O9 0.314953 0.579004 0.004833
O O10 0.848336 0.872789 0.565676
O O11 0.933734 0.832727 0.328078
O O12 0.857212 0.038112 0.352168
O O13 0.829306 0.461479 0.435555
O O14 0.111609 0.264127 0.182923
O O15 0.052810 0.331692 0.887308
O O16 0.000000 0.899102 0.750000
#
# Coordination Sequence:
#
# PCOD8116892 Si02
#       8
#     4   4   4   4   4   4   4   2
#     4  10  22  37  56  86 127 161 197 244 300 351
#     4  10  17  31  53  85 117 154 200 241 294 340
#     4  10  19  31  54  82 117 158 201 243 290 341
#     4  11  22  39  64  90 118 150 193 253 298 358
#     4  11  20  38  56  85 128 161 200 246 292 353
#     4  11  23  38  59  86 121 160 200 253 292 359
#     4  12  23  40  67  94 109 150 206 252 306 350
#     4  10  20  40  60  82 120 154 196 244 304 340
#
# _framework density 20.544713999999999
#
# number of rings (size 3 to 8) (size 9 to 14) (size 15 to 20)
#    0.000    1.333    7.333    2.000    1.867    0.000 
#    0.000    2.667    7.333    0.000    0.000    8.400 
#    0.000    0.000    0.000    0.000    0.000    0.000 
#
# Total GULP energy -371813.586258 kJ/mol
# GULP energy per Si atom -12393.786209 kJ/mol
# Density = 2.049795 g / cm^3
# Si number density = 20.544714 Si / 1000 Ang^3
#
#
#
# Elastic Constant Matrix: (Units=GPa)
#
#
# Indices 1 2 3 4 5 6 
#
# 1 100.1487 29.5095 19.8833 0.0000 12.5961 0.0000
# 2 29.5095 43.5264 9.3286 0.0000 6.5601 0.0000
# 3 19.8833 9.3286 70.9974 0.0000 -1.8077 0.0000
# 4 0.0000 0.0000 0.0000 15.0009 0.0000 -2.5585
# 5 12.5961 6.5601 -1.8077 0.0000 26.3593 0.0000
# 6 0.0000 0.0000 0.0000 -2.5585 0.0000 25.0394
#
#
#
# Elastic Compliance Matrix: (Units=1/GPa)
#
#
# Indices 1 2 3 4 5 6 
#
# 1 0.013437 -0.007792 -0.002858 0.000000 -0.004678 0.000000
# 2 -0.007792 0.029183 -0.001745 0.000000 -0.003659 0.000000
# 3 -0.002858 -0.001745 0.015187 0.000000 0.002842 0.000000
# 4 0.000000 0.000000 0.000000 0.067845 0.000000 0.006932
# 5 -0.004678 -0.003659 0.002842 0.000000 0.041278 0.000000
# 6 0.000000 0.000000 0.000000 0.006932 0.000000 0.040645
#
#
# Mechanical properties :
#
#
# Convention : Reuss Voigt Hill
#
# Bulk Modulus (GPa) = 30.28901 36.90170 33.59536
# Shear Modulus (GPa) = 20.54459 23.67665 22.11062
#
# Velocity S-wave (km/s) = 3.16570 3.39845 3.28414
# Velocity P-wave (km/s) = 5.30445 5.77927 5.54694
#
# Compressibility (1/GPa) = 0.03301527
#
# Stress axis : x y z
#
# Youngs Moduli (GPa) = 74.42121 34.26653 65.84487
#
# Poissons Ratio (x) = 0.26701 0.18821
# Poissons Ratio (y) = 0.57991 0.11492
# Poissons Ratio (z) = 0.21272 0.05981
#
# Static dielectric constant tensor:
#      x y z
#    x 4.245550 0.000000 0.312610 
#    y 0.000000 3.214070 0.000000 
#    z 0.312610 0.000000 4.036490 
# 
# 
# High freq. dielectric constant tensor:
#      x y z
#    x 1.807880 0.000000 0.003670 
#    y 0.000000 1.736040 0.000000 
#    z 0.003670 0.000000 1.818570 
# 
# From -- ./inp_files/18805.got.cif
#   From: 2010.06.25/outbox.cif.g09.slc.cpg/sg13_10_cif.got.tgz:18805.got - 2010.06.28 04:50:58.
