data_PCOD8116273
_publ_section_title
;
Structure prediction by ZEFSAII (Michael W. Deem and Ramdas Pophale) SiO2 
 PCOD8116273
Probable space group: C 2/M
;
_chemical_formula_sum "Si O2"
_cell_formula_units_Z 32
_cell_length_a 30.000000
_cell_length_b 9.000000
_cell_length_c 24.000000
_cell_angle_alpha 90.000000
_cell_angle_beta 30.000000
_cell_angle_gamma 90.000000
_cell_volume 3240.000000
_symmetry_space_group_name_H-M "C 2/M"
_symmetry_group_IT_number 12
_symmetry_cell_setting 'monoclinic'
loop_
_space_group_symop_operation_xyz
x,y,z
-x,y,-z
-x,-y,-z
x,-y,z
1/2+x,1/2+y,z
1/2-x,1/2+y,-z
1/2-x,1/2-y,-z
1/2+x,1/2-y,z
loop_
_atom_site_type_symbol
_atom_site_label
_atom_site_fract_x
_atom_site_fract_y
_atom_site_fract_z
Si Si1 0.969042 0.825400 0.659730
Si Si2 0.813351 0.324530 0.767711
Si Si3 0.638149 0.673315 0.398670
Si Si4 0.973981 0.825499 0.089157
Si Si5 0.322045 0.165265 0.454887
Si Si6 0.769980 0.831476 0.327515
Si Si7 0.979160 0.677415 0.767346
Si Si8 0.614185 0.675283 0.027675
O O1 0.874430 0.783790 0.737106
O O2 0.963655 0.732463 0.721859
O O3 0.049520 0.779971 0.529927
O O4 0.975899 0.000000 0.665280
O O5 0.832054 0.500000 0.756186
O O6 0.842892 0.281778 0.673420
O O7 0.711848 0.286634 0.896665
O O8 0.631477 0.500000 0.388076
O O9 0.726767 0.701719 0.338071
O O10 0.874278 0.786599 0.218722
O O11 0.042985 0.762135 0.060008
O O12 0.988057 0.000000 0.070515
O O13 0.000000 0.757945 0.000000
O O14 0.250000 0.250000 0.500000
O O15 0.290696 0.172860 0.552182
O O16 0.418759 0.231750 0.334466
O O17 0.322550 0.000000 0.431811
O O18 0.764426 0.000000 0.308335
O O19 0.968674 0.500000 0.780379
O O20 0.909628 0.747062 0.887265
O O21 0.604993 0.500000 0.047497
#
# Coordination Sequence:
#
# PCOD8116273 Si02
#       8
#     8   8   8   8   8   8   8   8
#     4  11  24  42  64  90 122 161 202 251 310 367
#     4  11  24  41  65  92 119 158 204 253 306 367
#     4  11  23  39  61  91 125 159 198 250 308 366
#     4   9  17  32  57  87 118 156 202 246 292 354
#     4  10  21  35  55  84 117 156 201 246 297 354
#     4  10  19  34  57  84 117 157 198 244 294 351
#     4  11  23  40  62  89 122 160 205 256 303 358
#     4  10  22  41  63  89 122 162 206 250 305 367
#
# _framework density 9.8765429999999999
#
# number of rings (size 3 to 8) (size 9 to 14) (size 15 to 20)
#    0.000    1.625    1.250    3.375    0.000    9.000 
#    0.000    0.625    0.000    1.500    0.000    0.000 
#    0.000    0.000    0.000    0.000    0.000    0.000 
#
# Total GULP energy -396422.834860 kJ/mol
# GULP energy per Si atom -12388.213589 kJ/mol
# Density = 0.985406 g / cm^3
# Si number density = 9.876543 Si / 1000 Ang^3
#
#
#
# Elastic Constant Matrix: (Units=GPa)
#
#
# Indices 1 2 3 4 5 6 
#
# 1 74.7564 20.9078 53.1074 0.0044 -2.9240 0.0054
# 2 20.9078 47.3389 39.1260 0.0078 3.2645 0.0029
# 3 53.1074 39.1260 172.0646 0.0335 8.2152 -0.0012
# 4 0.0044 0.0078 0.0335 32.4634 -0.0067 -1.2381
# 5 -2.9240 3.2645 8.2152 -0.0067 42.4289 -0.0044
# 6 0.0054 0.0029 -0.0012 -1.2381 -0.0044 31.0806
#
#
#
# Elastic Compliance Matrix: (Units=1/GPa)
#
#
# Indices 1 2 3 4 5 6 
#
# 1 0.018005 -0.004226 -0.004715 0.000004 0.002479 -0.000002
# 2 -0.004226 0.027037 -0.004774 -0.000001 -0.001447 -0.000002
# 3 -0.004715 -0.004774 0.008428 -0.000007 -0.001589 0.000001
# 4 0.000004 -0.000001 -0.000007 0.030851 0.000007 0.001229
# 5 0.002479 -0.001447 -0.001589 0.000007 0.024159 0.000003
# 6 -0.000002 -0.000002 0.000001 0.001229 0.000003 0.032223
#
#
# Mechanical properties :
#
#
# Convention : Reuss Voigt Hill
#
# Bulk Modulus (GPa) = 38.40311 57.82692 48.11502
# Shear Modulus (GPa) = 28.27834 33.26248 30.77041
#
# Velocity S-wave (km/s) = 3.78774 4.10800 3.95112
# Velocity P-wave (km/s) = 6.21394 7.19995 6.72504
#
# Compressibility (1/GPa) = 0.02603956
#
# Stress axis : x y z
#
# Youngs Moduli (GPa) = 55.54006 36.98665 118.64606
#
# Poissons Ratio (x) = 0.15632 0.55936
# Poissons Ratio (y) = 0.23474 0.56646
# Poissons Ratio (z) = 0.26184 0.17659
#
# Static dielectric constant tensor:
#      x y z
#    x 3.957400 0.000060 -0.022030 
#    y 0.000060 3.392710 0.000110 
#    z -0.022030 0.000110 3.933480 
# 
# 
# High freq. dielectric constant tensor:
#      x y z
#    x 1.766710 0.000000 0.005430 
#    y 0.000000 1.760680 0.000000 
#    z 0.005430 0.000000 1.808320 
# 
# From -- ./inp_files/353275.got.cif
#   From: 2010.06.25/outbox.ucp.g09.slc.cvg/sg12_177_cif.got.tgz:353275.got - 2010.06.28 13:50:54.
