data_PCOD8116287
_publ_section_title
;
Structure prediction by ZEFSAII (Michael W. Deem and Ramdas Pophale) SiO2 
 PCOD8116287
Probable space group: C 2/M
;
_chemical_formula_sum "Si O2"
_cell_formula_units_Z 32
_cell_length_a 27.000000
_cell_length_b 9.000000
_cell_length_c 15.000000
_cell_angle_alpha 90.000000
_cell_angle_beta 110.000000
_cell_angle_gamma 90.000000
_cell_volume 3425.179603
_symmetry_space_group_name_H-M "C 2/M"
_symmetry_group_IT_number 12
_symmetry_cell_setting 'monoclinic'
loop_
_space_group_symop_operation_xyz
x,y,z
-x,y,-z
-x,-y,-z
x,-y,z
1/2+x,1/2+y,z
1/2-x,1/2+y,-z
1/2-x,1/2-y,-z
1/2+x,1/2-y,z
loop_
_atom_site_type_symbol
_atom_site_label
_atom_site_fract_x
_atom_site_fract_y
_atom_site_fract_z
Si Si1 0.365547 0.828881 0.118341
Si Si2 0.859005 0.175061 0.736753
Si Si3 0.255492 0.175705 0.407577
Si Si4 0.157026 0.328127 0.095014
Si Si5 0.232017 0.828924 0.900341
Si Si6 0.447845 0.827938 0.311583
Si Si7 0.629744 0.173852 0.582342
Si Si8 0.932472 0.324786 0.635143
O O1 0.323722 0.746744 0.158797
O O2 0.422759 0.804798 0.197703
O O3 0.348468 0.000000 0.107269
O O4 0.364468 0.771229 0.015085
O O5 0.798385 0.218436 0.676971
O O6 0.870142 0.232809 0.843935
O O7 0.902517 0.247544 0.698872
O O8 0.867446 0.000000 0.738056
O O9 0.250000 0.250000 0.500000
O O10 0.308979 0.233171 0.388065
O O11 0.260381 0.000000 0.424995
O O12 0.141670 0.500000 0.098988
O O13 0.220785 0.307306 0.141628
O O14 0.221390 0.000000 0.913104
O O15 0.250000 0.750000 0.000000
O O16 0.407517 0.756877 0.361229
O O17 0.507523 0.761753 0.343548
O O18 0.453872 0.000000 0.340309
O O19 0.600878 0.213302 0.472767
O O20 0.633248 0.000000 0.602364
O O21 0.934250 0.500000 0.655982
#
# Coordination Sequence:
#
# PCOD8116287 Si02
#       8
#     8   8   8   8   8   8   8   8
#     4   9  18  33  53  78 110 141 177 225 269 312
#     4  11  23  35  53  80 108 143 182 220 269 322
#     4  10  20  34  53  80 110 140 173 215 268 319
#     4   9  19  34  51  74 105 143 181 219 263 315
#     4   9  17  30  49  74 104 138 174 213 264 318
#     4   9  18  32  56  85 107 136 182 226 265 314
#     4   9  17  31  54  83 110 135 172 220 266 316
#     4  10  19  35  58  80 106 142 179 221 268 316
#
# _framework density 9.3425759999999993
#
# number of rings (size 3 to 8) (size 9 to 14) (size 15 to 20)
#    0.000    2.500    1.250    1.875    1.750    4.500 
#    0.000    1.250    0.000    6.750    0.000    0.000 
#    0.000    0.000    0.000    0.000    0.000    0.000 
#
# Total GULP energy -396482.200108 kJ/mol
# GULP energy per Si atom -12390.068753 kJ/mol
# Density = 0.932131 g / cm^3
# Si number density = 9.342576 Si / 1000 Ang^3
#
#
#
# Elastic Constant Matrix: (Units=GPa)
#
#
# Indices 1 2 3 4 5 6 
#
# 1 177.3502 28.5048 58.1978 0.0000 -10.2654 0.0000
# 2 28.5048 41.5082 22.2043 0.0000 -7.9595 0.0000
# 3 58.1978 22.2043 88.6102 0.0000 -15.5982 0.0000
# 4 0.0000 0.0000 0.0000 18.4867 0.0000 -4.1708
# 5 -10.2654 -7.9595 -15.5982 0.0000 35.6579 0.0000
# 6 0.0000 0.0000 0.0000 -4.1708 0.0000 30.0285
#
#
#
# Elastic Compliance Matrix: (Units=1/GPa)
#
#
# Indices 1 2 3 4 5 6 
#
# 1 0.007482 -0.002938 -0.004240 0.000000 -0.000357 0.000000
# 2 -0.002938 0.029366 -0.004793 0.000000 0.003613 0.000000
# 3 -0.004240 -0.004793 0.016109 0.000000 0.004756 0.000000
# 4 0.000000 0.000000 0.000000 0.055843 0.000000 0.007756
# 5 -0.000357 0.003613 0.004756 0.000000 0.030828 0.000000
# 6 0.000000 0.000000 0.000000 0.007756 0.000000 0.034379
#
#
# Mechanical properties :
#
#
# Convention : Reuss Voigt Hill
#
# Bulk Modulus (GPa) = 34.46694 58.36469 46.41582
# Shear Modulus (GPa) = 24.08242 30.07208 27.07725
#
# Velocity S-wave (km/s) = 3.59396 4.01610 3.81088
# Velocity P-wave (km/s) = 5.97564 7.26698 6.65272
#
# Compressibility (1/GPa) = 0.02901331
#
# Stress axis : x y z
#
# Youngs Moduli (GPa) = 133.66119 34.05307 62.07822
#
# Poissons Ratio (x) = 0.10004 0.26324
# Poissons Ratio (y) = 0.39268 0.29755
# Poissons Ratio (z) = 0.56678 0.16322
#
# Static dielectric constant tensor:
#      x y z
#    x 3.996780 0.000000 0.032860 
#    y 0.000000 3.307060 0.000000 
#    z 0.032860 0.000000 3.435150 
# 
# 
# High freq. dielectric constant tensor:
#      x y z
#    x 1.743530 0.000000 -0.003980 
#    y 0.000000 1.693050 0.000000 
#    z -0.003980 0.000000 1.725750 
# 
# From -- ./inp_files/244141.got.cif
#   From: 2010.06.25/outbox.ucp.g09.slc.cvg/sg12_123_cif.got.tgz:244141.got - 2010.06.28 13:50:54.
