data_PCOD8116704
_publ_section_title
;
Structure prediction by ZEFSAII (Michael W. Deem and Ramdas Pophale) SiO2 
 PCOD8116704
Probable space group: P 2/C
;
_chemical_formula_sum "Si O2"
_cell_formula_units_Z 30
_cell_length_a 13.522911
_cell_length_b 13.946434
_cell_length_c 13.873232
_cell_angle_alpha 90.000000
_cell_angle_beta 31.361882
_cell_angle_gamma 90.000000
_cell_volume 1361.705119
_symmetry_space_group_name_H-M "P 2/C"
_symmetry_group_IT_number 13
_symmetry_cell_setting 'monoclinic'
loop_
_space_group_symop_operation_xyz
x,y,z
-x,y,1/2-z
-x,-y,-z
x,-y,1/2+z
loop_
_atom_site_type_symbol
_atom_site_label
_atom_site_fract_x
_atom_site_fract_y
_atom_site_fract_z
Si Si1 0.834898 0.481516 0.743326
Si Si2 0.293081 0.767863 0.448623
Si Si3 0.771016 0.662225 0.443010
Si Si4 0.830974 0.855525 0.316201
Si Si5 0.000000 0.380915 0.250000
Si Si6 0.177812 0.630930 0.888181
Si Si7 0.813563 0.063631 0.340859
Si Si8 0.006194 0.816646 0.963728
O O1 0.699887 0.425800 0.933476
O O2 0.987992 0.551519 0.666989
O O3 0.718906 0.548381 0.763386
O O4 0.959203 0.401319 0.586109
O O5 0.500000 0.729047 0.250000
O O6 0.324957 0.860498 0.491499
O O7 0.170554 0.789750 0.456309
O O8 0.187802 0.684455 0.594948
O O9 0.699468 0.764401 0.457719
O O10 0.704715 0.646426 0.609241
O O11 0.000000 0.661649 0.250000
O O12 0.921833 0.845034 0.136108
O O13 0.000000 0.862284 0.250000
O O14 0.717548 0.957360 0.414144
O O15 0.158559 0.730565 0.847576
O O16 0.000000 0.060222 0.250000
O O17 0.872021 0.097192 0.184613
#
# Coordination Sequence:
#
# PCOD8116704 Si02
#       8
#     4   4   4   4   2   4   4   4
#     4  10  17  26  47  81 114 138 189 231 268 344
#     4  11  23  39  58  84 117 148 192 245 287 340
#     4   9  15  27  41  80 118 137 184 235 268 329
#     4  10  17  29  52  84 121 143 191 240 277 349
#     4  12  18  36  58  82 114 146 192 234 288 340
#     4  10  16  25  46  80 113 146 184 227 282 334
#     4   9  19  34  53  82 116 146 187 240 288 343
#     4  11  17  32  54  84 115 149 189 233 288 344
#
# _framework density 22.031200999999999
#
# number of rings (size 3 to 8) (size 9 to 14) (size 15 to 20)
#    0.000    1.867    9.333    0.400    0.000    0.000 
#    0.000    0.667    0.000    0.800    0.000    0.933 
#    0.000    0.000    0.000    0.000    0.000    0.000 
#
# Total GULP energy -371684.645966 kJ/mol
# GULP energy per Si atom -12389.488199 kJ/mol
# Density = 2.198106 g / cm^3
# Si number density = 22.031201 Si / 1000 Ang^3
#
#
#
# Elastic Constant Matrix: (Units=GPa)
#
#
# Indices 1 2 3 4 5 6 
#
# 1 90.0286 47.2707 31.4299 0.0000 41.9226 0.0000
# 2 47.2707 176.6539 33.0762 0.0000 28.3697 0.0000
# 3 31.4299 33.0762 45.2999 0.0000 13.4272 0.0000
# 4 0.0000 0.0000 0.0000 11.6519 0.0000 21.3725
# 5 41.9226 28.3697 13.4272 0.0000 39.5039 0.0000
# 6 0.0000 0.0000 0.0000 21.3725 0.0000 29.9040
#
#
#
# Elastic Compliance Matrix: (Units=1/GPa)
#
#
# Indices 1 2 3 4 5 6 
#
# 1 0.026370 -0.001344 -0.010348 0.000000 -0.023502 0.000000
# 2 -0.001344 0.007071 -0.003501 0.000000 -0.002462 0.000000
# 3 -0.010348 -0.003501 0.030926 0.000000 0.002984 0.000000
# 4 0.000000 0.000000 0.000000 -0.276008 0.000000 0.197264
# 5 -0.023502 -0.002462 0.002984 0.000000 0.051008 0.000000
# 6 0.000000 0.000000 0.000000 0.197264 0.000000 -0.107545
#
#
# Mechanical properties :
#
#
# Convention : Reuss Voigt Hill
#
# Bulk Modulus (GPa) = 29.42827 59.50397 44.46612
# Shear Modulus (GPa) = -22.07861 29.55902 3.74020
#
# Velocity S-wave (km/s) = -3.16911 3.66688 1.30437
# Velocity P-wave (km/s) = 0.06705 6.70788 4.74295
#
# Compressibility (1/GPa) = 0.03398093
#
# Stress axis : x y z
#
# Youngs Moduli (GPa) = 37.92199 141.41573 32.33473
#
# Poissons Ratio (x) = 0.19013 0.33461
# Poissons Ratio (y) = 0.05099 0.11320
# Poissons Ratio (z) = 0.39242 0.49506
#
# Static dielectric constant tensor:
#      x y z
#    x 3.988480 0.000000 0.643860 
#    y 0.000000 5.052930 0.000000 
#    z 0.643860 0.000000 3.387970 
# 
# 
# High freq. dielectric constant tensor:
#      x y z
#    x 1.855260 0.000000 0.055540 
#    y 0.000000 1.890630 0.000000 
#    z 0.055540 0.000000 1.807170 
# 
# From -- ./inp_files/53857.got.cif
#   From: 2010.06.25/outbox.cif.g09.slc.cpg/sg13_27_cif.got.tgz:53857.got - 2010.06.28 04:50:58.
