data_PCOD8116024
_publ_section_title
;
Structure prediction by ZEFSAII (Michael W. Deem and Ramdas Pophale) SiO2 
 PCOD8116024
Probable space group: C 2/M
;
_chemical_formula_sum "Si O2"
_cell_formula_units_Z 56
_cell_length_a 24.990909
_cell_length_b 9.483830
_cell_length_c 28.940130
_cell_angle_alpha 90.000000
_cell_angle_beta 32.011123
_cell_angle_gamma 90.000000
_cell_volume 3635.891339
_symmetry_space_group_name_H-M "C 2/M"
_symmetry_group_IT_number 12
_symmetry_cell_setting 'monoclinic'
loop_
_space_group_symop_operation_xyz
x,y,z
-x,y,-z
-x,-y,-z
x,-y,z
1/2+x,1/2+y,z
1/2-x,1/2+y,-z
1/2-x,1/2-y,-z
1/2+x,1/2-y,z
loop_
_atom_site_type_symbol
_atom_site_label
_atom_site_fract_x
_atom_site_fract_y
_atom_site_fract_z
Si Si1 0.959200 0.161714 0.398566
Si Si2 0.039474 0.158082 0.898691
Si Si3 0.762753 0.834554 0.594958
Si Si4 0.328243 0.664594 0.411979
Si Si5 0.180362 0.166460 0.252505
Si Si6 0.295267 0.837736 0.260279
Si Si7 0.155272 0.158870 0.910034
O O1 0.869695 0.223208 0.496622
O O2 0.934285 0.178185 0.361982
O O3 0.067657 0.231382 0.329939
O O4 0.968721 0.000000 0.405794
O O5 0.097787 0.256646 0.819688
O O6 0.097337 0.163901 0.904386
O O7 0.039828 0.000000 0.878441
O O8 0.923408 0.207655 0.992213
O O9 0.672335 0.743222 0.637292
O O10 0.761113 0.805099 0.650603
O O11 0.747023 0.000000 0.594797
O O12 0.298142 0.500000 0.428753
O O13 0.250000 0.750000 0.500000
O O14 0.219518 0.207855 0.274848
O O15 0.249278 0.237088 0.162263
O O16 0.183440 0.000000 0.241543
O O17 0.324072 0.000000 0.234501
O O18 0.192940 0.000000 0.892448
#
# Coordination Sequence:
#
# PCOD8116024 Si02
#       7
#     8   8   8   8   8   8   8
#     4   8  15  27  42  59  81 107 136 167 200 237
#     4   8  14  25  40  55  77 108 137 164 199 239
#     4   9  17  29  42  59  84 111 137 168 200 235
#     4   9  16  28  45  62  78 101 136 176 209 237
#     4   9  16  26  40  60  84 110 136 163 197 240
#     4   9  17  26  39  61  86 109 136 166 197 235
#     4   8  14  25  39  56  78 106 136 166 199 237
#
# _framework density 15.401999999999999
#
# number of rings (size 3 to 8) (size 9 to 14) (size 15 to 20)
#    0.000    3.429    0.000    2.143    0.000    1.714 
#    0.000    9.286    0.000    0.000    0.000    9.000 
#    0.000    0.000    0.000    0.000    0.000    0.000 
#
# Total GULP energy -346888.362228 kJ/mol
# GULP energy per Si atom -12388.870080 kJ/mol
# Density = 1.536694 g / cm^3
# Si number density = 15.402000 Si / 1000 Ang^3
#
#
#
# Elastic Constant Matrix: (Units=GPa)
#
#
# Indices 1 2 3 4 5 6 
#
# 1 65.9622 34.6480 50.2739 0.0023 -7.9451 -0.0037
# 2 34.6480 56.1629 42.6499 0.0002 -4.3903 -0.0043
# 3 50.2739 42.6499 109.2218 -0.0009 -12.8063 0.0004
# 4 0.0023 0.0002 -0.0009 22.4660 -0.0024 2.5791
# 5 -7.9451 -4.3903 -12.8063 -0.0024 5.6360 0.0059
# 6 -0.0037 -0.0043 0.0004 2.5791 0.0059 18.0835
#
#
#
# Elastic Compliance Matrix: (Units=1/GPa)
#
#
# Indices 1 2 3 4 5 6 
#
# 1 0.027893 -0.010840 -0.006796 -0.000001 0.015434 -0.000002
# 2 -0.010840 0.029582 -0.007704 -0.000002 -0.009744 0.000008
# 3 -0.006796 -0.007704 0.018356 0.000006 0.026126 -0.000013
# 4 -0.000001 -0.000002 0.000006 0.045253 0.000036 -0.006454
# 5 0.015434 -0.009744 0.026126 0.000036 0.250965 -0.000087
# 6 -0.000002 0.000008 -0.000013 -0.006454 -0.000087 0.056220
#
#
# Mechanical properties :
#
#
# Convention : Reuss Voigt Hill
#
# Bulk Modulus (GPa) = 39.76279 54.05451 46.90865
# Shear Modulus (GPa) = 10.25994 16.15544 13.20769
#
# Velocity S-wave (km/s) = 2.58378 3.24221 2.93154
# Velocity P-wave (km/s) = 5.89694 7.01341 6.47927
#
# Compressibility (1/GPa) = 0.02514914
#
# Stress axis : x y z
#
# Youngs Moduli (GPa) = 35.85104 33.80465 54.47894
#
# Poissons Ratio (x) = 0.36645 0.37026
# Poissons Ratio (y) = 0.38863 0.41972
# Poissons Ratio (z) = 0.24366 0.26044
#
# Static dielectric constant tensor:
#      x y z
#    x 3.021050 0.000000 -0.082980 
#    y 0.000000 3.019800 0.000000 
#    z -0.082980 0.000000 3.182980 
# 
# 
# High freq. dielectric constant tensor:
#      x y z
#    x 1.558000 0.000000 -0.002650 
#    y 0.000000 1.581850 0.000000 
#    z -0.002650 0.000000 1.580080 
# 
# From -- ./inp_files/173886.got.cif
#   From: 2010.06.25/outbox.cif.g09.slc.cpg/sg12_87_cif.got.tgz:173886.got - 2010.06.28 00:19:55.
