data_PCOD8116180
_publ_section_title
;
Structure prediction by ZEFSAII (Michael W. Deem and Ramdas Pophale) SiO2 
 PCOD8116180
Probable space group: C 2/M
;
_chemical_formula_sum "Si O2"
_cell_formula_units_Z 32
_cell_length_a 24.000000
_cell_length_b 9.000000
_cell_length_c 21.000000
_cell_angle_alpha 90.000000
_cell_angle_beta 50.000000
_cell_angle_gamma 90.000000
_cell_volume 3474.777594
_symmetry_space_group_name_H-M "C 2/M"
_symmetry_group_IT_number 12
_symmetry_cell_setting 'monoclinic'
loop_
_space_group_symop_operation_xyz
x,y,z
-x,y,-z
-x,-y,-z
x,-y,z
1/2+x,1/2+y,z
1/2-x,1/2+y,-z
1/2-x,1/2-y,-z
1/2+x,1/2-y,z
loop_
_atom_site_type_symbol
_atom_site_label
_atom_site_fract_x
_atom_site_fract_y
_atom_site_fract_z
Si Si1 0.826986 0.677288 0.090035
Si Si2 0.818389 0.324009 0.849741
Si Si3 0.321283 0.678385 0.234956
Si Si4 0.424105 0.175300 0.656658
Si Si5 0.662205 0.176123 0.401528
Si Si6 0.079329 0.323501 0.587139
Si Si7 0.089407 0.674963 0.097372
Si Si8 0.428856 0.177624 0.258743
O O1 0.826102 0.500000 0.101390
O O2 0.753793 0.730583 0.109877
O O3 0.837435 0.754878 0.151964
O O4 0.889617 0.721989 0.991224
O O5 0.801150 0.500000 0.862155
O O6 0.871985 0.281173 0.752994
O O7 0.852216 0.269620 0.892451
O O8 0.327905 0.500000 0.225070
O O9 0.242220 0.727813 0.319908
O O10 0.376348 0.741685 0.247117
O O11 0.394237 0.238080 0.610737
O O12 0.503600 0.240687 0.614764
O O13 0.429915 0.000000 0.646528
O O14 0.641021 0.230537 0.489758
O O15 0.659018 0.000000 0.403845
O O16 0.076895 0.500000 0.590832
O O17 0.089598 0.270936 0.653944
O O18 0.089023 0.500000 0.101875
O O19 0.009572 0.730881 0.177967
O O20 0.420165 0.000000 0.259136
#
# Coordination Sequence:
#
# PCOD8116180 Si02
#       8
#     8   8   8   8   8   8   8   8
#     4  11  22  36  55  81 109 142 180 220 265 319
#     4  10  17  32  57  84 112 143 172 211 268 321
#     4  11  23  39  55  75 107 144 181 226 273 316
#     4   9  14  25  50  81 109 137 169 211 259 311
#     4   9  17  29  49  80 111 138 172 217 264 312
#     4   9  16  28  52  83 109 135 175 218 260 316
#     4   9  19  35  57  82 110 141 177 219 266 317
#     4  10  20  37  58  79 104 139 183 228 267 311
#
# _framework density 9.2092220000000005
#
# number of rings (size 3 to 8) (size 9 to 14) (size 15 to 20)
#    0.000    2.250    2.500    1.500    0.000    2.500 
#    0.000    5.000    0.000    0.750    0.000    0.875 
#    0.000    0.000    0.000    0.000    0.000    0.000 
#
# Total GULP energy -396427.469921 kJ/mol
# GULP energy per Si atom -12388.358435 kJ/mol
# Density = 0.918826 g / cm^3
# Si number density = 9.209222 Si / 1000 Ang^3
#
#
#
# Elastic Constant Matrix: (Units=GPa)
#
#
# Indices 1 2 3 4 5 6 
#
# 1 154.7948 26.6064 74.4365 -0.0009 25.9872 0.0000
# 2 26.6064 44.9734 27.3095 -0.0030 5.7189 -0.0032
# 3 74.4365 27.3095 187.2745 -0.0010 30.1831 0.0021
# 4 -0.0009 -0.0030 -0.0010 23.2284 0.0014 2.5288
# 5 25.9872 5.7189 30.1831 0.0014 40.6734 -0.0007
# 6 0.0000 -0.0032 0.0021 2.5288 -0.0007 30.8394
#
#
#
# Elastic Compliance Matrix: (Units=1/GPa)
#
#
# Indices 1 2 3 4 5 6 
#
# 1 0.008766 -0.003262 -0.002476 0.000000 -0.003305 0.000000
# 2 -0.003262 0.025639 -0.002495 0.000003 0.000331 0.000003
# 3 -0.002476 -0.002495 0.007242 0.000000 -0.003442 -0.000001
# 4 0.000000 0.000003 0.000000 0.043438 -0.000002 -0.003562
# 5 -0.003305 0.000331 -0.003442 -0.000002 0.029205 0.000001
# 6 0.000000 0.000003 -0.000001 -0.003562 0.000001 0.032718
#
#
# Mechanical properties :
#
#
# Convention : Reuss Voigt Hill
#
# Bulk Modulus (GPa) = 39.71445 71.52749 55.62097
# Shear Modulus (GPa) = 29.09170 36.19427 32.64299
#
# Velocity S-wave (km/s) = 3.97859 4.43777 4.21443
# Velocity P-wave (km/s) = 6.53565 8.07325 7.34480
#
# Compressibility (1/GPa) = 0.02517975
#
# Stress axis : x y z
#
# Youngs Moduli (GPa) = 114.07191 39.00361 138.07400
#
# Poissons Ratio (x) = 0.12725 0.34187
# Poissons Ratio (y) = 0.37216 0.34456
# Poissons Ratio (z) = 0.28244 0.09733
#
# Static dielectric constant tensor:
#      x y z
#    x 3.682320 0.000000 0.208700 
#    y 0.000000 3.006550 0.000010 
#    z 0.208700 0.000010 4.202650 
# 
# 
# High freq. dielectric constant tensor:
#      x y z
#    x 1.730470 0.000000 0.017670 
#    y 0.000000 1.668560 0.000000 
#    z 0.017670 0.000000 1.756180 
# 
# From -- ./inp_files/324128.got.cif
#   From: 2010.06.25/outbox.ucp.g09.slc.cvg/sg12_163_cif.got.tgz:324128.got - 2010.06.28 13:50:54.
