data_PCOD8116849
_publ_section_title
;
Structure prediction by ZEFSAII (Michael W. Deem and Ramdas Pophale) SiO2 
 PCOD8116849
Probable space group: P 2/C
;
_chemical_formula_sum "Si O2"
_cell_formula_units_Z 30
_cell_length_a 12.118373
_cell_length_b 25.583703
_cell_length_c 5.181770
_cell_angle_alpha 90.000000
_cell_angle_beta 94.984827
_cell_angle_gamma 90.000000
_cell_volume 1600.442684
_symmetry_space_group_name_H-M "P 2/C"
_symmetry_group_IT_number 13
_symmetry_cell_setting 'monoclinic'
loop_
_space_group_symop_operation_xyz
x,y,z
-x,y,1/2-z
-x,-y,-z
x,-y,1/2+z
loop_
_atom_site_type_symbol
_atom_site_label
_atom_site_fract_x
_atom_site_fract_y
_atom_site_fract_z
Si Si1 0.753309 0.138719 0.782633
Si Si2 0.000000 0.546383 0.250000
Si Si3 0.370504 0.755543 0.255873
Si Si4 0.750887 0.275680 0.272997
Si Si5 0.885736 0.378533 0.340445
Si Si6 0.126075 0.170156 0.196741
Si Si7 0.795252 0.519341 0.733744
Si Si8 0.628827 0.967891 0.277922
O O1 0.660071 0.183423 0.756024
O O2 0.846929 0.147482 0.581836
O O3 0.696866 0.083530 0.724679
O O4 0.804929 0.138398 0.077358
O O5 0.912170 0.507548 0.379698
O O6 0.083026 0.586342 0.409176
O O7 0.500000 0.748561 0.250000
O O8 0.341911 0.733924 0.531631
O O9 0.305596 0.723179 0.020647
O O10 0.807356 0.329564 0.369252
O O11 0.844979 0.231384 0.294510
O O12 0.817400 0.420448 0.151186
O O13 0.000000 0.356650 0.250000
O O14 0.000000 0.162778 0.250000
O O15 0.729331 0.488250 0.492639
O O16 0.500000 0.953223 0.250000
O O17 0.660068 0.990005 0.565058
#
# Coordination Sequence:
#
# PCOD8116849 Si02
#       8
#     4   2   4   4   4   4   4   4
#     4  10  20  35  60  80 103 145 182 205 258 327
#     4  10  18  30  44  70 104 152 170 198 254 306
#     4  10  21  40  57  75 104 134 175 227 260 310
#     4  10  23  33  53  82 102 134 182 212 267 318
#     4  11  19  30  47  71 112 144 164 208 252 309
#     4  10  20  37  52  77 109 145 183 217 245 300
#     4  10  17  29  43  65  97 143 169 195 244 304
#     4  10  20  34  55  86 115 133 164 226 287 321
#
# _framework density 18.744814999999999
#
# number of rings (size 3 to 8) (size 9 to 14) (size 15 to 20)
#    0.000    1.867    2.000    3.200    1.867    0.000 
#    2.400    4.000    0.000    8.000    0.000    0.000 
#    0.000   42.667    0.000    0.000    0.000    0.000 
#
# Total GULP energy -371738.070817 kJ/mol
# GULP energy per Si atom -12391.269027 kJ/mol
# Density = 1.870215 g / cm^3
# Si number density = 18.744815 Si / 1000 Ang^3
#
#
#
# Elastic Constant Matrix: (Units=GPa)
#
#
# Indices 1 2 3 4 5 6 
#
# 1 60.3505 42.4136 8.6622 0.0000 -8.7042 0.0000
# 2 42.4136 108.9228 21.0845 0.0000 1.6166 0.0000
# 3 8.6622 21.0845 89.8356 0.0000 -7.7779 0.0000
# 4 0.0000 0.0000 0.0000 21.8117 0.0000 7.8213
# 5 -8.7042 1.6166 -7.7779 0.0000 16.4157 0.0000
# 6 0.0000 0.0000 0.0000 7.8213 0.0000 30.5582
#
#
#
# Elastic Compliance Matrix: (Units=1/GPa)
#
#
# Indices 1 2 3 4 5 6 
#
# 1 0.026104 -0.010652 0.001327 0.000000 0.015519 0.000000
# 2 -0.010652 0.014034 -0.002998 0.000000 -0.008451 0.000000
# 3 0.001327 -0.002998 0.012298 0.000000 0.006826 0.000000
# 4 0.000000 0.000000 0.000000 0.050480 0.000000 -0.012920
# 5 0.015519 -0.008451 0.006826 0.000000 0.073212 0.000000
# 6 0.000000 0.000000 0.000000 -0.012920 0.000000 0.036031
#
#
# Mechanical properties :
#
#
# Convention : Reuss Voigt Hill
#
# Bulk Modulus (GPa) = 35.98539 44.82548 40.40544
# Shear Modulus (GPa) = 20.31945 26.22035 23.26990
#
# Velocity S-wave (km/s) = 3.29599 3.74412 3.52718
# Velocity P-wave (km/s) = 5.80723 6.53121 6.17983
#
# Compressibility (1/GPa) = 0.02778905
#
# Stress axis : x y z
#
# Youngs Moduli (GPa) = 38.30901 71.25399 81.31246
#
# Poissons Ratio (x) = 0.75897 -0.10787
# Poissons Ratio (y) = 0.40805 0.24381
# Poissons Ratio (z) = -0.05082 0.21365
#
# Static dielectric constant tensor:
#      x y z
#    x 3.009280 0.000000 -0.069530 
#    y 0.000000 3.313350 0.000000 
#    z -0.069530 0.000000 3.711600 
# 
# 
# High freq. dielectric constant tensor:
#      x y z
#    x 1.685590 0.000000 -0.008050 
#    y 0.000000 1.724590 0.000000 
#    z -0.008050 0.000000 1.752880 
# 
# From -- ./inp_files/4132.got.cif
#   From: 2010.06.25/outbox.cif.g09.slc.cpg/sg13_3_cif.got.tgz:4132.got - 2010.06.28 04:50:58.
