data_PCOD8116145
_publ_section_title
;
Structure prediction by ZEFSAII (Michael W. Deem and Ramdas Pophale) SiO2 
 PCOD8116145
Probable space group: C 2/M
;
_chemical_formula_sum "Si O2"
_cell_formula_units_Z 48
_cell_length_a 22.893681
_cell_length_b 9.345266
_cell_length_c 13.865074
_cell_angle_alpha 90.000000
_cell_angle_beta 77.057816
_cell_angle_gamma 90.000000
_cell_volume 2891.041737
_symmetry_space_group_name_H-M "C 2/M"
_symmetry_group_IT_number 12
_symmetry_cell_setting 'monoclinic'
loop_
_space_group_symop_operation_xyz
x,y,z
-x,y,-z
-x,-y,-z
x,-y,z
1/2+x,1/2+y,z
1/2-x,1/2+y,-z
1/2-x,1/2-y,-z
1/2+x,1/2-y,z
loop_
_atom_site_type_symbol
_atom_site_label
_atom_site_fract_x
_atom_site_fract_y
_atom_site_fract_z
Si Si1 0.894368 0.334104 0.171478
Si Si2 0.449518 0.829886 0.589989
Si Si3 0.066574 0.838238 0.016306
Si Si4 0.822160 0.332597 0.562610
Si Si5 0.707859 0.833596 0.643153
Si Si6 0.475532 0.833303 0.795757
O O1 0.890589 0.500000 0.143817
O O2 0.839482 0.286419 0.258707
O O3 0.955068 0.303462 0.207616
O O4 0.890346 0.241504 0.075514
O O5 0.500000 0.765822 0.500000
O O6 0.384703 0.773340 0.580767
O O7 0.462813 0.777223 0.693055
O O8 0.451390 0.000000 0.583875
O O9 0.067848 0.754911 0.117166
O O10 0.089491 0.000000 0.023073
O O11 0.000000 0.835240 0.000000
O O12 0.814824 0.500000 0.584949
O O13 0.768700 0.253421 0.638302
O O14 0.820577 0.296476 0.449909
O O15 0.723279 0.000000 0.644843
O O16 0.459881 0.000000 0.813694
#
# Coordination Sequence:
#
# PCOD8116145 Si02
#       6
#     8   8   8   8   8   8
#     4   9  16  27  45  67  88 113 148 184 217 256
#     4   9  16  27  46  70  92 115 146 181 214 254
#     4   9  17  28  42  63  91 118 143 177 222 265
#     4   9  17  29  45  66  91 118 147 178 215 258
#     4   9  17  29  45  65  90 118 147 181 217 254
#     4   9  16  27  45  67  90 116 145 179 218 259
#
# _framework density 16.603010999999999
#
# number of rings (size 3 to 8) (size 9 to 14) (size 15 to 20)
#    0.000    3.000    0.000    1.500    0.000    6.667 
#    0.000    0.833    0.000    5.000    0.000    0.000 
#    0.000    0.000    0.000    0.000    0.000    0.000 
#
# Total GULP energy -297600.034579 kJ/mol
# GULP energy per Si atom -12400.001441 kJ/mol
# Density = 1.656522 g / cm^3
# Si number density = 16.603011 Si / 1000 Ang^3
#
#
#
# Elastic Constant Matrix: (Units=GPa)
#
#
# Indices 1 2 3 4 5 6 
#
# 1 97.9175 38.6291 69.7884 0.0000 -9.6588 0.0000
# 2 38.6291 59.9556 61.7848 0.0000 -8.8894 0.0000
# 3 69.7884 61.7848 161.0408 0.0000 -14.2485 0.0000
# 4 0.0000 0.0000 0.0000 21.3231 0.0000 -5.9747
# 5 -9.6588 -8.8894 -14.2485 0.0000 27.2630 0.0000
# 6 0.0000 0.0000 0.0000 -5.9747 0.0000 19.6670
#
#
#
# Elastic Compliance Matrix: (Units=1/GPa)
#
#
# Indices 1 2 3 4 5 6 
#
# 1 0.015728 -0.005006 -0.004767 0.000000 0.001448 0.000000
# 2 -0.005006 0.029526 -0.008874 0.000000 0.003216 0.000000
# 3 -0.004767 -0.008874 0.011821 0.000000 0.001596 0.000000
# 4 0.000000 0.000000 0.000000 0.051261 0.000000 0.015573
# 5 0.001448 0.003216 0.001596 0.000000 0.039075 0.000000
# 6 0.000000 0.000000 0.000000 0.015573 0.000000 0.055577
#
#
# Mechanical properties :
#
#
# Convention : Reuss Voigt Hill
#
# Bulk Modulus (GPa) = 50.55399 73.25762 61.90581
# Shear Modulus (GPa) = 20.25298 23.56473 21.90885
#
# Velocity S-wave (km/s) = 3.49641 3.77145 3.63653
# Velocity P-wave (km/s) = 6.84212 7.94884 7.41615
#
# Compressibility (1/GPa) = 0.01978083
#
# Stress axis : x y z
#
# Youngs Moduli (GPa) = 63.58003 33.86855 84.59388
#
# Poissons Ratio (x) = 0.16956 0.40327
# Poissons Ratio (y) = 0.31830 0.75067
# Poissons Ratio (z) = 0.30309 0.30054
#
# Static dielectric constant tensor:
#      x y z
#    x 2.976130 0.000000 -0.062650 
#    y 0.000000 2.988100 0.000000 
#    z -0.062650 0.000000 3.242790 
# 
# 
# High freq. dielectric constant tensor:
#      x y z
#    x 1.612570 0.000000 -0.007670 
#    y 0.000000 1.620630 0.000000 
#    z -0.007670 0.000000 1.646190 
# 
# From -- ./inp_files/236600.got.cif
#   From: 2010.06.25/outbox.cif.g09.slc.cpg/sg12_119_cif.got.tgz:236600.got - 2010.06.28 00:19:55.
