data_PCOD8116438
_publ_section_title
;
Structure prediction by ZEFSAII (Michael W. Deem and Ramdas Pophale) SiO2 
 PCOD8116438
Probable space group: C 2/M
;
_chemical_formula_sum "Si O2"
_cell_formula_units_Z 28
_cell_length_a 21.000000
_cell_length_b 9.000000
_cell_length_c 30.000000
_cell_angle_alpha 90.000000
_cell_angle_beta 30.000000
_cell_angle_gamma 90.000000
_cell_volume 2835.000000
_symmetry_space_group_name_H-M "C 2/M"
_symmetry_group_IT_number 12
_symmetry_cell_setting 'monoclinic'
loop_
_space_group_symop_operation_xyz
x,y,z
-x,y,-z
-x,-y,-z
x,-y,z
1/2+x,1/2+y,z
1/2-x,1/2+y,-z
1/2-x,1/2-y,-z
1/2+x,1/2-y,z
loop_
_atom_site_type_symbol
_atom_site_label
_atom_site_fract_x
_atom_site_fract_y
_atom_site_fract_z
Si Si1 0.563207 0.322748 0.010227
Si Si2 0.767897 0.678550 0.678466
Si Si3 0.658282 0.174271 0.127412
Si Si4 0.545400 0.670618 0.364044
Si Si5 0.004820 0.321957 0.857369
Si Si6 0.535005 0.175349 0.679249
Si Si7 0.789937 0.830786 0.574090
O O1 0.551021 0.500000 0.021147
O O2 0.492054 0.246536 0.094719
O O3 0.500000 0.273844 0.000000
O O4 0.708212 0.266208 0.932444
O O5 0.760802 0.500000 0.686488
O O6 0.848937 0.739616 0.671440
O O7 0.630351 0.754773 0.759552
O O8 0.821610 0.726460 0.597440
O O9 0.613639 0.227395 0.104114
O O10 0.552685 0.224080 0.226443
O O11 0.670413 0.000000 0.117213
O O12 0.591768 0.500000 0.329812
O O13 0.517919 0.741776 0.332353
O O14 0.414983 0.675987 0.469216
O O15 0.011517 0.500000 0.856325
O O16 0.676112 0.224397 0.610166
O O17 0.529002 0.000000 0.672923
O O18 0.760990 0.000000 0.607781
#
# Coordination Sequence:
#
# PCOD8116438 Si02
#       7
#     8   8   8   8   8   8   8
#     4  10  22  39  62  94 128 159 197 246 301 364
#     4  12  25  40  62  90 121 160 209 259 310 368
#     4   9  19  38  63  88 121 164 202 244 300 357
#     4  11  24  39  59  90 126 163 204 255 313 365
#     4  11  22  41  65  88 121 162 206 252 303 362
#     4  10  20  38  63  89 123 166 208 249 303 362
#     4  10  21  41  64  87 122 164 205 255 311 365
#
# _framework density 9.8765429999999999
#
# number of rings (size 3 to 8) (size 9 to 14) (size 15 to 20)
#    0.000    1.571    1.429    3.429    2.000    3.714 
#    0.000    1.429    0.000    0.000    0.000    0.000 
#    0.000    0.000    0.000    0.000    0.000    0.000 
#
# Total GULP energy -346903.468770 kJ/mol
# GULP energy per Si atom -12389.409599 kJ/mol
# Density = 0.985406 g / cm^3
# Si number density = 9.876543 Si / 1000 Ang^3
#
#
#
# Elastic Constant Matrix: (Units=GPa)
#
#
# Indices 1 2 3 4 5 6 
#
# 1 218.0305 50.3626 27.5694 0.0112 1.1473 -0.0519
# 2 50.3626 94.1020 15.7808 0.0270 3.3850 -0.0068
# 3 27.5694 15.7808 53.6087 -0.0068 -4.1930 -0.0037
# 4 0.0112 0.0270 -0.0068 24.0374 0.0027 2.4075
# 5 1.1473 3.3850 -4.1930 0.0027 44.3559 0.0114
# 6 -0.0519 -0.0068 -0.0037 2.4075 0.0114 43.7229
#
#
#
# Elastic Compliance Matrix: (Units=1/GPa)
#
#
# Indices 1 2 3 4 5 6 
#
# 1 0.005439 -0.002561 -0.002054 -0.000001 -0.000139 0.000006
# 2 -0.002561 0.012446 -0.002434 -0.000013 -0.001114 0.000000
# 3 -0.002054 -0.002434 0.020597 0.000009 0.002186 -0.000002
# 4 -0.000001 -0.000013 0.000009 0.041833 0.000000 -0.002303
# 5 -0.000139 -0.001114 0.002186 0.000000 0.022840 -0.000006
# 6 0.000006 0.000000 -0.000002 -0.002303 -0.000006 0.022998
#
#
# Mechanical properties :
#
#
# Convention : Reuss Voigt Hill
#
# Bulk Modulus (GPa) = 41.01012 61.46298 51.23655
# Shear Modulus (GPa) = 33.69776 40.55846 37.12811
#
# Velocity S-wave (km/s) = 4.13479 4.53622 4.34015
# Velocity P-wave (km/s) = 6.60317 7.65634 7.14917
#
# Compressibility (1/GPa) = 0.02438422
#
# Stress axis : x y z
#
# Youngs Moduli (GPa) = 183.87186 80.34909 48.55016
#
# Poissons Ratio (x) = 0.20579 0.09971
# Poissons Ratio (y) = 0.47094 0.11815
# Poissons Ratio (z) = 0.37765 0.19553
#
# Static dielectric constant tensor:
#      x y z
#    x 4.316560 0.000000 -0.177860 
#    y 0.000000 3.649320 0.000000 
#    z -0.177860 0.000000 3.742370 
# 
# 
# High freq. dielectric constant tensor:
#      x y z
#    x 1.822050 0.000000 -0.005020 
#    y 0.000000 1.763130 0.000000 
#    z -0.005020 0.000000 1.774160 
# 
# From -- ./inp_files/275088.got.cif
#   From: 2010.06.25/outbox.ucp.g09.slc.cvg/sg12_138_cif.got.tgz:275088.got - 2010.06.28 13:50:54.
