data_PCOD8116027
_publ_section_title
;
Structure prediction by ZEFSAII (Michael W. Deem and Ramdas Pophale) SiO2 
 PCOD8116027
Probable space group: C 2/M
;
_chemical_formula_sum "Si O2"
_cell_formula_units_Z 48
_cell_length_a 20.348172
_cell_length_b 9.339199
_cell_length_c 15.851239
_cell_angle_alpha 90.000000
_cell_angle_beta 70.988397
_cell_angle_gamma 90.000000
_cell_volume 2847.987086
_symmetry_space_group_name_H-M "C 2/M"
_symmetry_group_IT_number 12
_symmetry_cell_setting 'monoclinic'
loop_
_space_group_symop_operation_xyz
x,y,z
-x,y,-z
-x,-y,-z
x,-y,z
1/2+x,1/2+y,z
1/2-x,1/2+y,-z
1/2-x,1/2-y,-z
1/2+x,1/2-y,z
loop_
_atom_site_type_symbol
_atom_site_label
_atom_site_fract_x
_atom_site_fract_y
_atom_site_fract_z
Si Si1 0.684918 0.331728 0.064111
Si Si2 0.964942 0.169942 0.930868
Si Si3 0.658130 0.667295 0.601002
Si Si4 0.012909 0.170538 0.732017
Si Si5 0.867339 0.830731 0.733324
Si Si6 0.212019 0.832485 0.396055
O O1 0.697687 0.500000 0.049330
O O2 0.615767 0.284168 0.042038
O O3 0.676479 0.287971 0.165603
O O4 0.750000 0.250000 0.000000
O O5 0.007299 0.224863 0.831134
O O6 0.969174 0.000000 0.932254
O O7 0.000000 0.237487 0.000000
O O8 0.665844 0.500000 0.618230
O O9 0.583178 0.728324 0.660046
O O10 0.715233 0.750467 0.631263
O O11 0.666785 0.698312 0.498277
O O12 0.946185 0.229238 0.707852
O O13 0.011758 0.000000 0.730832
O O14 0.830677 0.768561 0.665203
O O15 0.871400 0.000000 0.723986
O O16 0.228052 0.000000 0.379070
#
# Coordination Sequence:
#
# PCOD8116027 Si02
#       6
#     8   8   8   8   8   8
#     4   9  17  29  45  64  86 112 141 174 210 249
#     4   8  14  25  41  61  84 109 137 171 212 251
#     4   9  17  28  44  66  87 108 139 179 214 244
#     4   8  14  25  41  61  83 106 139 180 209 237
#     4   8  15  28  44  62  85 113 143 173 208 250
#     4   9  17  29  44  62  87 116 140 167 210 259
#
# _framework density 16.854008
#
# number of rings (size 3 to 8) (size 9 to 14) (size 15 to 20)
#    0.000    3.500    0.000    2.000    0.000    2.000 
#    0.000    5.833    0.000    5.500    0.000    4.667 
#    0.000    0.000    0.000    0.000    0.000    0.000 
#
# Total GULP energy -297459.809234 kJ/mol
# GULP energy per Si atom -12394.158718 kJ/mol
# Density = 1.681565 g / cm^3
# Si number density = 16.854008 Si / 1000 Ang^3
#
#
#
# Elastic Constant Matrix: (Units=GPa)
#
#
# Indices 1 2 3 4 5 6 
#
# 1 168.8102 33.2354 116.0770 0.0000 1.0125 0.0000
# 2 33.2354 19.3816 26.9468 0.0000 -3.8743 0.0000
# 3 116.0770 26.9468 124.0092 0.0000 1.5964 0.0000
# 4 0.0000 0.0000 0.0000 16.3144 0.0000 -4.0863
# 5 1.0125 -3.8743 1.5964 0.0000 43.1776 0.0000
# 6 0.0000 0.0000 0.0000 -4.0863 0.0000 23.2406
#
#
#
# Elastic Compliance Matrix: (Units=1/GPa)
#
#
# Indices 1 2 3 4 5 6 
#
# 1 0.018078 -0.010981 -0.014525 0.000000 -0.000872 0.000000
# 2 -0.010981 0.082928 -0.007844 0.000000 0.007989 0.000000
# 3 -0.014525 -0.007844 0.023380 0.000000 -0.001228 0.000000
# 4 0.000000 0.000000 0.000000 0.064119 0.000000 0.011274
# 5 -0.000872 0.007989 -0.001228 0.000000 0.023943 0.000000
# 6 0.000000 0.000000 0.000000 0.011274 0.000000 0.045010
#
#
# Mechanical properties :
#
#
# Convention : Reuss Voigt Hill
#
# Bulk Modulus (GPa) = 17.33504 73.85772 45.59638
# Shear Modulus (GPa) = 14.56078 25.60929 20.08503
#
# Velocity S-wave (km/s) = 2.94247 3.90228 3.45586
# Velocity P-wave (km/s) = 4.67460 8.01379 6.56021
#
# Compressibility (1/GPa) = 0.05768663
#
# Stress axis : x y z
#
# Youngs Moduli (GPa) = 55.31453 12.05861 42.77168
#
# Poissons Ratio (x) = 0.13241 0.62125
# Poissons Ratio (y) = 0.60740 0.33552
# Poissons Ratio (z) = 0.80343 0.09459
#
# Static dielectric constant tensor:
#      x y z
#    x 3.546950 0.000000 0.166560 
#    y 0.000000 2.643860 0.000000 
#    z 0.166560 0.000000 3.405220 
# 
# 
# High freq. dielectric constant tensor:
#      x y z
#    x 1.658400 0.000000 0.001800 
#    y 0.000000 1.592830 0.000000 
#    z 0.001800 0.000000 1.655050 
# 
# From -- ./inp_files/222383.got.cif
#   From: 2010.06.25/outbox.cif.g09.slc.cpg/sg12_112_cif.got.tgz:222383.got - 2010.06.28 00:19:55.
