data_PCOD8116250
_publ_section_title
;
Structure prediction by ZEFSAII (Michael W. Deem and Ramdas Pophale) SiO2 
 PCOD8116250
Probable space group: C 2/M
;
_chemical_formula_sum "Si O2"
_cell_formula_units_Z 20
_cell_length_a 24.000000
_cell_length_b 9.000000
_cell_length_c 30.000000
_cell_angle_alpha 90.000000
_cell_angle_beta 160.000000
_cell_angle_gamma 90.000000
_cell_volume 2216.290529
_symmetry_space_group_name_H-M "C 2/M"
_symmetry_group_IT_number 12
_symmetry_cell_setting 'monoclinic'
loop_
_space_group_symop_operation_xyz
x,y,z
-x,y,-z
-x,-y,-z
x,-y,z
1/2+x,1/2+y,z
1/2-x,1/2+y,-z
1/2-x,1/2-y,-z
1/2+x,1/2-y,z
loop_
_atom_site_type_symbol
_atom_site_label
_atom_site_fract_x
_atom_site_fract_y
_atom_site_fract_z
Si Si1 0.774116 0.828809 0.947573
Si Si2 0.505602 0.829020 0.816116
Si Si3 0.635522 0.678862 0.659249
Si Si4 0.814069 0.172285 0.873817
Si Si5 0.297644 0.821978 0.380152
O O1 0.595836 0.811211 0.836176
O O2 0.776835 0.782258 0.897379
O O3 0.834385 0.000000 0.997456
O O4 0.888998 0.720835 0.062043
O O5 0.348107 0.723125 0.696327
O O6 0.455684 0.000000 0.786136
O O7 0.634366 0.500000 0.654180
O O8 0.705425 0.725916 0.759816
O O9 0.455837 0.745963 0.519950
O O10 0.739349 0.753139 0.696897
O O11 0.768489 0.000000 0.832159
O O12 0.000000 0.202521 0.000000
O O13 0.317404 0.000000 0.392010
#
# Coordination Sequence:
#
# PCOD8116250 Si02
#       5
#     8   8   8   8   8
#     4   9  19  34  53  79 111 145 178 215 262 316
#     4  10  19  33  54  80 109 140 179 223 263 306
#     4  11  22  36  55  81 109 135 172 220 267 313
#     4  10  20  35  55  79 109 143 176 211 258 317
#     4  11  21  36  57  78 104 140 179 216 263 318
#
# _framework density 9.0240880000000008
#
# number of rings (size 3 to 8) (size 9 to 14) (size 15 to 20)
#    0.000    1.800    0.000    6.600    0.000    3.600 
#    0.000    1.000    0.000    0.000    0.000    0.000 
#    0.000    0.000    0.000    0.000    0.000    0.000 
#
# Total GULP energy -247956.769669 kJ/mol
# GULP energy per Si atom -12397.838483 kJ/mol
# Density = 0.900355 g / cm^3
# Si number density = 9.024088 Si / 1000 Ang^3
#
#
#
# Elastic Constant Matrix: (Units=GPa)
#
#
# Indices 1 2 3 4 5 6 
#
# 1 157.2849 53.2287 56.0345 0.0282 -5.0658 0.0036
# 2 53.2287 144.9514 42.9431 0.0121 -1.3760 0.0034
# 3 56.0345 42.9431 69.2388 0.0493 -0.8480 0.0130
# 4 0.0282 0.0121 0.0493 35.1515 0.0139 -1.7406
# 5 -5.0658 -1.3760 -0.8480 0.0139 35.9281 -0.0076
# 6 0.0036 0.0034 0.0130 -1.7406 -0.0076 33.5471
#
#
#
# Elastic Compliance Matrix: (Units=1/GPa)
#
#
# Indices 1 2 3 4 5 6 
#
# 1 0.009212 -0.001431 -0.006555 0.000002 0.001089 0.000002
# 2 -0.001431 0.008675 -0.004222 0.000004 0.000031 0.000001
# 3 -0.006555 -0.004222 0.022360 -0.000025 -0.000558 -0.000009
# 4 0.000002 0.000004 -0.000025 0.028522 -0.000011 0.001480
# 5 0.001089 0.000031 -0.000558 -0.000011 0.027975 0.000006
# 6 0.000002 0.000001 -0.000009 0.001480 0.000006 0.029886
#
#
# Mechanical properties :
#
#
# Convention : Reuss Voigt Hill
#
# Bulk Modulus (GPa) = 63.16534 75.09863 69.13198
# Shear Modulus (GPa) = 31.98509 35.54327 33.76418
#
# Velocity S-wave (km/s) = 4.21433 4.44256 4.32994
# Velocity P-wave (km/s) = 7.66517 8.24715 7.96148
#
# Compressibility (1/GPa) = 0.01583147
#
# Stress axis : x y z
#
# Youngs Moduli (GPa) = 108.54944 115.26751 44.72346
#
# Poissons Ratio (x) = 0.16491 0.29316
# Poissons Ratio (y) = 0.15530 0.18884
# Poissons Ratio (z) = 0.71153 0.48671
#
# Static dielectric constant tensor:
#      x y z
#    x 3.692970 -0.000010 0.124620 
#    y -0.000010 3.547450 -0.000040 
#    z 0.124620 -0.000040 3.242420 
# 
# 
# High freq. dielectric constant tensor:
#      x y z
#    x 1.715770 0.000000 0.009000 
#    y 0.000000 1.720290 -0.000010 
#    z 0.009000 -0.000010 1.690450 
# 
# From -- ./inp_files/162751.got.cif
#   From: 2010.06.25/outbox.ucp.g09.slc.cvg/sg12_82_cif.got.tgz:162751.got - 2010.06.28 13:50:54.
