data_PCOD8116467
_publ_section_title
;
Structure prediction by ZEFSAII (Michael W. Deem and Ramdas Pophale) SiO2 
 PCOD8116467
Probable space group: C 2/M
;
_chemical_formula_sum "Si O2"
_cell_formula_units_Z 32
_cell_length_a 18.000000
_cell_length_b 21.000000
_cell_length_c 18.000000
_cell_angle_alpha 90.000000
_cell_angle_beta 150.000000
_cell_angle_gamma 90.000000
_cell_volume 3402.000000
_symmetry_space_group_name_H-M "C 2/M"
_symmetry_group_IT_number 12
_symmetry_cell_setting 'monoclinic'
loop_
_space_group_symop_operation_xyz
x,y,z
-x,y,-z
-x,-y,-z
x,-y,z
1/2+x,1/2+y,z
1/2-x,1/2+y,-z
1/2-x,1/2-y,-z
1/2+x,1/2-y,z
loop_
_atom_site_type_symbol
_atom_site_label
_atom_site_fract_x
_atom_site_fract_y
_atom_site_fract_z
Si Si1 0.674742 0.429320 0.071841
Si Si2 0.582079 0.276422 0.648712
Si Si3 0.611526 0.667667 0.408142
Si Si4 0.368174 0.737396 0.835859
Si Si5 0.908354 0.727339 0.716938
Si Si6 0.436466 0.154437 0.265973
Si Si7 0.709110 0.068809 0.515629
Si Si8 0.162115 0.100671 0.222640
O O1 0.690228 0.500000 0.050767
O O2 0.778784 0.378907 0.120795
O O3 0.717129 0.433615 0.195582
O O4 0.513852 0.401001 0.921831
O O5 0.500000 0.276291 0.500000
O O6 0.524544 0.334891 0.650698
O O7 0.757542 0.283195 0.785727
O O8 0.554346 0.210887 0.667466
O O9 0.736309 0.711148 0.554736
O O10 0.561454 0.701625 0.288245
O O11 0.675170 0.599113 0.442705
O O12 0.439833 0.776951 0.831157
O O13 0.283420 0.674588 0.731475
O O14 0.500000 0.711463 0.000000
O O15 0.022737 0.678140 0.780576
O O16 0.556357 0.104071 0.395508
O O17 0.775474 0.062237 0.654631
O O18 0.675867 0.000000 0.453430
#
# Coordination Sequence:
#
# PCOD8116467 Si02
#       8
#     8   8   8   8   8   8   8   8
#     4  11  21  35  49  68 105 149 179 199 247 305
#     4  11  19  33  55  76 102 137 172 208 262 318
#     4   9  18  33  53  75 101 137 172 208 258 314
#     4  12  20  34  54  79 107 135 170 215 260 305
#     4   9  18  34  52  75 105 134 166 213 267 307
#     4  10  21  34  52  79 102 131 175 221 252 298
#     4  11  21  34  53  76 104 136 175 217 251 293
#     4  11  20  35  48  73 106 143 172 204 245 304
#
# _framework density 9.4062319999999993
#
# number of rings (size 3 to 8) (size 9 to 14) (size 15 to 20)
#    0.000    1.500    5.000    3.375    0.000    0.000 
#    2.250    3.125    0.000    0.375    0.000    0.000 
#    0.000   13.000    0.000    0.000    0.000    0.000 
#
# Total GULP energy -396574.037360 kJ/mol
# GULP energy per Si atom -12392.938668 kJ/mol
# Density = 0.938482 g / cm^3
# Si number density = 9.406232 Si / 1000 Ang^3
#
#
#
# Elastic Constant Matrix: (Units=GPa)
#
#
# Indices 1 2 3 4 5 6 
#
# 1 80.2285 46.6450 14.5223 0.0101 19.8288 0.0032
# 2 46.6450 -3.8310 33.5345 -0.0047 -17.2187 0.0009
# 3 14.5223 33.5345 15.4796 0.0015 11.4344 -0.0005
# 4 0.0101 -0.0047 0.0015 20.2080 -0.0084 6.2503
# 5 19.8288 -17.2187 11.4344 -0.0084 10.7816 -0.0014
# 6 0.0032 0.0009 -0.0005 6.2503 -0.0014 20.6590
#
#
#
# Elastic Compliance Matrix: (Units=1/GPa)
#
#
# Indices 1 2 3 4 5 6 
#
# 1 0.014369 0.003090 -0.019855 -0.000005 -0.000433 -0.000002
# 2 0.003090 -0.000538 0.014309 -0.000012 -0.021718 0.000002
# 3 -0.019855 0.014309 0.038675 0.000018 0.018351 -0.000001
# 4 -0.000005 -0.000012 0.000018 0.054594 0.000010 -0.016517
# 5 -0.000433 -0.021718 0.018351 0.000010 0.039400 0.000001
# 6 -0.000002 0.000002 -0.000001 -0.016517 0.000001 0.053402
#
#
# Mechanical properties :
#
#
# Convention : Reuss Voigt Hill
#
# Bulk Modulus (GPa) = 21.01138 31.25340 26.13239
# Shear Modulus (GPa) = 22.65739 10.14141 16.39940
#
# Velocity S-wave (km/s) = 3.47419 2.32433 2.95571
# Velocity P-wave (km/s) = 5.22364 4.88391 5.05663
#
# Compressibility (1/GPa) = 0.04759326
#
# Stress axis : x y z
#
# Youngs Moduli (GPa) = 69.59607 -1858.78430 25.85643
#
# Poissons Ratio (x) = 5.74443 0.51339
# Poissons Ratio (y) = -0.21508 -0.36997
# Poissons Ratio (z) = 1.38185 26.59664
#
# Static dielectric constant tensor:
#      x y z
#    x 3.571360 0.000000 0.281540 
#    y 0.000000 3.099000 0.000000 
#    z 0.281540 0.000000 3.193020 
# 
# 
# High freq. dielectric constant tensor:
#      x y z
#    x 1.722210 0.000000 0.009900 
#    y 0.000000 1.689150 0.000000 
#    z 0.009900 0.000000 1.703180 
# 
# From -- ./inp_files/90638.got.cif
#   From: 2010.06.25/outbox.ucp.g09.slc.cvg/sg12_46_cif.got.tgz:90638.got - 2010.06.28 13:50:54.
