data_PCOD8116172
_publ_section_title
;
Structure prediction by ZEFSAII (Michael W. Deem and Ramdas Pophale) SiO2 
 PCOD8116172
Probable space group: C 2/M
;
_chemical_formula_sum "Si O2"
_cell_formula_units_Z 40
_cell_length_a 13.936063
_cell_length_b 10.155511
_cell_length_c 17.287317
_cell_angle_alpha 90.000000
_cell_angle_beta 120.125337
_cell_angle_gamma 90.000000
_cell_volume 2116.168366
_symmetry_space_group_name_H-M "C 2/M"
_symmetry_group_IT_number 12
_symmetry_cell_setting 'monoclinic'
loop_
_space_group_symop_operation_xyz
x,y,z
-x,y,-z
-x,-y,-z
x,-y,z
1/2+x,1/2+y,z
1/2-x,1/2+y,-z
1/2-x,1/2-y,-z
1/2+x,1/2-y,z
loop_
_atom_site_type_symbol
_atom_site_label
_atom_site_fract_x
_atom_site_fract_y
_atom_site_fract_z
Si Si1 0.592806 0.241113 0.482914
Si Si2 0.523849 0.647027 0.303893
Si Si3 0.808366 0.643986 0.622255
Si Si4 0.877504 0.849008 0.978859
Si Si5 0.189890 0.849624 0.874653
O O1 0.500000 0.174313 0.500000
O O2 0.532231 0.345482 0.400695
O O3 0.680418 0.313664 0.574458
O O4 0.656208 0.134486 0.454929
O O5 0.553776 0.500000 0.287226
O O6 0.612457 0.750229 0.302036
O O7 0.399917 0.683858 0.227558
O O8 0.823153 0.500000 0.666250
O O9 0.791275 0.750596 0.902603
O O10 0.848706 0.000000 0.944688
O O11 0.870519 0.827825 0.067853
O O12 0.000000 0.811284 0.000000
O O13 0.233394 0.000000 0.884935
#
# Coordination Sequence:
#
# PCOD8116172 Si02
#       5
#     8   8   8   8   8
#     4   9  19  33  52  70  98 135 167 202 245 289
#     4   9  18  33  51  71 101 134 163 200 247 292
#     4   9  19  33  50  72  97 128 170 208 242 285
#     4   9  18  34  55  76  99 128 162 199 247 298
#     4   9  18  34  53  73 101 132 161 199 246 293
#
# _framework density 18.902089
#
# number of rings (size 3 to 8) (size 9 to 14) (size 15 to 20)
#    1.200    1.800    0.000    0.600    0.000    3.200 
#    3.600    0.000    0.000    0.000    0.000    0.000 
#    0.000    0.000    0.000    0.000    0.000    0.000 
#
# Total GULP energy -247776.804451 kJ/mol
# GULP energy per Si atom -12388.840223 kJ/mol
# Density = 1.885907 g / cm^3
# Si number density = 18.902089 Si / 1000 Ang^3
#
#
#
# Elastic Constant Matrix: (Units=GPa)
#
#
# Indices 1 2 3 4 5 6 
#
# 1 94.2052 27.0449 22.3489 0.0000 27.5300 0.0000
# 2 27.0449 106.5078 54.0414 0.0000 32.4621 0.0000
# 3 22.3489 54.0414 94.1315 0.0000 39.2677 0.0000
# 4 0.0000 0.0000 0.0000 27.9917 0.0000 8.5149
# 5 27.5300 32.4621 39.2677 0.0000 26.1358 0.0000
# 6 0.0000 0.0000 0.0000 8.5149 0.0000 18.9972
#
#
#
# Elastic Compliance Matrix: (Units=1/GPa)
#
#
# Indices 1 2 3 4 5 6 
#
# 1 0.018303 0.001203 0.009725 0.000000 -0.035385 0.000000
# 2 0.001203 0.015370 -0.001654 0.000000 -0.017872 0.000000
# 3 0.009725 -0.001654 0.033974 0.000000 -0.059233 0.000000
# 4 0.000000 0.000000 0.000000 0.041365 0.000000 -0.018540
# 5 -0.035385 -0.017872 -0.059233 0.000000 0.186727 0.000000
# 6 0.000000 0.000000 0.000000 -0.018540 0.000000 0.060949
#
#
# Mechanical properties :
#
#
# Convention : Reuss Voigt Hill
#
# Bulk Modulus (GPa) = 11.60165 55.74610 33.67387
# Shear Modulus (GPa) = 13.62871 27.38556 20.50714
#
# Velocity S-wave (km/s) = 2.68809 3.81046 3.29738
# Velocity P-wave (km/s) = 3.97310 6.99396 5.68775
#
# Compressibility (1/GPa) = 0.08619466
#
# Stress axis : x y z
#
# Youngs Moduli (GPa) = 54.63440 65.06175 29.43457
#
# Poissons Ratio (x) = -0.07825 -0.28625
# Poissons Ratio (y) = -0.06571 0.04869
# Poissons Ratio (z) = -0.53132 0.10762
#
# Static dielectric constant tensor:
#      x y z
#    x 3.179530 0.000000 0.170070 
#    y 0.000000 3.331050 0.000000 
#    z 0.170070 0.000000 3.294230 
# 
# 
# High freq. dielectric constant tensor:
#      x y z
#    x 1.713360 0.000000 0.021780 
#    y 0.000000 1.725490 0.000000 
#    z 0.021780 0.000000 1.718290 
# 
# From -- ./inp_files/268047.got.cif
#   From: 2010.06.25/outbox.cif.g09.slc.cpg/sg12_135_cif.got.tgz:268047.got - 2010.06.28 00:19:55.
