data_PCOD8116318
_publ_section_title
;
Structure prediction by ZEFSAII (Michael W. Deem and Ramdas Pophale) SiO2 
 PCOD8116318
Probable space group: C 2/M
;
_chemical_formula_sum "Si O2"
_cell_formula_units_Z 32
_cell_length_a 18.000000
_cell_length_b 9.000000
_cell_length_c 30.000000
_cell_angle_alpha 90.000000
_cell_angle_beta 40.000000
_cell_angle_gamma 90.000000
_cell_volume 3123.947783
_symmetry_space_group_name_H-M "C 2/M"
_symmetry_group_IT_number 12
_symmetry_cell_setting 'monoclinic'
loop_
_space_group_symop_operation_xyz
x,y,z
-x,y,-z
-x,-y,-z
x,-y,z
1/2+x,1/2+y,z
1/2-x,1/2+y,-z
1/2-x,1/2-y,-z
1/2+x,1/2-y,z
loop_
_atom_site_type_symbol
_atom_site_label
_atom_site_fract_x
_atom_site_fract_y
_atom_site_fract_z
Si Si1 0.683844 0.675502 0.990249
Si Si2 0.266338 0.167987 0.263341
Si Si3 0.809354 0.665126 0.345819
Si Si4 0.015072 0.832859 0.381624
Si Si5 0.600876 0.825224 0.486797
Si Si6 0.751562 0.667096 0.126608
Si Si7 0.558383 0.829222 0.889756
Si Si8 0.983824 0.835781 0.720172
O O1 0.689221 0.500000 0.992365
O O2 0.747687 0.721344 0.915197
O O3 0.750000 0.750000 0.000000
O O4 0.552172 0.727757 0.052699
O O5 0.307988 0.173092 0.293955
O O6 0.140971 0.247622 0.321859
O O7 0.362656 0.239540 0.186647
O O8 0.246353 0.000000 0.254180
O O9 0.783986 0.500000 0.375286
O O10 0.722230 0.773969 0.411039
O O11 0.940912 0.709378 0.292350
O O12 0.973843 0.836547 0.350170
O O13 0.923721 0.742725 0.453301
O O14 0.025113 0.000000 0.397131
O O15 0.500000 0.771958 0.500000
O O16 0.604671 0.000000 0.490464
O O17 0.736376 0.500000 0.114940
O O18 0.872451 0.680810 0.096160
O O19 0.649932 0.705364 0.208865
O O20 0.522245 0.000000 0.895825
O O21 0.009192 0.000000 0.728439
#
# Coordination Sequence:
#
# PCOD8116318 Si02
#       8
#     8   8   8   8   8   8   8   8
#     4  12  27  44  62  91 128 165 207 255 305 359
#     4   9  18  35  62  92 118 152 203 250 295 356
#     4  11  23  38  60  89 122 162 205 250 302 361
#     4  10  19  38  65  89 116 157 203 249 296 359
#     4  11  23  38  58  87 121 157 199 254 312 361
#     4  10  21  41  68  94 124 165 204 245 305 371
#     4  10  20  40  68  95 125 163 204 248 304 370
#     4  10  22  40  63  92 126 158 197 249 305 359
#
# _framework density 10.243449
#
# number of rings (size 3 to 8) (size 9 to 14) (size 15 to 20)
#    0.000    1.625    2.500    2.250    1.750    4.000 
#    0.000    1.250    0.000    0.000    0.000    0.000 
#    0.000    0.000    0.000    0.000    0.000    0.000 
#
# Total GULP energy -396707.972889 kJ/mol
# GULP energy per Si atom -12397.124153 kJ/mol
# Density = 1.022013 g / cm^3
# Si number density = 10.243449 Si / 1000 Ang^3
#
#
#
# Elastic Constant Matrix: (Units=GPa)
#
#
# Indices 1 2 3 4 5 6 
#
# 1 46.6553 42.5328 28.0935 0.0005 -18.3202 -0.0015
# 2 42.5328 92.3600 45.0948 -0.0004 7.4543 0.0002
# 3 28.0935 45.0948 112.7516 -0.0004 13.4978 0.0004
# 4 0.0005 -0.0004 -0.0004 25.8744 0.0007 -3.3081
# 5 -18.3202 7.4543 13.4978 0.0007 19.8570 0.0005
# 6 -0.0015 0.0002 0.0004 -3.3081 0.0005 25.3380
#
#
#
# Elastic Compliance Matrix: (Units=1/GPa)
#
#
# Indices 1 2 3 4 5 6 
#
# 1 -0.673547 0.306722 0.145136 0.000040 -0.835219 -0.000025
# 2 0.306722 -0.126180 -0.071309 -0.000018 0.378824 0.000011
# 3 0.145136 -0.071309 -0.019604 -0.000008 0.173998 0.000005
# 4 0.000040 -0.000018 -0.000008 0.039304 0.000047 0.005131
# 5 -0.835219 0.378824 0.173998 0.000047 -0.980705 -0.000032
# 6 -0.000025 0.000011 0.000005 0.005131 -0.000032 0.040136
#
#
# Mechanical properties :
#
#
# Convention : Reuss Voigt Hill
#
# Bulk Modulus (GPa) = -17.17321 53.68990 18.25834
# Shear Modulus (GPa) = -1.99912 23.28361 10.64224
#
# Velocity S-wave (km/s) = -0.98890 3.37488 2.28165
# Velocity P-wave (km/s) = 3.11523 6.43819 3.98407
#
# Compressibility (1/GPa) = -0.05823022
#
# Stress axis : x y z
#
# Youngs Moduli (GPa) = -1.48468 -7.92520 -51.01093
#
# Poissons Ratio (x) = 2.43084 7.40354
# Poissons Ratio (y) = 0.45538 -3.63751
# Poissons Ratio (z) = 0.21548 -0.56513
#
# Static dielectric constant tensor:
#      x y z
#    x 4.221720 0.000010 0.166570 
#    y 0.000010 3.590970 0.000000 
#    z 0.166570 0.000000 3.866340 
# 
# 
# High freq. dielectric constant tensor:
#      x y z
#    x 1.788230 0.000000 0.003000 
#    y 0.000000 1.774850 0.000000 
#    z 0.003000 0.000000 1.821940 
# 
# From -- ./inp_files/378091.got.cif
#   From: 2010.06.25/outbox.ucp.g09.slc.cvg/sg12_190_cif.got.tgz:378091.got - 2010.06.28 13:50:54.
