data_PCOD8116564
_publ_section_title
;
Structure prediction by ZEFSAII (Michael W. Deem and Ramdas Pophale) SiO2 
 PCOD8116564
Probable space group: C 2/M
;
_chemical_formula_sum "Si O2"
_cell_formula_units_Z 32
_cell_length_a 18.000000
_cell_length_b 9.000000
_cell_length_c 30.000000
_cell_angle_alpha 90.000000
_cell_angle_beta 40.000000
_cell_angle_gamma 90.000000
_cell_volume 3123.947783
_symmetry_space_group_name_H-M "C 2/M"
_symmetry_group_IT_number 12
_symmetry_cell_setting 'monoclinic'
loop_
_space_group_symop_operation_xyz
x,y,z
-x,y,-z
-x,-y,-z
x,-y,z
1/2+x,1/2+y,z
1/2-x,1/2+y,-z
1/2-x,1/2-y,-z
1/2+x,1/2-y,z
loop_
_atom_site_type_symbol
_atom_site_label
_atom_site_fract_x
_atom_site_fract_y
_atom_site_fract_z
Si Si1 0.163455 0.175721 0.132993
Si Si2 0.757824 0.832529 0.367015
Si Si3 0.580537 0.172207 0.005260
Si Si4 0.493945 0.323395 0.133441
Si Si5 0.583646 0.673184 0.503447
Si Si6 0.034608 0.323602 0.357640
Si Si7 0.239088 0.322699 0.725880
Si Si8 0.491073 0.667098 0.716788
O O1 0.091140 0.229695 0.123541
O O2 0.108773 0.234210 0.204769
O O3 0.159836 0.000000 0.137495
O O4 0.293654 0.233307 0.066849
O O5 0.703163 0.755756 0.436040
O O6 0.728235 0.729631 0.338719
O O7 0.894934 0.842887 0.305769
O O8 0.706921 0.000000 0.384193
O O9 0.532008 0.272154 0.067178
O O10 0.585829 0.000000 0.018026
O O11 0.500000 0.193151 0.000000
O O12 0.474438 0.500000 0.142958
O O13 0.377864 0.241270 0.200745
O O14 0.500000 0.694975 0.500000
O O15 0.605503 0.500000 0.504062
O O16 0.532985 0.752259 0.570129
O O17 0.042697 0.500000 0.360270
O O18 0.158575 0.246578 0.291925
O O19 0.974664 0.279723 0.338655
O O20 0.237704 0.500000 0.728631
O O21 0.459732 0.500000 0.713903
#
# Coordination Sequence:
#
# PCOD8116564 Si02
#       8
#     8   8   8   8   8   8   8   8
#     4   9  19  39  64  89 124 168 208 252 309 371
#     4  11  22  40  67  95 125 164 210 264 317 370
#     4  10  22  39  61  93 128 167 211 255 310 375
#     4  11  22  40  64  91 124 165 212 263 313 368
#     4  11  23  40  64  93 125 167 212 258 314 379
#     4  12  26  42  63  94 128 165 210 261 316 375
#     4  12  24  40  64  93 125 164 211 263 317 379
#     4  10  22  42  65  91 128 170 209 256 318 376
#
# _framework density 10.243449
#
# number of rings (size 3 to 8) (size 9 to 14) (size 15 to 20)
#    0.000    1.250    2.500    3.750    1.750    2.250 
#    0.000    1.250    0.000    0.000    0.000    0.000 
#    0.000    0.000    0.000    0.000    0.000    0.000 
#
# Total GULP energy -396816.857923 kJ/mol
# GULP energy per Si atom -12400.526810 kJ/mol
# Density = 1.022013 g / cm^3
# Si number density = 10.243449 Si / 1000 Ang^3
#
#
#
# Elastic Constant Matrix: (Units=GPa)
#
#
# Indices 1 2 3 4 5 6 
#
# 1 51.6599 27.6551 30.7224 0.0003 9.4587 0.0037
# 2 27.6551 147.1757 55.3371 0.0013 8.3179 0.0051
# 3 30.7224 55.3371 142.3017 0.0000 6.4500 0.0008
# 4 0.0003 0.0013 0.0000 37.3872 -0.0001 -0.5631
# 5 9.4587 8.3179 6.4500 -0.0001 38.8608 0.0002
# 6 0.0037 0.0051 0.0008 -0.5631 0.0002 18.0498
#
#
#
# Elastic Compliance Matrix: (Units=1/GPa)
#
#
# Indices 1 2 3 4 5 6 
#
# 1 0.024006 -0.002788 -0.003890 0.000000 -0.004601 -0.000004
# 2 -0.002788 0.008338 -0.002610 0.000000 -0.000673 -0.000002
# 3 -0.003890 -0.002610 0.008881 0.000000 0.000031 0.000001
# 4 0.000000 0.000000 0.000000 0.026760 0.000000 0.000835
# 5 -0.004601 -0.000673 0.000031 0.000000 0.026991 0.000001
# 6 -0.000004 -0.000002 0.000001 0.000835 0.000001 0.055428
#
#
# Mechanical properties :
#
#
# Convention : Reuss Voigt Hill
#
# Bulk Modulus (GPa) = 44.15388 63.17405 53.66396
# Shear Modulus (GPa) = 28.32394 34.02107 31.17250
#
# Velocity S-wave (km/s) = 3.72229 4.07950 3.90498
# Velocity P-wave (km/s) = 6.33032 7.28649 6.82517
#
# Compressibility (1/GPa) = 0.02264807
#
# Stress axis : x y z
#
# Youngs Moduli (GPa) = 41.65682 119.93503 112.60452
#
# Poissons Ratio (x) = 0.33440 0.43803
# Poissons Ratio (y) = 0.11615 0.29389
# Poissons Ratio (z) = 0.16204 0.31302
#
# Static dielectric constant tensor:
#      x y z
#    x 3.699170 0.000000 -0.053580 
#    y 0.000000 3.729480 0.000000 
#    z -0.053580 0.000000 3.982590 
# 
# 
# High freq. dielectric constant tensor:
#      x y z
#    x 1.796220 0.000000 0.001900 
#    y 0.000000 1.798930 0.000000 
#    z 0.001900 0.000000 1.823360 
# 
# From -- ./inp_files/378057.got.cif
#   From: 2010.06.25/outbox.ucp.g09.slc.cvg/sg12_190_cif.got.tgz:378057.got - 2010.06.28 13:50:54.
