data_PCOD8116658
_publ_section_title
;
Structure prediction by ZEFSAII (Michael W. Deem and Ramdas Pophale) SiO2 
 PCOD8116658
Probable space group: P 2/C
;
_chemical_formula_sum "Si O2"
_cell_formula_units_Z 24
_cell_length_a 11.011054
_cell_length_b 22.654109
_cell_length_c 5.082020
_cell_angle_alpha 90.000000
_cell_angle_beta 84.565046
_cell_angle_gamma 90.000000
_cell_volume 1261.988559
_symmetry_space_group_name_H-M "P 2/C"
_symmetry_group_IT_number 13
_symmetry_cell_setting 'monoclinic'
loop_
_space_group_symop_operation_xyz
x,y,z
-x,y,1/2-z
-x,-y,-z
x,-y,1/2+z
loop_
_atom_site_type_symbol
_atom_site_label
_atom_site_fract_x
_atom_site_fract_y
_atom_site_fract_z
Si Si1 0.500000 0.440236 0.750000
Si Si2 0.245716 0.665622 0.612466
Si Si3 0.139459 0.722103 0.134893
Si Si4 0.757953 0.468076 0.549211
Si Si5 0.920854 0.155814 0.017953
Si Si6 0.500000 0.634732 0.750000
Si Si7 0.137335 0.026239 0.450694
O O1 0.611079 0.478661 0.607261
O O2 0.449994 0.401702 0.512990
O O3 0.224080 0.708001 0.367890
O O4 0.214104 0.599424 0.524140
O O5 0.386388 0.673578 0.670737
O O6 0.161811 0.679971 0.880513
O O7 0.000000 0.714904 0.250000
O O8 0.167294 0.789720 0.041593
O O9 0.814697 0.510979 0.314561
O O10 0.851241 0.096026 0.110223
O O11 0.000000 0.177749 0.250000
O O12 0.000000 0.137915 0.750000
O O13 0.206569 0.008140 0.702489
O O14 0.000000 0.000000 0.500000
#
# Coordination Sequence:
#
# PCOD8116658 Si02
#       7
#     2   4   4   4   4   2   4
#     4  10  18  31  50  84 112 126 150 195 282 360
#     4  11  22  39  55  78 106 133 177 216 271 320
#     4  11  23  37  55  74 102 148 185 220 244 299
#     4  11  20  32  53  78 104 130 160 214 274 336
#     4  11  18  29  46  70  99 134 186 201 242 297
#     4  10  20  35  58  80 106 138 160 215 272 326
#     4  10  15  24  40  66  98 135 163 195 248 305
#
# _framework density 19.017605
#
# number of rings (size 3 to 8) (size 9 to 14) (size 15 to 20)
#    0.000    1.333    3.333    8.000    0.000    0.667 
#    0.000    0.000    0.000   10.000    0.000    0.000 
#    0.000    0.000    0.000   15.000    0.000    0.000 
#
# Total GULP energy -297411.050565 kJ/mol
# GULP energy per Si atom -12392.127107 kJ/mol
# Density = 1.897432 g / cm^3
# Si number density = 19.017605 Si / 1000 Ang^3
#
#
#
# Elastic Constant Matrix: (Units=GPa)
#
#
# Indices 1 2 3 4 5 6 
#
# 1 37.7256 40.9242 29.1649 0.0000 11.4174 0.0000
# 2 40.9242 127.4272 58.9625 0.0000 7.3466 0.0000
# 3 29.1649 58.9625 167.3901 0.0000 22.4295 0.0000
# 4 0.0000 0.0000 0.0000 36.1027 0.0000 11.2661
# 5 11.4174 7.3466 22.4295 0.0000 28.2977 0.0000
# 6 0.0000 0.0000 0.0000 11.2661 0.0000 6.8321
#
#
#
# Elastic Compliance Matrix: (Units=1/GPa)
#
#
# Indices 1 2 3 4 5 6 
#
# 1 0.046489 -0.013433 -0.001479 0.000000 -0.014097 0.000000
# 2 -0.013433 0.013258 -0.002903 0.000000 0.004279 0.000000
# 3 -0.001479 -0.002903 0.007914 0.000000 -0.004922 0.000000
# 4 0.000000 0.000000 0.000000 0.057061 0.000000 -0.094094
# 5 -0.014097 0.004279 -0.004922 0.000000 0.043817 0.000000
# 6 0.000000 0.000000 0.000000 -0.094094 0.000000 0.301529
#
#
# Mechanical properties :
#
#
# Convention : Reuss Voigt Hill
#
# Bulk Modulus (GPa) = 31.21999 65.62734 48.42367
# Shear Modulus (GPa) = 9.68285 27.81258 18.74771
#
# Velocity S-wave (km/s) = 2.25889 3.82837 3.14316
# Velocity P-wave (km/s) = 4.82239 7.35700 6.22017
#
# Compressibility (1/GPa) = 0.03203076
#
# Stress axis : x y z
#
# Youngs Moduli (GPa) = 21.51033 75.42405 126.35909
#
# Poissons Ratio (x) = 1.01318 0.18691
# Poissons Ratio (y) = 0.28895 0.36683
# Poissons Ratio (z) = 0.03182 0.21896
#
# Static dielectric constant tensor:
#      x y z
#    x 2.996870 0.000000 1.045770 
#    y 0.000000 3.495740 0.000000 
#    z 1.045770 0.000000 13.536560 
# 
# 
# High freq. dielectric constant tensor:
#      x y z
#    x 1.657060 0.000000 0.019330 
#    y 0.000000 1.733480 0.000000 
#    z 0.019330 0.000000 1.786110 
# 
# From -- ./inp_files/3787.got.cif
#   From: 2010.06.25/outbox.cif.g09.slc.cpg/sg13_2_cif.got.tgz:3787.got - 2010.06.28 04:50:58.
