data_PCOD8116694
_publ_section_title
;
Structure prediction by ZEFSAII (Michael W. Deem and Ramdas Pophale) SiO2 
 PCOD8116694
Probable space group: P 2/C
;
_chemical_formula_sum "Si O2"
_cell_formula_units_Z 32
_cell_length_a 19.542988
_cell_length_b 25.866597
_cell_length_c 5.297501
_cell_angle_alpha 90.000000
_cell_angle_beta 66.044938
_cell_angle_gamma 90.000000
_cell_volume 2447.276093
_symmetry_space_group_name_H-M "P 2/C"
_symmetry_group_IT_number 13
_symmetry_cell_setting 'monoclinic'
loop_
_space_group_symop_operation_xyz
x,y,z
-x,y,1/2-z
-x,-y,-z
x,-y,1/2+z
loop_
_atom_site_type_symbol
_atom_site_label
_atom_site_fract_x
_atom_site_fract_y
_atom_site_fract_z
Si Si1 0.589459 0.297033 0.615910
Si Si2 0.587606 0.880554 0.619106
Si Si3 0.791038 0.056850 0.311631
Si Si4 0.587828 0.818495 0.118799
Si Si5 0.968159 0.057325 0.047697
Si Si6 0.589169 0.645570 0.616364
Si Si7 0.589238 0.528559 0.616298
Si Si8 0.727687 0.941394 0.406529
O O1 0.500000 0.296811 0.750000
O O2 0.622934 0.238927 0.565467
O O3 0.619661 0.325888 0.320889
O O4 0.619656 0.325837 0.820627
O O5 0.500000 0.896079 0.750000
O O6 0.611393 0.848186 0.337242
O O7 0.637712 0.932795 0.542869
O O8 0.611464 0.848618 0.830909
O O9 0.879556 0.052518 0.180665
O O10 0.763377 0.086131 0.605072
O O11 0.749606 0.001363 0.372289
O O12 0.764096 0.086078 0.098944
O O13 0.500000 0.811652 0.250000
O O14 0.000000 0.086338 0.250000
O O15 0.000000 0.086337 0.750000
O O16 0.000000 0.000000 0.000000
O O17 0.500000 0.646008 0.750000
O O18 0.619547 0.587070 0.570740
O O19 0.500000 0.527863 0.750000
O O20 0.619940 0.499978 0.320370
#
# Coordination Sequence:
#
# PCOD8116694 Si02
#       8
#     4   4   4   4   4   4   4   4
#     4   9  15  23  34  46  58  70  87 119 160 195
#     4  10  19  30  42  54  66  85 113 140 170 207
#     4  10  19  30  42  59  78  96 114 132 159 188
#     4   9  17  28  40  52  64  76  97 134 174 207
#     4  10  16  25  41  60  78  96 114 132 150 177
#     4   9  15  21  30  43  56  72  93 113 142 184
#     4   9  15  21  27  36  53  75  95 113 131 160
#     4  10  18  30  42  54  73  94 112 137 164 194
#
# _framework density 13.075761999999999
#
# number of rings (size 3 to 8) (size 9 to 14) (size 15 to 20)
#    0.000    2.500    0.000    6.000    0.000    6.000 
#    0.000    2.500    0.000    0.000    0.000    0.000 
#    0.000    0.000    0.000    0.000    0.000    0.000 
#
# Total GULP energy -396497.596309 kJ/mol
# GULP energy per Si atom -12390.549885 kJ/mol
# Density = 1.304600 g / cm^3
# Si number density = 13.075762 Si / 1000 Ang^3
#
#
#
# Elastic Constant Matrix: (Units=GPa)
#
#
# Indices 1 2 3 4 5 6 
#
# 1 56.6734 30.0605 56.0504 0.0000 5.5621 0.0000
# 2 30.0605 52.9394 32.1697 0.0000 -0.6091 0.0000
# 3 56.0504 32.1697 106.8562 0.0000 32.3706 0.0000
# 4 0.0000 0.0000 0.0000 -42.9742 0.0000 35.6700
# 5 5.5621 -0.6091 32.3706 0.0000 27.8051 0.0000
# 6 0.0000 0.0000 0.0000 35.6700 0.0000 -50.1326
#
#
#
# Elastic Compliance Matrix: (Units=1/GPa)
#
#
# Indices 1 2 3 4 5 6 
#
# 1 0.053035 -0.009410 -0.033538 0.000000 0.028229 0.000000
# 2 -0.009410 0.028481 -0.006794 0.000000 0.010416 0.000000
# 3 -0.033538 -0.006794 0.041723 0.000000 -0.042014 0.000000
# 4 0.000000 0.000000 0.000000 -0.056836 0.000000 -0.040439
# 5 0.028229 0.010416 -0.042014 0.000000 0.079459 0.000000
# 6 0.000000 0.000000 0.000000 -0.040439 0.000000 -0.048720
#
#
# Mechanical properties :
#
#
# Convention : Reuss Voigt Hill
#
# Bulk Modulus (GPa) = 42.09436 50.33669 46.21553
# Shear Modulus (GPa) = 24.44476 -6.51447 8.96515
#
# Velocity S-wave (km/s) = 4.32843 -2.23448 2.62130
# Velocity P-wave (km/s) = 7.56591 5.65000 6.67703
#
# Compressibility (1/GPa) = 0.02375615
#
# Stress axis : x y z
#
# Youngs Moduli (GPa) = 18.85559 35.11117 23.96750
#
# Poissons Ratio (x) = 0.33039 0.80381
# Poissons Ratio (y) = 0.17743 0.16283
# Poissons Ratio (z) = 0.63237 0.23854
#
# Static dielectric constant tensor:
#      x y z
#    x 2.393190 0.000000 0.288740 
#    y 0.000000 2.491120 0.000000 
#    z 0.288740 0.000000 2.743120 
# 
# 
# High freq. dielectric constant tensor:
#      x y z
#    x 1.459100 0.000000 0.044310 
#    y 0.000000 1.461600 0.000000 
#    z 0.044310 0.000000 1.510380 
# 
# From -- ./inp_files/6531.got.cif
#   From: 2010.06.25/outbox.cif.g09.slc.cpg/sg13_4_cif.got.tgz:6531.got - 2010.06.28 04:50:58.
