data_PCOD8116884
_publ_section_title
;
Structure prediction by ZEFSAII (Michael W. Deem and Ramdas Pophale) SiO2 
 PCOD8116884
Probable space group: P 2/C
;
_chemical_formula_sum "Si O2"
_cell_formula_units_Z 22
_cell_length_a 10.345705
_cell_length_b 12.395594
_cell_length_c 20.692074
_cell_angle_alpha 90.000000
_cell_angle_beta 25.924649
_cell_angle_gamma 90.000000
_cell_volume 1160.113359
_symmetry_space_group_name_H-M "P 2/C"
_symmetry_group_IT_number 13
_symmetry_cell_setting 'monoclinic'
loop_
_space_group_symop_operation_xyz
x,y,z
-x,y,1/2-z
-x,-y,-z
x,-y,1/2+z
loop_
_atom_site_type_symbol
_atom_site_label
_atom_site_fract_x
_atom_site_fract_y
_atom_site_fract_z
Si Si1 0.601447 0.600737 0.530656
Si Si2 0.000000 0.484930 0.250000
Si Si3 0.007999 0.764786 0.941031
Si Si4 0.291926 0.030203 0.903594
Si Si5 0.379554 0.799314 0.899289
Si Si6 0.720078 0.550756 0.093705
O O1 0.677607 0.726977 0.511282
O O2 0.579479 0.532273 0.606488
O O3 0.873017 0.560767 0.364170
O O4 0.275774 0.590801 0.645856
O O5 0.121418 0.772090 0.964119
O O6 0.295947 0.762998 0.767919
O O7 0.780291 0.861448 0.023790
O O8 0.817026 0.658731 0.012977
O O9 0.500000 0.055046 0.750000
O O10 0.392192 0.929770 0.904504
O O11 0.000000 0.000000 0.000000
O O12 0.500000 0.581000 0.250000
O O13 0.000000 0.500000 0.000000
#
# Coordination Sequence:
#
# PCOD8116884 Si02
#       6
#     4   2   4   4   4   4
#     4  11  22  39  59  80 110 151 193 236 288 327
#     4  10  24  42  56  76 108 154 210 240 262 338
#     4  10  19  31  49  85 125 148 174 212 282 366
#     4  10  17  31  48  76 121 154 175 206 269 360
#     4  10  18  32  54  78 111 151 180 225 280 333
#     4  12  22  33  55  89 122 146 177 232 296 356
#
# _framework density 18.963664999999999
#
# number of rings (size 3 to 8) (size 9 to 14) (size 15 to 20)
#    0.000    1.455    5.455    3.818    0.000    0.000 
#    0.000    0.000    0.000    0.000    0.000   21.636 
#    0.000    0.000    0.000    0.000    0.000    0.000 
#
# Total GULP energy -272575.423019 kJ/mol
# GULP energy per Si atom -12389.791955 kJ/mol
# Density = 1.892050 g / cm^3
# Si number density = 18.963665 Si / 1000 Ang^3
#
#
#
# Elastic Constant Matrix: (Units=GPa)
#
#
# Indices 1 2 3 4 5 6 
#
# 1 45.9317 21.5843 12.0404 0.0000 1.8949 0.0000
# 2 21.5843 135.3190 24.4095 0.0000 1.8989 0.0000
# 3 12.0404 24.4095 93.4722 0.0000 -3.3346 0.0000
# 4 0.0000 0.0000 0.0000 39.3997 0.0000 -48.2804
# 5 1.8949 1.8989 -3.3346 0.0000 22.4071 0.0000
# 6 0.0000 0.0000 0.0000 -48.2804 0.0000 250.4570
#
#
#
# Elastic Compliance Matrix: (Units=1/GPa)
#
#
# Indices 1 2 3 4 5 6 
#
# 1 0.024052 -0.003395 -0.002286 0.000000 -0.002087 0.000000
# 2 -0.003395 0.008255 -0.001742 0.000000 -0.000672 0.000000
# 3 -0.002286 -0.001742 0.011521 0.000000 0.002056 0.000000
# 4 0.000000 0.000000 0.000000 0.033231 0.000000 0.006406
# 5 -0.002087 -0.000672 0.002056 0.000000 0.045168 0.000000
# 6 0.000000 0.000000 0.000000 0.006406 0.000000 0.005228
#
#
# Mechanical properties :
#
#
# Convention : Reuss Voigt Hill
#
# Bulk Modulus (GPa) = 34.50447 43.42124 38.96285
# Shear Modulus (GPa) = 32.90294 76.89867 54.90080
#
# Velocity S-wave (km/s) = 4.16991 6.37484 5.38641
# Velocity P-wave (km/s) = 6.43574 8.78246 7.69904
#
# Compressibility (1/GPa) = 0.02898176
#
# Stress axis : x y z
#
# Youngs Moduli (GPa) = 41.57635 121.13609 86.79645
#
# Poissons Ratio (x) = 0.41123 0.19843
# Poissons Ratio (y) = 0.14114 0.15124
# Poissons Ratio (z) = 0.09505 0.21107
#
# Static dielectric constant tensor:
#      x y z
#    x 4.056350 0.000000 -0.796000 
#    y 0.000000 3.600220 0.000000 
#    z -0.796000 0.000000 3.946610 
# 
# 
# High freq. dielectric constant tensor:
#      x y z
#    x 1.679500 0.000000 -0.012960 
#    y 0.000000 1.748140 0.000000 
#    z -0.012960 0.000000 1.754930 
# 
# From -- ./inp_files/86570.got.cif
#   From: 2010.06.25/outbox.cif.g09.slc.cpg/sg13_44_cif.got.tgz:86570.got - 2010.06.28 04:50:58.
