data_PCOD8116228
_publ_section_title
;
Structure prediction by ZEFSAII (Michael W. Deem and Ramdas Pophale) SiO2 
 PCOD8116228
Probable space group: C 2/M
;
_chemical_formula_sum "Si O2"
_cell_formula_units_Z 24
_cell_length_a 21.000000
_cell_length_b 18.000000
_cell_length_c 21.000000
_cell_angle_alpha 90.000000
_cell_angle_beta 20.000000
_cell_angle_gamma 90.000000
_cell_volume 2714.955898
_symmetry_space_group_name_H-M "C 2/M"
_symmetry_group_IT_number 12
_symmetry_cell_setting 'monoclinic'
loop_
_space_group_symop_operation_xyz
x,y,z
-x,y,-z
-x,-y,-z
x,-y,z
1/2+x,1/2+y,z
1/2-x,1/2+y,-z
1/2-x,1/2-y,-z
1/2+x,1/2-y,z
loop_
_atom_site_type_symbol
_atom_site_label
_atom_site_fract_x
_atom_site_fract_y
_atom_site_fract_z
Si Si1 0.295314 0.082642 0.840014
Si Si2 0.791195 0.416371 0.993131
Si Si3 0.465406 0.317309 0.105666
Si Si4 0.084727 0.703327 0.740023
Si Si5 0.911154 0.161729 0.348481
Si Si6 0.708920 0.086038 0.420225
O O1 0.329864 0.085348 0.882215
O O2 0.488896 0.098969 0.622637
O O3 0.222092 0.000000 0.889683
O O4 0.153418 0.146860 0.955816
O O5 0.812412 0.500000 0.999743
O O6 0.944814 0.364748 0.881391
O O7 0.585941 0.387899 0.203947
O O8 0.409646 0.243433 0.196704
O O9 0.299573 0.376908 0.272083
O O10 0.500000 0.297015 0.000000
O O11 0.016571 0.759812 0.748328
O O12 0.289224 0.674101 0.526895
O O13 0.789493 0.121950 0.408608
O O14 0.762737 0.000000 0.370650
#
# Coordination Sequence:
#
# PCOD8116228 Si02
#       6
#     8   8   8   8   8   8
#     4  10  20  33  53  80 112 142 172 216 265 316
#     4  11  20  32  55  85 110 135 167 217 280 328
#     4  11  24  38  53  73 106 152 191 215 249 306
#     4  10  21  34  53  78 109 137 178 221 269 311
#     4  10  19  31  53  82 110 138 170 216 273 324
#     4  10  19  33  53  80 113 142 172 215 264 317
#
# _framework density 8.8399230000000006
#
# number of rings (size 3 to 8) (size 9 to 14) (size 15 to 20)
#    0.000    1.667    5.000    1.500    0.000    2.667 
#    0.000    1.667    0.000    0.500    0.000    1.167 
#    0.000    0.000    0.000    0.000    0.000    0.000 
#
# Total GULP energy -297590.174424 kJ/mol
# GULP energy per Si atom -12399.590601 kJ/mol
# Density = 0.881980 g / cm^3
# Si number density = 8.839923 Si / 1000 Ang^3
#
#
#
# Elastic Constant Matrix: (Units=GPa)
#
#
# Indices 1 2 3 4 5 6 
#
# 1 42.4273 22.9267 30.2278 0.0217 25.1549 -0.0152
# 2 22.9267 100.7507 43.5432 0.0298 8.7145 -0.0259
# 3 30.2278 43.5432 111.7597 0.0067 20.8161 -0.0163
# 4 0.0217 0.0298 0.0067 24.5100 -0.0175 -0.4270
# 5 25.1549 8.7145 20.8161 -0.0175 25.7199 0.0110
# 6 -0.0152 -0.0259 -0.0163 -0.4270 0.0110 16.5292
#
#
#
# Elastic Compliance Matrix: (Units=1/GPa)
#
#
# Indices 1 2 3 4 5 6 
#
# 1 0.064703 -0.008195 -0.003577 -0.000086 -0.057610 0.000079
# 2 -0.008195 0.012975 -0.004136 -0.000002 0.006966 0.000004
# 3 -0.003577 -0.004136 0.012498 0.000001 -0.005215 0.000006
# 4 -0.000086 -0.000002 0.000001 0.040818 0.000111 0.001054
# 5 -0.057610 0.006966 -0.005215 0.000111 0.097086 -0.000109
# 6 0.000079 0.000004 0.000006 0.001054 -0.000109 0.060526
#
#
# Mechanical properties :
#
#
# Convention : Reuss Voigt Hill
#
# Bulk Modulus (GPa) = 17.13493 49.81477 33.47485
# Shear Modulus (GPa) = 14.71117 23.90114 19.30615
#
# Velocity S-wave (km/s) = 2.88772 3.68079 3.30811
# Velocity P-wave (km/s) = 4.56414 6.80452 5.79365
#
# Compressibility (1/GPa) = 0.05836032
#
# Stress axis : x y z
#
# Youngs Moduli (GPa) = 15.45514 77.06859 80.01082
#
# Poissons Ratio (x) = 0.63155 0.28622
# Poissons Ratio (y) = 0.12665 0.33096
# Poissons Ratio (z) = 0.05529 0.31879
#
# Static dielectric constant tensor:
#      x y z
#    x 2.796960 0.000040 0.170490 
#    y 0.000040 3.533430 0.000260 
#    z 0.170490 0.000260 3.558030 
# 
# 
# High freq. dielectric constant tensor:
#      x y z
#    x 1.620140 0.000000 0.007150 
#    y 0.000000 1.690220 0.000020 
#    z 0.007150 0.000020 1.709340 
# 
# From -- ./inp_files/285370.got.cif
#   From: 2010.06.25/outbox.ucp.g09.slc.cvg/sg12_143_cif.got.tgz:285370.got - 2010.06.28 13:50:54.
