data_PCOD8116116
_publ_section_title
;
Structure prediction by ZEFSAII (Michael W. Deem and Ramdas Pophale) SiO2 
 PCOD8116116
Probable space group: C 2/M
;
_chemical_formula_sum "Si O2"
_cell_formula_units_Z 48
_cell_length_a 24.435765
_cell_length_b 9.451768
_cell_length_c 14.166272
_cell_angle_alpha 90.000000
_cell_angle_beta 111.138972
_cell_angle_gamma 90.000000
_cell_volume 3051.690472
_symmetry_space_group_name_H-M "C 2/M"
_symmetry_group_IT_number 12
_symmetry_cell_setting 'monoclinic'
loop_
_space_group_symop_operation_xyz
x,y,z
-x,y,-z
-x,-y,-z
x,-y,z
1/2+x,1/2+y,z
1/2-x,1/2+y,-z
1/2-x,1/2-y,-z
1/2+x,1/2-y,z
loop_
_atom_site_type_symbol
_atom_site_label
_atom_site_fract_x
_atom_site_fract_y
_atom_site_fract_z
Si Si1 0.491086 0.664011 0.784284
Si Si2 0.276412 0.336852 0.649205
Si Si3 0.556536 0.160199 0.969218
Si Si4 0.880555 0.162129 0.846837
Si Si5 0.327325 0.665142 0.478084
Si Si6 0.458928 0.668363 0.557603
O O1 0.509901 0.500000 0.799884
O O2 0.542348 0.756093 0.864292
O O3 0.429272 0.687338 0.797276
O O4 0.484285 0.720595 0.673449
O O5 0.258060 0.500000 0.638471
O O6 0.317506 0.299737 0.763596
O O7 0.312014 0.300021 0.576655
O O8 0.217299 0.245125 0.619567
O O9 0.575277 0.000000 0.956787
O O10 0.500000 0.163851 0.000000
O O11 0.609566 0.237622 0.056789
O O12 0.882870 0.000000 0.882734
O O13 0.322252 0.500000 0.452800
O O14 0.392778 0.723282 0.499889
O O15 0.500000 0.728568 0.500000
O O16 0.457742 0.500000 0.557786
#
# Coordination Sequence:
#
# PCOD8116116 Si02
#       6
#     8   8   8   8   8   8
#     4   9  15  26  42  59  82 112 143 173 206 246
#     4   9  16  26  41  61  86 114 141 171 209 253
#     4   9  17  26  37  58  86 111 137 170 211 256
#     4   9  15  25  41  60  83 112 142 169 204 253
#     4   9  16  27  41  61  86 112 143 175 209 248
#     4   9  16  27  45  66  86 112 148 183 208 239
#
# _framework density 15.728986000000001
#
# number of rings (size 3 to 8) (size 9 to 14) (size 15 to 20)
#    0.000    3.000    1.667    0.500    0.000    2.667 
#    0.000    0.833    0.000    2.000    0.000    1.167 
#    0.000    0.000    0.000    0.000    0.000    0.000 
#
# Total GULP energy -297549.898032 kJ/mol
# GULP energy per Si atom -12397.912418 kJ/mol
# Density = 1.569319 g / cm^3
# Si number density = 15.728986 Si / 1000 Ang^3
#
#
#
# Elastic Constant Matrix: (Units=GPa)
#
#
# Indices 1 2 3 4 5 6 
#
# 1 75.8677 35.6328 56.4870 0.0000 14.3094 0.0000
# 2 35.6328 71.1293 61.3879 0.0000 15.7753 0.0000
# 3 56.4870 61.3879 129.0686 0.0000 24.5058 0.0000
# 4 0.0000 0.0000 0.0000 23.5335 0.0000 9.5758
# 5 14.3094 15.7753 24.5058 0.0000 22.0173 0.0000
# 6 0.0000 0.0000 0.0000 9.5758 0.0000 14.9132
#
#
#
# Elastic Compliance Matrix: (Units=1/GPa)
#
#
# Indices 1 2 3 4 5 6 
#
# 1 0.020460 -0.003955 -0.006450 0.000000 -0.003285 0.000000
# 2 -0.003955 0.025182 -0.009267 0.000000 -0.005158 0.000000
# 3 -0.006450 -0.009267 0.016384 0.000000 -0.007404 0.000000
# 4 0.000000 0.000000 0.000000 0.057521 0.000000 -0.036935
# 5 -0.003285 -0.005158 -0.007404 0.000000 0.059491 0.000000
# 6 0.000000 0.000000 0.000000 -0.036935 0.000000 0.090771
#
#
# Mechanical properties :
#
#
# Convention : Reuss Voigt Hill
#
# Bulk Modulus (GPa) = 44.08550 64.78680 54.43615
# Shear Modulus (GPa) = 15.78721 20.26330 18.02525
#
# Velocity S-wave (km/s) = 3.17156 3.59315 3.38892
# Velocity P-wave (km/s) = 6.44211 7.64808 7.07085
#
# Compressibility (1/GPa) = 0.02268319
#
# Stress axis : x y z
#
# Youngs Moduli (GPa) = 48.87618 39.71122 61.03555
#
# Poissons Ratio (x) = 0.15704 0.39366
# Poissons Ratio (y) = 0.19329 0.56561
# Poissons Ratio (z) = 0.31523 0.36800
#
# Static dielectric constant tensor:
#      x y z
#    x 2.764550 0.000000 0.198010 
#    y 0.000000 2.905700 0.000000 
#    z 0.198010 0.000000 3.090620 
# 
# 
# High freq. dielectric constant tensor:
#      x y z
#    x 1.559290 0.000000 0.026100 
#    y 0.000000 1.588700 0.000000 
#    z 0.026100 0.000000 1.604370 
# 
# From -- ./inp_files/179331.got.cif
#   From: 2010.06.25/outbox.cif.g09.slc.cpg/sg12_90_cif.got.tgz:179331.got - 2010.06.28 00:19:55.
