data_PCOD8116959
_publ_section_title
;
Structure prediction by ZEFSAII (Michael W. Deem and Ramdas Pophale) SiO2 
 PCOD8116959
Probable space group: P 2/C
;
_chemical_formula_sum "Si O2"
_cell_formula_units_Z 22
_cell_length_a 12.537786
_cell_length_b 8.121898
_cell_length_c 16.159876
_cell_angle_alpha 90.000000
_cell_angle_beta 133.720946
_cell_angle_gamma 90.000000
_cell_volume 1189.277472
_symmetry_space_group_name_H-M "P 2/C"
_symmetry_group_IT_number 13
_symmetry_cell_setting 'monoclinic'
loop_
_space_group_symop_operation_xyz
x,y,z
-x,y,1/2-z
-x,-y,-z
x,-y,1/2+z
loop_
_atom_site_type_symbol
_atom_site_label
_atom_site_fract_x
_atom_site_fract_y
_atom_site_fract_z
Si Si1 0.379721 0.643597 0.447374
Si Si2 0.373203 0.777680 0.822570
Si Si3 0.362262 0.146307 0.781109
Si Si4 0.667385 0.727204 0.405281
Si Si5 0.500000 0.428465 0.250000
Si Si6 0.827631 0.374242 0.144051
O O1 0.500000 0.500000 0.500000
O O2 0.460955 0.778487 0.548785
O O3 0.324044 0.729910 0.334244
O O4 0.232151 0.559727 0.405284
O O5 0.386539 0.680906 0.742914
O O6 0.252632 0.695268 0.817563
O O7 0.314800 0.961105 0.775632
O O8 0.273081 0.213073 0.652345
O O9 0.538147 0.146795 0.861246
O O10 0.596985 0.543521 0.362777
O O11 0.792468 0.733536 0.542918
O O12 0.000000 0.374969 0.250000
#
# Coordination Sequence:
#
# PCOD8116959 Si02
#       6
#     4   4   4   4   2   4
#     4  10  17  35  56  79 107 145 196 231 268 335
#     4  11  20  35  59  89 112 143 191 239 289 331
#     4  10  19  32  59  87 112 138 189 250 285 317
#     4  10  18  34  55  86 112 144 187 237 279 330
#     4  10  18  34  60  86 108 140 192 244 272 324
#     4  11  22  38  57  81 117 158 189 226 284 347
#
# _framework density 18.498626999999999
#
# number of rings (size 3 to 8) (size 9 to 14) (size 15 to 20)
#    0.000    1.818    5.455    4.909    0.000    0.000 
#    0.000    5.455    0.000    0.000    0.000    0.000 
#    0.000    0.000    0.000    0.000    0.000    0.000 
#
# Total GULP energy -272644.208999 kJ/mol
# GULP energy per Si atom -12392.918591 kJ/mol
# Density = 1.845652 g / cm^3
# Si number density = 18.498627 Si / 1000 Ang^3
#
#
#
# Elastic Constant Matrix: (Units=GPa)
#
#
# Indices 1 2 3 4 5 6 
#
# 1 80.1065 32.9509 55.1292 0.0000 -3.0462 0.0000
# 2 32.9509 91.2411 19.8448 0.0000 -3.9441 0.0000
# 3 55.1292 19.8448 102.2210 0.0000 4.7838 0.0000
# 4 0.0000 0.0000 0.0000 16.0473 0.0000 -7.5383
# 5 -3.0462 -3.9441 4.7838 0.0000 27.7096 0.0000
# 6 0.0000 0.0000 0.0000 -7.5383 0.0000 22.2631
#
#
#
# Elastic Compliance Matrix: (Units=1/GPa)
#
#
# Indices 1 2 3 4 5 6 
#
# 1 0.022725 -0.005581 -0.011344 0.000000 0.003662 0.000000
# 2 -0.005581 0.012928 0.000447 0.000000 0.001149 0.000000
# 3 -0.011344 0.000447 0.015999 0.000000 -0.003946 0.000000
# 4 0.000000 0.000000 0.000000 0.074102 0.000000 0.025091
# 5 0.003662 0.001149 -0.003946 0.000000 0.037336 0.000000
# 6 0.000000 0.000000 0.000000 0.025091 0.000000 0.053413
#
#
# Mechanical properties :
#
#
# Convention : Reuss Voigt Hill
#
# Bulk Modulus (GPa) = 53.49166 54.37981 53.93573
# Shear Modulus (GPa) = 19.55467 24.24692 21.90079
#
# Velocity S-wave (km/s) = 3.25482 3.62434 3.44454
# Velocity P-wave (km/s) = 6.56540 6.85383 6.71116
#
# Compressibility (1/GPa) = 0.01869450
#
# Stress axis : x y z
#
# Youngs Moduli (GPa) = 44.00353 77.35006 62.50531
#
# Poissons Ratio (x) = 0.43173 0.70906
# Poissons Ratio (y) = 0.24561 -0.02791
# Poissons Ratio (z) = 0.49917 -0.03454
#
# Static dielectric constant tensor:
#      x y z
#    x 3.291180 0.000000 -0.380600 
#    y 0.000000 3.423460 0.000000 
#    z -0.380600 0.000000 3.487870 
# 
# 
# High freq. dielectric constant tensor:
#      x y z
#    x 1.687740 0.000000 -0.045100 
#    y 0.000000 1.714180 0.000000 
#    z -0.045100 0.000000 1.702550 
# 
# From -- ./inp_files/67805.got.cif
#   From: 2010.06.25/outbox.cif.g09.slc.cpg/sg13_34_cif.got.tgz:67805.got - 2010.06.28 04:50:58.
