data_PCOD8116541
_publ_section_title
;
Structure prediction by ZEFSAII (Michael W. Deem and Ramdas Pophale) SiO2 
 PCOD8116541
Probable space group: C 2/M
;
_chemical_formula_sum "Si O2"
_cell_formula_units_Z 28
_cell_length_a 21.000000
_cell_length_b 18.000000
_cell_length_c 21.000000
_cell_angle_alpha 90.000000
_cell_angle_beta 20.000000
_cell_angle_gamma 90.000000
_cell_volume 2714.955898
_symmetry_space_group_name_H-M "C 2/M"
_symmetry_group_IT_number 12
_symmetry_cell_setting 'monoclinic'
loop_
_space_group_symop_operation_xyz
x,y,z
-x,y,-z
-x,-y,-z
x,-y,z
1/2+x,1/2+y,z
1/2-x,1/2+y,-z
1/2-x,1/2-y,-z
1/2+x,1/2-y,z
loop_
_atom_site_type_symbol
_atom_site_label
_atom_site_fract_x
_atom_site_fract_y
_atom_site_fract_z
Si Si1 0.476210 0.184410 0.645321
Si Si2 0.230538 0.085083 0.115355
Si Si3 0.383967 0.666310 0.218142
Si Si4 0.775351 0.169655 0.006037
Si Si5 0.793217 0.417988 0.722244
Si Si6 0.052023 0.668934 0.879309
Si Si7 0.454993 0.651088 0.467853
O O1 0.687155 0.157449 0.439588
O O2 0.311515 0.143587 0.760044
O O3 0.473663 0.270695 0.627880
O O4 0.416561 0.164691 0.773449
O O5 0.193144 0.107167 0.077309
O O6 0.053265 0.090885 0.329653
O O7 0.299412 0.000000 0.052793
O O8 0.385585 0.143071 0.991639
O O9 0.546775 0.656694 0.115879
O O10 0.369016 0.604580 0.176116
O O11 0.412636 0.743575 0.155002
O O12 0.750000 0.250000 0.000000
O O13 0.742226 0.500000 0.796389
O O14 0.000000 0.419385 0.500000
O O15 0.235320 0.633639 0.674312
O O16 0.000000 0.643169 0.000000
O O17 0.500000 0.645942 0.500000
#
# Coordination Sequence:
#
# PCOD8116541 Si02
#       7
#     8   8   8   8   8   8   8
#     4  10  21  39  68  98 129 168 218 261 320 389
#     4  12  28  46  62  94 134 171 218 274 329 389
#     4  10  22  37  68  98 128 170 217 263 321 387
#     4  12  24  42  65  89 127 175 219 264 311 383
#     4   9  19  37  62 100 139 166 204 267 327 385
#     4  11  22  40  69  97 125 165 215 271 331 389
#     4  11  21  40  69  97 127 165 214 268 330 389
#
# _framework density 10.313243
#
# number of rings (size 3 to 8) (size 9 to 14) (size 15 to 20)
#    0.000    1.286    4.286    2.143    2.000    4.000 
#    0.000    0.714    0.000    0.000    0.000    0.000 
#    0.000    0.000    0.000    0.000    0.000    0.000 
#
# Total GULP energy -346922.491783 kJ/mol
# GULP energy per Si atom -12390.088992 kJ/mol
# Density = 1.028977 g / cm^3
# Si number density = 10.313243 Si / 1000 Ang^3
#
#
#
# Elastic Constant Matrix: (Units=GPa)
#
#
# Indices 1 2 3 4 5 6 
#
# 1 97.4076 8.8164 63.9202 -0.0092 4.9709 0.0024
# 2 8.8164 65.8443 36.2079 -0.0452 2.2409 -0.0108
# 3 63.9202 36.2079 116.3868 -0.0298 12.5976 -0.0166
# 4 -0.0092 -0.0452 -0.0298 20.3746 -0.0052 0.0699
# 5 4.9709 2.2409 12.5976 -0.0052 48.6097 0.0210
# 6 0.0024 -0.0108 -0.0166 0.0699 0.0210 12.7654
#
#
#
# Elastic Compliance Matrix: (Units=1/GPa)
#
#
# Indices 1 2 3 4 5 6 
#
# 1 0.016682 0.003408 -0.010309 0.000000 0.000809 -0.000015
# 2 0.003408 0.019038 -0.007883 0.000032 0.000817 0.000004
# 3 -0.010309 -0.007883 0.017031 0.000002 -0.002996 0.000022
# 4 0.000000 0.000032 0.000002 0.049082 0.000003 -0.000269
# 5 0.000809 0.000817 -0.002996 0.000003 0.021228 -0.000038
# 6 -0.000015 0.000004 0.000022 -0.000269 -0.000038 0.078338
#
#
# Mechanical properties :
#
#
# Convention : Reuss Voigt Hill
#
# Bulk Modulus (GPa) = 43.13721 55.28087 49.20904
# Shear Modulus (GPa) = 20.94733 27.72955 24.33844
#
# Velocity S-wave (km/s) = 3.19023 3.67054 3.43878
# Velocity P-wave (km/s) = 5.87614 6.69499 6.29889
#
# Compressibility (1/GPa) = 0.02318184
#
# Stress axis : x y z
#
# Youngs Moduli (GPa) = 59.94647 52.52646 58.71782
#
# Poissons Ratio (x) = -0.17901 0.60534
# Poissons Ratio (y) = -0.20430 0.46286
# Poissons Ratio (z) = 0.61801 0.41406
#
# Static dielectric constant tensor:
#      x y z
#    x 4.129310 -0.000100 0.307600 
#    y -0.000100 3.685940 0.000320 
#    z 0.307600 0.000320 4.360230 
# 
# 
# High freq. dielectric constant tensor:
#      x y z
#    x 1.807250 -0.000010 0.007340 
#    y -0.000010 1.789810 0.000030 
#    z 0.007340 0.000030 1.834240 
# 
# From -- ./inp_files/322643.got.cif
#   From: 2010.06.25/outbox.ucp.g09.slc.cvg/sg12_162_cif.got.tgz:322643.got - 2010.06.28 13:50:54.
