data_PCOD8116525
_publ_section_title
;
Structure prediction by ZEFSAII (Michael W. Deem and Ramdas Pophale) SiO2 
 PCOD8116525
Probable space group: C 2/M
;
_chemical_formula_sum "Si O2"
_cell_formula_units_Z 32
_cell_length_a 18.000000
_cell_length_b 9.000000
_cell_length_c 30.000000
_cell_angle_alpha 90.000000
_cell_angle_beta 140.000000
_cell_angle_gamma 90.000000
_cell_volume 3123.947783
_symmetry_space_group_name_H-M "C 2/M"
_symmetry_group_IT_number 12
_symmetry_cell_setting 'monoclinic'
loop_
_space_group_symop_operation_xyz
x,y,z
-x,y,-z
-x,-y,-z
x,-y,z
1/2+x,1/2+y,z
1/2-x,1/2+y,-z
1/2-x,1/2-y,-z
1/2+x,1/2-y,z
loop_
_atom_site_type_symbol
_atom_site_label
_atom_site_fract_x
_atom_site_fract_y
_atom_site_fract_z
Si Si1 0.030281 0.667780 0.838115
Si Si2 0.783812 0.174422 0.848323
Si Si3 0.983610 0.824728 0.422108
Si Si4 0.248160 0.674451 0.075286
Si Si5 0.683929 0.324069 0.576563
Si Si6 0.900751 0.826853 0.289357
Si Si7 0.998233 0.333822 0.075318
Si Si8 0.417786 0.672965 0.704509
O O1 0.059339 0.500000 0.835677
O O2 0.144707 0.761338 0.902914
O O3 0.968440 0.664667 0.857430
O O4 0.947021 0.743851 0.763867
O O5 0.731560 0.247539 0.868150
O O6 0.718039 0.239748 0.774896
O O7 0.918468 0.217213 0.910141
O O8 0.768220 0.000000 0.842592
O O9 0.106615 0.770397 0.498689
O O10 0.880706 0.777377 0.407711
O O11 0.958638 0.761305 0.361187
O O12 0.990307 0.000000 0.423173
O O13 0.261558 0.500000 0.088119
O O14 0.131507 0.717723 0.995972
O O15 0.707416 0.500000 0.586018
O O16 0.802398 0.235522 0.629294
O O17 0.983918 0.796703 0.286278
O O18 0.871503 0.000000 0.281814
O O19 0.018238 0.500000 0.064853
O O20 0.403577 0.500000 0.708719
#
# Coordination Sequence:
#
# PCOD8116525 Si02
#       8
#     8   8   8   8   8   8   8   8
#     4  11  23  40  62  88 118 155 199 246 295 351
#     4  12  25  39  59  89 121 155 200 248 292 346
#     4   8  17  36  62  88 113 151 197 239 292 347
#     4  11  22  41  65  87 117 155 194 243 301 359
#     4   9  18  36  62  89 116 148 194 247 289 343
#     4  10  21  39  60  81 115 161 201 239 290 353
#     4  10  24  42  62  87 116 155 198 242 302 361
#     4  11  23  37  56  84 120 160 196 238 293 348
#
# _framework density 10.243449
#
# number of rings (size 3 to 8) (size 9 to 14) (size 15 to 20)
#    0.000    1.750    1.250    3.750    1.750    4.500 
#    0.000    1.875    0.000    0.000    0.000    0.000 
#    0.000    0.000    0.000    0.000    0.000    0.000 
#
# Total GULP energy -396770.871899 kJ/mol
# GULP energy per Si atom -12399.089747 kJ/mol
# Density = 1.022013 g / cm^3
# Si number density = 10.243449 Si / 1000 Ang^3
#
#
#
# Elastic Constant Matrix: (Units=GPa)
#
#
# Indices 1 2 3 4 5 6 
#
# 1 33.4879 27.6749 20.0774 0.0000 -1.6888 0.0000
# 2 27.6749 92.4656 46.3029 0.0000 5.0552 -0.0001
# 3 20.0774 46.3029 123.1475 0.0000 -3.2060 0.0000
# 4 0.0000 0.0000 0.0000 34.6268 0.0000 6.6719
# 5 -1.6888 5.0552 -3.2060 0.0000 38.9608 0.0000
# 6 0.0000 -0.0001 0.0000 6.6719 0.0000 21.8469
#
#
#
# Elastic Compliance Matrix: (Units=1/GPa)
#
#
# Indices 1 2 3 4 5 6 
#
# 1 0.040639 -0.011149 -0.002355 0.000000 0.003014 0.000000
# 2 -0.011149 0.016563 -0.004488 0.000000 -0.003002 0.000000
# 3 -0.002355 -0.004488 0.010226 0.000000 0.001322 0.000000
# 4 0.000000 0.000000 0.000000 0.030685 0.000000 -0.009371
# 5 0.003014 -0.003002 0.001322 0.000000 0.026296 0.000000
# 6 0.000000 0.000000 0.000000 -0.009371 0.000000 0.048635
#
#
# Mechanical properties :
#
#
# Convention : Reuss Voigt Hill
#
# Bulk Modulus (GPa) = 31.80225 48.57903 40.19064
# Shear Modulus (GPa) = 22.77802 29.42328 26.10065
#
# Velocity S-wave (km/s) = 3.33803 3.79383 3.57321
# Velocity P-wave (km/s) = 5.51485 6.55398 6.05674
#
# Compressibility (1/GPa) = 0.03144432
#
# Stress axis : x y z
#
# Youngs Moduli (GPa) = 24.60690 60.37478 97.78706
#
# Poissons Ratio (x) = 0.67309 0.23032
# Poissons Ratio (y) = 0.27433 0.43889
# Poissons Ratio (z) = 0.05796 0.27098
#
# Static dielectric constant tensor:
#      x y z
#    x 3.621580 0.000000 -0.220570 
#    y 0.000000 3.547260 0.000000 
#    z -0.220570 0.000000 4.047750 
# 
# 
# High freq. dielectric constant tensor:
#      x y z
#    x 1.788100 0.000000 -0.004940 
#    y 0.000000 1.783270 0.000000 
#    z -0.004940 0.000000 1.820740 
# 
# From -- ./inp_files/378257.got.cif
#   From: 2010.06.25/outbox.ucp.g09.slc.cvg/sg12_190_cif.got.tgz:378257.got - 2010.06.28 13:50:54.
