data_PCOD8116272
_publ_section_title
;
Structure prediction by ZEFSAII (Michael W. Deem and Ramdas Pophale) SiO2 
 PCOD8116272
Probable space group: C 2/M
;
_chemical_formula_sum "Si O2"
_cell_formula_units_Z 32
_cell_length_a 30.000000
_cell_length_b 9.000000
_cell_length_c 24.000000
_cell_angle_alpha 90.000000
_cell_angle_beta 30.000000
_cell_angle_gamma 90.000000
_cell_volume 3240.000000
_symmetry_space_group_name_H-M "C 2/M"
_symmetry_group_IT_number 12
_symmetry_cell_setting 'monoclinic'
loop_
_space_group_symop_operation_xyz
x,y,z
-x,y,-z
-x,-y,-z
x,-y,z
1/2+x,1/2+y,z
1/2-x,1/2+y,-z
1/2-x,1/2-y,-z
1/2+x,1/2-y,z
loop_
_atom_site_type_symbol
_atom_site_label
_atom_site_fract_x
_atom_site_fract_y
_atom_site_fract_z
Si Si1 0.261388 0.823253 0.302466
Si Si2 0.409654 0.675685 0.215636
Si Si3 0.594581 0.173835 0.040548
Si Si4 0.270390 0.675007 0.788134
Si Si5 0.581746 0.676209 0.284873
Si Si6 0.604436 0.175026 0.536796
Si Si7 0.603675 0.660290 0.138068
Si Si8 0.104919 0.838666 0.644843
O O1 0.351851 0.750386 0.229018
O O2 0.234880 0.766196 0.269303
O O3 0.178489 0.771760 0.427399
O O4 0.274097 0.000000 0.290108
O O5 0.414506 0.500000 0.199409
O O6 0.509442 0.740546 0.108256
O O7 0.365816 0.708863 0.324091
O O8 0.627528 0.213820 0.067505
O O9 0.573695 0.000000 0.060668
O O10 0.676694 0.224856 0.914413
O O11 0.280538 0.500000 0.778794
O O12 0.354378 0.735539 0.734091
O O13 0.560507 0.500000 0.313335
O O14 0.490134 0.768963 0.384612
O O15 0.629445 0.708210 0.173408
O O16 0.624845 0.206913 0.579935
O O17 0.614367 0.000000 0.515049
O O18 0.649458 0.500000 0.074942
O O19 0.499380 0.635363 0.245113
O O20 0.149357 0.000000 0.581606
#
# Coordination Sequence:
#
# PCOD8116272 Si02
#       8
#     8   8   8   8   8   8   8   8
#     4  11  23  40  59  78 104 144 193 232 267 319
#     4  10  21  38  58  83 114 144 177 222 276 327
#     4  10  19  34  57  84 113 144 181 225 271 320
#     4   9  21  39  58  80 106 144 194 234 261 311
#     4   9  18  37  60  80 109 148 185 221 266 322
#     4  11  22  36  56  85 116 141 174 225 280 327
#     4   8  15  29  52  82 113 143 176 217 268 325
#     4   8  16  33  56  80 109 145 180 213 260 329
#
# _framework density 9.8765429999999999
#
# number of rings (size 3 to 8) (size 9 to 14) (size 15 to 20)
#    0.000    2.500    0.000    3.750    0.000    7.000 
#    0.000   10.000    0.000    0.000    0.000    0.000 
#    0.000    0.000    0.000    0.000    0.000    0.000 
#
# Total GULP energy -396450.897478 kJ/mol
# GULP energy per Si atom -12389.090546 kJ/mol
# Density = 0.985406 g / cm^3
# Si number density = 9.876543 Si / 1000 Ang^3
#
#
#
# Elastic Constant Matrix: (Units=GPa)
#
#
# Indices 1 2 3 4 5 6 
#
# 1 79.5989 14.1851 -14.2604 -0.0199 -22.5456 -0.0050
# 2 14.1851 73.4180 8.4254 -0.0192 -9.2156 0.0124
# 3 -14.2604 8.4254 26.7036 -0.0153 -12.9239 0.0268
# 4 -0.0199 -0.0192 -0.0153 19.0480 0.0097 1.9600
# 5 -22.5456 -9.2156 -12.9239 0.0097 20.0567 -0.0232
# 6 -0.0050 0.0124 0.0268 1.9600 -0.0232 24.9550
#
#
#
# Elastic Compliance Matrix: (Units=1/GPa)
#
#
# Indices 1 2 3 4 5 6 
#
# 1 0.120637 -0.013532 0.190824 0.000132 0.252351 0.000050
# 2 -0.013532 0.016043 -0.023370 -0.000004 -0.022899 -0.000006
# 3 0.190824 -0.023370 0.356532 0.000237 0.433504 0.000051
# 4 0.000132 -0.000004 0.000237 0.052927 0.000269 -0.004157
# 5 0.252351 -0.022899 0.433504 0.000269 0.602340 0.000135
# 6 0.000050 -0.000006 0.000051 -0.004157 0.000135 0.040399
#
#
# Mechanical properties :
#
#
# Convention : Reuss Voigt Hill
#
# Bulk Modulus (GPa) = 1.24835 21.82454 11.53644
# Shear Modulus (GPa) = 4.35521 24.23662 14.29592
#
# Velocity S-wave (km/s) = 1.48648 3.50663 2.69314
# Velocity P-wave (km/s) = 1.89196 5.24098 3.94001
#
# Compressibility (1/GPa) = 0.80105666
#
# Stress axis : x y z
#
# Youngs Moduli (GPa) = 8.28931 62.33334 2.80480
#
# Poissons Ratio (x) = 0.84347 -0.53522
# Poissons Ratio (y) = 0.11217 0.06555
# Poissons Ratio (z) = -1.58180 1.45675
#
# Static dielectric constant tensor:
#      x y z
#    x 4.330040 -0.000060 0.192540 
#    y -0.000060 3.584980 0.000040 
#    z 0.192540 0.000040 3.437090 
# 
# 
# High freq. dielectric constant tensor:
#      x y z
#    x 1.791700 0.000000 -0.003490 
#    y 0.000000 1.763750 0.000000 
#    z -0.003490 0.000000 1.745960 
# 
# From -- ./inp_files/353352.got.cif
#   From: 2010.06.25/outbox.ucp.g09.slc.cvg/sg12_177_cif.got.tgz:353352.got - 2010.06.28 13:50:54.
