data_PCOD8116911
_publ_section_title
;
Structure prediction by ZEFSAII (Michael W. Deem and Ramdas Pophale) SiO2 
 PCOD8116911
Probable space group: P 2/C
;
_chemical_formula_sum "Si O2"
_cell_formula_units_Z 26
_cell_length_a 18.698897
_cell_length_b 9.115454
_cell_length_c 17.010662
_cell_angle_alpha 90.000000
_cell_angle_beta 149.287069
_cell_angle_gamma 90.000000
_cell_volume 1480.855896
_symmetry_space_group_name_H-M "P 2/C"
_symmetry_group_IT_number 13
_symmetry_cell_setting 'monoclinic'
loop_
_space_group_symop_operation_xyz
x,y,z
-x,y,1/2-z
-x,-y,-z
x,-y,1/2+z
loop_
_atom_site_type_symbol
_atom_site_label
_atom_site_fract_x
_atom_site_fract_y
_atom_site_fract_z
Si Si1 0.368444 0.306348 0.845930
Si Si2 0.851527 0.904157 0.281048
Si Si3 0.500000 0.306410 0.250000
Si Si4 0.838390 0.873742 0.900406
Si Si5 0.625189 0.077716 0.775265
Si Si6 0.612951 0.372833 0.192018
Si Si7 0.349156 0.048586 0.042956
O O1 0.239037 0.224241 0.764455
O O2 0.399115 0.232633 0.790213
O O3 0.335405 0.474883 0.796510
O O4 0.499727 0.294537 0.028759
O O5 0.007920 0.841954 0.419183
O O6 0.851979 0.060951 0.325505
O O7 0.791901 0.946080 0.139409
O O8 0.546141 0.399338 0.216367
O O9 0.365658 0.203716 0.103646
O O10 0.751796 0.724651 0.823189
O O11 0.767008 0.002500 0.881573
O O12 0.647139 0.087042 0.890740
O O13 0.490382 0.975924 0.624297
#
# Coordination Sequence:
#
# PCOD8116911 Si02
#       7
#     4   4   2   4   4   4   4
#     4  10  21  34  54  78 106 139 174 211 261 316
#     4  10  20  33  53  79 105 132 183 215 255 309
#     4  10  18  32  52  80 100 128 174 218 252 310
#     4  10  19  33  52  78 103 139 172 218 254 305
#     4   9  18  33  52  78 101 132 172 216 262 296
#     4  11  20  35  54  77 107 141 171 213 262 312
#     4  10  17  32  55  77 101 132 170 225 256 302
#
# _framework density 17.557414000000001
#
# number of rings (size 3 to 8) (size 9 to 14) (size 15 to 20)
#    0.000    2.154    4.615    0.923    0.000    4.923 
#    0.000    0.000    0.000    0.000   12.000    0.000 
#    0.000    0.000    0.000    0.000    0.000    0.000 
#
# Total GULP energy -322186.279133 kJ/mol
# GULP energy per Si atom -12391.779967 kJ/mol
# Density = 1.751745 g / cm^3
# Si number density = 17.557414 Si / 1000 Ang^3
#
#
#
# Elastic Constant Matrix: (Units=GPa)
#
#
# Indices 1 2 3 4 5 6 
#
# 1 76.3100 30.8609 55.5520 0.0000 -9.5005 0.0000
# 2 30.8609 70.1111 46.5948 0.0000 -0.8546 0.0000
# 3 55.5520 46.5948 155.9619 0.0000 -4.7220 0.0000
# 4 0.0000 0.0000 0.0000 18.9824 0.0000 -0.7998
# 5 -9.5005 -0.8546 -4.7220 0.0000 29.2896 0.0000
# 6 0.0000 0.0000 0.0000 -0.7998 0.0000 25.5528
#
#
#
# Elastic Compliance Matrix: (Units=1/GPa)
#
#
# Indices 1 2 3 4 5 6 
#
# 1 0.019713 -0.005058 -0.005348 0.000000 0.005385 0.000000
# 2 -0.005058 0.019098 -0.003956 0.000000 -0.001721 0.000000
# 3 -0.005348 -0.003956 0.009489 0.000000 -0.000320 0.000000
# 4 0.000000 0.000000 0.000000 0.052750 0.000000 0.001651
# 5 0.005385 -0.001721 -0.000320 0.000000 0.035786 0.000000
# 6 0.000000 0.000000 0.000000 0.001651 0.000000 0.039186
#
#
# Mechanical properties :
#
#
# Convention : Reuss Voigt Hill
#
# Bulk Modulus (GPa) = 51.08101 63.15539 57.11820
# Shear Modulus (GPa) = 23.66633 26.05664 24.86148
#
# Velocity S-wave (km/s) = 3.67541 3.85656 3.76707
# Velocity P-wave (km/s) = 6.86793 7.47526 7.17802
#
# Compressibility (1/GPa) = 0.01957675
#
# Stress axis : x y z
#
# Youngs Moduli (GPa) = 50.72767 52.36279 105.38712
#
# Poissons Ratio (x) = 0.26483 0.56357
# Poissons Ratio (y) = 0.25656 0.41693
# Poissons Ratio (z) = 0.27127 0.20716
#
# Static dielectric constant tensor:
#      x y z
#    x 3.457350 0.000000 -0.067090 
#    y 0.000000 3.055650 0.000000 
#    z -0.067090 0.000000 3.257490 
# 
# 
# High freq. dielectric constant tensor:
#      x y z
#    x 1.680750 0.000000 -0.006930 
#    y 0.000000 1.654070 0.000000 
#    z -0.006930 0.000000 1.674960 
# 
# From -- ./inp_files/63794.got.cif
#   From: 2010.06.25/outbox.cif.g09.slc.cpg/sg13_32_cif.got.tgz:63794.got - 2010.06.28 04:50:58.
