data_PCOD8116912
_publ_section_title
;
Structure prediction by ZEFSAII (Michael W. Deem and Ramdas Pophale) SiO2 
 PCOD8116912
Probable space group: P 2/C
;
_chemical_formula_sum "Si O2"
_cell_formula_units_Z 28
_cell_length_a 17.474194
_cell_length_b 17.540356
_cell_length_c 5.079770
_cell_angle_alpha 90.000000
_cell_angle_beta 73.294098
_cell_angle_gamma 90.000000
_cell_volume 1491.252600
_symmetry_space_group_name_H-M "P 2/C"
_symmetry_group_IT_number 13
_symmetry_cell_setting 'monoclinic'
loop_
_space_group_symop_operation_xyz
x,y,z
-x,y,1/2-z
-x,-y,-z
x,-y,1/2+z
loop_
_atom_site_type_symbol
_atom_site_label
_atom_site_fract_x
_atom_site_fract_y
_atom_site_fract_z
Si Si1 0.500000 0.781046 0.750000
Si Si2 0.905852 0.212632 0.324289
Si Si3 0.500000 0.886005 0.250000
Si Si4 0.671189 0.113967 0.540552
Si Si5 0.162732 0.953521 0.593981
Si Si6 0.092078 0.548887 0.174520
Si Si7 0.671260 0.219004 0.040485
Si Si8 0.835924 0.290360 0.892715
O O1 0.500724 0.833595 0.499323
O O2 0.414763 0.736277 0.839184
O O3 0.878532 0.127187 0.412171
O O4 0.866772 0.269489 0.572664
O O5 0.000000 0.219496 0.250000
O O6 0.878606 0.235539 0.059953
O O7 0.414935 0.931224 0.344121
O O8 0.741068 0.053095 0.512815
O O9 0.680692 0.151766 0.244634
O O10 0.678274 0.181475 0.746432
O O11 0.134105 0.011241 0.396861
O O12 0.111920 0.515373 0.440532
O O13 0.146383 0.621874 0.064991
O O14 0.000000 0.574828 0.250000
O O15 0.740499 0.281012 0.005466
#
# Coordination Sequence:
#
# PCOD8116912 Si02
#       8
#     2   4   2   4   4   4   4   4
#     4   8  16  26  48  81 106 133 164 216 272 308
#     4  12  25  40  58  81 106 138 190 239 275 317
#     4   8  16  28  52  71 102 133 166 216 272 328
#     4  10  18  35  51  77 103 136 176 223 274 327
#     4  12  24  38  55  74 104 145 181 229 284 331
#     4  10  21  36  54  81 116 147 174 211 265 325
#     4  10  17  32  55  80 108 134 176 223 264 317
#     4  12  21  38  62  86 109 144 183 225 268 317
#
# _framework density 18.776161999999999
#
# number of rings (size 3 to 8) (size 9 to 14) (size 15 to 20)
#    0.000    1.429    2.857    3.857    0.000    1.714 
#    0.000    0.714    0.000    0.000    0.000    1.000 
#    0.000    0.000    0.000    0.000    0.000    0.000 
#
# Total GULP energy -347082.016104 kJ/mol
# GULP energy per Si atom -12395.786289 kJ/mol
# Density = 1.873343 g / cm^3
# Si number density = 18.776162 Si / 1000 Ang^3
#
#
#
# Elastic Constant Matrix: (Units=GPa)
#
#
# Indices 1 2 3 4 5 6 
#
# 1 104.4812 23.3454 27.1105 0.0000 -13.8501 0.0000
# 2 23.3454 61.8234 8.2230 0.0000 -7.8665 0.0000
# 3 27.1105 8.2230 84.3783 0.0000 3.7250 0.0000
# 4 0.0000 0.0000 0.0000 17.5777 0.0000 -2.6964
# 5 -13.8501 -7.8665 3.7250 0.0000 29.2362 0.0000
# 6 0.0000 0.0000 0.0000 -2.6964 0.0000 15.9114
#
#
#
# Elastic Compliance Matrix: (Units=1/GPa)
#
#
# Indices 1 2 3 4 5 6 
#
# 1 0.011994 -0.003360 -0.003758 0.000000 0.005257 0.000000
# 2 -0.003360 0.017979 -0.000820 0.000000 0.003350 0.000000
# 3 -0.003758 -0.000820 0.013302 0.000000 -0.003696 0.000000
# 4 0.000000 0.000000 0.000000 0.058409 0.000000 0.009898
# 5 0.005257 0.003350 -0.003696 0.000000 0.038067 0.000000
# 6 0.000000 0.000000 0.000000 0.009898 0.000000 0.064525
#
#
# Mechanical properties :
#
#
# Convention : Reuss Voigt Hill
#
# Bulk Modulus (GPa) = 36.49973 40.89342 38.69657
# Shear Modulus (GPa) = 21.80678 25.34532 23.57605
#
# Velocity S-wave (km/s) = 3.41164 3.67804 3.54734
# Velocity P-wave (km/s) = 5.91613 6.31380 6.11820
#
# Compressibility (1/GPa) = 0.02739746
#
# Stress axis : x y z
#
# Youngs Moduli (GPa) = 83.37556 55.61911 75.17672
#
# Poissons Ratio (x) = 0.18690 0.28253
# Poissons Ratio (y) = 0.28017 0.06168
# Poissons Ratio (z) = 0.31334 0.04563
#
# Static dielectric constant tensor:
#      x y z
#    x 4.094800 0.000000 -0.101890 
#    y 0.000000 2.932290 0.000000 
#    z -0.101890 0.000000 3.746150 
# 
# 
# High freq. dielectric constant tensor:
#      x y z
#    x 1.745470 0.000000 0.005850 
#    y 0.000000 1.673140 0.000000 
#    z 0.005850 0.000000 1.757000 
# 
# From -- ./inp_files/6196.got.cif
#   From: 2010.06.25/outbox.cif.g09.slc.cpg/sg13_4_cif.got.tgz:6196.got - 2010.06.28 04:50:58.
