data_PCOD8116285
_publ_section_title
;
Structure prediction by ZEFSAII (Michael W. Deem and Ramdas Pophale) SiO2 
 PCOD8116285
Probable space group: C 2/M
;
_chemical_formula_sum "Si O2"
_cell_formula_units_Z 32
_cell_length_a 21.000000
_cell_length_b 9.000000
_cell_length_c 24.000000
_cell_angle_alpha 90.000000
_cell_angle_beta 50.000000
_cell_angle_gamma 90.000000
_cell_volume 3474.777594
_symmetry_space_group_name_H-M "C 2/M"
_symmetry_group_IT_number 12
_symmetry_cell_setting 'monoclinic'
loop_
_space_group_symop_operation_xyz
x,y,z
-x,y,-z
-x,-y,-z
x,-y,z
1/2+x,1/2+y,z
1/2-x,1/2+y,-z
1/2-x,1/2-y,-z
1/2+x,1/2-y,z
loop_
_atom_site_type_symbol
_atom_site_label
_atom_site_fract_x
_atom_site_fract_y
_atom_site_fract_z
Si Si1 0.403314 0.332012 0.317978
Si Si2 0.180754 0.824577 0.202461
Si Si3 0.174664 0.326756 0.796525
Si Si4 0.327600 0.322932 0.923252
Si Si5 0.252401 0.325316 0.634890
Si Si6 0.485649 0.333320 0.151790
Si Si7 0.433400 0.333813 0.489427
Si Si8 0.517120 0.175575 0.339965
O O1 0.400853 0.500000 0.343529
O O2 0.310077 0.267939 0.368738
O O3 0.447478 0.331793 0.234099
O O4 0.456949 0.221620 0.324386
O O5 0.270147 0.780852 0.180153
O O6 0.178664 0.774913 0.138581
O O7 0.107527 0.748396 0.279441
O O8 0.165650 0.000000 0.215997
O O9 0.156189 0.500000 0.807382
O O10 0.230958 0.283477 0.711099
O O11 0.081401 0.254221 0.849417
O O12 0.319780 0.500000 0.932466
O O13 0.418151 0.271114 0.898127
O O14 0.250000 0.250000 0.000000
O O15 0.238759 0.500000 0.632803
O O16 0.345685 0.276918 0.564861
O O17 0.490138 0.500000 0.125395
O O18 0.500000 0.338656 0.500000
O O19 0.421327 0.500000 0.471322
O O20 0.470489 0.225454 0.422263
O O21 0.529306 0.000000 0.334490
#
# Coordination Sequence:
#
# PCOD8116285 Si02
#       8
#     8   8   8   8   8   8   8   8
#     4  10  19  35  57  78 105 146 187 227 279 336
#     4  10  20  39  61  83 114 149 190 232 278 339
#     4   9  18  33  59  87 110 144 188 235 276 325
#     4  10  21  38  60  86 115 149 186 228 278 335
#     4   9  18  33  53  81 110 138 184 236 280 327
#     4   9  18  35  57  82 114 149 184 226 278 334
#     4  10  21  38  57  75 105 150 190 229 283 341
#     4  12  24  35  54  83 112 142 185 239 285 330
#
# _framework density 9.2092220000000005
#
# number of rings (size 3 to 8) (size 9 to 14) (size 15 to 20)
#    0.000    2.125    1.250    2.250    0.000    5.250 
#    0.000    3.125    0.000    3.750    0.000    0.000 
#    0.000    0.000    0.000    0.000    0.000    0.000 
#
# Total GULP energy -396589.642196 kJ/mol
# GULP energy per Si atom -12393.426319 kJ/mol
# Density = 0.918826 g / cm^3
# Si number density = 9.209222 Si / 1000 Ang^3
#
#
#
# Elastic Constant Matrix: (Units=GPa)
#
#
# Indices 1 2 3 4 5 6 
#
# 1 156.8230 42.3135 52.6976 0.0000 -30.0824 -0.0008
# 2 42.3135 72.9440 33.5893 0.0004 -10.0184 -0.0013
# 3 52.6976 33.5893 99.1859 0.0001 -31.3890 0.0001
# 4 0.0000 0.0004 0.0001 30.0079 0.0000 -4.2836
# 5 -30.0824 -10.0184 -31.3890 0.0000 39.3410 0.0000
# 6 -0.0008 -0.0013 0.0001 -4.2836 0.0000 25.2390
#
#
#
# Elastic Compliance Matrix: (Units=1/GPa)
#
#
# Indices 1 2 3 4 5 6 
#
# 1 0.008868 -0.003565 -0.002202 0.000000 0.004117 0.000000
# 2 -0.003565 0.017678 -0.004723 0.000000 -0.001993 0.000001
# 3 -0.002202 -0.004723 0.015970 0.000000 0.009856 0.000000
# 4 0.000000 0.000000 0.000000 0.034152 0.000000 0.005796
# 5 0.004117 -0.001993 0.009856 0.000000 0.035923 0.000000
# 6 0.000000 0.000001 0.000000 0.005796 0.000000 0.040605
#
#
# Mechanical properties :
#
#
# Convention : Reuss Voigt Hill
#
# Bulk Modulus (GPa) = 46.43141 65.12818 55.77979
# Shear Modulus (GPa) = 27.57016 32.27441 29.92229
#
# Velocity S-wave (km/s) = 3.87315 4.19057 4.03498
# Velocity P-wave (km/s) = 6.72797 7.67148 7.21517
#
# Compressibility (1/GPa) = 0.02153714
#
# Stress axis : x y z
#
# Youngs Moduli (GPa) = 112.76559 56.56596 62.61572
#
# Poissons Ratio (x) = 0.20166 0.13785
# Poissons Ratio (y) = 0.40201 0.29576
# Poissons Ratio (z) = 0.24825 0.26718
#
# Static dielectric constant tensor:
#      x y z
#    x 4.112330 0.000000 0.294850 
#    y 0.000000 3.467760 0.000000 
#    z 0.294850 0.000000 4.169610 
# 
# 
# High freq. dielectric constant tensor:
#      x y z
#    x 1.739170 0.000000 -0.017860 
#    y 0.000000 1.710050 0.000000 
#    z -0.017860 0.000000 1.711910 
# 
# From -- ./inp_files/345993.got.cif
#   From: 2010.06.25/outbox.ucp.g09.slc.cvg/sg12_173_cif.got.tgz:345993.got - 2010.06.28 13:50:54.
