data_PCOD8116262
_publ_section_title
;
Structure prediction by ZEFSAII (Michael W. Deem and Ramdas Pophale) SiO2 
 PCOD8116262
Probable space group: C 2/M
;
_chemical_formula_sum "Si O2"
_cell_formula_units_Z 28
_cell_length_a 21.000000
_cell_length_b 9.000000
_cell_length_c 30.000000
_cell_angle_alpha 90.000000
_cell_angle_beta 30.000000
_cell_angle_gamma 90.000000
_cell_volume 2835.000000
_symmetry_space_group_name_H-M "C 2/M"
_symmetry_group_IT_number 12
_symmetry_cell_setting 'monoclinic'
loop_
_space_group_symop_operation_xyz
x,y,z
-x,y,-z
-x,-y,-z
x,-y,z
1/2+x,1/2+y,z
1/2-x,1/2+y,-z
1/2-x,1/2-y,-z
1/2+x,1/2-y,z
loop_
_atom_site_type_symbol
_atom_site_label
_atom_site_fract_x
_atom_site_fract_y
_atom_site_fract_z
Si Si1 0.521282 0.332035 0.273795
Si Si2 0.578877 0.166339 0.494438
Si Si3 0.820726 0.674090 0.333028
Si Si4 0.706845 0.664356 0.086693
Si Si5 0.899281 0.333064 0.687116
Si Si6 0.565762 0.331503 0.084697
Si Si7 0.681421 0.826137 0.767518
O O1 0.474079 0.500000 0.311546
O O2 0.429585 0.253110 0.294641
O O3 0.658255 0.331949 0.166726
O O4 0.532062 0.247031 0.313532
O O5 0.500000 0.225373 0.500000
O O6 0.690229 0.283052 0.436455
O O7 0.497120 0.165075 0.587928
O O8 0.631338 0.000000 0.452481
O O9 0.847158 0.500000 0.318135
O O10 0.805372 0.732354 0.291385
O O11 0.763578 0.500000 0.041349
O O12 0.592110 0.695053 0.121250
O O13 0.809530 0.793419 0.019409
O O14 0.862141 0.500000 0.723922
O O15 0.775136 0.248569 0.745768
O O16 0.524371 0.500000 0.100095
O O17 0.458923 0.219341 0.131950
O O18 0.704045 0.000000 0.756720
#
# Coordination Sequence:
#
# PCOD8116262 Si02
#       7
#     8   8   8   8   8   8   8
#     4  11  23  41  62  86 122 161 196 238 295 355
#     4  10  21  39  62  87 117 154 196 244 298 350
#     4  11  23  37  61  91 119 153 199 247 289 345
#     4   9  19  35  56  85 119 155 192 237 293 348
#     4  11  24  41  62  87 119 156 197 244 296 354
#     4  10  19  33  58  89 118 151 195 244 290 342
#     4  11  22  37  59  89 121 155 196 243 293 348
#
# _framework density 9.8765429999999999
#
# number of rings (size 3 to 8) (size 9 to 14) (size 15 to 20)
#    0.000    1.571    2.857    2.143    0.000    4.857 
#    0.000    0.714    0.000    4.286    0.000    0.000 
#    0.000    0.000    0.000    0.000    0.000    0.000 
#
# Total GULP energy -347165.451416 kJ/mol
# GULP energy per Si atom -12398.766122 kJ/mol
# Density = 0.985406 g / cm^3
# Si number density = 9.876543 Si / 1000 Ang^3
#
#
#
# Elastic Constant Matrix: (Units=GPa)
#
#
# Indices 1 2 3 4 5 6 
#
# 1 84.8772 46.1659 21.4886 0.4362 2.6374 -2.6663
# 2 46.1659 93.2025 24.8914 0.5236 -2.6170 -3.2234
# 3 21.4886 24.8914 45.1947 0.0821 -4.0331 -0.4831
# 4 0.4362 0.5236 0.0821 46.0343 -0.0646 -121.4460
# 5 2.6374 -2.6170 -4.0331 -0.0646 24.1722 0.3907
# 6 -2.6663 -3.2234 -0.4831 -121.4460 0.3907 784.6281
#
#
#
# Elastic Compliance Matrix: (Units=1/GPa)
#
#
# Indices 1 2 3 4 5 6 
#
# 1 0.016980 -0.007349 -0.004326 -0.000007 -0.003371 0.000025
# 2 -0.007349 0.015763 -0.005038 -0.000006 0.001667 0.000035
# 3 -0.004326 -0.005038 0.027359 0.000002 0.004492 -0.000021
# 4 -0.000007 -0.000006 0.000002 0.036715 0.000007 0.005683
# 5 -0.003371 0.001667 0.004492 0.000007 0.042668 -0.000022
# 6 0.000025 0.000035 -0.000021 0.005683 -0.000022 0.002154
#
#
# Mechanical properties :
#
#
# Convention : Reuss Voigt Hill
#
# Bulk Modulus (GPa) = 37.48865 45.37402 41.43133
# Shear Modulus (GPa) = 27.18012 179.68216 103.43114
#
# Velocity S-wave (km/s) = 3.71346 9.54786 7.24401
# Velocity P-wave (km/s) = 6.11606 12.02369 9.53875
#
# Compressibility (1/GPa) = 0.02667474
#
# Stress axis : x y z
#
# Youngs Moduli (GPa) = 58.89363 63.43944 36.55094
#
# Poissons Ratio (x) = 0.46621 0.15813
# Poissons Ratio (y) = 0.43280 0.18416
# Poissons Ratio (z) = 0.25480 0.31963
#
# Static dielectric constant tensor:
#      x y z
#    x 3.913520 -0.000270 -0.015110 
#    y -0.000270 3.702020 0.000050 
#    z -0.015110 0.000050 3.373450 
# 
# 
# High freq. dielectric constant tensor:
#      x y z
#    x 1.757820 0.000000 -0.002610 
#    y 0.000000 1.777840 0.000000 
#    z -0.002610 0.000000 1.751910 
# 
# From -- ./inp_files/275552.got.cif
#   From: 2010.06.25/outbox.ucp.g09.slc.cvg/sg12_138_cif.got.tgz:275552.got - 2010.06.28 13:50:54.
