data_PCOD8116717
_publ_section_title
;
Structure prediction by ZEFSAII (Michael W. Deem and Ramdas Pophale) SiO2 
 PCOD8116717
Probable space group: P 2/C
;
_chemical_formula_sum "Si O2"
_cell_formula_units_Z 32
_cell_length_a 13.284643
_cell_length_b 16.340484
_cell_length_c 19.150355
_cell_angle_alpha 90.000000
_cell_angle_beta 25.546891
_cell_angle_gamma 90.000000
_cell_volume 1792.752634
_symmetry_space_group_name_H-M "P 2/C"
_symmetry_group_IT_number 13
_symmetry_cell_setting 'monoclinic'
loop_
_space_group_symop_operation_xyz
x,y,z
-x,y,1/2-z
-x,-y,-z
x,-y,1/2+z
loop_
_atom_site_type_symbol
_atom_site_label
_atom_site_fract_x
_atom_site_fract_y
_atom_site_fract_z
Si Si1 0.795481 0.583943 0.427075
Si Si2 0.373509 0.116917 0.608506
Si Si3 0.380860 0.760925 0.990079
Si Si4 0.613446 0.491387 0.752492
Si Si5 0.976799 0.386756 0.966847
Si Si6 0.859653 0.880585 0.462078
Si Si7 0.743771 0.011613 0.433917
Si Si8 0.290355 0.237687 0.336299
O O1 0.697793 0.667198 0.454316
O O2 0.584344 0.518677 0.567959
O O3 0.000000 0.546971 0.250000
O O4 0.908851 0.601559 0.430032
O O5 0.417432 0.205920 0.546039
O O6 0.366015 0.055092 0.548551
O O7 0.135705 0.113919 0.800734
O O8 0.578967 0.091884 0.534250
O O9 0.628477 0.770525 0.794371
O O10 0.185280 0.812427 0.070075
O O11 0.500000 0.467743 0.750000
O O12 0.752918 0.411693 0.692530
O O13 0.802452 0.563620 0.626636
O O14 0.943131 0.291902 0.010053
O O15 0.755845 0.968770 0.503029
O O16 0.749763 0.852295 0.604606
O O17 0.000000 0.039074 0.250000
O O18 0.500000 0.281569 0.250000
#
# Coordination Sequence:
#
# PCOD8116717 Si02
#       8
#     4   4   4   4   4   4   4   4
#     4  11  19  29  48  77 105 127 167 224 259 293
#     4   9  16  27  46  71  97 124 161 199 246 305
#     4  10  17  27  45  73 100 122 159 211 260 292
#     4   9  19  33  50  71  97 137 177 203 251 316
#     4  10  17  32  51  70 100 136 171 206 257 306
#     4   9  16  26  47  72  94 123 158 208 244 286
#     4   8  15  28  46  68  95 128 163 192 241 302
#     4  10  16  28  48  73 100 118 163 220 252 288
#
# _framework density 17.849647000000001
#
# number of rings (size 3 to 8) (size 9 to 14) (size 15 to 20)
#    0.000    2.500    3.750    2.250    0.000    0.500 
#    0.000    0.000    0.000   31.500    0.000    0.000 
#    0.000    0.000    0.000    0.000    0.000    0.000 
#
# Total GULP energy -396598.198567 kJ/mol
# GULP energy per Si atom -12393.693705 kJ/mol
# Density = 1.780902 g / cm^3
# Si number density = 17.849647 Si / 1000 Ang^3
#
#
#
# Elastic Constant Matrix: (Units=GPa)
#
#
# Indices 1 2 3 4 5 6 
#
# 1 43.0471 37.0074 42.7566 0.0000 -11.3025 0.0000
# 2 37.0074 64.7176 48.5690 0.0000 -15.0494 0.0000
# 3 42.7566 48.5690 123.0881 0.0000 -5.8221 0.0000
# 4 0.0000 0.0000 0.0000 28.5683 0.0000 -4.1457
# 5 -11.3025 -15.0494 -5.8221 0.0000 25.2308 0.0000
# 6 0.0000 0.0000 0.0000 -4.1457 0.0000 23.0731
#
#
#
# Elastic Compliance Matrix: (Units=1/GPa)
#
#
# Indices 1 2 3 4 5 6 
#
# 1 0.053553 -0.021119 -0.009838 0.000000 0.009123 0.000000
# 2 -0.021119 0.033945 -0.005609 0.000000 0.009493 0.000000
# 3 -0.009838 -0.005609 0.013536 0.000000 -0.004629 0.000000
# 4 0.000000 0.000000 0.000000 0.035941 0.000000 0.006458
# 5 0.009123 0.009493 -0.004629 0.000000 0.048315 0.000000
# 6 0.000000 0.000000 0.000000 0.006458 0.000000 0.044501
#
#
# Mechanical properties :
#
#
# Convention : Reuss Voigt Hill
#
# Bulk Modulus (GPa) = 35.83936 54.16877 45.00407
# Shear Modulus (GPa) = 16.01424 22.20909 19.11166
#
# Velocity S-wave (km/s) = 2.99854 3.53119 3.27571
# Velocity P-wave (km/s) = 5.66660 6.85849 6.29084
#
# Compressibility (1/GPa) = 0.02790228
#
# Stress axis : x y z
#
# Youngs Moduli (GPa) = 18.67324 29.45935 73.87699
#
# Poissons Ratio (x) = 0.62214 0.72678
# Poissons Ratio (y) = 0.39435 0.41441
# Poissons Ratio (z) = 0.18370 0.16525
#
# Static dielectric constant tensor:
#      x y z
#    x 3.094900 0.000000 -0.065190 
#    y 0.000000 3.271150 0.000000 
#    z -0.065190 0.000000 3.446250 
# 
# 
# High freq. dielectric constant tensor:
#      x y z
#    x 1.644150 0.000000 0.001140 
#    y 0.000000 1.661720 0.000000 
#    z 0.001140 0.000000 1.696790 
# 
# From -- ./inp_files/66975.got.cif
#   From: 2010.06.25/outbox.cif.g09.slc.cpg/sg13_34_cif.got.tgz:66975.got - 2010.06.28 04:50:58.
