data_PCOD8116835
_publ_section_title
;
Structure prediction by ZEFSAII (Michael W. Deem and Ramdas Pophale) SiO2 
 PCOD8116835
Probable space group: P 2/C
;
_chemical_formula_sum "Si O2"
_cell_formula_units_Z 28
_cell_length_a 6.413912
_cell_length_b 11.759053
_cell_length_c 20.190408
_cell_angle_alpha 90.000000
_cell_angle_beta 93.361982
_cell_angle_gamma 90.000000
_cell_volume 1520.170701
_symmetry_space_group_name_H-M "P 2/C"
_symmetry_group_IT_number 13
_symmetry_cell_setting 'monoclinic'
loop_
_space_group_symop_operation_xyz
x,y,z
-x,y,1/2-z
-x,-y,-z
x,-y,1/2+z
loop_
_atom_site_type_symbol
_atom_site_label
_atom_site_fract_x
_atom_site_fract_y
_atom_site_fract_z
Si Si1 0.224466 0.259856 0.362078
Si Si2 0.960104 0.393338 0.913273
Si Si3 0.879184 0.570840 0.812000
Si Si4 0.134994 0.032487 0.313873
Si Si5 0.898379 0.810482 0.317278
Si Si6 0.500000 0.095683 0.750000
Si Si7 0.500000 0.688530 0.750000
Si Si8 0.297975 0.442922 0.465338
O O1 0.165036 0.127273 0.373313
O O2 0.362674 0.239359 0.298525
O O3 0.350328 0.332378 0.419980
O O4 0.010915 0.326961 0.345912
O O5 0.828122 0.471533 0.861948
O O6 0.961129 0.269929 0.879735
O O7 0.187792 0.453385 0.923587
O O8 0.853288 0.388608 0.982633
O O9 0.647182 0.608216 0.794480
O O10 0.000000 0.522701 0.750000
O O11 0.000000 0.085564 0.250000
O O12 0.357337 0.983508 0.293848
O O13 0.996735 0.930684 0.341134
O O14 0.648861 0.825204 0.299712
O O15 0.000000 0.767399 0.250000
O O16 0.500000 0.500000 0.500000
#
# Coordination Sequence:
#
# PCOD8116835 Si02
#       8
#     4   4   4   4   4   2   2   4
#     4  10  19  32  50  74 102 130 166 209 252 297
#     4  10  20  36  52  70 101 134 167 207 250 296
#     4   9  18  29  47  76 100 123 160 206 254 302
#     4   9  17  31  50  76 105 129 159 203 252 301
#     4   9  19  33  53  79 104 132 164 203 250 300
#     4   8  17  31  50  80 106 133 163 196 254 306
#     4  10  17  27  48  76 100 125 155 202 260 302
#     4  10  22  37  53  72  98 137 176 210 250 298
#
# _framework density 18.418983000000001
#
# number of rings (size 3 to 8) (size 9 to 14) (size 15 to 20)
#    0.000    2.857    0.000    3.000    0.000    4.000 
#    0.000    0.714    0.000    1.714    0.000    0.000 
#    0.000    0.000    0.000    0.000    0.000    0.000 
#
# Total GULP energy -346870.055655 kJ/mol
# GULP energy per Si atom -12388.216273 kJ/mol
# Density = 1.837706 g / cm^3
# Si number density = 18.418983 Si / 1000 Ang^3
#
#
#
# Elastic Constant Matrix: (Units=GPa)
#
#
# Indices 1 2 3 4 5 6 
#
# 1 87.8276 33.7446 13.5852 0.0000 16.2236 0.0000
# 2 33.7446 127.1194 50.8781 0.0000 13.3062 0.0000
# 3 13.5852 50.8781 65.5958 0.0000 10.7948 0.0000
# 4 0.0000 0.0000 0.0000 37.0466 0.0000 9.7522
# 5 16.2236 13.3062 10.7948 0.0000 25.5405 0.0000
# 6 0.0000 0.0000 0.0000 9.7522 0.0000 0.7086
#
#
#
# Elastic Compliance Matrix: (Units=1/GPa)
#
#
# Indices 1 2 3 4 5 6 
#
# 1 0.013885 -0.003254 0.000882 0.000000 -0.007497 0.000000
# 2 -0.003254 0.012306 -0.008766 0.000000 -0.000639 0.000000
# 3 0.000882 -0.008766 0.022787 0.000000 -0.005625 0.000000
# 4 0.000000 0.000000 0.000000 -0.010291 0.000000 0.141635
# 5 -0.007497 -0.000639 -0.005625 0.000000 0.046626 0.000000
# 6 0.000000 0.000000 0.000000 0.141635 0.000000 -0.538040
#
#
# Mechanical properties :
#
#
# Convention : Reuss Voigt Hill
#
# Bulk Modulus (GPa) = 37.45029 52.99539 45.22284
# Shear Modulus (GPa) = -11.86090 24.81478 6.47694
#
# Velocity S-wave (km/s) = -2.54037 3.67446 1.87725
# Velocity P-wave (km/s) = 3.43103 6.84374 5.41335
#
# Compressibility (1/GPa) = 0.02670206
#
# Stress axis : x y z
#
# Youngs Moduli (GPa) = 72.02196 81.26353 43.88545
#
# Poissons Ratio (x) = 0.26444 -0.03871
# Poissons Ratio (y) = 0.23436 0.38468
# Poissons Ratio (z) = -0.06354 0.71232
#
# Static dielectric constant tensor:
#      x y z
#    x 3.474930 0.000000 0.058180 
#    y 0.000000 3.337150 0.000000 
#    z 0.058180 0.000000 3.450330 
# 
# 
# High freq. dielectric constant tensor:
#      x y z
#    x 1.720150 0.000000 0.005830 
#    y 0.000000 1.708930 0.000000 
#    z 0.005830 0.000000 1.687040 
# 
# From -- ./inp_files/73433.got.cif
#   From: 2010.06.25/outbox.cif.g09.slc.cpg/sg13_37_cif.got.tgz:73433.got - 2010.06.28 04:50:58.
