data_PCOD8116537
_publ_section_title
;
Structure prediction by ZEFSAII (Michael W. Deem and Ramdas Pophale) SiO2 
 PCOD8116537
Probable space group: C 2/M
;
_chemical_formula_sum "Si O2"
_cell_formula_units_Z 22
_cell_length_a 18.000000
_cell_length_b 12.000000
_cell_length_c 30.000000
_cell_angle_alpha 90.000000
_cell_angle_beta 20.000000
_cell_angle_gamma 90.000000
_cell_volume 2216.290529
_symmetry_space_group_name_H-M "C 2/M"
_symmetry_group_IT_number 12
_symmetry_cell_setting 'monoclinic'
loop_
_space_group_symop_operation_xyz
x,y,z
-x,y,-z
-x,-y,-z
x,-y,z
1/2+x,1/2+y,z
1/2-x,1/2+y,-z
1/2-x,1/2-y,-z
1/2+x,1/2-y,z
loop_
_atom_site_type_symbol
_atom_site_label
_atom_site_fract_x
_atom_site_fract_y
_atom_site_fract_z
Si Si1 0.799205 0.786176 0.085183
Si Si2 0.525484 0.876290 0.888254
Si Si3 0.582095 0.126348 0.549330
Si Si4 0.500000 0.765798 0.500000
Si Si5 0.560282 0.692402 0.302350
Si Si6 0.076941 0.626695 0.759575
O O1 0.656388 0.717344 0.200000
O O2 0.635573 0.870410 0.152657
O O3 0.000000 0.843324 0.000000
O O4 0.890954 0.703500 0.996156
O O5 0.775524 0.887032 0.763386
O O6 0.515745 0.828273 0.843333
O O7 0.422023 0.000000 0.948176
O O8 0.524561 0.162221 0.531207
O O9 0.457891 0.197751 0.656569
O O10 0.835358 0.131755 0.419162
O O11 0.501894 0.000000 0.599782
O O12 0.280701 0.693476 0.625068
O O13 0.154719 0.500000 0.719583
#
# Coordination Sequence:
#
# PCOD8116537 Si02
#       6
#     8   8   8   4   8   8
#     4  10  22  40  64  88 125 160 203 256 300 368
#     4  10  21  39  65  90 120 164 207 253 303 359
#     4  11  23  39  63  92 125 165 202 255 314 359
#     4  12  22  44  64  90 126 160 212 256 300 374
#     4  10  21  40  60  92 128 155 204 257 297 378
#     4  11  23  41  64  91 124 164 207 254 310 363
#
# _framework density 9.9264960000000002
#
# number of rings (size 3 to 8) (size 9 to 14) (size 15 to 20)
#    0.000    1.455    3.636    1.636    0.000    5.091 
#    0.000    2.727    0.000    0.000    0.000    0.000 
#    0.000    0.000    0.000    0.000    0.000    0.000 
#
# Total GULP energy -272686.980613 kJ/mol
# GULP energy per Si atom -12394.862755 kJ/mol
# Density = 0.990390 g / cm^3
# Si number density = 9.926496 Si / 1000 Ang^3
#
#
#
# Elastic Constant Matrix: (Units=GPa)
#
#
# Indices 1 2 3 4 5 6 
#
# 1 143.6599 27.9310 37.4737 -0.0155 -7.4021 0.0059
# 2 27.9310 82.7821 27.9820 -0.0473 5.8952 0.0119
# 3 37.4737 27.9820 89.1020 -0.1614 2.6384 0.0427
# 4 -0.0155 -0.0473 -0.1614 14.7503 -0.0255 -1.9796
# 5 -7.4021 5.8952 2.6384 -0.0255 32.4875 0.0165
# 6 0.0059 0.0119 0.0427 -1.9796 0.0165 22.4212
#
#
#
# Elastic Compliance Matrix: (Units=1/GPa)
#
#
# Indices 1 2 3 4 5 6 
#
# 1 0.008232 -0.001967 -0.002917 -0.000025 0.002469 0.000000
# 2 -0.001967 0.014131 -0.003530 0.000000 -0.002726 0.000002
# 3 -0.002917 -0.003530 0.013592 0.000131 -0.001128 -0.000011
# 4 -0.000025 0.000000 0.000131 0.068610 0.000034 0.006057
# 5 0.002469 -0.002726 -0.001128 0.000034 0.031930 -0.000017
# 6 0.000000 0.000002 -0.000011 0.006057 -0.000017 0.045136
#
#
# Mechanical properties :
#
#
# Convention : Reuss Voigt Hill
#
# Bulk Modulus (GPa) = 52.28419 55.81305 54.04862
# Shear Modulus (GPa) = 24.41007 28.74228 26.57618
#
# Velocity S-wave (km/s) = 3.51029 3.80907 3.66272
# Velocity P-wave (km/s) = 6.54388 6.89344 6.72093
#
# Compressibility (1/GPa) = 0.01912624
#
# Stress axis : x y z
#
# Youngs Moduli (GPa) = 121.48368 70.76723 73.57175
#
# Poissons Ratio (x) = 0.13921 0.21464
# Poissons Ratio (y) = 0.23897 0.25969
# Poissons Ratio (z) = 0.35441 0.24979
#
# Static dielectric constant tensor:
#      x y z
#    x 4.117690 0.000000 -0.104710 
#    y 0.000000 3.260440 0.000070 
#    z -0.104710 0.000070 3.720340 
# 
# 
# High freq. dielectric constant tensor:
#      x y z
#    x 1.812690 0.000000 -0.000660 
#    y 0.000000 1.751790 0.000010 
#    z -0.000660 0.000010 1.781980 
# 
# From -- ./inp_files/223508.got.cif
#   From: 2010.06.25/outbox.ucp.g09.slc.cvg/sg12_112_cif.got.tgz:223508.got - 2010.06.28 13:50:54.
