data_PCOD8116672
_publ_section_title
;
Structure prediction by ZEFSAII (Michael W. Deem and Ramdas Pophale) SiO2 
 PCOD8116672
Probable space group: P 2/C
;
_chemical_formula_sum "Si O2"
_cell_formula_units_Z 30
_cell_length_a 8.294369
_cell_length_b 30.115197
_cell_length_c 5.419484
_cell_angle_alpha 90.000000
_cell_angle_beta 72.854971
_cell_angle_gamma 90.000000
_cell_volume 1293.557394
_symmetry_space_group_name_H-M "P 2/C"
_symmetry_group_IT_number 13
_symmetry_cell_setting 'monoclinic'
loop_
_space_group_symop_operation_xyz
x,y,z
-x,y,1/2-z
-x,-y,-z
x,-y,1/2+z
loop_
_atom_site_type_symbol
_atom_site_label
_atom_site_fract_x
_atom_site_fract_y
_atom_site_fract_z
Si Si1 0.818794 0.839530 0.084966
Si Si2 0.834672 0.601285 0.673603
Si Si3 0.000000 0.533720 0.250000
Si Si4 0.198613 0.300560 0.407836
Si Si5 0.698463 0.974625 0.658950
Si Si6 0.806421 0.875551 0.590933
Si Si7 0.678622 0.517859 0.811647
Si Si8 0.178465 0.735059 0.416372
O O1 0.720870 0.855644 0.378051
O O2 0.849375 0.787315 0.076673
O O3 0.721111 0.854229 0.877439
O O4 0.997971 0.863485 0.000742
O O5 0.875773 0.568293 0.436101
O O6 0.756558 0.647232 0.612752
O O7 0.698082 0.570099 0.883521
O O8 0.000000 0.614373 0.750000
O O9 0.868103 0.502656 0.150881
O O10 0.279120 0.279993 0.622993
O O11 0.999282 0.290509 0.502254
O O12 0.277476 0.278598 0.123084
O O13 0.500000 0.965937 0.750000
O O14 0.792683 0.928145 0.603656
O O15 0.753554 0.001685 0.389312
O O16 0.592923 0.510867 0.575839
#
# Coordination Sequence:
#
# PCOD8116672 Si02
#       8
#     4   4   2   4   4   4   4   4
#     4  10  19  31  48  67  93 114 146 187 215 254
#     4  11  16  22  28  39  54  71 105 143 178 235
#     4  10  16  22  28  34  48  68  96 136 190 232
#     4  10  18  22  34  46  64  89 117 145 190 248
#     4  10  21  37  54  72  98 127 152 178 209 250
#     4  10  18  32  50  71  90 120 151 177 213 247
#     4  10  17  23  29  35  46  67  94 134 187 233
#     4  10  17  28  36  52  73  99 120 152 202 242
#
# _framework density 23.191859000000001
#
# number of rings (size 3 to 8) (size 9 to 14) (size 15 to 20)
#    0.000    1.867    3.333    6.400    0.000    0.000 
#    0.000    8.000    0.000    0.000    0.000    0.000 
#    0.000    0.000    0.000    0.000    0.000    0.000 
#
# Total GULP energy -371733.790829 kJ/mol
# GULP energy per Si atom -12391.126361 kJ/mol
# Density = 2.313907 g / cm^3
# Si number density = 23.191859 Si / 1000 Ang^3
#
#
#
# Elastic Constant Matrix: (Units=GPa)
#
#
# Indices 1 2 3 4 5 6 
#
# 1 34.3928 24.8035 26.8506 0.0000 3.0055 0.0000
# 2 24.8035 229.7690 85.6098 0.0000 4.9891 0.0000
# 3 26.8506 85.6098 223.5137 0.0000 35.4194 0.0000
# 4 0.0000 0.0000 0.0000 23.8042 0.0000 -8.5348
# 5 3.0055 4.9891 35.4194 0.0000 22.6324 0.0000
# 6 0.0000 0.0000 0.0000 -8.5348 0.0000 -10.4541
#
#
#
# Elastic Compliance Matrix: (Units=1/GPa)
#
#
# Indices 1 2 3 4 5 6 
#
# 1 0.033251 -0.002397 -0.003272 0.000000 0.001233 0.000000
# 2 -0.002397 0.005363 -0.002167 0.000000 0.002527 0.000000
# 3 -0.003272 -0.002167 0.007383 0.000000 -0.010643 0.000000
# 4 0.000000 0.000000 0.000000 0.032497 0.000000 -0.026531
# 5 0.001233 0.002527 -0.010643 0.000000 0.060120 0.000000
# 6 0.000000 0.000000 0.000000 -0.026531 0.000000 -0.073996
#
#
# Mechanical properties :
#
#
# Convention : Reuss Voigt Hill
#
# Bulk Modulus (GPa) = 32.97413 84.68926 58.83169
# Shear Modulus (GPa) = 55.31045 30.55726 42.93386
#
# Velocity S-wave (km/s) = 4.88885 3.63379 4.30728
# Velocity P-wave (km/s) = 6.79092 7.36220 7.08233
#
# Compressibility (1/GPa) = 0.03032681
#
# Stress axis : x y z
#
# Youngs Moduli (GPa) = 30.07415 186.44833 135.43788
#
# Poissons Ratio (x) = 0.44696 0.44310
# Poissons Ratio (y) = 0.07209 0.29346
# Poissons Ratio (z) = 0.09839 0.40399
#
# Static dielectric constant tensor:
#      x y z
#    x 3.906770 0.000000 0.430900 
#    y 0.000000 4.093310 0.000000 
#    z 0.430900 0.000000 6.580420 
# 
# 
# High freq. dielectric constant tensor:
#      x y z
#    x 1.863550 0.000000 0.016580 
#    y 0.000000 1.922220 0.000000 
#    z 0.016580 0.000000 1.959230 
# 
# From -- ./inp_files/4357.got.cif
#   From: 2010.06.25/outbox.cif.g09.slc.cpg/sg13_3_cif.got.tgz:4357.got - 2010.06.28 04:50:58.
