data_PCOD8116613
_publ_section_title
;
Structure prediction by ZEFSAII (Michael W. Deem and Ramdas Pophale) SiO2 
 PCOD8116613
Probable space group: C 2/M
;
_chemical_formula_sum "Si O2"
_cell_formula_units_Z 24
_cell_length_a 18.000000
_cell_length_b 18.000000
_cell_length_c 21.000000
_cell_angle_alpha 90.000000
_cell_angle_beta 20.000000
_cell_angle_gamma 90.000000
_cell_volume 2327.105055
_symmetry_space_group_name_H-M "C 2/M"
_symmetry_group_IT_number 12
_symmetry_cell_setting 'monoclinic'
loop_
_space_group_symop_operation_xyz
x,y,z
-x,y,-z
-x,-y,-z
x,-y,z
1/2+x,1/2+y,z
1/2-x,1/2+y,-z
1/2-x,1/2-y,-z
1/2+x,1/2-y,z
loop_
_atom_site_type_symbol
_atom_site_label
_atom_site_fract_x
_atom_site_fract_y
_atom_site_fract_z
Si Si1 0.338695 0.677022 0.812181
Si Si2 0.274229 0.656849 0.588242
Si Si3 0.868299 0.179010 0.303482
Si Si4 0.556942 0.912286 0.641451
Si Si5 0.881487 0.833517 0.028338
Si Si6 0.047254 0.586990 0.888446
O O1 0.483491 0.645321 0.636374
O O2 0.461481 0.697884 0.777915
O O3 0.205620 0.749512 0.898553
O O4 0.176867 0.610993 0.964505
O O5 0.256406 0.744895 0.609475
O O6 0.111111 0.622612 0.667120
O O7 0.238410 0.622238 0.688787
O O8 0.706443 0.117733 0.463139
O O9 0.967760 0.153062 0.155728
O O10 0.311143 0.892761 0.822252
O O11 0.590631 0.000000 0.618864
O O12 0.000000 0.850065 0.000000
O O13 0.089604 0.500000 0.854615
O O14 0.000000 0.615971 0.000000
#
# Coordination Sequence:
#
# PCOD8116613 Si02
#       6
#     8   8   8   8   8   8
#     4  11  21  40  67  92 123 165 217 262 311 368
#     4  11  21  41  69  93 123 168 215 264 313 372
#     4  11  22  41  69  94 125 160 217 270 313 367
#     4  11  24  43  65  96 128 164 216 272 319 373
#     4  12  24  40  65  97 127 171 212 256 318 389
#     4  11  25  41  58  95 139 168 203 257 315 380
#
# _framework density 10.313243
#
# number of rings (size 3 to 8) (size 9 to 14) (size 15 to 20)
#    0.000    0.833    5.000    3.500    0.000    5.667 
#    0.000    2.500    0.000    0.000    0.000    0.000 
#    0.000    0.000    0.000    0.000    0.000    0.000 
#
# Total GULP energy -297396.583462 kJ/mol
# GULP energy per Si atom -12391.524311 kJ/mol
# Density = 1.028977 g / cm^3
# Si number density = 10.313243 Si / 1000 Ang^3
#
#
#
# Elastic Constant Matrix: (Units=GPa)
#
#
# Indices 1 2 3 4 5 6 
#
# 1 104.3641 19.8611 39.3842 -0.0512 42.7881 0.1023
# 2 19.8611 96.0745 28.3092 0.1290 11.0545 0.0206
# 3 39.3842 28.3092 124.1329 0.1905 38.1818 0.0597
# 4 -0.0512 0.1290 0.1905 36.3992 0.0589 8.5925
# 5 42.7881 11.0545 38.1818 0.0589 50.5654 -0.0750
# 6 0.1023 0.0206 0.0597 8.5925 -0.0750 27.7573
#
#
#
# Elastic Compliance Matrix: (Units=1/GPa)
#
#
# Indices 1 2 3 4 5 6 
#
# 1 0.014988 -0.001512 -0.000796 0.000075 -0.011751 -0.000107
# 2 -0.001512 0.011329 -0.002261 -0.000035 0.000510 0.000014
# 3 -0.000796 -0.002261 0.011026 -0.000033 -0.007158 -0.000028
# 4 0.000075 -0.000035 -0.000033 0.029640 -0.000079 -0.009176
# 5 -0.011751 0.000510 -0.007158 -0.000079 0.035014 0.000177
# 6 -0.000107 0.000014 -0.000028 -0.009176 0.000177 0.038868
#
#
# Mechanical properties :
#
#
# Convention : Reuss Voigt Hill
#
# Bulk Modulus (GPa) = 35.45415 55.52004 45.48710
# Shear Modulus (GPa) = 31.36714 38.74554 35.05634
#
# Velocity S-wave (km/s) = 3.90387 4.33879 4.12707
# Velocity P-wave (km/s) = 6.12750 7.21633 6.69409
#
# Compressibility (1/GPa) = 0.02820544
#
# Stress axis : x y z
#
# Youngs Moduli (GPa) = 66.71999 88.27195 90.69748
#
# Poissons Ratio (x) = 0.13345 0.07220
# Poissons Ratio (y) = 0.10087 0.20503
# Poissons Ratio (z) = 0.05311 0.19955
#
# Static dielectric constant tensor:
#      x y z
#    x 4.039130 -0.000120 0.358520 
#    y -0.000120 3.620670 0.000500 
#    z 0.358520 0.000500 4.157000 
# 
# 
# High freq. dielectric constant tensor:
#      x y z
#    x 1.822310 -0.000010 0.027180 
#    y -0.000010 1.802440 0.000050 
#    z 0.027180 0.000050 1.832010 
# 
# From -- ./inp_files/285355.got.cif
#   From: 2010.06.25/outbox.ucp.g09.slc.cvg/sg12_143_cif.got.tgz:285355.got - 2010.06.28 13:50:54.
