data_PCOD8116163
_publ_section_title
;
Structure prediction by ZEFSAII (Michael W. Deem and Ramdas Pophale) SiO2 
 PCOD8116163
Probable space group: C 2/M
;
_chemical_formula_sum "Si O2"
_cell_formula_units_Z 40
_cell_length_a 24.707264
_cell_length_b 18.164369
_cell_length_c 17.348672
_cell_angle_alpha 90.000000
_cell_angle_beta 160.532389
_cell_angle_gamma 90.000000
_cell_volume 2594.851793
_symmetry_space_group_name_H-M "C 2/M"
_symmetry_group_IT_number 12
_symmetry_cell_setting 'monoclinic'
loop_
_space_group_symop_operation_xyz
x,y,z
-x,y,-z
-x,-y,-z
x,-y,z
1/2+x,1/2+y,z
1/2-x,1/2+y,-z
1/2-x,1/2-y,-z
1/2+x,1/2-y,z
loop_
_atom_site_type_symbol
_atom_site_label
_atom_site_fract_x
_atom_site_fract_y
_atom_site_fract_z
Si Si1 0.382987 0.833061 0.120893
Si Si2 0.243564 0.914104 0.635757
Si Si3 0.092803 0.166949 0.830746
Si Si4 0.540932 0.085895 0.933176
Si Si5 0.110764 0.587318 0.721519
O O1 0.445895 0.750009 0.195864
O O2 0.468796 0.876203 0.308043
O O3 0.187729 0.832233 0.875498
O O4 0.423908 0.873194 0.097868
O O5 0.331619 0.886823 0.831592
O O6 0.076038 0.873167 0.401999
O O7 0.207284 0.000000 0.592450
O O8 0.358559 0.896840 0.717076
O O9 0.209692 0.123796 0.048964
O O10 0.563171 0.000000 0.948416
O O11 0.127611 0.500000 0.755216
O O12 0.000000 0.607474 0.500000
#
# Coordination Sequence:
#
# PCOD8116163 Si02
#       5
#     8   8   8   8   8
#     4   9  19  32  46  73  94 124 155 196 235 278
#     4   9  18  32  50  72  97 125 156 192 236 284
#     4   9  19  32  46  73  94 124 155 196 235 278
#     4   9  18  32  50  72  97 125 156 192 236 284
#     4   9  17  30  47  65  89 121 156 193 230 268
#
# _framework density 15.415139
#
# number of rings (size 3 to 8) (size 9 to 14) (size 15 to 20)
#    1.200    1.800    0.000    2.400    0.000    3.200 
#    0.000    2.000    0.000    1.200    0.000    5.600 
#    0.000    0.000    0.000    0.000    0.000    0.000 
#
# Total GULP energy -247792.611296 kJ/mol
# GULP energy per Si atom -12389.630565 kJ/mol
# Density = 1.538005 g / cm^3
# Si number density = 15.415139 Si / 1000 Ang^3
#
#
#
# Elastic Constant Matrix: (Units=GPa)
#
#
# Indices 1 2 3 4 5 6 
#
# 1 109.3612 52.9739 51.3216 0.0000 -6.3791 0.0001
# 2 52.9739 80.0622 57.9560 0.0000 -12.7863 0.0000
# 3 51.3216 57.9560 112.6121 0.0000 -1.5551 0.0001
# 4 0.0000 0.0000 0.0000 13.2994 0.0000 12.9164
# 5 -6.3791 -12.7863 -1.5551 0.0000 17.4799 0.0001
# 6 0.0001 0.0000 0.0001 12.9164 0.0001 18.1741
#
#
#
# Elastic Compliance Matrix: (Units=1/GPa)
#
#
# Indices 1 2 3 4 5 6 
#
# 1 0.013909 -0.007506 -0.002485 0.000000 -0.000636 0.000000
# 2 -0.007506 0.027856 -0.010685 0.000000 0.016687 0.000000
# 3 -0.002485 -0.010685 0.015410 0.000000 -0.007352 0.000000
# 4 0.000000 0.000000 0.000000 0.242737 0.000001 -0.172514
# 5 -0.000636 0.016687 -0.007352 0.000001 0.068529 -0.000001
# 6 0.000000 0.000000 0.000000 -0.172514 -0.000001 0.177630
#
#
# Mechanical properties :
#
#
# Convention : Reuss Voigt Hill
#
# Bulk Modulus (GPa) = 63.19568 69.61538 66.40553
# Shear Modulus (GPa) = 8.43602 19.10962 13.77282
#
# Velocity S-wave (km/s) = 2.34189 3.52471 2.99232
# Velocity P-wave (km/s) = 6.95683 7.86277 7.42363
#
# Compressibility (1/GPa) = 0.01582387
#
# Stress axis : x y z
#
# Youngs Moduli (GPa) = 71.89767 35.89850 64.89265
#
# Poissons Ratio (x) = 0.26944 0.16124
# Poissons Ratio (y) = 0.53964 0.69339
# Poissons Ratio (z) = 0.17864 0.38358
#
# Static dielectric constant tensor:
#      x y z
#    x 2.810170 0.000000 -0.019340 
#    y 0.000000 3.148010 0.000000 
#    z -0.019340 0.000000 2.817290 
# 
# 
# High freq. dielectric constant tensor:
#      x y z
#    x 1.577270 0.000000 0.000200 
#    y 0.000000 1.599760 0.000000 
#    z 0.000200 0.000000 1.577190 
# 
# From -- ./inp_files/289841.got.cif
#   From: 2010.06.25/outbox.cif.g09.slc.cpg/sg12_145_cif.got.tgz:289841.got - 2010.06.28 00:19:55.
