data_PCOD8116535
_publ_section_title
;
Structure prediction by ZEFSAII (Michael W. Deem and Ramdas Pophale) SiO2 
 PCOD8116535
Probable space group: C 2/M
;
_chemical_formula_sum "Si O2"
_cell_formula_units_Z 32
_cell_length_a 18.000000
_cell_length_b 9.000000
_cell_length_c 30.000000
_cell_angle_alpha 90.000000
_cell_angle_beta 40.000000
_cell_angle_gamma 90.000000
_cell_volume 3123.947783
_symmetry_space_group_name_H-M "C 2/M"
_symmetry_group_IT_number 12
_symmetry_cell_setting 'monoclinic'
loop_
_space_group_symop_operation_xyz
x,y,z
-x,y,-z
-x,-y,-z
x,-y,z
1/2+x,1/2+y,z
1/2-x,1/2+y,-z
1/2-x,1/2-y,-z
1/2+x,1/2-y,z
loop_
_atom_site_type_symbol
_atom_site_label
_atom_site_fract_x
_atom_site_fract_y
_atom_site_fract_z
Si Si1 0.625043 0.832865 0.924555
Si Si2 0.537277 0.324495 0.700065
Si Si3 0.419084 0.831224 0.155274
Si Si4 0.702500 0.674117 0.707369
Si Si5 0.137998 0.823373 0.072621
Si Si6 0.371290 0.177783 0.432184
Si Si7 0.041598 0.675562 0.433336
Si Si8 0.349873 0.823726 0.841173
O O1 0.645135 0.831767 0.862376
O O2 0.714421 0.714612 0.903269
O O3 0.651269 0.000000 0.930649
O O4 0.500000 0.783575 0.000000
O O5 0.520815 0.500000 0.699400
O O6 0.625241 0.292281 0.699785
O O7 0.583509 0.246960 0.634458
O O8 0.415266 0.248456 0.768871
O O9 0.338244 0.764695 0.230813
O O10 0.528727 0.725881 0.093766
O O11 0.455334 0.000000 0.151658
O O12 0.700002 0.500000 0.720719
O O13 0.830283 0.732662 0.636939
O O14 0.101295 0.754051 0.137005
O O15 0.152764 0.000000 0.068500
O O16 0.250000 0.750000 0.000000
O O17 0.250000 0.250000 0.500000
O O18 0.457055 0.224693 0.432531
O O19 0.360485 0.000000 0.432665
O O20 0.044175 0.500000 0.436713
O O21 0.000000 0.743875 0.500000
O O22 0.368475 0.000000 0.833666
#
# Coordination Sequence:
#
# PCOD8116535 Si02
#       8
#     8   8   8   8   8   8   8   8
#     4  10  23  43  64  88 124 168 212 265 327 386
#     4  11  23  41  65  92 127 170 212 262 321 381
#     4  11  23  39  62  93 126 165 212 266 322 381
#     4  10  21  39  64  90 121 167 213 261 317 377
#     4  12  24  41  65  93 126 166 213 266 323 384
#     4  11  23  40  65  97 131 168 210 263 315 378
#     4   9  19  38  64  93 123 162 212 257 306 369
#     4  12  25  41  64  94 128 168 216 267 321 386
#
# _framework density 10.243449
#
# number of rings (size 3 to 8) (size 9 to 14) (size 15 to 20)
#    0.000    1.250    1.250    4.875    1.750    4.750 
#    0.000    0.625    0.000    2.625    0.000    0.000 
#    0.000    0.000    0.000    0.000    0.000    0.000 
#
# Total GULP energy -396837.692827 kJ/mol
# GULP energy per Si atom -12401.177901 kJ/mol
# Density = 1.022013 g / cm^3
# Si number density = 10.243449 Si / 1000 Ang^3
#
#
#
# Elastic Constant Matrix: (Units=GPa)
#
#
# Indices 1 2 3 4 5 6 
#
# 1 77.0396 33.6663 34.3950 0.0002 -0.3256 0.0009
# 2 33.6663 136.9724 48.5234 0.0004 2.3690 -0.0015
# 3 34.3950 48.5234 148.4922 -0.0002 2.4996 -0.0004
# 4 0.0002 0.0004 -0.0002 44.3985 0.0001 2.2706
# 5 -0.3256 2.3690 2.4996 0.0001 43.3453 0.0004
# 6 0.0009 -0.0015 -0.0004 2.2706 0.0004 28.9646
#
#
#
# Elastic Compliance Matrix: (Units=1/GPa)
#
#
# Indices 1 2 3 4 5 6 
#
# 1 0.015411 -0.002859 -0.002643 0.000000 0.000424 -0.000001
# 2 -0.002859 0.008791 -0.002204 0.000000 -0.000375 0.000001
# 3 -0.002643 -0.002204 0.008073 0.000000 -0.000365 0.000000
# 4 0.000000 0.000000 0.000000 0.022614 0.000000 -0.001773
# 5 0.000424 -0.000375 -0.000365 0.000000 0.023115 0.000000
# 6 -0.000001 0.000001 0.000000 -0.001773 0.000000 0.034664
#
#
# Mechanical properties :
#
#
# Convention : Reuss Voigt Hill
#
# Bulk Modulus (GPa) = 59.29968 66.18595 62.74282
# Shear Modulus (GPa) = 37.39697 39.73631 38.56664
#
# Velocity S-wave (km/s) = 4.27712 4.40886 4.34349
# Velocity P-wave (km/s) = 7.30751 7.63505 7.47307
#
# Compressibility (1/GPa) = 0.01686350
#
# Stress axis : x y z
#
# Youngs Moduli (GPa) = 64.88716 113.75584 123.87248
#
# Poissons Ratio (x) = 0.32524 0.32734
# Poissons Ratio (y) = 0.18552 0.27302
# Poissons Ratio (z) = 0.17147 0.25072
#
# Static dielectric constant tensor:
#      x y z
#    x 3.805710 0.000000 0.067000 
#    y 0.000000 3.756810 0.000000 
#    z 0.067000 0.000000 3.982140 
# 
# 
# High freq. dielectric constant tensor:
#      x y z
#    x 1.805820 0.000000 0.005110 
#    y 0.000000 1.800590 0.000000 
#    z 0.005110 0.000000 1.826160 
# 
# From -- ./inp_files/378237.got.cif
#   From: 2010.06.25/outbox.ucp.g09.slc.cvg/sg12_190_cif.got.tgz:378237.got - 2010.06.28 13:50:54.
