data_PCOD8116324
_publ_section_title
;
Structure prediction by ZEFSAII (Michael W. Deem and Ramdas Pophale) SiO2 
 PCOD8116324
Probable space group: C 2/M
;
_chemical_formula_sum "Si O2"
_cell_formula_units_Z 32
_cell_length_a 30.000000
_cell_length_b 9.000000
_cell_length_c 24.000000
_cell_angle_alpha 90.000000
_cell_angle_beta 30.000000
_cell_angle_gamma 90.000000
_cell_volume 3240.000000
_symmetry_space_group_name_H-M "C 2/M"
_symmetry_group_IT_number 12
_symmetry_cell_setting 'monoclinic'
loop_
_space_group_symop_operation_xyz
x,y,z
-x,y,-z
-x,-y,-z
x,-y,z
1/2+x,1/2+y,z
1/2-x,1/2+y,-z
1/2-x,1/2-y,-z
1/2+x,1/2-y,z
loop_
_atom_site_type_symbol
_atom_site_label
_atom_site_fract_x
_atom_site_fract_y
_atom_site_fract_z
Si Si1 0.609179 0.831530 0.704603
Si Si2 0.163591 0.668891 0.896808
Si Si3 0.782532 0.165498 0.574083
Si Si4 0.556294 0.169945 0.637813
Si Si5 0.810210 0.835259 0.233114
Si Si6 0.114735 0.826761 0.163728
Si Si7 0.204920 0.669829 0.976050
Si Si8 0.512350 0.665449 0.903603
O O1 0.717021 0.823214 0.591758
O O2 0.581797 0.787884 0.672629
O O3 0.566899 0.706713 0.789186
O O4 0.577340 0.000000 0.754179
O O5 0.173880 0.500000 0.865339
O O6 0.215959 0.782171 0.800170
O O7 0.207905 0.694967 0.907834
O O8 0.059757 0.707562 0.010064
O O9 0.862203 0.281959 0.488541
O O10 0.723994 0.206505 0.690354
O O11 0.821519 0.000000 0.537760
O O12 0.469712 0.260499 0.713279
O O13 0.535421 0.000000 0.650706
O O14 0.918237 0.837494 0.119962
O O15 0.771293 0.000000 0.287537
O O16 0.200500 0.772224 0.104779
O O17 0.104088 0.000000 0.172464
O O18 0.124083 0.762804 0.090813
O O19 0.187755 0.500000 0.011207
O O20 0.470624 0.500000 0.941140
#
# Coordination Sequence:
#
# PCOD8116324 Si02
#       8
#     8   8   8   8   8   8   8   8
#     4   9  19  33  49  72 104 138 170 206 247 295
#     4  11  21  33  52  75 100 133 171 209 251 299
#     4  10  20  35  53  73  99 135 176 210 246 294
#     4  11  21  33  51  76 105 135 168 208 253 296
#     4  10  21  36  51  71 102 136 170 210 253 294
#     4  10  20  35  55  78 104 134 167 203 248 303
#     4   9  20  37  54  76 106 134 163 205 254 300
#     4  10  20  32  48  73 105 137 169 207 249 295
#
# _framework density 9.8765429999999999
#
# number of rings (size 3 to 8) (size 9 to 14) (size 15 to 20)
#    0.000    2.000    0.000    3.750    0.000    9.000 
#    0.000    0.000    0.000    0.750    0.000    5.250 
#    0.000    0.000    0.000    0.000    0.000    0.000 
#
# Total GULP energy -396675.911666 kJ/mol
# GULP energy per Si atom -12396.122240 kJ/mol
# Density = 0.985406 g / cm^3
# Si number density = 9.876543 Si / 1000 Ang^3
#
#
#
# Elastic Constant Matrix: (Units=GPa)
#
#
# Indices 1 2 3 4 5 6 
#
# 1 35.6795 50.2578 37.6730 -0.0033 -3.1802 0.0057
# 2 50.2578 51.8532 6.4999 0.0203 2.0967 -0.0072
# 3 37.6730 6.4999 20.9447 0.0073 -9.0399 -0.0033
# 4 -0.0033 0.0203 0.0073 32.8079 -0.0020 0.9704
# 5 -3.1802 2.0967 -9.0399 -0.0020 8.1400 0.0008
# 6 0.0057 -0.0072 -0.0033 0.9704 0.0008 21.4738
#
#
#
# Elastic Compliance Matrix: (Units=1/GPa)
#
#
# Indices 1 2 3 4 5 6 
#
# 1 -0.011780 0.006252 0.031820 -0.000011 0.029125 0.000010
# 2 0.006252 0.019324 -0.035216 -0.000006 -0.041644 0.000001
# 3 0.031820 -0.035216 0.020589 0.000024 0.044368 -0.000020
# 4 -0.000011 -0.000006 0.000024 0.030521 0.000031 -0.001379
# 5 0.029125 -0.041644 0.044368 0.000031 0.194229 -0.000024
# 6 0.000010 0.000001 -0.000020 -0.001379 -0.000024 0.046631
#
#
# Mechanical properties :
#
#
# Convention : Reuss Voigt Hill
#
# Bulk Modulus (GPa) = 29.54719 33.03763 31.29241
# Shear Modulus (GPa) = 16.38898 13.42079 14.90488
#
# Velocity S-wave (km/s) = 2.88356 2.60941 2.74991
# Velocity P-wave (km/s) = 5.10660 5.08334 5.09498
#
# Compressibility (1/GPa) = 0.03384416
#
# Stress axis : x y z
#
# Youngs Moduli (GPa) = -84.88638 51.74869 48.56991
#
# Poissons Ratio (x) = -0.32352 -1.54549
# Poissons Ratio (y) = 0.53068 1.71042
# Poissons Ratio (z) = 2.70107 1.82237
#
# Static dielectric constant tensor:
#      x y z
#    x 3.460510 -0.000010 -0.051290 
#    y -0.000010 3.553830 0.000020 
#    z -0.051290 0.000020 3.311520 
# 
# 
# High freq. dielectric constant tensor:
#      x y z
#    x 1.736130 0.000000 0.002320 
#    y 0.000000 1.774850 0.000000 
#    z 0.002320 0.000000 1.741460 
# 
# From -- ./inp_files/353283.got.cif
#   From: 2010.06.25/outbox.ucp.g09.slc.cvg/sg12_177_cif.got.tgz:353283.got - 2010.06.28 13:50:54.
