data_PCOD8116369
_publ_section_title
;
Structure prediction by ZEFSAII (Michael W. Deem and Ramdas Pophale) SiO2 
 PCOD8116369
Probable space group: C 2/M
;
_chemical_formula_sum "Si O2"
_cell_formula_units_Z 32
_cell_length_a 18.000000
_cell_length_b 9.000000
_cell_length_c 30.000000
_cell_angle_alpha 90.000000
_cell_angle_beta 40.000000
_cell_angle_gamma 90.000000
_cell_volume 3123.947783
_symmetry_space_group_name_H-M "C 2/M"
_symmetry_group_IT_number 12
_symmetry_cell_setting 'monoclinic'
loop_
_space_group_symop_operation_xyz
x,y,z
-x,y,-z
-x,-y,-z
x,-y,z
1/2+x,1/2+y,z
1/2-x,1/2+y,-z
1/2-x,1/2-y,-z
1/2+x,1/2-y,z
loop_
_atom_site_type_symbol
_atom_site_label
_atom_site_fract_x
_atom_site_fract_y
_atom_site_fract_z
Si Si1 0.733239 0.332763 0.917668
Si Si2 0.702331 0.671407 0.587729
Si Si3 0.566127 0.326358 0.134274
Si Si4 0.425756 0.171184 0.431444
Si Si5 0.994539 0.175454 0.934107
Si Si6 0.657689 0.675680 0.313882
Si Si7 0.344970 0.325031 0.289060
Si Si8 0.748289 0.668347 0.812609
O O1 0.740139 0.500000 0.933877
O O2 0.805460 0.222242 0.914133
O O3 0.795863 0.329907 0.840831
O O4 0.597875 0.281553 0.984398
O O5 0.666021 0.500000 0.596659
O O6 0.627093 0.775788 0.590915
O O7 0.837131 0.694104 0.513251
O O8 0.677663 0.721180 0.649516
O O9 0.560970 0.500000 0.133564
O O10 0.544896 0.260200 0.095277
O O11 0.472394 0.275206 0.214444
O O12 0.539160 0.265801 0.389829
O O13 0.460513 0.000000 0.410260
O O14 0.122648 0.242614 0.879503
O O15 0.013057 0.000000 0.926659
O O16 0.655740 0.500000 0.314138
O O17 0.759975 0.734042 0.297066
O O18 0.673400 0.733044 0.255929
O O19 0.323071 0.500000 0.292520
O O20 0.743803 0.500000 0.795146
#
# Coordination Sequence:
#
# PCOD8116369 Si02
#       8
#     8   8   8   8   8   8   8   8
#     4  10  21  34  56  86 112 143 190 240 282 339
#     4   9  20  39  64  93 121 152 190 234 282 336
#     4  10  20  35  56  81 115 153 184 226 284 344
#     4  10  21  39  63  90 122 156 190 230 282 342
#     4   9  17  35  59  81 108 148 191 231 282 343
#     4  12  25  39  58  85 117 153 196 244 288 336
#     4  10  21  40  62  84 115 155 193 234 289 345
#     4  10  20  38  59  81 111 150 193 237 289 342
#
# _framework density 10.243449
#
# number of rings (size 3 to 8) (size 9 to 14) (size 15 to 20)
#    0.000    2.000    1.250    2.250    1.750    4.000 
#    0.000    3.125    0.000    1.500    0.000    0.000 
#    0.000    0.000    0.000    0.000    0.000    0.000 
#
# Total GULP energy -396570.009092 kJ/mol
# GULP energy per Si atom -12392.812784 kJ/mol
# Density = 1.022013 g / cm^3
# Si number density = 10.243449 Si / 1000 Ang^3
#
#
#
# Elastic Constant Matrix: (Units=GPa)
#
#
# Indices 1 2 3 4 5 6 
#
# 1 18.4363 14.9232 -2.7350 0.0005 -5.2241 0.0028
# 2 14.9232 48.3205 25.1639 -0.0001 -4.6117 0.0012
# 3 -2.7350 25.1639 83.0417 -0.0001 3.1743 0.0000
# 4 0.0005 -0.0001 -0.0001 22.0958 0.0002 -2.3607
# 5 -5.2241 -4.6117 3.1743 0.0002 37.0085 0.0006
# 6 0.0028 0.0012 0.0000 -2.3607 0.0006 26.0203
#
#
#
# Elastic Compliance Matrix: (Units=1/GPa)
#
#
# Indices 1 2 3 4 5 6 
#
# 1 0.083290 -0.031304 0.011968 -0.000003 0.006830 -0.000008
# 2 -0.031304 0.036857 -0.012247 0.000001 0.001224 0.000002
# 3 0.011968 -0.012247 0.016194 0.000000 -0.001226 -0.000001
# 4 -0.000003 0.000001 0.000000 0.045700 -0.000001 0.004146
# 5 0.006830 0.001224 -0.001226 -0.000001 0.028243 -0.000002
# 6 -0.000008 0.000002 -0.000001 0.004146 -0.000002 0.038808
#
#
# Mechanical properties :
#
#
# Convention : Reuss Voigt Hill
#
# Bulk Modulus (GPa) = 13.66548 24.94474 19.30511
# Shear Modulus (GPa) = 14.85223 24.52136 19.68679
#
# Velocity S-wave (km/s) = 2.69543 3.46342 3.10328
# Velocity P-wave (km/s) = 4.04623 5.31000 4.72060
#
# Compressibility (1/GPa) = 0.07317706
#
# Stress axis : x y z
#
# Youngs Moduli (GPa) = 12.00621 27.13153 61.75037
#
# Poissons Ratio (x) = 0.84932 -0.73903
# Poissons Ratio (y) = 0.37584 0.75623
# Poissons Ratio (z) = -0.14369 0.33227
#
# Static dielectric constant tensor:
#      x y z
#    x 3.516360 0.000000 0.126460 
#    y 0.000000 3.413390 0.000000 
#    z 0.126460 0.000000 4.287710 
# 
# 
# High freq. dielectric constant tensor:
#      x y z
#    x 1.784120 0.000000 0.003830 
#    y 0.000000 1.768670 0.000000 
#    z 0.003830 0.000000 1.824920 
# 
# From -- ./inp_files/378164.got.cif
#   From: 2010.06.25/outbox.ucp.g09.slc.cvg/sg12_190_cif.got.tgz:378164.got - 2010.06.28 13:50:54.
