data_PCOD8116237
_publ_section_title
;
Structure prediction by ZEFSAII (Michael W. Deem and Ramdas Pophale) SiO2 
 PCOD8116237
Probable space group: C 2/M
;
_chemical_formula_sum "Si O2"
_cell_formula_units_Z 20
_cell_length_a 24.000000
_cell_length_b 9.000000
_cell_length_c 30.000000
_cell_angle_alpha 90.000000
_cell_angle_beta 20.000000
_cell_angle_gamma 90.000000
_cell_volume 2216.290529
_symmetry_space_group_name_H-M "C 2/M"
_symmetry_group_IT_number 12
_symmetry_cell_setting 'monoclinic'
loop_
_space_group_symop_operation_xyz
x,y,z
-x,y,-z
-x,-y,-z
x,-y,z
1/2+x,1/2+y,z
1/2-x,1/2+y,-z
1/2-x,1/2-y,-z
1/2+x,1/2-y,z
loop_
_atom_site_type_symbol
_atom_site_label
_atom_site_fract_x
_atom_site_fract_y
_atom_site_fract_z
Si Si1 0.081968 0.329936 0.173696
Si Si2 0.247804 0.318006 0.299477
Si Si3 0.754482 0.179461 0.448272
Si Si4 0.960681 0.817997 0.464269
Si Si5 0.090411 0.670767 0.061613
O O1 0.059264 0.500000 0.208601
O O2 0.090560 0.333742 0.114381
O O3 0.929691 0.223696 0.297472
O O4 0.243033 0.259147 0.076186
O O5 0.243830 0.500000 0.302782
O O6 0.165073 0.248807 0.405386
O O7 0.434701 0.258991 0.157779
O O8 0.141755 0.250783 0.337691
O O9 0.750000 0.250000 0.500000
O O10 0.605884 0.257099 0.532797
O O11 0.734677 0.000000 0.463122
O O12 0.963418 0.000000 0.463750
O O13 0.092337 0.500000 0.041839
#
# Coordination Sequence:
#
# PCOD8116237 Si02
#       5
#     8   8   8   8   8
#     4  10  20  34  53  79 111 144 183 225 273 325
#     4  11  20  32  53  81 112 145 179 224 277 328
#     4  12  24  39  58  80 110 147 187 228 271 323
#     4  11  21  35  53  78 110 144 183 226 274 326
#     4  10  19  32  53  80 113 146 178 223 277 327
#
# _framework density 9.0240880000000008
#
# number of rings (size 3 to 8) (size 9 to 14) (size 15 to 20)
#    0.000    1.200    2.000    7.800    0.000    1.600 
#    0.000    0.000    0.000    1.200    0.000    8.400 
#    0.000    0.000    0.000    0.000    0.000    0.000 
#
# Total GULP energy -247855.423801 kJ/mol
# GULP energy per Si atom -12392.771190 kJ/mol
# Density = 0.900355 g / cm^3
# Si number density = 9.024088 Si / 1000 Ang^3
#
#
#
# Elastic Constant Matrix: (Units=GPa)
#
#
# Indices 1 2 3 4 5 6 
#
# 1 113.9995 50.1660 33.1387 0.1152 -36.1069 -0.1568
# 2 50.1660 219.1159 37.2818 0.1338 -25.4460 -0.3074
# 3 33.1387 37.2818 70.3208 -0.0171 -43.4103 -0.1125
# 4 0.1152 0.1338 -0.0171 40.5900 -0.0131 -11.0063
# 5 -36.1069 -25.4460 -43.4103 -0.0131 43.3519 0.0726
# 6 -0.1568 -0.3074 -0.1125 -11.0063 0.0726 37.4986
#
#
#
# Elastic Compliance Matrix: (Units=1/GPa)
#
#
# Indices 1 2 3 4 5 6 
#
# 1 0.012662 -0.001928 0.002270 -0.000021 0.011688 0.000015
# 2 -0.001928 0.005319 -0.002554 -0.000006 -0.001041 0.000028
# 3 0.002270 -0.002554 0.038619 0.000042 0.039062 0.000041
# 4 -0.000021 -0.000006 0.000042 0.026767 0.000016 0.007856
# 5 0.011688 -0.001041 0.039062 0.000016 0.071305 0.000024
# 6 0.000015 0.000028 0.000041 0.007856 0.000024 0.028974
#
#
# Mechanical properties :
#
#
# Convention : Reuss Voigt Hill
#
# Bulk Modulus (GPa) = 19.16603 71.62325 45.39464
# Shear Modulus (GPa) = 24.33538 43.14475 33.74007
#
# Velocity S-wave (km/s) = 3.67598 4.89461 4.32840
# Velocity P-wave (km/s) = 5.35346 8.46839 7.08425
#
# Compressibility (1/GPa) = 0.05217565
#
# Stress axis : x y z
#
# Youngs Moduli (GPa) = 78.97445 188.00958 25.89409
#
# Poissons Ratio (x) = 0.36247 -0.05878
# Poissons Ratio (y) = 0.15226 0.06614
# Poissons Ratio (z) = -0.17927 0.48022
#
# Static dielectric constant tensor:
#      x y z
#    x 3.545410 -0.000330 -0.460590 
#    y -0.000330 4.117100 -0.000540 
#    z -0.460590 -0.000540 3.799950 
# 
# 
# High freq. dielectric constant tensor:
#      x y z
#    x 1.693990 -0.000010 -0.045350 
#    y -0.000010 1.750400 0.000010 
#    z -0.045350 0.000010 1.698240 
# 
# From -- ./inp_files/162715.got.cif
#   From: 2010.06.25/outbox.ucp.g09.slc.cvg/sg12_82_cif.got.tgz:162715.got - 2010.06.28 13:50:54.
