data_PCOD8116608
_publ_section_title
;
Structure prediction by ZEFSAII (Michael W. Deem and Ramdas Pophale) SiO2 
 PCOD8116608
Probable space group: C 2/M
;
_chemical_formula_sum "Si O2"
_cell_formula_units_Z 28
_cell_length_a 18.000000
_cell_length_b 9.000000
_cell_length_c 21.000000
_cell_angle_alpha 90.000000
_cell_angle_beta 60.000000
_cell_angle_gamma 90.000000
_cell_volume 2946.218424
_symmetry_space_group_name_H-M "C 2/M"
_symmetry_group_IT_number 12
_symmetry_cell_setting 'monoclinic'
loop_
_space_group_symop_operation_xyz
x,y,z
-x,y,-z
-x,-y,-z
x,-y,z
1/2+x,1/2+y,z
1/2-x,1/2+y,-z
1/2-x,1/2-y,-z
1/2+x,1/2-y,z
loop_
_atom_site_type_symbol
_atom_site_label
_atom_site_fract_x
_atom_site_fract_y
_atom_site_fract_z
Si Si1 0.775583 0.834342 0.831155
Si Si2 0.246189 0.834953 0.307879
Si Si3 0.513310 0.172995 0.069615
Si Si4 0.445905 0.324059 0.584173
Si Si5 0.541109 0.675989 0.279084
Si Si6 0.413035 0.325299 0.223791
Si Si7 0.313967 0.323873 0.020653
O O1 0.750084 0.845007 0.769326
O O2 0.870720 0.761875 0.789908
O O3 0.707695 0.733415 0.898803
O O4 0.773712 0.000000 0.862809
O O5 0.155116 0.780071 0.376240
O O6 0.319692 0.716262 0.291773
O O7 0.266580 0.000000 0.326492
O O8 0.438580 0.237753 0.147807
O O9 0.526426 0.000000 0.081095
O O10 0.500000 0.191921 0.000000
O O11 0.596061 0.272214 0.046917
O O12 0.500000 0.257518 0.500000
O O13 0.455713 0.500000 0.578181
O O14 0.478674 0.264592 0.639949
O O15 0.552732 0.500000 0.280290
O O16 0.469900 0.724187 0.259580
O O17 0.418653 0.500000 0.207044
O O18 0.308933 0.500000 0.022320
O O19 0.250000 0.250000 0.000000
#
# Coordination Sequence:
#
# PCOD8116608 Si02
#       7
#     8   8   8   8   8   8   8
#     4   9  17  33  53  70  94 130 173 219 263 305
#     4   9  18  32  52  77 103 132 168 212 258 305
#     4  11  24  40  56  75 103 139 179 226 275 317
#     4   8  14  29  55  81 102 130 172 214 249 296
#     4   8  16  30  49  74 101 132 170 212 256 300
#     4  11  21  33  51  75 106 140 172 210 258 317
#     4  12  24  36  52  75 103 135 176 223 269 317
#
# _framework density 9.5037079999999996
#
# number of rings (size 3 to 8) (size 9 to 14) (size 15 to 20)
#    0.000    2.286    0.000    5.571    0.000    6.286 
#    0.000    1.429    0.000    2.143    0.000    0.000 
#    0.000    0.000    0.000    0.000    0.000    0.000 
#
# Total GULP energy -346881.482025 kJ/mol
# GULP energy per Si atom -12388.624358 kJ/mol
# Density = 0.948208 g / cm^3
# Si number density = 9.503708 Si / 1000 Ang^3
#
#
#
# Elastic Constant Matrix: (Units=GPa)
#
#
# Indices 1 2 3 4 5 6 
#
# 1 79.1651 30.1305 34.2636 0.0000 -13.0498 0.0000
# 2 30.1305 90.4088 32.8664 0.0000 -6.0590 0.0000
# 3 34.2636 32.8664 139.6241 0.0000 -16.8493 0.0000
# 4 0.0000 0.0000 0.0000 21.1899 0.0000 -6.8958
# 5 -13.0498 -6.0590 -16.8493 0.0000 30.4115 0.0000
# 6 0.0000 0.0000 0.0000 -6.8958 0.0000 24.1492
#
#
#
# Elastic Compliance Matrix: (Units=1/GPa)
#
#
# Indices 1 2 3 4 5 6 
#
# 1 0.016025 -0.004157 -0.002383 0.000000 0.004728 0.000000
# 2 -0.004157 0.013197 -0.002126 0.000000 -0.000333 0.000000
# 3 -0.002383 -0.002126 0.008651 0.000000 0.003347 0.000000
# 4 0.000000 0.000000 0.000000 0.052027 0.000000 0.014856
# 5 0.004728 -0.000333 0.003347 0.000000 0.036699 0.000000
# 6 0.000000 0.000000 0.000000 0.014856 0.000000 0.045651
#
#
# Mechanical properties :
#
#
# Convention : Reuss Voigt Hill
#
# Bulk Modulus (GPa) = 48.68757 55.96878 52.32818
# Shear Modulus (GPa) = 25.45414 29.27928 27.36671
#
# Velocity S-wave (km/s) = 3.66344 3.92907 3.79857
# Velocity P-wave (km/s) = 6.60038 7.07765 6.84318
#
# Compressibility (1/GPa) = 0.02053912
#
# Stress axis : x y z
#
# Youngs Moduli (GPa) = 62.40242 75.77404 115.58812
#
# Poissons Ratio (x) = 0.31502 0.27549
# Poissons Ratio (y) = 0.25943 0.24579
# Poissons Ratio (z) = 0.14873 0.16113
#
# Static dielectric constant tensor:
#      x y z
#    x 0.000000 0.000000 0.000000 
#    y 0.000000 0.000000 0.000000 
#    z 0.000000 0.000000 0.000000 
# 
# 
# High freq. dielectric constant tensor:
#      x y z
#    x 1.734080 0.000000 -0.007740 
#    y 0.000000 1.711940 0.000000 
#    z -0.007740 0.000000 1.750470 
# 
# From -- ./inp_files/313768.got.cif
#   From: 2010.06.25/outbox.ucp.g09.slc.cvg/sg12_157_cif.got.tgz:313768.got - 2010.06.28 13:50:54.
