data_PCOD8116643
_publ_section_title
;
Structure prediction by ZEFSAII (Michael W. Deem and Ramdas Pophale) SiO2 
 PCOD8116643
Probable space group: P 2/C
;
_chemical_formula_sum "Si O2"
_cell_formula_units_Z 20
_cell_length_a 8.047666
_cell_length_b 24.259816
_cell_length_c 5.311001
_cell_angle_alpha 90.000000
_cell_angle_beta 88.483215
_cell_angle_gamma 90.000000
_cell_volume 1036.529417
_symmetry_space_group_name_H-M "P 2/C"
_symmetry_group_IT_number 13
_symmetry_cell_setting 'monoclinic'
loop_
_space_group_symop_operation_xyz
x,y,z
-x,y,1/2-z
-x,-y,-z
x,-y,1/2+z
loop_
_atom_site_type_symbol
_atom_site_label
_atom_site_fract_x
_atom_site_fract_y
_atom_site_fract_z
Si Si1 0.605482 0.142045 0.496327
Si Si2 0.391067 0.736260 0.503761
Si Si3 0.813324 0.523229 0.019539
Si Si4 0.893722 0.647446 0.007535
Si Si5 0.690834 0.977141 0.991199
O O1 0.500000 0.138721 0.250000
O O2 0.691928 0.202350 0.500055
O O3 0.722636 0.088771 0.485478
O O4 0.500000 0.134819 0.750000
O O5 0.500000 0.728562 0.750000
O O6 0.244057 0.693319 0.518916
O O7 0.500000 0.726167 0.250000
O O8 0.721842 0.496373 0.266514
O O9 0.806494 0.588679 0.048726
O O10 0.000000 0.500000 0.000000
O O11 0.000000 0.661923 0.250000
O O12 0.000000 0.645918 0.750000
O O13 0.780698 0.000511 0.738494
O O14 0.500000 0.000000 0.000000
#
# Coordination Sequence:
#
# PCOD8116643 Si02
#       5
#     4   4   4   4   4
#     4  10  16  27  42  61  96 138 164 195 262 319
#     4  10  23  38  52  75 115 155 169 210 280 329
#     4  10  16  30  51  85  99 124 165 236 267 288
#     4  12  21  35  61  85 104 136 192 228 250 314
#     4  10  14  20  36  63  87 120 159 216 245 292
#
# _framework density 19.295161
#
# number of rings (size 3 to 8) (size 9 to 14) (size 15 to 20)
#    0.000    1.600    8.000    1.200    0.000    0.000 
#    0.000    0.000    0.000    3.600    0.000    0.000 
#    0.000    4.800    0.000    0.000    0.000    0.000 
#
# Total GULP energy -247767.053199 kJ/mol
# GULP energy per Si atom -12388.352660 kJ/mol
# Density = 1.925124 g / cm^3
# Si number density = 19.295161 Si / 1000 Ang^3
#
#
#
# Elastic Constant Matrix: (Units=GPa)
#
#
# Indices 1 2 3 4 5 6 
#
# 1 21.3464 30.4050 14.2275 0.0000 6.2721 0.0000
# 2 30.4050 164.4080 23.2334 0.0000 8.6948 0.0000
# 3 14.2275 23.2334 176.1241 0.0000 21.6175 0.0000
# 4 0.0000 0.0000 0.0000 30.7665 0.0000 -0.2468
# 5 6.2721 8.6948 21.6175 0.0000 8.7054 0.0000
# 6 0.0000 0.0000 0.0000 -0.2468 0.0000 45.2163
#
#
#
# Elastic Compliance Matrix: (Units=1/GPa)
#
#
# Indices 1 2 3 4 5 6 
#
# 1 0.076546 -0.011877 0.001002 0.000000 -0.045776 0.000000
# 2 -0.011877 0.008265 -0.000242 0.000000 0.000902 0.000000
# 3 0.001002 -0.000242 0.008181 0.000000 -0.020797 0.000000
# 4 0.000000 0.000000 0.000000 0.032504 0.000000 0.000177
# 5 -0.045776 0.000902 -0.020797 0.000000 0.198594 0.000000
# 6 0.000000 0.000000 0.000000 0.000177 0.000000 0.022117
#
#
# Mechanical properties :
#
#
# Convention : Reuss Voigt Hill
#
# Bulk Modulus (GPa) = 14.13242 55.29004 34.71123
# Shear Modulus (GPa) = 12.75421 36.53848 24.64635
#
# Velocity S-wave (km/s) = 2.57379 4.35634 3.57786
# Velocity P-wave (km/s) = 4.02154 7.34988 5.92425
#
# Compressibility (1/GPa) = 0.07075927
#
# Stress axis : x y z
#
# Youngs Moduli (GPa) = 13.06409 120.98731 122.22948
#
# Poissons Ratio (x) = 1.43694 -0.12245
# Poissons Ratio (y) = 0.15516 0.02953
# Poissons Ratio (z) = -0.01309 0.02923
#
# Static dielectric constant tensor:
#      x y z
#    x 0.000000 0.000000 0.000000 
#    y 0.000000 0.000000 0.000000 
#    z 0.000000 0.000000 0.000000 
# 
# 
# High freq. dielectric constant tensor:
#      x y z
#    x 1.654610 0.000000 0.015790 
#    y 0.000000 1.775970 0.000000 
#    z 0.015790 0.000000 1.797380 
# 
# From -- ./inp_files/2101.got.cif
#   From: 2010.06.25/outbox.cif.g09.slc.cpg/sg13_2_cif.got.tgz:2101.got - 2010.06.28 04:50:58.
