data_PCOD8116858
_publ_section_title
;
Structure prediction by ZEFSAII (Michael W. Deem and Ramdas Pophale) SiO2 
 PCOD8116858
Probable space group: P 2/C
;
_chemical_formula_sum "Si O2"
_cell_formula_units_Z 32
_cell_length_a 20.226555
_cell_length_b 7.993794
_cell_length_c 15.610140
_cell_angle_alpha 90.000000
_cell_angle_beta 141.814323
_cell_angle_gamma 90.000000
_cell_volume 1560.339303
_symmetry_space_group_name_H-M "P 2/C"
_symmetry_group_IT_number 13
_symmetry_cell_setting 'monoclinic'
loop_
_space_group_symop_operation_xyz
x,y,z
-x,y,1/2-z
-x,-y,-z
x,-y,1/2+z
loop_
_atom_site_type_symbol
_atom_site_label
_atom_site_fract_x
_atom_site_fract_y
_atom_site_fract_z
Si Si1 0.365234 0.862794 0.452355
Si Si2 0.711001 0.930146 0.953849
Si Si3 0.531184 0.644394 0.372159
Si Si4 0.255007 0.489930 0.875307
Si Si5 0.572627 0.295262 0.205150
Si Si6 0.124613 0.660278 0.391838
Si Si7 0.767637 0.533250 0.834061
Si Si8 0.337942 0.813660 0.242538
O O1 0.322586 0.988199 0.483656
O O2 0.315721 0.681146 0.418443
O O3 0.494272 0.845649 0.585956
O O4 0.326996 0.922316 0.319052
O O5 0.629493 0.780382 0.847096
O O6 0.702390 0.081156 0.879164
O O7 0.829167 0.848365 0.073667
O O8 0.500000 0.728439 0.250000
O O9 0.658541 0.638087 0.518006
O O10 0.489861 0.455915 0.327621
O O11 0.463411 0.756345 0.370066
O O12 0.176010 0.469895 0.875644
O O13 0.190446 0.537159 0.721818
O O14 0.662663 0.347604 0.227984
O O15 0.144255 0.599488 0.509338
O O16 0.000000 0.669961 0.250000
O O17 0.737528 0.347312 0.833467
#
# Coordination Sequence:
#
# PCOD8116858 Si02
#       8
#     4   4   4   4   4   4   4   4
#     4   9  17  31  50  72 104 143 175 203 257 323
#     4  10  20  34  51  73 105 142 179 217 259 312
#     4  10  17  29  51  80 112 141 172 207 256 319
#     4   9  17  32  56  79 104 138 171 216 268 317
#     4   9  16  30  50  74 105 143 174 203 250 320
#     4  10  21  38  58  76  99 139 187 228 267 313
#     4   9  18  34  55  79 104 129 173 226 272 317
#     4  10  20  32  50  77 108 138 169 214 264 318
#
# _framework density 20.50836
#
# number of rings (size 3 to 8) (size 9 to 14) (size 15 to 20)
#    0.000    2.500    0.000    4.875    0.000    5.000 
#    0.000    5.625    0.000    6.750    0.000    0.000 
#    0.000    0.000    0.000    0.000    0.000    0.000 
#
# Total GULP energy -396545.389739 kJ/mol
# GULP energy per Si atom -12392.043429 kJ/mol
# Density = 2.046168 g / cm^3
# Si number density = 20.508360 Si / 1000 Ang^3
#
#
#
# Elastic Constant Matrix: (Units=GPa)
#
#
# Indices 1 2 3 4 5 6 
#
# 1 76.5796 26.9376 62.7422 0.0000 -11.9637 0.0000
# 2 26.9376 50.9709 29.4558 0.0000 -5.8327 0.0000
# 3 62.7422 29.4558 124.6564 0.0000 -3.8982 0.0000
# 4 0.0000 0.0000 0.0000 19.7705 0.0000 -12.6042
# 5 -11.9637 -5.8327 -3.8982 0.0000 43.1679 0.0000
# 6 0.0000 0.0000 0.0000 -12.6042 0.0000 10.4491
#
#
#
# Elastic Compliance Matrix: (Units=1/GPa)
#
#
# Indices 1 2 3 4 5 6 
#
# 1 0.025059 -0.006327 -0.010958 0.000000 0.005100 0.000000
# 2 -0.006327 0.024612 -0.002589 0.000000 0.001338 0.000000
# 3 -0.010958 -0.002589 0.014083 0.000000 -0.002115 0.000000
# 4 0.000000 0.000000 0.000000 0.218975 0.000000 0.264138
# 5 0.005100 0.001338 -0.002115 0.000000 0.024569 0.000000
# 6 0.000000 0.000000 0.000000 0.264138 0.000000 0.414318
#
#
# Mechanical properties :
#
#
# Convention : Reuss Voigt Hill
#
# Bulk Modulus (GPa) = 41.65750 54.49757 48.07753
# Shear Modulus (GPa) = 6.49885 23.54892 15.02389
#
# Velocity S-wave (km/s) = 1.78207 3.39227 2.70955
# Velocity P-wave (km/s) = 4.95892 6.47876 5.76911
#
# Compressibility (1/GPa) = 0.02400528
#
# Stress axis : x y z
#
# Youngs Moduli (GPa) = 39.90628 40.63003 71.00663
#
# Poissons Ratio (x) = 0.25707 0.77809
# Poissons Ratio (y) = 0.25249 0.18387
# Poissons Ratio (z) = 0.43729 0.10521
#
# Static dielectric constant tensor:
#      x y z
#    x 3.773820 0.000000 -0.423260 
#    y 0.000000 3.449010 0.000000 
#    z -0.423260 0.000000 3.652320 
# 
# 
# High freq. dielectric constant tensor:
#      x y z
#    x 1.786810 0.000000 -0.039190 
#    y 0.000000 1.779660 0.000000 
#    z -0.039190 0.000000 1.784280 
# 
# From -- ./inp_files/57281.got.cif
#   From: 2010.06.25/outbox.cif.g09.slc.cpg/sg13_29_cif.got.tgz:57281.got - 2010.06.28 04:50:58.
