data_PCOD8116864
_publ_section_title
;
Structure prediction by ZEFSAII (Michael W. Deem and Ramdas Pophale) SiO2 
 PCOD8116864
Probable space group: P 2/C
;
_chemical_formula_sum "Si O2"
_cell_formula_units_Z 30
_cell_length_a 9.390659
_cell_length_b 12.422744
_cell_length_c 21.577025
_cell_angle_alpha 90.000000
_cell_angle_beta 39.751483
_cell_angle_gamma 90.000000
_cell_volume 1609.599426
_symmetry_space_group_name_H-M "P 2/C"
_symmetry_group_IT_number 13
_symmetry_cell_setting 'monoclinic'
loop_
_space_group_symop_operation_xyz
x,y,z
-x,y,1/2-z
-x,-y,-z
x,-y,1/2+z
loop_
_atom_site_type_symbol
_atom_site_label
_atom_site_fract_x
_atom_site_fract_y
_atom_site_fract_z
Si Si1 0.547057 0.299314 0.557551
Si Si2 0.500000 0.396987 0.750000
Si Si3 0.852788 0.012413 0.736036
Si Si4 0.705173 0.687351 0.481179
Si Si5 0.767600 0.096675 0.443617
Si Si6 0.813978 0.256671 0.720444
Si Si7 0.510272 0.898474 0.577052
Si Si8 0.754594 0.489505 0.554818
O O1 0.482899 0.327771 0.508541
O O2 0.685699 0.187292 0.519035
O O3 0.319067 0.292811 0.673369
O O4 0.726290 0.385262 0.521201
O O5 0.698152 0.315101 0.701120
O O6 0.577792 0.477352 0.669694
O O7 0.814652 0.127199 0.715882
O O8 0.000000 0.030608 0.750000
O O9 0.610270 0.958115 0.825756
O O10 0.969143 0.926605 0.650403
O O11 0.652521 0.790861 0.542889
O O12 0.697583 0.590078 0.531233
O O13 0.933863 0.700536 0.366249
O O14 0.683884 0.136157 0.404924
O O15 0.675864 0.979616 0.489004
O O16 0.000000 0.500000 0.500000
#
# Coordination Sequence:
#
# PCOD8116864 Si02
#       8
#     4   2   4   4   4   4   4   4
#     4  10  21  35  59  91 115 145 194 246 281 335
#     4  10  24  42  58  80 104 160 196 236 282 350
#     4  10  17  29  53  85 118 151 181 226 290 346
#     4  11  20  36  61  90 115 145 192 244 289 334
#     4   9  16  29  49  81 120 144 174 225 292 340
#     4  11  19  33  61  84 116 146 196 234 280 338
#     4   9  17  28  49  83 117 145 174 227 290 340
#     4  11  23  43  62  77 112 155 195 238 291 347
#
# _framework density 18.638178
#
# number of rings (size 3 to 8) (size 9 to 14) (size 15 to 20)
#    0.000    1.867    4.000    1.600    0.000    0.000 
#    2.400    0.000    2.933    3.200    0.000    0.000 
#    0.000    0.000    0.000    0.000    0.000    0.000 
#
# Total GULP energy -371658.109619 kJ/mol
# GULP energy per Si atom -12388.603654 kJ/mol
# Density = 1.859576 g / cm^3
# Si number density = 18.638178 Si / 1000 Ang^3
#
#
#
# Elastic Constant Matrix: (Units=GPa)
#
#
# Indices 1 2 3 4 5 6 
#
# 1 63.8638 45.3271 27.9280 0.0000 -1.1304 0.0000
# 2 45.3271 136.4610 52.8374 0.0000 4.7903 0.0000
# 3 27.9280 52.8374 99.8421 0.0000 1.0288 0.0000
# 4 0.0000 0.0000 0.0000 34.2199 0.0000 0.2200
# 5 -1.1304 4.7903 1.0288 0.0000 22.4683 0.0000
# 6 0.0000 0.0000 0.0000 0.2200 0.0000 16.5392
#
#
#
# Elastic Compliance Matrix: (Units=1/GPa)
#
#
# Indices 1 2 3 4 5 6 
#
# 1 0.021211 -0.006069 -0.002747 0.000000 0.002487 0.000000
# 2 -0.006069 0.011022 -0.004110 0.000000 -0.002467 0.000000
# 3 -0.002747 -0.004110 0.012958 0.000000 0.000145 0.000000
# 4 0.000000 0.000000 0.000000 0.029225 0.000000 -0.000389
# 5 0.002487 -0.002467 0.000145 0.000000 0.045152 0.000000
# 6 0.000000 0.000000 0.000000 -0.000389 0.000000 0.060468
#
#
# Mechanical properties :
#
#
# Convention : Reuss Voigt Hill
#
# Bulk Modulus (GPa) = 51.70944 61.37245 56.54094
# Shear Modulus (GPa) = 23.54785 26.25045 24.89915
#
# Velocity S-wave (km/s) = 3.55832 3.75697 3.65899
# Velocity P-wave (km/s) = 6.68478 7.19858 6.94643
#
# Compressibility (1/GPa) = 0.01933883
#
# Stress axis : x y z
#
# Youngs Moduli (GPa) = 47.14488 90.72771 77.17440
#
# Poissons Ratio (x) = 0.55065 0.21199
# Poissons Ratio (y) = 0.28613 0.31717
# Poissons Ratio (z) = 0.12950 0.37288
#
# Static dielectric constant tensor:
#      x y z
#    x 3.180080 0.000000 -0.052320 
#    y 0.000000 3.541290 0.000000 
#    z -0.052320 0.000000 3.579420 
# 
# 
# High freq. dielectric constant tensor:
#      x y z
#    x 1.685250 0.000000 -0.005180 
#    y 0.000000 1.726530 0.000000 
#    z -0.005180 0.000000 1.731550 
# 
# From -- ./inp_files/85209.got.cif
#   From: 2010.06.25/outbox.cif.g09.slc.cpg/sg13_43_cif.got.tgz:85209.got - 2010.06.28 04:50:58.
