data_PCOD8116606
_publ_section_title
;
Structure prediction by ZEFSAII (Michael W. Deem and Ramdas Pophale) SiO2 
 PCOD8116606
Probable space group: C 2/M
;
_chemical_formula_sum "Si O2"
_cell_formula_units_Z 32
_cell_length_a 18.000000
_cell_length_b 30.000000
_cell_length_c 12.000000
_cell_angle_alpha 90.000000
_cell_angle_beta 30.000000
_cell_angle_gamma 90.000000
_cell_volume 3240.000000
_symmetry_space_group_name_H-M "C 2/M"
_symmetry_group_IT_number 12
_symmetry_cell_setting 'monoclinic'
loop_
_space_group_symop_operation_xyz
x,y,z
-x,y,-z
-x,-y,-z
x,-y,z
1/2+x,1/2+y,z
1/2-x,1/2+y,-z
1/2-x,1/2-y,-z
1/2+x,1/2-y,z
loop_
_atom_site_type_symbol
_atom_site_label
_atom_site_fract_x
_atom_site_fract_y
_atom_site_fract_z
Si Si1 0.345910 0.923963 0.134766
Si Si2 0.619889 0.774888 0.107602
Si Si3 0.861554 0.131857 0.250837
Si Si4 0.525231 0.047989 0.244041
Si Si5 0.358795 0.287179 0.401088
Si Si6 0.784501 0.048636 0.480586
Si Si7 0.661621 0.824497 0.841148
Si Si8 0.469801 0.860311 0.413592
O O1 0.227498 0.946868 0.370115
O O2 0.308808 0.873294 0.147844
O O3 0.500000 0.924009 0.000000
O O4 0.349348 0.950993 0.015029
O O5 0.498551 0.736781 0.270904
O O6 0.554381 0.822063 0.234979
O O7 0.750000 0.750000 0.000000
O O8 0.680619 0.785343 0.906093
O O9 0.904617 0.179868 0.243116
O O10 0.870234 0.092172 0.329365
O O11 0.704663 0.136892 0.389943
O O12 0.000000 0.116746 0.000000
O O13 0.370871 0.050566 0.380726
O O14 0.542495 0.090625 0.301828
O O15 0.540711 0.000000 0.287720
O O16 0.250000 0.250000 0.500000
O O17 0.283274 0.318458 0.589257
O O18 0.860009 0.000000 0.357807
O O19 0.500000 0.819881 0.000000
O O20 0.500000 0.846424 0.500000
#
# Coordination Sequence:
#
# PCOD8116606 Si02
#       8
#     8   8   8   8   8   8   8   8
#     4   9  15  28  54  87 120 144 181 238 301 345
#     4  12  28  41  61  89 122 159 197 248 306 350
#     4  11  24  40  60  89 118 158 205 250 294 354
#     4   9  17  32  57  87 117 153 194 238 297 360
#     4  12  24  39  63  88 116 156 202 241 291 358
#     4   9  17  32  55  88 122 150 187 243 303 356
#     4  11  20  38  62  88 119 154 195 246 291 346
#     4  11  24  42  58  85 125 157 199 252 298 352
#
# _framework density 9.8765429999999999
#
# number of rings (size 3 to 8) (size 9 to 14) (size 15 to 20)
#    0.000    1.500    5.000    0.375    5.250    2.000 
#    0.000    0.000    0.000    0.000    0.000    0.000 
#    0.000    4.000    0.000    0.000    0.000    0.000 
#
# Total GULP energy -396430.885553 kJ/mol
# GULP energy per Si atom -12388.465174 kJ/mol
# Density = 0.985406 g / cm^3
# Si number density = 9.876543 Si / 1000 Ang^3
#
#
#
# Elastic Constant Matrix: (Units=GPa)
#
#
# Indices 1 2 3 4 5 6 
#
# 1 47.3906 28.2273 18.1582 0.0022 -7.1883 -0.0012
# 2 28.2273 142.9085 32.3617 -0.0012 -7.1646 0.0002
# 3 18.1582 32.3617 67.1715 0.0033 -1.9891 -0.0024
# 4 0.0022 -0.0012 0.0033 23.6646 -0.0023 10.3475
# 5 -7.1883 -7.1646 -1.9891 -0.0023 23.0069 0.0015
# 6 -0.0012 0.0002 -0.0024 10.3475 0.0015 21.1781
#
#
#
# Elastic Compliance Matrix: (Units=1/GPa)
#
#
# Indices 1 2 3 4 5 6 
#
# 1 0.026270 -0.003697 -0.005125 -0.000002 0.006613 0.000001
# 2 -0.003697 0.008480 -0.003050 0.000002 0.001222 -0.000002
# 3 -0.005125 -0.003050 0.017712 -0.000004 -0.001020 0.000004
# 4 -0.000002 0.000002 -0.000004 0.053738 0.000007 -0.026256
# 5 0.006613 0.001222 -0.001020 0.000007 0.045824 -0.000006
# 6 0.000001 -0.000002 0.000004 -0.026256 -0.000006 0.060047
#
#
# Mechanical properties :
#
#
# Convention : Reuss Voigt Hill
#
# Bulk Modulus (GPa) = 34.82030 46.10723 40.46377
# Shear Modulus (GPa) = 20.37617 25.48482 22.93049
#
# Velocity S-wave (km/s) = 3.21525 3.59579 3.41083
# Velocity P-wave (km/s) = 5.60801 6.37433 6.00341
#
# Compressibility (1/GPa) = 0.02871888
#
# Stress axis : x y z
#
# Youngs Moduli (GPa) = 38.06651 117.93072 56.45994
#
# Poissons Ratio (x) = 0.43597 0.28933
# Poissons Ratio (y) = 0.14072 0.17219
# Poissons Ratio (z) = 0.19507 0.35966
#
# Static dielectric constant tensor:
#      x y z
#    x 7.948190 0.000010 3.199820 
#    y 0.000010 3.972770 0.000010 
#    z 3.199820 0.000010 5.208830 
# 
# 
# High freq. dielectric constant tensor:
#      x y z
#    x 1.725250 0.000000 0.023650 
#    y 0.000000 1.798090 0.000000 
#    z 0.023650 0.000000 1.747270 
# 
# From -- ./inp_files/161174.got.cif
#   From: 2010.06.25/outbox.ucp.g09.slc.cvg/sg12_81_cif.got.tgz:161174.got - 2010.06.28 13:50:54.
