data_PCOD8116599
_publ_section_title
;
Structure prediction by ZEFSAII (Michael W. Deem and Ramdas Pophale) SiO2 
 PCOD8116599
Probable space group: C 2/M
;
_chemical_formula_sum "Si O2"
_cell_formula_units_Z 28
_cell_length_a 21.000000
_cell_length_b 21.000000
_cell_length_c 18.000000
_cell_angle_alpha 90.000000
_cell_angle_beta 20.000000
_cell_angle_gamma 90.000000
_cell_volume 2714.955898
_symmetry_space_group_name_H-M "C 2/M"
_symmetry_group_IT_number 12
_symmetry_cell_setting 'monoclinic'
loop_
_space_group_symop_operation_xyz
x,y,z
-x,y,-z
-x,-y,-z
x,-y,z
1/2+x,1/2+y,z
1/2-x,1/2+y,-z
1/2-x,1/2-y,-z
1/2+x,1/2-y,z
loop_
_atom_site_type_symbol
_atom_site_label
_atom_site_fract_x
_atom_site_fract_y
_atom_site_fract_z
Si Si1 0.830946 0.074413 0.010105
Si Si2 0.300029 0.790950 0.058903
Si Si3 0.401265 0.861114 0.180612
Si Si4 0.021080 0.348628 0.270180
Si Si5 0.892673 0.751479 0.527423
Si Si6 0.777293 0.926612 0.494361
Si Si7 0.151397 0.180076 0.897929
O O1 0.642885 0.098286 0.177658
O O2 0.842005 0.107998 0.079107
O O3 0.812618 0.000000 0.046350
O O4 0.009890 0.088695 0.761630
O O5 0.389479 0.722611 0.983656
O O6 0.081844 0.793873 0.322533
O O7 0.415727 0.846187 0.971929
O O8 0.335443 0.804123 0.933206
O O9 0.283727 0.797617 0.291272
O O10 0.263530 0.910175 0.374188
O O11 0.500000 0.891902 0.000000
O O12 0.911296 0.301004 0.443596
O O13 0.859340 0.383203 0.403192
O O14 0.845144 0.709965 0.653924
O O15 0.731334 0.000000 0.529949
O O16 0.000000 0.185575 0.000000
#
# Coordination Sequence:
#
# PCOD8116599 Si02
#       7
#     8   8   8   8   8   8   8
#     4  11  25  45  64  86 122 168 213 252 293 361
#     4  11  22  37  60  93 125 156 195 251 309 361
#     4  11  23  37  60  94 123 157 197 248 309 372
#     4  11  24  38  67  93 118 161 207 254 305 363
#     4  12  22  37  61  92 129 157 191 252 315 361
#     4  10  24  43  62  85 120 162 208 254 299 358
#     4  12  23  40  61  91 130 161 200 253 306 367
#
# _framework density 10.313243
#
# number of rings (size 3 to 8) (size 9 to 14) (size 15 to 20)
#    0.000    0.857    4.286    3.000    2.000    1.714 
#    0.000    2.143    0.000    0.000    0.000    8.000 
#    0.000    0.000    0.000    0.000    0.000    0.000 
#
# Total GULP energy -346980.624617 kJ/mol
# GULP energy per Si atom -12392.165165 kJ/mol
# Density = 1.028977 g / cm^3
# Si number density = 10.313243 Si / 1000 Ang^3
#
#
#
# Elastic Constant Matrix: (Units=GPa)
#
#
# Indices 1 2 3 4 5 6 
#
# 1 48.2668 39.8285 21.1080 -0.0596 9.4505 -0.0077
# 2 39.8285 62.7963 26.7937 -0.0210 12.2087 0.0056
# 3 21.1080 26.7937 95.4262 0.0696 13.1813 -0.0463
# 4 -0.0596 -0.0210 0.0696 37.0811 0.0651 4.6715
# 5 9.4505 12.2087 13.1813 0.0651 41.7848 -0.0374
# 6 -0.0077 0.0056 -0.0463 4.6715 -0.0374 26.7226
#
#
#
# Elastic Compliance Matrix: (Units=1/GPa)
#
#
# Indices 1 2 3 4 5 6 
#
# 1 0.043938 -0.026719 -0.002010 0.000062 -0.001497 0.000002
# 2 -0.026719 0.034953 -0.003480 -0.000008 -0.003072 -0.000024
# 3 -0.002010 -0.003480 0.012231 -0.000027 -0.002387 0.000023
# 4 0.000062 -0.000008 -0.000027 0.027575 -0.000050 -0.004821
# 5 -0.001497 -0.003072 -0.002387 -0.000050 0.025921 0.000041
# 6 0.000002 -0.000024 0.000023 -0.004821 0.000041 0.038264
#
#
# Mechanical properties :
#
#
# Convention : Reuss Voigt Hill
#
# Bulk Modulus (GPa) = 37.44721 42.43884 39.94303
# Shear Modulus (GPa) = 19.51586 29.03496 24.27541
#
# Velocity S-wave (km/s) = 3.07930 3.75594 3.43433
# Velocity P-wave (km/s) = 5.55312 6.27926 5.92732
#
# Compressibility (1/GPa) = 0.02670426
#
# Stress axis : x y z
#
# Youngs Moduli (GPa) = 22.75924 28.60992 81.76164
#
# Poissons Ratio (x) = 0.76443 0.16435
# Poissons Ratio (y) = 0.60811 0.28450
# Poissons Ratio (z) = 0.04575 0.09955
#
# Static dielectric constant tensor:
#      x y z
#    x 3.891030 -0.000210 0.190460 
#    y -0.000210 3.601210 0.000370 
#    z 0.190460 0.000370 4.175550 
# 
# 
# High freq. dielectric constant tensor:
#      x y z
#    x 1.812800 -0.000010 0.001100 
#    y -0.000010 1.788070 0.000020 
#    z 0.001100 0.000020 1.834140 
# 
# From -- ./inp_files/285995.got.cif
#   From: 2010.06.25/outbox.ucp.g09.slc.cvg/sg12_143_cif.got.tgz:285995.got - 2010.06.28 13:50:54.
