data_PCOD8116684
_publ_section_title
;
Structure prediction by ZEFSAII (Michael W. Deem and Ramdas Pophale) SiO2 
 PCOD8116684
Probable space group: P 2/C
;
_chemical_formula_sum "Si O2"
_cell_formula_units_Z 24
_cell_length_a 8.416981
_cell_length_b 25.238018
_cell_length_c 5.262562
_cell_angle_alpha 90.000000
_cell_angle_beta 90.334715
_cell_angle_gamma 90.000000
_cell_volume 1117.896013
_symmetry_space_group_name_H-M "P 2/C"
_symmetry_group_IT_number 13
_symmetry_cell_setting 'monoclinic'
loop_
_space_group_symop_operation_xyz
x,y,z
-x,y,1/2-z
-x,-y,-z
x,-y,1/2+z
loop_
_atom_site_type_symbol
_atom_site_label
_atom_site_fract_x
_atom_site_fract_y
_atom_site_fract_z
Si Si1 0.326558 0.355200 0.161913
Si Si2 0.822489 0.807791 0.473447
Si Si3 0.822594 0.852767 0.975572
Si Si4 0.177352 0.022508 0.020990
Si Si5 0.173231 0.314425 0.659958
Si Si6 0.677311 0.522315 0.968550
O O1 0.500000 0.336479 0.250000
O O2 0.215436 0.348694 0.409758
O O3 0.323924 0.415582 0.074927
O O4 0.284037 0.321324 0.909728
O O5 0.735071 0.824721 0.734764
O O6 0.822163 0.745471 0.435489
O O7 0.000593 0.829759 0.498513
O O8 0.733575 0.836253 0.235411
O O9 0.825043 0.915160 0.938365
O O10 0.265775 0.994847 0.261662
O O11 0.000000 0.000000 0.000000
O O12 0.000000 0.332194 0.750000
O O13 0.765200 0.492551 0.733998
O O14 0.500000 0.500000 0.000000
#
# Coordination Sequence:
#
# PCOD8116684 Si02
#       6
#     4   4   4   4   4   4
#     4  12  25  41  67 100 120 157 206 252 308 356
#     4  10  18  31  48  69  98 150 202 235 267 347
#     4  10  17  27  47  63 100 144 214 229 277 365
#     4  10  16  23  34  60  93 133 188 251 293 327
#     4  12  25  41  62  89 133 162 201 260 303 356
#     4  10  19  36  67  93 114 146 203 241 277 359
#
# _framework density 21.468902
#
# number of rings (size 3 to 8) (size 9 to 14) (size 15 to 20)
#    0.000    1.333    3.333    8.000    4.667    0.000 
#    0.000    0.000    0.000   10.000    0.000    0.000 
#    0.000    0.000    0.000    0.000    0.000  710.000 
#
# Total GULP energy -297357.818903 kJ/mol
# GULP energy per Si atom -12389.909121 kJ/mol
# Density = 2.142004 g / cm^3
# Si number density = 21.468902 Si / 1000 Ang^3
#
#
#
# Elastic Constant Matrix: (Units=GPa)
#
#
# Indices 1 2 3 4 5 6 
#
# 1 29.9133 37.0732 26.9604 0.0000 0.8003 0.0000
# 2 37.0732 143.9078 74.6141 0.0000 -0.1911 0.0000
# 3 26.9604 74.6141 263.4013 0.0000 1.0600 0.0000
# 4 0.0000 0.0000 0.0000 46.4514 0.0000 12.5260
# 5 0.8003 -0.1911 1.0600 0.0000 19.5385 0.0000
# 6 0.0000 0.0000 0.0000 12.5260 0.0000 -0.1787
#
#
#
# Elastic Compliance Matrix: (Units=1/GPa)
#
#
# Indices 1 2 3 4 5 6 
#
# 1 0.049844 -0.011959 -0.001706 0.000000 -0.002066 0.000000
# 2 -0.011959 0.011015 -0.001899 0.000000 0.000701 0.000000
# 3 -0.001706 -0.001899 0.004510 0.000000 -0.000193 0.000000
# 4 0.000000 0.000000 0.000000 0.001082 0.000000 0.075822
# 5 -0.002066 0.000701 -0.000193 0.000000 0.051283 0.000000
# 6 0.000000 0.000000 0.000000 0.075822 0.000000 -0.281177
#
#
# Mechanical properties :
#
#
# Convention : Reuss Voigt Hill
#
# Bulk Modulus (GPa) = 29.20443 79.39088 54.29766
# Shear Modulus (GPa) = -41.35592 33.06722 -4.14435
#
# Velocity S-wave (km/s) = -4.39374 3.92884 -1.39089
# Velocity P-wave (km/s) = 3.47956 7.59216 4.77145
#
# Compressibility (1/GPa) = 0.03424138
#
# Stress axis : x y z
#
# Youngs Moduli (GPa) = 20.06257 90.78264 221.73817
#
# Poissons Ratio (x) = 1.08567 0.37825
# Poissons Ratio (y) = 0.23993 0.42110
# Poissons Ratio (z) = 0.03422 0.17240
#
# Static dielectric constant tensor:
#      x y z
#    x 3.131750 0.000000 -0.432020 
#    y 0.000000 3.881310 0.000000 
#    z -0.432020 0.000000 3.948370 
# 
# 
# High freq. dielectric constant tensor:
#      x y z
#    x 1.751340 0.000000 -0.000140 
#    y 0.000000 1.853960 0.000000 
#    z -0.000140 0.000000 1.899340 
# 
# From -- ./inp_files/2422.got.cif
#   From: 2010.06.25/outbox.cif.g09.slc.cpg/sg13_2_cif.got.tgz:2422.got - 2010.06.28 04:50:58.
