data_PCOD8116554
_publ_section_title
;
Structure prediction by ZEFSAII (Michael W. Deem and Ramdas Pophale) SiO2 
 PCOD8116554
Probable space group: C 2/M
;
_chemical_formula_sum "Si O2"
_cell_formula_units_Z 32
_cell_length_a 30.000000
_cell_length_b 9.000000
_cell_length_c 18.000000
_cell_angle_alpha 90.000000
_cell_angle_beta 40.000000
_cell_angle_gamma 90.000000
_cell_volume 3123.947783
_symmetry_space_group_name_H-M "C 2/M"
_symmetry_group_IT_number 12
_symmetry_cell_setting 'monoclinic'
loop_
_space_group_symop_operation_xyz
x,y,z
-x,y,-z
-x,-y,-z
x,-y,z
1/2+x,1/2+y,z
1/2-x,1/2+y,-z
1/2-x,1/2-y,-z
1/2+x,1/2-y,z
loop_
_atom_site_type_symbol
_atom_site_label
_atom_site_fract_x
_atom_site_fract_y
_atom_site_fract_z
Si Si1 0.184416 0.676241 0.123141
Si Si2 0.808212 0.828662 0.731139
Si Si3 0.841733 0.331787 0.136090
Si Si4 0.600301 0.325739 0.521028
Si Si5 0.962066 0.168188 0.917695
Si Si6 0.680189 0.674970 0.561016
Si Si7 0.046625 0.829391 0.243541
Si Si8 0.408467 0.828552 0.208223
O O1 0.189853 0.500000 0.107361
O O2 0.186285 0.719582 0.206804
O O3 0.113079 0.729908 0.177084
O O4 0.250000 0.750000 0.000000
O O5 0.739060 0.799027 0.771999
O O6 0.872238 0.788560 0.595905
O O7 0.811761 0.000000 0.753356
O O8 0.859817 0.500000 0.089338
O O9 0.862026 0.304327 0.195183
O O10 0.883248 0.218749 0.031353
O O11 0.596175 0.500000 0.541814
O O12 0.654392 0.263280 0.513742
O O13 0.521276 0.265112 0.626947
O O14 0.975378 0.182619 0.813699
O O15 0.011700 0.276545 0.903040
O O16 0.972143 0.000000 0.932581
O O17 0.693507 0.500000 0.542238
O O18 0.750000 0.750000 0.500000
O O19 0.619382 0.716207 0.694770
O O20 0.063788 0.000000 0.243621
O O21 0.405938 0.000000 0.236881
#
# Coordination Sequence:
#
# PCOD8116554 Si02
#       8
#     8   8   8   8   8   8   8   8
#     4  12  26  44  66  95 126 157 199 253 310 373
#     4  10  21  41  67  91 119 160 205 249 301 363
#     4  10  22  38  57  85 121 162 209 255 306 368
#     4   9  19  39  65  90 123 163 207 250 299 367
#     4  11  22  37  59  88 121 159 206 258 309 365
#     4  11  21  37  59  88 123 164 212 259 303 357
#     4  10  21  41  66  92 123 163 207 253 306 367
#     4  11  22  37  57  85 121 162 206 254 308 367
#
# _framework density 10.243449
#
# number of rings (size 3 to 8) (size 9 to 14) (size 15 to 20)
#    0.000    1.500    1.250    4.125    0.000    8.500 
#    0.000    5.625    0.000    0.000    0.000    0.000 
#    0.000    0.000    0.000    0.000    0.000    0.000 
#
# Total GULP energy -396836.130066 kJ/mol
# GULP energy per Si atom -12401.129065 kJ/mol
# Density = 1.022013 g / cm^3
# Si number density = 10.243449 Si / 1000 Ang^3
#
#
#
# Elastic Constant Matrix: (Units=GPa)
#
#
# Indices 1 2 3 4 5 6 
#
# 1 111.2643 50.6395 37.9465 0.0068 -16.5572 -0.0071
# 2 50.6395 104.4980 43.7103 0.0229 -5.9032 -0.0087
# 3 37.9465 43.7103 110.3172 0.0394 -11.9277 -0.0251
# 4 0.0068 0.0229 0.0394 32.8257 -0.0135 -3.2224
# 5 -16.5572 -5.9032 -11.9277 -0.0135 34.6486 0.0023
# 6 -0.0071 -0.0087 -0.0251 -3.2224 0.0023 35.7041
#
#
#
# Elastic Compliance Matrix: (Units=1/GPa)
#
#
# Indices 1 2 3 4 5 6 
#
# 1 0.012599 -0.005084 -0.001830 0.000005 0.004524 0.000000
# 2 -0.005084 0.013528 -0.003765 -0.000005 -0.001421 -0.000001
# 3 -0.001830 -0.003765 0.011448 -0.000009 0.002425 0.000006
# 4 0.000005 -0.000005 -0.000009 0.030736 0.000010 0.002774
# 5 0.004524 -0.001421 0.002425 0.000010 0.031616 0.000001
# 6 0.000000 -0.000001 0.000006 0.002774 0.000001 0.028258
#
#
# Mechanical properties :
#
#
# Convention : Reuss Voigt Hill
#
# Bulk Modulus (GPa) = 61.66483 65.63022 63.64753
# Shear Modulus (GPa) = 32.26848 33.55454 32.91151
#
# Velocity S-wave (km/s) = 3.97303 4.05143 4.01242
# Velocity P-wave (km/s) = 7.15623 7.34780 7.25265
#
# Compressibility (1/GPa) = 0.01621670
#
# Stress axis : x y z
#
# Youngs Moduli (GPa) = 79.37091 73.92086 87.35011
#
# Poissons Ratio (x) = 0.37584 0.15985
# Poissons Ratio (y) = 0.40356 0.32886
# Poissons Ratio (z) = 0.14525 0.27830
#
# Static dielectric constant tensor:
#      x y z
#    x 3.802290 -0.000010 -0.184450 
#    y -0.000010 3.615060 0.000050 
#    z -0.184450 0.000050 3.904830 
# 
# 
# High freq. dielectric constant tensor:
#      x y z
#    x 1.812250 0.000000 -0.010650 
#    y 0.000000 1.785520 0.000000 
#    z -0.010650 0.000000 1.808880 
# 
# From -- ./inp_files/295472.got.cif
#   From: 2010.06.25/outbox.ucp.g09.slc.cvg/sg12_148_cif.got.tgz:295472.got - 2010.06.28 13:50:54.
