data_PCOD8116469
_publ_section_title
;
Structure prediction by ZEFSAII (Michael W. Deem and Ramdas Pophale) SiO2 
 PCOD8116469
Probable space group: C 2/M
;
_chemical_formula_sum "Si O2"
_cell_formula_units_Z 20
_cell_length_a 15.000000
_cell_length_b 18.000000
_cell_length_c 24.000000
_cell_angle_alpha 90.000000
_cell_angle_beta 20.000000
_cell_angle_gamma 90.000000
_cell_volume 2216.290529
_symmetry_space_group_name_H-M "C 2/M"
_symmetry_group_IT_number 12
_symmetry_cell_setting 'monoclinic'
loop_
_space_group_symop_operation_xyz
x,y,z
-x,y,-z
-x,-y,-z
x,-y,z
1/2+x,1/2+y,z
1/2-x,1/2+y,-z
1/2-x,1/2-y,-z
1/2+x,1/2-y,z
loop_
_atom_site_type_symbol
_atom_site_label
_atom_site_fract_x
_atom_site_fract_y
_atom_site_fract_z
Si Si1 0.470081 0.666633 0.638926
Si Si2 0.524404 0.500000 0.398750
Si Si3 0.956156 0.500000 0.241095
Si Si4 0.449764 0.270403 0.172052
Si Si5 0.063289 0.253549 0.695152
Si Si6 0.644089 0.371495 0.969722
O O1 0.443390 0.576647 0.655173
O O2 0.214250 0.705688 0.762534
O O3 0.711646 0.690956 0.458292
O O4 0.515876 0.689768 0.676533
O O5 0.762094 0.500000 0.302954
O O6 0.232516 0.500000 0.594645
O O7 0.145810 0.428814 0.128876
O O8 0.351964 0.281621 0.293933
O O9 0.441809 0.345660 0.137849
O O10 0.750000 0.250000 0.000000
O O11 0.796154 0.298541 0.858719
O O12 0.500000 0.405994 0.000000
#
# Coordination Sequence:
#
# PCOD8116469 Si02
#       6
#     8   4   4   8   8   8
#     4  11  21  38  59  88 119 153 197 242 291 347
#     4  11  22  36  59  84 124 146 190 249 291 350
#     4  11  23  36  57  90 116 153 193 238 309 338
#     4  10  21  34  58  82 118 153 195 238 286 346
#     4  10  21  36  59  86 116 156 198 238 287 350
#     4  11  20  39  57  84 118 154 196 245 288 350
#
# _framework density 9.0240880000000008
#
# number of rings (size 3 to 8) (size 9 to 14) (size 15 to 20)
#    0.000    1.400    4.000    3.300    2.800    0.000 
#    0.000    1.000    0.000    9.600    0.000    5.600 
#    0.000    0.000    0.000    0.000    0.000    0.000 
#
# Total GULP energy -247869.324118 kJ/mol
# GULP energy per Si atom -12393.466206 kJ/mol
# Density = 0.900355 g / cm^3
# Si number density = 9.024088 Si / 1000 Ang^3
#
#
#
# Elastic Constant Matrix: (Units=GPa)
#
#
# Indices 1 2 3 4 5 6 
#
# 1 139.2267 56.4738 34.0171 -1.2865 14.5049 0.0124
# 2 56.4738 134.9251 39.1034 -0.1279 5.7484 0.1033
# 3 34.0171 39.1034 75.1389 -1.5931 3.1636 0.7732
# 4 -1.2865 -0.1279 -1.5931 37.1763 1.3268 -6.3609
# 5 14.5049 5.7484 3.1636 1.3268 38.0092 -0.3314
# 6 0.0124 0.1033 0.7732 -6.3609 -0.3314 33.0907
#
#
#
# Elastic Compliance Matrix: (Units=1/GPa)
#
#
# Indices 1 2 3 4 5 6 
#
# 1 0.009342 -0.003059 -0.002509 0.000326 -0.002904 0.000098
# 2 -0.003059 0.009764 -0.003702 -0.000229 0.000007 0.000013
# 3 -0.002509 -0.003702 0.016380 0.000553 0.000132 -0.000263
# 4 0.000326 -0.000229 0.000553 0.027884 -0.001063 0.005337
# 5 -0.002904 0.000007 0.000132 -0.001063 0.027443 0.000069
# 6 0.000098 0.000013 -0.000263 0.005337 0.000069 0.031253
#
#
# Mechanical properties :
#
#
# Convention : Reuss Voigt Hill
#
# Bulk Modulus (GPa) = 59.01063 67.60879 63.30971
# Shear Modulus (GPa) = 34.18687 36.30167 35.24427
#
# Velocity S-wave (km/s) = 4.35696 4.48970 4.42383
# Velocity P-wave (km/s) = 7.62089 8.02609 7.82611
#
# Compressibility (1/GPa) = 0.01694610
#
# Stress axis : x y z
#
# Youngs Moduli (GPa) = 107.04413 102.41489 61.04999
#
# Poissons Ratio (x) = 0.31328 0.15319
# Poissons Ratio (y) = 0.32744 0.22600
# Poissons Ratio (z) = 0.26860 0.37913
#
# Static dielectric constant tensor:
#      x y z
#    x 3.910270 0.000370 0.176190 
#    y 0.000370 3.380340 0.000310 
#    z 0.176190 0.000310 3.607400 
# 
# 
# High freq. dielectric constant tensor:
#      x y z
#    x 1.726610 0.000020 -0.009030 
#    y 0.000020 1.689510 0.000060 
#    z -0.009030 0.000060 1.710520 
# 
# From -- ./inp_files/144663.got.cif
#   From: 2010.06.25/outbox.ucp.g09.slc.cvg/sg12_73_cif.got.tgz:144663.got - 2010.06.28 13:50:54.
