data_PCOD8116639
_publ_section_title
;
Structure prediction by ZEFSAII (Michael W. Deem and Ramdas Pophale) SiO2 
 PCOD8116639
Probable space group: P 2/C
;
_chemical_formula_sum "Si O2"
_cell_formula_units_Z 24
_cell_length_a 26.545299
_cell_length_b 8.600160
_cell_length_c 5.299532
_cell_angle_alpha 90.000000
_cell_angle_beta 72.905772
_cell_angle_gamma 90.000000
_cell_volume 1156.402391
_symmetry_space_group_name_H-M "P 2/C"
_symmetry_group_IT_number 13
_symmetry_cell_setting 'monoclinic'
loop_
_space_group_symop_operation_xyz
x,y,z
-x,y,1/2-z
-x,-y,-z
x,-y,1/2+z
loop_
_atom_site_type_symbol
_atom_site_label
_atom_site_fract_x
_atom_site_fract_y
_atom_site_fract_z
Si Si1 0.795175 0.570641 0.051106
Si Si2 0.752150 0.899603 0.136361
Si Si3 0.061893 0.093185 0.659134
Si Si4 0.087547 0.560584 0.121773
Si Si5 0.478044 0.822359 0.032340
Si Si6 0.364244 0.092762 0.749441
O O1 0.767270 0.502069 0.840706
O O2 0.792313 0.756916 0.059423
O O3 0.855991 0.522543 0.958028
O O4 0.762215 0.014407 0.886826
O O5 0.692698 0.827888 0.212380
O O6 0.093545 0.254064 0.611174
O O7 0.000000 0.130528 0.750000
O O8 0.078565 0.999301 0.385282
O O9 0.056799 0.500979 0.417714
O O10 0.500000 0.737500 0.250000
O O11 0.414821 0.800846 0.121299
O O12 0.500000 0.737555 0.750000
O O13 0.500000 0.000000 0.000000
O O14 0.367965 0.955196 0.537232
#
# Coordination Sequence:
#
# PCOD8116639 Si02
#       6
#     4   4   4   4   4   4
#     4  10  21  40  58  78 110 145 188 232 273 331
#     4  10  21  35  55  79 108 139 177 232 280 326
#     4  10  21  38  60  87 120 151 184 229 280 327
#     4  10  21  38  58  85 114 149 190 229 269 329
#     4  10  14  20  34  55  91 132 154 189 253 323
#     4  10  16  25  39  64  95 132 161 204 260 324
#
# _framework density 20.754024000000001
#
# number of rings (size 3 to 8) (size 9 to 14) (size 15 to 20)
#    0.000    2.000    3.333    2.000    0.000    0.667 
#    0.000   20.000    0.000    0.000    0.000    0.000 
#    0.000    4.000    0.000    0.000    0.000    0.000 
#
# Total GULP energy -297373.446083 kJ/mol
# GULP energy per Si atom -12390.560253 kJ/mol
# Density = 2.070679 g / cm^3
# Si number density = 20.754024 Si / 1000 Ang^3
#
#
#
# Elastic Constant Matrix: (Units=GPa)
#
#
# Indices 1 2 3 4 5 6 
#
# 1 60.1479 37.9534 40.6406 0.0000 -11.0231 0.0000
# 2 37.9534 97.0023 39.9095 0.0000 4.0911 0.0000
# 3 40.6406 39.9095 158.4534 0.0000 58.4837 0.0000
# 4 0.0000 0.0000 0.0000 27.2579 0.0000 7.4573
# 5 -11.0231 4.0911 58.4837 0.0000 21.7536 0.0000
# 6 0.0000 0.0000 0.0000 7.4573 0.0000 7.8207
#
#
#
# Elastic Compliance Matrix: (Units=1/GPa)
#
#
# Indices 1 2 3 4 5 6 
#
# 1 0.002030 -0.005605 0.015846 0.000000 -0.040518 0.000000
# 2 -0.005605 0.013772 -0.003492 0.000000 0.003959 0.000000
# 3 0.015846 -0.003492 -0.010314 0.000000 0.036414 0.000000
# 4 0.000000 0.000000 0.000000 0.049635 0.000000 -0.047328
# 5 -0.040518 0.003959 0.036414 0.000000 -0.073204 0.000000
# 6 0.000000 0.000000 0.000000 -0.047328 0.000000 0.172994
#
#
# Mechanical properties :
#
#
# Convention : Reuss Voigt Hill
#
# Bulk Modulus (GPa) = 52.67147 61.40118 57.03633
# Shear Modulus (GPa) = 33.84222 24.50645 29.17434
#
# Velocity S-wave (km/s) = 4.04249 3.44001 3.75336
# Velocity P-wave (km/s) = 6.87190 6.74000 6.80627
#
# Compressibility (1/GPa) = 0.01898561
#
# Stress axis : x y z
#
# Youngs Moduli (GPa) = 492.56917 72.61166 -96.95963
#
# Poissons Ratio (x) = 0.40698 1.53640
# Poissons Ratio (y) = 2.76079 -0.33861
# Poissons Ratio (z) = -7.80513 0.25358
#
# Static dielectric constant tensor:
#      x y z
#    x 4.140970 0.000000 1.327710 
#    y 0.000000 3.166510 0.000000 
#    z 1.327710 0.000000 7.526880 
# 
# 
# High freq. dielectric constant tensor:
#      x y z
#    x 1.802860 0.000000 0.018810 
#    y 0.000000 1.751210 0.000000 
#    z 0.018810 0.000000 1.852190 
# 
# From -- ./inp_files/7731.got.cif
#   From: 2010.06.25/outbox.cif.g09.slc.cpg/sg13_4_cif.got.tgz:7731.got - 2010.06.28 04:50:58.
