data_PCOD8116436
_publ_section_title
;
Structure prediction by ZEFSAII (Michael W. Deem and Ramdas Pophale) SiO2 
 PCOD8116436
Probable space group: C 2/M
;
_chemical_formula_sum "Si O2"
_cell_formula_units_Z 32
_cell_length_a 18.000000
_cell_length_b 9.000000
_cell_length_c 30.000000
_cell_angle_alpha 90.000000
_cell_angle_beta 40.000000
_cell_angle_gamma 90.000000
_cell_volume 3123.947783
_symmetry_space_group_name_H-M "C 2/M"
_symmetry_group_IT_number 12
_symmetry_cell_setting 'monoclinic'
loop_
_space_group_symop_operation_xyz
x,y,z
-x,y,-z
-x,-y,-z
x,-y,z
1/2+x,1/2+y,z
1/2-x,1/2+y,-z
1/2-x,1/2-y,-z
1/2+x,1/2-y,z
loop_
_atom_site_type_symbol
_atom_site_label
_atom_site_fract_x
_atom_site_fract_y
_atom_site_fract_z
Si Si1 0.316185 0.176383 0.361970
Si Si2 0.208994 0.175289 0.715238
Si Si3 0.995621 0.824916 0.868692
Si Si4 0.466806 0.668479 0.718013
Si Si5 0.168599 0.321704 0.500517
Si Si6 0.412894 0.324067 0.001722
Si Si7 0.936517 0.831308 0.632627
Si Si8 0.171515 0.824345 0.131771
O O1 0.353333 0.266355 0.300477
O O2 0.429349 0.214759 0.338945
O O3 0.203808 0.249797 0.436765
O O4 0.299221 0.000000 0.363318
O O5 0.324555 0.270404 0.659829
O O6 0.127670 0.215424 0.794872
O O7 0.234115 0.000000 0.701813
O O8 0.961107 0.758493 0.932647
O O9 0.911175 0.762708 0.869278
O O10 0.982041 0.000000 0.876348
O O11 0.511639 0.500000 0.707619
O O12 0.402763 0.672076 0.700159
O O13 0.379902 0.722382 0.796581
O O14 0.182889 0.500000 0.493218
O O15 0.250000 0.250000 0.500000
O O16 0.038458 0.277466 0.571053
O O17 0.398996 0.500000 0.005576
O O18 0.500000 0.274490 0.000000
O O19 0.292089 0.254275 0.069665
O O20 0.964281 0.000000 0.604424
O O21 0.188518 0.000000 0.121106
#
# Coordination Sequence:
#
# PCOD8116436 Si02
#       8
#     8   8   8   8   8   8   8   8
#     4  12  24  40  65  95 126 161 209 260 309 373
#     4  11  23  42  65  89 125 167 207 258 320 376
#     4   9  19  38  62  85 118 163 205 249 307 371
#     4  10  21  39  63  89 124 164 205 259 315 369
#     4  12  24  41  65  94 126 166 211 256 312 371
#     4  10  22  38  57  88 126 160 199 252 307 360
#     4  11  24  41  62  93 128 162 207 261 314 372
#     4  10  20  38  62  87 117 161 208 249 301 367
#
# _framework density 10.243449
#
# number of rings (size 3 to 8) (size 9 to 14) (size 15 to 20)
#    0.000    1.375    2.500    3.375    1.750    1.750 
#    0.000    3.750    0.000    0.000    0.000    0.000 
#    0.000    0.000    0.000    0.000    0.000    0.000 
#
# Total GULP energy -396726.707289 kJ/mol
# GULP energy per Si atom -12397.709603 kJ/mol
# Density = 1.022013 g / cm^3
# Si number density = 10.243449 Si / 1000 Ang^3
#
#
#
# Elastic Constant Matrix: (Units=GPa)
#
#
# Indices 1 2 3 4 5 6 
#
# 1 49.6664 22.6237 30.6373 0.0012 -3.0059 0.0035
# 2 22.6237 92.9043 41.1732 0.0031 2.6010 0.0055
# 3 30.6373 41.1732 141.8268 0.0004 7.0276 0.0001
# 4 0.0012 0.0031 0.0004 37.5512 -0.0002 -4.7591
# 5 -3.0059 2.6010 7.0276 -0.0002 36.6424 0.0008
# 6 0.0035 0.0055 0.0001 -4.7591 0.0008 24.0218
#
#
#
# Elastic Compliance Matrix: (Units=1/GPa)
#
#
# Indices 1 2 3 4 5 6 
#
# 1 0.024918 -0.004248 -0.004307 -0.000001 0.003172 -0.000003
# 2 -0.004248 0.013079 -0.002843 -0.000001 -0.000732 -0.000003
# 3 -0.004307 -0.002843 0.008899 0.000000 -0.001858 0.000001
# 4 -0.000001 -0.000001 0.000000 0.027316 0.000000 0.005412
# 5 0.003172 -0.000732 -0.001858 0.000000 0.027959 -0.000001
# 6 -0.000003 -0.000003 0.000001 0.005412 -0.000001 0.042701
#
#
# Mechanical properties :
#
#
# Convention : Reuss Voigt Hill
#
# Bulk Modulus (GPa) = 41.49404 52.58510 47.03957
# Shear Modulus (GPa) = 28.45757 32.30731 30.38244
#
# Velocity S-wave (km/s) = 3.73106 3.97542 3.85518
# Velocity P-wave (km/s) = 6.23369 6.84071 6.54425
#
# Compressibility (1/GPa) = 0.02409985
#
# Stress axis : x y z
#
# Youngs Moduli (GPa) = 40.13172 76.46060 112.37788
#
# Poissons Ratio (x) = 0.32481 0.48397
# Poissons Ratio (y) = 0.17048 0.31948
# Poissons Ratio (z) = 0.17283 0.21737
#
# Static dielectric constant tensor:
#      x y z
#    x 3.744820 0.000000 0.230850 
#    y 0.000000 3.588880 0.000000 
#    z 0.230850 0.000000 3.950870 
# 
# 
# High freq. dielectric constant tensor:
#      x y z
#    x 1.793810 0.000000 0.010050 
#    y 0.000000 1.791870 0.000000 
#    z 0.010050 0.000000 1.819020 
# 
# From -- ./inp_files/378041.got.cif
#   From: 2010.06.25/outbox.ucp.g09.slc.cvg/sg12_190_cif.got.tgz:378041.got - 2010.06.28 13:50:54.
