data_PCOD8116818
_publ_section_title
;
Structure prediction by ZEFSAII (Michael W. Deem and Ramdas Pophale) SiO2 
 PCOD8116818
Probable space group: P 2/C
;
_chemical_formula_sum "Si O2"
_cell_formula_units_Z 22
_cell_length_a 16.422395
_cell_length_b 8.432554
_cell_length_c 20.757114
_cell_angle_alpha 90.000000
_cell_angle_beta 22.529359
_cell_angle_gamma 90.000000
_cell_volume 1101.384904
_symmetry_space_group_name_H-M "P 2/C"
_symmetry_group_IT_number 13
_symmetry_cell_setting 'monoclinic'
loop_
_space_group_symop_operation_xyz
x,y,z
-x,y,1/2-z
-x,-y,-z
x,-y,1/2+z
loop_
_atom_site_type_symbol
_atom_site_label
_atom_site_fract_x
_atom_site_fract_y
_atom_site_fract_z
Si Si1 0.775794 0.108296 0.384050
Si Si2 0.353313 0.112870 0.410109
Si Si3 0.454771 0.375091 0.589614
Si Si4 0.576880 0.536436 0.622912
Si Si5 0.000000 0.584234 0.250000
Si Si6 0.883245 0.185556 0.731434
O O1 0.660516 0.262943 0.442230
O O2 0.000000 0.161366 0.250000
O O3 0.651945 0.015501 0.530172
O O4 0.792248 0.988902 0.311754
O O5 0.500000 0.029440 0.250000
O O6 0.461275 0.275842 0.354772
O O7 0.133057 0.164544 0.536508
O O8 0.500000 0.500000 0.500000
O O9 0.424047 0.457926 0.681212
O O10 0.243114 0.269043 0.734311
O O11 0.500000 0.475087 0.750000
O O12 0.827116 0.489940 0.421377
O O13 0.849934 0.700271 0.317619
#
# Coordination Sequence:
#
# PCOD8116818 Si02
#       6
#     4   4   4   4   2   4
#     4  10  20  36  61  87 114 157 208 242 300 372
#     4   9  18  38  62  81 115 162 199 245 309 363
#     4  12  23  34  60  93 126 157 201 259 301 356
#     4  10  21  37  60  88 122 166 204 241 314 367
#     4  10  16  38  64  78 122 164 202 246 312 362
#     4  10  18  37  60  87 113 156 210 250 295 362
#
# _framework density 19.974851999999998
#
# number of rings (size 3 to 8) (size 9 to 14) (size 15 to 20)
#    0.000    1.818    6.364    0.545    1.273    0.727 
#    0.000    9.091    0.000    0.000    0.000    0.000 
#    0.000    0.000    0.000    0.000    0.000    0.000 
#
# Total GULP energy -272580.086121 kJ/mol
# GULP energy per Si atom -12390.003915 kJ/mol
# Density = 1.992939 g / cm^3
# Si number density = 19.974852 Si / 1000 Ang^3
#
#
#
# Elastic Constant Matrix: (Units=GPa)
#
#
# Indices 1 2 3 4 5 6 
#
# 1 122.2208 69.6782 42.2709 0.0000 4.4096 0.0000
# 2 69.6782 97.4408 40.4504 0.0000 -3.7932 0.0000
# 3 42.2709 40.4504 111.4174 0.0000 17.6894 0.0000
# 4 0.0000 0.0000 0.0000 20.4057 0.0000 -9.1534
# 5 4.4096 -3.7932 17.6894 0.0000 27.7296 0.0000
# 6 0.0000 0.0000 0.0000 -9.1534 0.0000 45.5636
#
#
#
# Elastic Compliance Matrix: (Units=1/GPa)
#
#
# Indices 1 2 3 4 5 6 
#
# 1 0.014349 -0.009750 -0.001480 0.000000 -0.002672 0.000000
# 2 -0.009750 0.019353 -0.004444 0.000000 0.007033 0.000000
# 3 -0.001480 -0.004444 0.012472 0.000000 -0.008329 0.000000
# 4 0.000000 0.000000 0.000000 0.053860 0.000000 0.010820
# 5 -0.002672 0.007033 -0.008329 0.000000 0.042763 0.000000
# 6 0.000000 0.000000 0.000000 0.010820 0.000000 0.024121
#
#
# Mechanical properties :
#
#
# Convention : Reuss Voigt Hill
#
# Bulk Modulus (GPa) = 67.44452 70.65310 69.04881
# Shear Modulus (GPa) = 24.60542 30.65173 27.62858
#
# Velocity S-wave (km/s) = 3.51354 3.92154 3.72313
# Velocity P-wave (km/s) = 7.09210 7.48014 7.28870
#
# Compressibility (1/GPa) = 0.01482700
#
# Stress axis : x y z
#
# Youngs Moduli (GPa) = 69.69268 51.67078 80.17753
#
# Poissons Ratio (x) = 0.50380 0.11865
# Poissons Ratio (y) = 0.67952 0.35628
# Poissons Ratio (z) = 0.10313 0.22961
#
# Static dielectric constant tensor:
#      x y z
#    x 3.727520 0.000000 -0.010310 
#    y 0.000000 3.616640 0.000000 
#    z -0.010310 0.000000 3.639930 
# 
# 
# High freq. dielectric constant tensor:
#      x y z
#    x 1.762790 0.000000 -0.003450 
#    y 0.000000 1.779430 0.000000 
#    z -0.003450 0.000000 1.767320 
# 
# From -- ./inp_files/62980.got.cif
#   From: 2010.06.25/outbox.cif.g09.slc.cpg/sg13_32_cif.got.tgz:62980.got - 2010.06.28 04:50:58.
