data_PCOD8116846
_publ_section_title
;
Structure prediction by ZEFSAII (Michael W. Deem and Ramdas Pophale) SiO2 
 PCOD8116846
Probable space group: P 2/C
;
_chemical_formula_sum "Si O2"
_cell_formula_units_Z 24
_cell_length_a 19.063350
_cell_length_b 11.403957
_cell_length_c 12.423921
_cell_angle_alpha 90.000000
_cell_angle_beta 149.982138
_cell_angle_gamma 90.000000
_cell_volume 1351.194594
_symmetry_space_group_name_H-M "P 2/C"
_symmetry_group_IT_number 13
_symmetry_cell_setting 'monoclinic'
loop_
_space_group_symop_operation_xyz
x,y,z
-x,y,1/2-z
-x,-y,-z
x,-y,1/2+z
loop_
_atom_site_type_symbol
_atom_site_label
_atom_site_fract_x
_atom_site_fract_y
_atom_site_fract_z
Si Si1 0.576364 0.925066 0.453664
Si Si2 0.663097 0.312521 0.991405
Si Si3 0.707572 0.471199 0.248764
Si Si4 0.512637 0.360771 0.142978
Si Si5 0.628933 0.152166 0.638767
Si Si6 0.157653 0.678754 0.982990
O O1 0.500000 0.983600 0.250000
O O2 0.680524 0.822071 0.553406
O O3 0.454840 0.863899 0.362088
O O4 0.661741 0.025210 0.630274
O O5 0.500000 0.343225 0.750000
O O6 0.729885 0.393040 0.173163
O O7 0.753373 0.336783 0.006745
O O8 0.666050 0.389499 0.296840
O O9 0.843093 0.551050 0.458536
O O10 0.590619 0.569115 0.071871
O O11 0.500000 0.400433 0.250000
O O12 0.471930 0.224281 0.076677
O O13 0.775338 0.218090 0.854714
O O14 0.000000 0.717612 0.750000
#
# Coordination Sequence:
#
# PCOD8116846 Si02
#       6
#     4   4   4   4   4   4
#     4  10  18  32  58  83 104 135 175 229 274 318
#     4  11  18  36  58  80 108 144 180 225 279 323
#     4  10  19  31  51  76 105 146 183 214 270 323
#     4  10  17  28  49  82 109 130 170 234 268 314
#     4  10  19  33  53  83 108 134 181 222 273 320
#     4  11  23  37  54  78 113 149 183 224 269 325
#
# _framework density 17.762059000000001
#
# number of rings (size 3 to 8) (size 9 to 14) (size 15 to 20)
#    0.000    1.667    5.000    4.000    0.000    0.667 
#    0.000    0.833    0.000    1.000    0.000    0.000 
#    0.000    0.000    0.000    0.000    0.000    0.000 
#
# Total GULP energy -297481.997375 kJ/mol
# GULP energy per Si atom -12395.083224 kJ/mol
# Density = 1.772163 g / cm^3
# Si number density = 17.762059 Si / 1000 Ang^3
#
#
#
# Elastic Constant Matrix: (Units=GPa)
#
#
# Indices 1 2 3 4 5 6 
#
# 1 77.5798 22.9499 29.3229 0.0000 -15.6219 0.0000
# 2 22.9499 104.1979 44.6824 0.0000 -7.1158 0.0000
# 3 29.3229 44.6824 79.3566 0.0000 1.4307 0.0000
# 4 0.0000 0.0000 0.0000 17.7770 0.0000 -13.4234
# 5 -15.6219 -7.1158 1.4307 0.0000 23.5989 0.0000
# 6 0.0000 0.0000 0.0000 -13.4234 0.0000 24.4735
#
#
#
# Elastic Compliance Matrix: (Units=1/GPa)
#
#
# Indices 1 2 3 4 5 6 
#
# 1 0.017964 -0.000238 -0.006724 0.000000 0.012228 0.000000
# 2 -0.000238 0.013096 -0.007362 0.000000 0.004238 0.000000
# 3 -0.006724 -0.007362 0.019373 0.000000 -0.007846 0.000000
# 4 0.000000 0.000000 0.000000 0.096020 0.000000 0.052666
# 5 0.012228 0.004238 -0.007846 0.000000 0.052223 0.000000
# 6 0.000000 0.000000 0.000000 0.052666 0.000000 0.069747
#
#
# Mechanical properties :
#
#
# Convention : Reuss Voigt Hill
#
# Bulk Modulus (GPa) = 45.90566 50.56053 48.23309
# Shear Modulus (GPa) = 16.42932 24.11516 20.27224
#
# Velocity S-wave (km/s) = 3.04463 3.68867 3.38201
# Velocity P-wave (km/s) = 6.18551 6.83147 6.51650
#
# Compressibility (1/GPa) = 0.02178381
#
# Stress axis : x y z
#
# Youngs Moduli (GPa) = 55.66617 76.35885 51.61857
#
# Poissons Ratio (x) = 0.01818 0.34710
# Poissons Ratio (y) = 0.01325 0.38003
# Poissons Ratio (z) = 0.37432 0.56217
#
# Static dielectric constant tensor:
#      x y z
#    x 3.189690 0.000000 -0.238320 
#    y 0.000000 3.482720 0.000000 
#    z -0.238320 0.000000 3.062890 
# 
# 
# High freq. dielectric constant tensor:
#      x y z
#    x 1.683780 0.000000 -0.036080 
#    y 0.000000 1.700100 0.000000 
#    z -0.036080 0.000000 1.640260 
# 
# From -- ./inp_files/29365.got.cif
#   From: 2010.06.25/outbox.cif.g09.slc.cpg/sg13_15_cif.got.tgz:29365.got - 2010.06.28 04:50:58.
