data_PCOD8116055
_publ_section_title
;
Structure prediction by ZEFSAII (Michael W. Deem and Ramdas Pophale) SiO2 
 PCOD8116055
Probable space group: C 2/M
;
_chemical_formula_sum "Si O2"
_cell_formula_units_Z 64
_cell_length_a 25.261784
_cell_length_b 9.147192
_cell_length_c 30.476237
_cell_angle_alpha 90.000000
_cell_angle_beta 144.130771
_cell_angle_gamma 90.000000
_cell_volume 4126.332800
_symmetry_space_group_name_H-M "C 2/M"
_symmetry_group_IT_number 12
_symmetry_cell_setting 'monoclinic'
loop_
_space_group_symop_operation_xyz
x,y,z
-x,y,-z
-x,-y,-z
x,-y,z
1/2+x,1/2+y,z
1/2-x,1/2+y,-z
1/2-x,1/2-y,-z
1/2+x,1/2-y,z
loop_
_atom_site_type_symbol
_atom_site_label
_atom_site_fract_x
_atom_site_fract_y
_atom_site_fract_z
Si Si1 0.740399 0.330970 0.295179
Si Si2 0.294803 0.165111 0.860317
Si Si3 0.558232 0.334645 0.995037
Si Si4 0.777873 0.328645 0.418874
Si Si5 0.055007 0.669076 0.412606
Si Si6 0.411198 0.164533 0.850757
Si Si7 0.144888 0.672425 0.711648
Si Si8 0.180537 0.670047 0.422050
O O1 0.713126 0.500000 0.272829
O O2 0.782788 0.293546 0.370759
O O3 0.648972 0.239074 0.227364
O O4 0.815628 0.289798 0.309729
O O5 0.356008 0.164836 0.858488
O O6 0.201640 0.248189 0.787771
O O7 0.274373 0.000000 0.862037
O O8 0.347683 0.249682 0.934381
O O9 0.579427 0.500000 0.994583
O O10 0.503616 0.254423 0.919467
O O11 0.500000 0.334136 0.000000
O O12 0.766160 0.500000 0.420487
O O13 0.869534 0.266354 0.503212
O O14 0.690203 0.246353 0.380896
O O15 0.046894 0.500000 0.418968
O O16 0.083081 0.691512 0.380180
O O17 0.956493 0.738704 0.354508
O O18 0.435312 0.000000 0.852461
O O19 0.148191 0.500000 0.723488
O O20 0.204641 0.500000 0.434110
O O21 0.250000 0.750000 0.500000
#
# Coordination Sequence:
#
# PCOD8116055 Si02
#       8
#     8   8   8   8   8   8   8   8
#     4   9  17  27  40  58  82 111 141 170 201 241
#     4   9  16  25  36  53  78 106 135 167 202 240
#     4   9  15  23  37  55  74 100 136 171 201 237
#     4   9  17  29  43  61  83 107 137 173 209 245
#     4   8  15  27  43  61  80 103 136 175 210 244
#     4   9  16  25  37  53  77 107 136 167 203 240
#     4   9  16  27  41  57  80 111 141 169 203 242
#     4   9  16  28  45  63  80 100 130 171 215 252
#
# _framework density 15.51014
#
# number of rings (size 3 to 8) (size 9 to 14) (size 15 to 20)
#    0.000    3.125    0.000    2.250    0.000    5.500 
#    0.000    5.625    0.000    0.000    0.000    7.000 
#    0.000    1.000    0.000    3.000    0.000    5.000 
#
# Total GULP energy -396600.177614 kJ/mol
# GULP energy per Si atom -12393.755550 kJ/mol
# Density = 1.547484 g / cm^3
# Si number density = 15.510140 Si / 1000 Ang^3
#
#
#
# Elastic Constant Matrix: (Units=GPa)
#
#
# Indices 1 2 3 4 5 6 
#
# 1 61.8861 33.7813 49.2454 0.0000 6.4329 0.0000
# 2 33.7813 86.1521 50.6651 -0.0001 6.0944 0.0000
# 3 49.2454 50.6651 111.0769 0.0000 16.8837 0.0000
# 4 0.0000 -0.0001 0.0000 20.2336 0.0000 -1.4639
# 5 6.4329 6.0944 16.8837 0.0000 5.2817 0.0000
# 6 0.0000 0.0000 0.0000 -1.4639 0.0000 15.5594
#
#
#
# Elastic Compliance Matrix: (Units=1/GPa)
#
#
# Indices 1 2 3 4 5 6 
#
# 1 0.026453 -0.004557 -0.010798 0.000000 0.007556 0.000000
# 2 -0.004557 0.016890 -0.006934 0.000000 0.008227 0.000000
# 3 -0.010798 -0.006934 0.026721 0.000000 -0.064266 0.000000
# 4 0.000000 0.000000 0.000000 0.049762 -0.000001 0.004682
# 5 0.007556 0.008227 -0.064266 -0.000001 0.376073 0.000000
# 6 0.000000 0.000000 0.000000 0.004682 0.000000 0.064710
#
#
# Mechanical properties :
#
#
# Convention : Reuss Voigt Hill
#
# Bulk Modulus (GPa) = 39.23689 58.49983 48.86836
# Shear Modulus (GPa) = 8.14753 16.57649 12.36201
#
# Velocity S-wave (km/s) = 2.29444 3.27272 2.82623
# Velocity P-wave (km/s) = 5.68962 7.21665 6.49814
#
# Compressibility (1/GPa) = 0.02548622
#
# Stress axis : x y z
#
# Youngs Moduli (GPa) = 37.80282 59.20587 37.42338
#
# Poissons Ratio (x) = 0.26980 0.40409
# Poissons Ratio (y) = 0.17227 0.25951
# Poissons Ratio (z) = 0.40819 0.41055
#
# Static dielectric constant tensor:
#      x y z
#    x 3.021440 0.000000 -0.004590 
#    y 0.000000 3.083330 0.000000 
#    z -0.004590 0.000000 3.102980 
# 
# 
# High freq. dielectric constant tensor:
#      x y z
#    x 1.546820 0.000000 0.007570 
#    y 0.000000 1.595870 0.000000 
#    z 0.007570 0.000000 1.586740 
# 
# From -- ./inp_files/244009.got.cif
#   From: 2010.06.25/outbox.cif.g09.slc.cpg/sg12_123_cif.got.tgz:244009.got - 2010.06.28 00:19:55.
