data_PCOD8116117
_publ_section_title
;
Structure prediction by ZEFSAII (Michael W. Deem and Ramdas Pophale) SiO2 
 PCOD8116117
Probable space group: C 2/M
;
_chemical_formula_sum "Si O2"
_cell_formula_units_Z 64
_cell_length_a 19.288026
_cell_length_b 9.472922
_cell_length_c 21.665757
_cell_angle_alpha 90.000000
_cell_angle_beta 69.645573
_cell_angle_gamma 90.000000
_cell_volume 3711.454959
_symmetry_space_group_name_H-M "C 2/M"
_symmetry_group_IT_number 12
_symmetry_cell_setting 'monoclinic'
loop_
_space_group_symop_operation_xyz
x,y,z
-x,y,-z
-x,-y,-z
x,-y,z
1/2+x,1/2+y,z
1/2-x,1/2+y,-z
1/2-x,1/2-y,-z
1/2+x,1/2-y,z
loop_
_atom_site_type_symbol
_atom_site_label
_atom_site_fract_x
_atom_site_fract_y
_atom_site_fract_z
Si Si1 0.912355 0.840161 0.519880
Si Si2 0.398685 0.162961 0.639769
Si Si3 0.072040 0.661207 0.599140
Si Si4 0.660380 0.664286 0.814169
Si Si5 0.443254 0.163956 0.842891
Si Si6 0.823542 0.333716 0.786403
Si Si7 0.488939 0.665138 0.073405
Si Si8 0.404051 0.838136 0.270071
O O1 0.875485 0.756097 0.587917
O O2 0.890539 0.763083 0.462847
O O3 0.000000 0.837347 0.500000
O O4 0.881964 0.000000 0.528110
O O5 0.484386 0.180896 0.628971
O O6 0.352910 0.224702 0.711880
O O7 0.379404 0.000000 0.631394
O O8 0.091349 0.500000 0.575896
O O9 0.104885 0.702493 0.655560
O O10 0.659934 0.500000 0.798187
O O11 0.737798 0.708164 0.821992
O O12 0.594759 0.704752 0.881342
O O13 0.652221 0.744229 0.751893
O O14 0.370867 0.224007 0.829720
O O15 0.452350 0.251634 0.902954
O O16 0.512017 0.190817 0.776406
O O17 0.435416 0.000000 0.863151
O O18 0.836809 0.500000 0.780753
O O19 0.504780 0.500000 0.076598
O O20 0.500000 0.714521 0.000000
O O21 0.383079 0.000000 0.265005
#
# Coordination Sequence:
#
# PCOD8116117 Si02
#       8
#     8   8   8   8   8   8   8   8
#     4   9  17  26  36  59  93 121 147 186 231 272
#     4   9  15  26  44  63  85 116 151 186 230 278
#     4   9  15  25  43  64  85 114 152 190 230 274
#     4   9  18  31  48  69  93 123 155 186 227 276
#     4   9  16  29  50  73  93 116 153 196 230 263
#     4   9  16  29  49  71  93 118 153 195 233 272
#     4   9  18  33  50  69  97 130 157 181 218 272
#     4   9  16  28  46  68  92 117 150 194 236 272
#
# _framework density 17.243912000000002
#
# number of rings (size 3 to 8) (size 9 to 14) (size 15 to 20)
#    0.000    3.000    1.250    0.375    0.000    2.250 
#    0.000    2.500    0.000    0.750    0.000    0.000 
#    0.000    0.000    0.000    0.000    0.000    0.000 
#
# Total GULP energy -396745.595692 kJ/mol
# GULP energy per Si atom -12398.299865 kJ/mol
# Density = 1.720466 g / cm^3
# Si number density = 17.243912 Si / 1000 Ang^3
#
#
#
# Elastic Constant Matrix: (Units=GPa)
#
#
# Indices 1 2 3 4 5 6 
#
# 1 93.4658 37.9805 56.4169 0.0000 19.1149 0.0000
# 2 37.9805 68.4159 58.6754 0.0000 14.2657 0.0000
# 3 56.4169 58.6754 139.6211 0.0000 23.3862 0.0000
# 4 0.0000 0.0000 0.0000 25.3558 0.0000 7.7801
# 5 19.1149 14.2657 23.3862 0.0000 20.8017 0.0000
# 6 0.0000 0.0000 0.0000 7.7801 0.0000 17.6410
#
#
#
# Elastic Compliance Matrix: (Units=1/GPa)
#
#
# Indices 1 2 3 4 5 6 
#
# 1 0.016154 -0.004449 -0.003304 0.000000 -0.008077 0.000000
# 2 -0.004449 0.024704 -0.007923 0.000000 -0.003946 0.000000
# 3 -0.003304 -0.007923 0.012823 0.000000 -0.005946 0.000000
# 4 0.000000 0.000000 0.000000 0.045611 0.000000 -0.020115
# 5 -0.008077 -0.003946 -0.005946 0.000000 0.064887 0.000000
# 6 0.000000 0.000000 0.000000 -0.020115 0.000000 0.065558
#
#
# Mechanical properties :
#
#
# Convention : Reuss Voigt Hill
#
# Bulk Modulus (GPa) = 44.78823 67.51650 56.15237
# Shear Modulus (GPa) = 18.61972 22.65503 20.63737
#
# Velocity S-wave (km/s) = 3.28957 3.62857 3.46322
# Velocity P-wave (km/s) = 6.36067 7.53619 6.97324
#
# Compressibility (1/GPa) = 0.02232729
#
# Stress axis : x y z
#
# Youngs Moduli (GPa) = 61.90553 40.47861 77.98398
#
# Poissons Ratio (x) = 0.18010 0.25770
# Poissons Ratio (y) = 0.27544 0.61788
# Poissons Ratio (z) = 0.20457 0.32072
#
# Static dielectric constant tensor:
#      x y z
#    x 3.041750 0.000000 0.134070 
#    y 0.000000 3.134300 0.000000 
#    z 0.134070 0.000000 3.253570 
# 
# 
# High freq. dielectric constant tensor:
#      x y z
#    x 1.638490 0.000000 0.012510 
#    y 0.000000 1.650400 0.000000 
#    z 0.012510 0.000000 1.662600 
# 
# From -- ./inp_files/319106.got.cif
#   From: 2010.06.25/outbox.cif.g09.slc.cpg/sg12_160_cif.got.tgz:319106.got - 2010.06.28 00:19:55.
