data_PCOD8116667
_publ_section_title
;
Structure prediction by ZEFSAII (Michael W. Deem and Ramdas Pophale) SiO2 
 PCOD8116667
Probable space group: P 2/C
;
_chemical_formula_sum "Si O2"
_cell_formula_units_Z 30
_cell_length_a 10.623330
_cell_length_b 16.797717
_cell_length_c 8.898788
_cell_angle_alpha 90.000000
_cell_angle_beta 87.001627
_cell_angle_gamma 90.000000
_cell_volume 1585.794275
_symmetry_space_group_name_H-M "P 2/C"
_symmetry_group_IT_number 13
_symmetry_cell_setting 'monoclinic'
loop_
_space_group_symop_operation_xyz
x,y,z
-x,y,1/2-z
-x,-y,-z
x,-y,1/2+z
loop_
_atom_site_type_symbol
_atom_site_label
_atom_site_fract_x
_atom_site_fract_y
_atom_site_fract_z
Si Si1 0.178445 0.598603 0.029477
Si Si2 0.064130 0.651022 0.582751
Si Si3 0.391573 0.909943 0.966619
Si Si4 0.694243 0.743065 0.576038
Si Si5 0.500000 0.633439 0.750000
Si Si6 0.666484 0.937943 0.874517
Si Si7 0.868514 0.811177 0.828052
Si Si8 0.263048 0.454336 0.197602
O O1 0.230777 0.688084 0.045420
O O2 0.225070 0.560610 0.870909
O O3 0.026595 0.610002 0.036215
O O4 0.232451 0.546477 0.162954
O O5 0.098981 0.743963 0.547392
O O6 0.187375 0.597116 0.580022
O O7 0.000000 0.650364 0.750000
O O8 0.347648 0.821475 0.010080
O O9 0.543151 0.910725 0.976833
O O10 0.356137 0.932828 0.800093
O O11 0.315426 0.969553 0.081473
O O12 0.573386 0.692847 0.635605
O O13 0.783576 0.765462 0.710206
O O14 0.592582 0.573285 0.834273
O O15 0.788827 0.883855 0.906993
O O16 0.000000 0.844838 0.750000
#
# Coordination Sequence:
#
# PCOD8116667 Si02
#       8
#     4   4   4   4   2   4   4   4
#     4  10  19  33  51  72  98 132 169 215 254 301
#     4   9  15  30  49  74  96 126 172 213 247 297
#     4   9  18  32  53  76 101 130 171 207 254 309
#     4  10  17  29  50  71  97 131 169 206 251 302
#     4  10  18  30  50  74 100 134 174 218 252 302
#     4   9  18  31  53  78 101 130 168 212 252 305
#     4  10  15  29  52  78  99 129 179 215 249 301
#     4  10  20  30  50  73  99 130 172 211 257 302
#
# _framework density 18.917964999999999
#
# number of rings (size 3 to 8) (size 9 to 14) (size 15 to 20)
#    0.000    2.400    5.333    2.000    0.000    2.133 
#    0.000    2.667    2.933    3.200    0.000    0.000 
#    0.000    0.000    0.000    0.000    0.000    0.000 
#
# Total GULP energy -371711.959389 kJ/mol
# GULP energy per Si atom -12390.398646 kJ/mol
# Density = 1.887491 g / cm^3
# Si number density = 18.917965 Si / 1000 Ang^3
#
#
#
# Elastic Constant Matrix: (Units=GPa)
#
#
# Indices 1 2 3 4 5 6 
#
# 1 127.8780 63.0895 11.1644 0.0000 9.2924 0.0000
# 2 63.0895 156.8474 27.4645 0.0000 8.9987 0.0000
# 3 11.1644 27.4645 15.5356 0.0000 1.4523 0.0000
# 4 0.0000 0.0000 0.0000 30.7876 0.0000 2.5623
# 5 9.2924 8.9987 1.4523 0.0000 13.1437 0.0000
# 6 0.0000 0.0000 0.0000 2.5623 0.0000 40.8330
#
#
#
# Elastic Compliance Matrix: (Units=1/GPa)
#
#
# Indices 1 2 3 4 5 6 
#
# 1 0.010005 -0.003738 -0.000161 0.000000 -0.004496 0.000000
# 2 -0.003738 0.010910 -0.016318 0.000000 -0.003024 0.000000
# 3 -0.000161 -0.016318 0.093240 0.000000 0.000983 0.000000
# 4 0.000000 0.000000 0.000000 0.032651 0.000000 -0.002049
# 5 -0.004496 -0.003024 0.000983 0.000000 0.081223 0.000000
# 6 0.000000 0.000000 0.000000 -0.002049 0.000000 0.024619
#
#
# Mechanical properties :
#
#
# Convention : Reuss Voigt Hill
#
# Bulk Modulus (GPa) = 13.56480 55.96641 34.76560
# Shear Modulus (GPa) = 15.74029 30.18905 22.96467
#
# Velocity S-wave (km/s) = 2.88762 3.99906 3.48790
# Velocity P-wave (km/s) = 4.27828 7.13942 5.88536
#
# Compressibility (1/GPa) = 0.07372023
#
# Stress axis : x y z
#
# Youngs Moduli (GPa) = 99.94989 91.65808 10.72499
#
# Poissons Ratio (x) = 0.34264 0.00173
# Poissons Ratio (y) = 0.37363 0.17501
# Poissons Ratio (z) = 0.01610 1.49571
#
# Static dielectric constant tensor:
#      x y z
#    x 3.891070 0.000000 0.098690 
#    y 0.000000 3.821410 0.000000 
#    z 0.098690 0.000000 2.857870 
# 
# 
# High freq. dielectric constant tensor:
#      x y z
#    x 1.745760 0.000000 0.006800 
#    y 0.000000 1.746320 0.000000 
#    z 0.006800 0.000000 1.665210 
# 
# From -- ./inp_files/34264.got.cif
#   From: 2010.06.25/outbox.cif.g09.slc.cpg/sg13_18_cif.got.tgz:34264.got - 2010.06.28 04:50:58.
