data_PCOD8116949
_publ_section_title
;
Structure prediction by ZEFSAII (Michael W. Deem and Ramdas Pophale) SiO2 
 PCOD8116949
Probable space group: P 2/C
;
_chemical_formula_sum "Si O2"
_cell_formula_units_Z 32
_cell_length_a 25.909563
_cell_length_b 9.534756
_cell_length_c 18.947885
_cell_angle_alpha 90.000000
_cell_angle_beta 22.037464
_cell_angle_gamma 90.000000
_cell_volume 1756.337702
_symmetry_space_group_name_H-M "P 2/C"
_symmetry_group_IT_number 13
_symmetry_cell_setting 'monoclinic'
loop_
_space_group_symop_operation_xyz
x,y,z
-x,y,1/2-z
-x,-y,-z
x,-y,1/2+z
loop_
_atom_site_type_symbol
_atom_site_label
_atom_site_fract_x
_atom_site_fract_y
_atom_site_fract_z
Si Si1 0.688621 0.046004 0.379767
Si Si2 0.130770 0.397380 0.833279
Si Si3 0.721279 0.167116 0.483365
Si Si4 0.748017 0.216315 0.709474
Si Si5 0.389219 0.440914 0.945964
Si Si6 0.028937 0.131906 0.513257
Si Si7 0.004684 0.057257 0.164736
Si Si8 0.450287 0.233805 0.664753
O O1 0.677873 0.048222 0.479858
O O2 0.809701 0.157358 0.204733
O O3 0.557242 0.112810 0.509032
O O4 0.703698 0.888489 0.329780
O O5 0.181909 0.355571 0.846769
O O6 0.269500 0.450132 0.618654
O O7 0.000000 0.500000 0.000000
O O8 0.073100 0.258545 0.869930
O O9 0.693222 0.317295 0.486297
O O10 0.638404 0.158579 0.661287
O O11 0.881996 0.158714 0.296360
O O12 0.854987 0.138539 0.524559
O O13 0.628350 0.267153 0.808407
O O14 0.500000 0.508001 0.750000
O O15 0.475558 0.377276 0.902766
O O16 0.000069 0.089371 0.629881
O O17 0.000000 0.000000 0.500000
O O18 0.000000 0.009191 0.250000
#
# Coordination Sequence:
#
# PCOD8116949 Si02
#       8
#     4   4   4   4   4   4   4   4
#     4  10  18  34  56  85 117 143 184 241 292 342
#     4  12  22  38  65  88 110 163 208 238 295 356
#     4  10  17  34  58  84 111 155 199 237 279 353
#     4  11  21  34  55  90 118 148 190 250 293 346
#     4   9  21  37  56  80 119 158 198 242 287 358
#     4  11  20  37  61  84 116 141 193 254 285 335
#     4  11  19  33  58  85 114 144 186 248 304 336
#     4  10  20  34  56  85 118 152 194 237 290 343
#
# _framework density 18.219729999999998
#
# number of rings (size 3 to 8) (size 9 to 14) (size 15 to 20)
#    0.000    1.500    5.000    3.750    0.000    0.500 
#    0.000    2.500    5.500    0.000    0.000    0.000 
#    0.000    0.000    0.000    0.000    0.000    0.000 
#
# Total GULP energy -396439.804412 kJ/mol
# GULP energy per Si atom -12388.743888 kJ/mol
# Density = 1.817826 g / cm^3
# Si number density = 18.219730 Si / 1000 Ang^3
#
#
#
# Elastic Constant Matrix: (Units=GPa)
#
#
# Indices 1 2 3 4 5 6 
#
# 1 133.1829 46.4499 44.4401 0.0000 -7.5514 0.0000
# 2 46.4499 76.3430 48.5279 0.0000 -1.6623 0.0000
# 3 44.4401 48.5279 105.5048 0.0000 -4.7351 0.0000
# 4 0.0000 0.0000 0.0000 36.3758 0.0000 -5.5408
# 5 -7.5514 -1.6623 -4.7351 0.0000 36.0014 0.0000
# 6 0.0000 0.0000 0.0000 -5.5408 0.0000 17.2088
#
#
#
# Elastic Compliance Matrix: (Units=1/GPa)
#
#
# Indices 1 2 3 4 5 6 
#
# 1 0.009901 -0.004782 -0.001899 0.000000 0.001606 0.000000
# 2 -0.004782 0.020823 -0.007610 0.000000 -0.001043 0.000000
# 3 -0.001899 -0.007610 0.013826 0.000000 0.001069 0.000000
# 4 0.000000 0.000000 0.000000 0.028909 0.000000 0.009308
# 5 0.001606 -0.001043 0.001069 0.000000 0.028206 0.000000
# 6 0.000000 0.000000 0.000000 0.009308 0.000000 0.061107
#
#
# Mechanical properties :
#
#
# Convention : Reuss Voigt Hill
#
# Bulk Modulus (GPa) = 62.62453 65.98517 64.30485
# Shear Modulus (GPa) = 25.42235 29.62474 27.52354
#
# Velocity S-wave (km/s) = 3.73945 4.03671 3.89092
# Velocity P-wave (km/s) = 7.28636 7.61719 7.45361
#
# Compressibility (1/GPa) = 0.01596818
#
# Stress axis : x y z
#
# Youngs Moduli (GPa) = 101.00012 48.02316 72.32533
#
# Poissons Ratio (x) = 0.22966 0.13733
# Poissons Ratio (y) = 0.48300 0.55042
# Poissons Ratio (z) = 0.19177 0.36547
#
# Static dielectric constant tensor:
#      x y z
#    x 3.506270 0.000000 0.018390 
#    y 0.000000 2.331670 0.000000 
#    z 0.018390 0.000000 3.941730 
# 
# 
# High freq. dielectric constant tensor:
#      x y z
#    x 1.708910 0.000000 -0.010130 
#    y 0.000000 1.670930 0.000000 
#    z -0.010130 0.000000 1.726730 
# 
# From -- ./inp_files/82517.got.cif
#   From: 2010.06.25/outbox.cif.g09.slc.cpg/sg13_42_cif.got.tgz:82517.got - 2010.06.28 04:50:58.
