data_PCOD8116987
_publ_section_title
;
Structure prediction by ZEFSAII (Michael W. Deem and Ramdas Pophale) SiO2 
 PCOD8116987
Probable space group: P 2/C
;
_chemical_formula_sum "Si O2"
_cell_formula_units_Z 24
_cell_length_a 7.562552
_cell_length_b 9.514594
_cell_length_c 15.682827
_cell_angle_alpha 90.000000
_cell_angle_beta 95.521068
_cell_angle_gamma 90.000000
_cell_volume 1123.216716
_symmetry_space_group_name_H-M "P 2/C"
_symmetry_group_IT_number 13
_symmetry_cell_setting 'monoclinic'
loop_
_space_group_symop_operation_xyz
x,y,z
-x,y,1/2-z
-x,-y,-z
x,-y,1/2+z
loop_
_atom_site_type_symbol
_atom_site_label
_atom_site_fract_x
_atom_site_fract_y
_atom_site_fract_z
Si Si1 0.833492 0.752782 0.295338
Si Si2 0.207285 0.944147 0.741179
Si Si3 0.038321 0.834849 0.012144
Si Si4 0.314341 0.261737 0.383719
Si Si5 0.300163 0.457963 0.240771
Si Si6 0.281429 0.746382 0.598760
O O1 0.699560 0.623162 0.279276
O O2 0.000000 0.697653 0.250000
O O3 0.893622 0.793319 0.392354
O O4 0.747121 0.890608 0.248797
O O5 0.324104 0.865785 0.816844
O O6 0.260251 0.892771 0.649267
O O7 0.000000 0.917320 0.750000
O O8 0.852424 0.753124 0.987531
O O9 0.189193 0.779820 0.955326
O O10 0.000000 0.000000 0.000000
O O11 0.233420 0.401163 0.330801
O O12 0.517960 0.281519 0.425947
O O13 0.500000 0.401797 0.250000
O O14 0.207650 0.376614 0.158040
#
# Coordination Sequence:
#
# PCOD8116987 Si02
#       6
#     4   4   4   4   4   4
#     4  11  24  40  61  93 127 168 208 262 327 371
#     4  10  17  37  63  92 127 164 207 262 312 379
#     4  12  23  43  65  97 132 161 215 272 308 378
#     4  10  22  41  70  91 122 172 214 255 316 379
#     4   9  22  43  62  93 127 166 217 255 308 391
#     4  10  21  40  67  95 124 168 213 256 319 377
#
# _framework density 21.367201999999999
#
# number of rings (size 3 to 8) (size 9 to 14) (size 15 to 20)
#    0.000    1.667    3.333    2.500    2.333    2.667 
#    3.000    1.667    0.000    0.000    0.000    0.000 
#    0.000    0.000    0.000    0.000    0.000    0.000 
#
# Total GULP energy -297431.300920 kJ/mol
# GULP energy per Si atom -12392.970872 kJ/mol
# Density = 2.131857 g / cm^3
# Si number density = 21.367202 Si / 1000 Ang^3
#
#
#
# Elastic Constant Matrix: (Units=GPa)
#
#
# Indices 1 2 3 4 5 6 
#
# 1 83.4648 29.0033 32.4100 0.0000 2.2054 0.0000
# 2 29.0033 128.1846 30.8958 0.0000 4.1646 0.0000
# 3 32.4100 30.8958 104.8492 0.0000 0.4979 0.0000
# 4 0.0000 0.0000 0.0000 25.5421 0.0000 4.9575
# 5 2.2054 4.1646 0.4979 0.0000 27.4932 0.0000
# 6 0.0000 0.0000 0.0000 4.9575 0.0000 28.7662
#
#
#
# Elastic Compliance Matrix: (Units=1/GPa)
#
#
# Indices 1 2 3 4 5 6 
#
# 1 0.014246 -0.002303 -0.003721 0.000000 -0.000727 0.000000
# 2 -0.002303 0.008811 -0.001879 0.000000 -0.001116 0.000000
# 3 -0.003721 -0.001879 0.011240 0.000000 0.000380 0.000000
# 4 0.000000 0.000000 0.000000 0.040506 0.000000 -0.006981
# 5 -0.000727 -0.001116 0.000380 0.000000 0.036593 0.000000
# 6 0.000000 0.000000 0.000000 -0.006981 0.000000 0.035966
#
#
# Mechanical properties :
#
#
# Convention : Reuss Voigt Hill
#
# Bulk Modulus (GPa) = 54.08377 55.67962 54.88169
# Shear Modulus (GPa) = 29.52773 31.30625 30.41699
#
# Velocity S-wave (km/s) = 3.72145 3.83189 3.77707
# Velocity P-wave (km/s) = 6.62058 6.75965 6.69048
#
# Compressibility (1/GPa) = 0.01848984
#
# Stress axis : x y z
#
# Youngs Moduli (GPa) = 70.19751 113.48815 88.96917
#
# Poissons Ratio (x) = 0.26132 0.33110
# Poissons Ratio (y) = 0.16164 0.16721
# Poissons Ratio (z) = 0.26124 0.21329
#
# Static dielectric constant tensor:
#      x y z
#    x 3.834670 0.000000 0.090180 
#    y 0.000000 3.837400 0.000000 
#    z 0.090180 0.000000 3.858190 
# 
# 
# High freq. dielectric constant tensor:
#      x y z
#    x 1.835350 0.000000 0.000750 
#    y 0.000000 1.837620 0.000000 
#    z 0.000750 0.000000 1.824090 
# 
# From -- ./inp_files/46043.got.cif
#   From: 2010.06.25/outbox.cif.g09.slc.cpg/sg13_24_cif.got.tgz:46043.got - 2010.06.28 04:50:58.
