data_PCOD8116371
_publ_section_title
;
Structure prediction by ZEFSAII (Michael W. Deem and Ramdas Pophale) SiO2 
 PCOD8116371
Probable space group: C 2/M
;
_chemical_formula_sum "Si O2"
_cell_formula_units_Z 28
_cell_length_a 21.000000
_cell_length_b 9.000000
_cell_length_c 30.000000
_cell_angle_alpha 90.000000
_cell_angle_beta 30.000000
_cell_angle_gamma 90.000000
_cell_volume 2835.000000
_symmetry_space_group_name_H-M "C 2/M"
_symmetry_group_IT_number 12
_symmetry_cell_setting 'monoclinic'
loop_
_space_group_symop_operation_xyz
x,y,z
-x,y,-z
-x,-y,-z
x,-y,z
1/2+x,1/2+y,z
1/2-x,1/2+y,-z
1/2-x,1/2-y,-z
1/2+x,1/2-y,z
loop_
_atom_site_type_symbol
_atom_site_label
_atom_site_fract_x
_atom_site_fract_y
_atom_site_fract_z
Si Si1 0.078682 0.676488 0.910048
Si Si2 0.136160 0.827675 0.282183
Si Si3 0.500842 0.823556 0.287141
Si Si4 0.252146 0.177686 0.547518
Si Si5 0.521200 0.671745 0.538571
Si Si6 0.634306 0.669645 0.128775
Si Si7 0.579451 0.830008 0.076329
O O1 0.070984 0.500000 0.917264
O O2 0.224577 0.729271 0.817583
O O3 0.014972 0.733772 0.903458
O O4 0.000000 0.743352 0.000000
O O5 0.036337 0.727346 0.315619
O O6 0.106609 0.808427 0.353193
O O7 0.118875 0.000000 0.279050
O O8 0.370732 0.741277 0.351971
O O9 0.608896 0.769980 0.187345
O O10 0.484404 0.000000 0.295657
O O11 0.250000 0.250000 0.500000
O O12 0.371946 0.225300 0.504436
O O13 0.247913 0.000000 0.545695
O O14 0.500000 0.721828 0.500000
O O15 0.565475 0.500000 0.512793
O O16 0.595277 0.500000 0.162043
O O17 0.555958 0.730770 0.134100
O O18 0.781749 0.685202 0.028645
O O19 0.549837 0.000000 0.107248
#
# Coordination Sequence:
#
# PCOD8116371 Si02
#       7
#     8   8   8   8   8   8   8
#     4   9  17  31  54  83 114 153 198 240 288 352
#     4  10  20  36  59  84 115 154 197 248 299 358
#     4  12  24  38  60  88 117 152 199 252 304 364
#     4  12  24  41  65  91 121 158 200 251 307 364
#     4  10  22  40  62  91 127 166 205 248 305 372
#     4  10  20  35  56  83 116 155 197 247 300 355
#     4   9  18  34  56  82 117 157 199 244 293 353
#
# _framework density 9.8765429999999999
#
# number of rings (size 3 to 8) (size 9 to 14) (size 15 to 20)
#    0.000    1.714    1.429    3.857    0.000    4.286 
#    0.000    3.571    0.000    1.714    0.000    0.000 
#    0.000    0.000    0.000    0.000    0.000    0.000 
#
# Total GULP energy -347168.962373 kJ/mol
# GULP energy per Si atom -12398.891513 kJ/mol
# Density = 0.985406 g / cm^3
# Si number density = 9.876543 Si / 1000 Ang^3
#
#
#
# Elastic Constant Matrix: (Units=GPa)
#
#
# Indices 1 2 3 4 5 6 
#
# 1 121.2737 47.9059 49.9086 -0.0098 6.5578 0.0334
# 2 47.9059 122.1713 38.9082 -0.0030 2.8930 0.0104
# 3 49.9086 38.9082 95.9307 -0.0023 12.7468 0.0113
# 4 -0.0098 -0.0030 -0.0023 26.1553 -0.0020 3.1912
# 5 6.5578 2.8930 12.7468 -0.0020 33.2994 0.0051
# 6 0.0334 0.0104 0.0113 3.1912 0.0051 31.2814
#
#
#
# Elastic Compliance Matrix: (Units=1/GPa)
#
#
# Indices 1 2 3 4 5 6 
#
# 1 0.011350 -0.002955 -0.004681 0.000005 -0.000186 -0.000010
# 2 -0.002955 0.010183 -0.002689 0.000000 0.000727 0.000001
# 3 -0.004681 -0.002689 0.014536 -0.000001 -0.004409 0.000002
# 4 0.000005 0.000000 -0.000001 0.038715 0.000003 -0.003950
# 5 -0.000186 0.000727 -0.004409 0.000003 0.031692 -0.000004
# 6 -0.000010 0.000001 0.000002 -0.003950 -0.000004 0.032371
#
#
# Mechanical properties :
#
#
# Convention : Reuss Voigt Hill
#
# Bulk Modulus (GPa) = 64.86131 68.09124 66.47628
# Shear Modulus (GPa) = 30.36962 31.65743 31.01353
#
# Velocity S-wave (km/s) = 3.92530 4.00766 3.96670
# Velocity P-wave (km/s) = 7.31104 7.48072 7.39637
#
# Compressibility (1/GPa) = 0.01541751
#
# Stress axis : x y z
#
# Youngs Moduli (GPa) = 88.10687 98.20022 68.79316
#
# Poissons Ratio (x) = 0.29020 0.32205
# Poissons Ratio (y) = 0.26037 0.18501
# Poissons Ratio (z) = 0.41247 0.26409
#
# Static dielectric constant tensor:
#      x y z
#    x 3.671190 -0.000020 0.100380 
#    y -0.000020 3.501340 0.000020 
#    z 0.100380 0.000020 3.844020 
# 
# 
# High freq. dielectric constant tensor:
#      x y z
#    x 1.769220 0.000000 0.011230 
#    y 0.000000 1.755450 0.000000 
#    z 0.011230 0.000000 1.783370 
# 
# From -- ./inp_files/380668.got.cif
#   From: 2010.06.25/outbox.ucp.g09.slc.cvg/sg12_191_cif.got.tgz:380668.got - 2010.06.28 13:50:54.
