data_PCOD8116983
_publ_section_title
;
Structure prediction by ZEFSAII (Michael W. Deem and Ramdas Pophale) SiO2 
 PCOD8116983
Probable space group: P 2/C
;
_chemical_formula_sum "Si O2"
_cell_formula_units_Z 24
_cell_length_a 22.886870
_cell_length_b 9.257375
_cell_length_c 17.645840
_cell_angle_alpha 90.000000
_cell_angle_beta 19.900713
_cell_angle_gamma 90.000000
_cell_volume 1272.608987
_symmetry_space_group_name_H-M "P 2/C"
_symmetry_group_IT_number 13
_symmetry_cell_setting 'monoclinic'
loop_
_space_group_symop_operation_xyz
x,y,z
-x,y,1/2-z
-x,-y,-z
x,-y,1/2+z
loop_
_atom_site_type_symbol
_atom_site_label
_atom_site_fract_x
_atom_site_fract_y
_atom_site_fract_z
Si Si1 0.826629 0.597908 0.667915
Si Si2 0.991637 0.339004 0.406979
Si Si3 0.494528 0.535480 0.596389
Si Si4 0.284037 0.879780 0.321661
Si Si5 0.338295 0.691017 0.392657
Si Si6 0.375743 0.187862 0.183593
O O1 0.971514 0.661806 0.547242
O O2 0.742738 0.737413 0.733946
O O3 0.896361 0.494313 0.514380
O O4 0.688203 0.503362 0.886828
O O5 0.876654 0.203085 0.521049
O O6 0.167096 0.338531 0.147511
O O7 0.500000 0.500000 0.500000
O O8 0.361593 0.440493 0.805944
O O9 0.432651 0.701480 0.681686
O O10 0.311698 0.833263 0.374621
O O11 0.263378 0.053583 0.351463
O O12 0.449192 0.855186 0.069774
O O13 0.500000 0.714342 0.250000
#
# Coordination Sequence:
#
# PCOD8116983 Si02
#       6
#     4   4   4   4   4   4
#     4  10  19  38  61  91 114 154 201 258 290 356
#     4  11  22  35  61  91 120 149 206 253 300 352
#     4  10  17  37  62  84 112 153 201 244 291 360
#     4  11  21  35  57  86 116 160 194 239 301 372
#     4  12  22  39  61  87 119 158 201 251 306 357
#     4  10  20  37  59  82 118 157 197 235 302 364
#
# _framework density 18.858896000000001
#
# number of rings (size 3 to 8) (size 9 to 14) (size 15 to 20)
#    0.000    1.333    6.667    1.500    0.000    0.667 
#    0.000    4.167    0.000    0.000    0.000    0.000 
#    0.000    0.000    0.000    0.000    0.000    0.000 
#
# Total GULP energy -297339.379808 kJ/mol
# GULP energy per Si atom -12389.140825 kJ/mol
# Density = 1.881597 g / cm^3
# Si number density = 18.858896 Si / 1000 Ang^3
#
#
#
# Elastic Constant Matrix: (Units=GPa)
#
#
# Indices 1 2 3 4 5 6 
#
# 1 91.7463 60.0577 31.5479 0.0000 -13.0976 0.0000
# 2 60.0577 154.3257 56.2169 0.0000 -7.4113 0.0000
# 3 31.5479 56.2169 118.0181 0.0000 -3.0288 0.0000
# 4 0.0000 0.0000 0.0000 45.5937 0.0000 -17.7778
# 5 -13.0976 -7.4113 -3.0288 0.0000 27.6057 0.0000
# 6 0.0000 0.0000 0.0000 -17.7778 0.0000 35.3554
#
#
#
# Elastic Compliance Matrix: (Units=1/GPa)
#
#
# Indices 1 2 3 4 5 6 
#
# 1 0.015720 -0.005275 -0.001539 0.000000 0.005874 0.000000
# 2 -0.005275 0.009691 -0.003212 0.000000 -0.000254 0.000000
# 3 -0.001539 -0.003212 0.010403 0.000000 -0.000451 0.000000
# 4 0.000000 0.000000 0.000000 0.027282 0.000000 0.013718
# 5 0.005874 -0.000254 -0.000451 0.000000 0.038893 0.000000
# 6 0.000000 0.000000 0.000000 0.013718 0.000000 0.035182
#
#
# Mechanical properties :
#
#
# Convention : Reuss Voigt Hill
#
# Bulk Modulus (GPa) = 63.44543 73.30389 68.37466
# Shear Modulus (GPa) = 30.77329 36.12880 33.45105
#
# Velocity S-wave (km/s) = 4.04389 4.38167 4.21617
# Velocity P-wave (km/s) = 7.45113 8.03447 7.74829
#
# Compressibility (1/GPa) = 0.01576158
#
# Stress axis : x y z
#
# Youngs Moduli (GPa) = 63.61156 103.19118 96.12361
#
# Poissons Ratio (x) = 0.54435 0.14791
# Poissons Ratio (y) = 0.33556 0.30880
# Poissons Ratio (z) = 0.09788 0.33150
#
# Static dielectric constant tensor:
#      x y z
#    x 3.588630 0.000000 -0.356310 
#    y 0.000000 4.114330 0.000000 
#    z -0.356310 0.000000 3.890640 
# 
# 
# High freq. dielectric constant tensor:
#      x y z
#    x 1.723460 0.000000 -0.020310 
#    y 0.000000 1.726100 0.000000 
#    z -0.020310 0.000000 1.736020 
# 
# From -- ./inp_files/71233.got.cif
#   From: 2010.06.25/outbox.cif.g09.slc.cpg/sg13_36_cif.got.tgz:71233.got - 2010.06.28 04:50:58.
