data_PCOD8116315
_publ_section_title
;
Structure prediction by ZEFSAII (Michael W. Deem and Ramdas Pophale) SiO2 
 PCOD8116315
Probable space group: C 2/M
;
_chemical_formula_sum "Si O2"
_cell_formula_units_Z 32
_cell_length_a 18.000000
_cell_length_b 9.000000
_cell_length_c 30.000000
_cell_angle_alpha 90.000000
_cell_angle_beta 40.000000
_cell_angle_gamma 90.000000
_cell_volume 3123.947783
_symmetry_space_group_name_H-M "C 2/M"
_symmetry_group_IT_number 12
_symmetry_cell_setting 'monoclinic'
loop_
_space_group_symop_operation_xyz
x,y,z
-x,y,-z
-x,-y,-z
x,-y,z
1/2+x,1/2+y,z
1/2-x,1/2+y,-z
1/2-x,1/2-y,-z
1/2+x,1/2-y,z
loop_
_atom_site_type_symbol
_atom_site_label
_atom_site_fract_x
_atom_site_fract_y
_atom_site_fract_z
Si Si1 0.955683 0.328061 0.212652
Si Si2 0.709140 0.165822 0.206704
Si Si3 0.374710 0.823353 0.567434
Si Si4 0.629032 0.826782 0.059530
Si Si5 0.286520 0.326274 0.437911
Si Si6 0.756496 0.666984 0.710389
Si Si7 0.989692 0.172031 0.285451
Si Si8 0.533209 0.670301 0.933729
O O1 0.946370 0.500000 0.226156
O O2 0.074752 0.287667 0.132808
O O3 0.930823 0.246245 0.270153
O O4 0.851996 0.272520 0.229070
O O5 0.676154 0.165991 0.274022
O O6 0.621441 0.278073 0.224480
O O7 0.836014 0.221343 0.135452
O O8 0.689994 0.000000 0.195971
O O9 0.500000 0.754430 0.500000
O O10 0.291060 0.765658 0.567014
O O11 0.334609 0.766791 0.634612
O O12 0.379682 0.000000 0.565419
O O13 0.548332 0.775169 0.056871
O O14 0.647535 0.000000 0.045962
O O15 0.750000 0.750000 0.000000
O O16 0.267962 0.500000 0.453415
O O17 0.250000 0.250000 0.500000
O O18 0.418822 0.287427 0.363137
O O19 0.714933 0.500000 0.717451
O O20 0.982367 0.000000 0.280085
O O21 0.516832 0.500000 0.925777
O O22 0.500000 0.691491 0.000000
#
# Coordination Sequence:
#
# PCOD8116315 Si02
#       8
#     8   8   8   8   8   8   8   8
#     4  11  23  40  63  89 119 154 200 254 302 354
#     4  10  22  38  61  91 120 157 201 247 299 357
#     4   9  18  34  58  85 113 150 196 242 288 348
#     4  11  25  42  63  91 122 159 203 250 303 360
#     4  10  22  39  59  85 120 157 198 246 298 358
#     4  10  19  37  63  87 115 152 198 246 298 356
#     4  11  24  41  61  87 123 163 201 248 302 359
#     4  10  22  41  63  88 123 160 197 247 300 354
#
# _framework density 10.243449
#
# number of rings (size 3 to 8) (size 9 to 14) (size 15 to 20)
#    0.000    1.750    2.500    1.125    3.500    3.750 
#    0.000    0.000    0.000    0.750    0.000    0.000 
#    0.000    0.000    0.000    0.000    0.000    0.000 
#
# Total GULP energy -396699.906999 kJ/mol
# GULP energy per Si atom -12396.872094 kJ/mol
# Density = 1.022013 g / cm^3
# Si number density = 10.243449 Si / 1000 Ang^3
#
#
#
# Elastic Constant Matrix: (Units=GPa)
#
#
# Indices 1 2 3 4 5 6 
#
# 1 47.5886 27.0607 31.5590 0.0001 -3.3321 -0.0042
# 2 27.0607 44.0114 60.5614 0.0005 -1.6626 -0.0048
# 3 31.5590 60.5614 113.3334 0.0000 -6.3160 -0.0006
# 4 0.0001 0.0005 0.0000 29.4352 0.0003 -0.0969
# 5 -3.3321 -1.6626 -6.3160 0.0003 34.0991 -0.0001
# 6 -0.0042 -0.0048 -0.0006 -0.0969 -0.0001 26.0992
#
#
#
# Elastic Compliance Matrix: (Units=1/GPa)
#
#
# Indices 1 2 3 4 5 6 
#
# 1 0.033791 -0.030032 0.006811 0.000000 0.003099 0.000000
# 2 -0.030032 0.113177 -0.052513 -0.000002 -0.007143 0.000015
# 3 0.006811 -0.052513 0.035246 0.000001 0.004634 -0.000008
# 4 0.000000 -0.000002 0.000001 0.033973 0.000000 0.000126
# 5 0.003099 -0.007143 0.004634 0.000000 0.030139 -0.000001
# 6 0.000000 0.000015 -0.000008 0.000126 -0.000001 0.038316
#
#
# Mechanical properties :
#
#
# Convention : Reuss Voigt Hill
#
# Bulk Modulus (GPa) = 32.52421 49.25505 40.88963
# Shear Modulus (GPa) = 11.20177 23.64352 17.42264
#
# Velocity S-wave (km/s) = 2.34086 3.40086 2.91937
# Velocity P-wave (km/s) = 4.81833 6.28614 5.60053
#
# Compressibility (1/GPa) = 0.03074633
#
# Stress axis : x y z
#
# Youngs Moduli (GPa) = 29.59392 8.83574 28.37195
#
# Poissons Ratio (x) = 0.26536 -0.19325
# Poissons Ratio (y) = 0.88877 1.48989
# Poissons Ratio (z) = -0.20157 0.46399
#
# Static dielectric constant tensor:
#      x y z
#    x 3.576260 -0.000020 0.015040 
#    y -0.000020 3.414160 0.000010 
#    z 0.015040 0.000010 3.990460 
# 
# 
# High freq. dielectric constant tensor:
#      x y z
#    x 1.785670 0.000000 0.006540 
#    y 0.000000 1.773230 0.000000 
#    z 0.006540 0.000000 1.816590 
# 
# From -- ./inp_files/378109.got.cif
#   From: 2010.06.25/outbox.ucp.g09.slc.cvg/sg12_190_cif.got.tgz:378109.got - 2010.06.28 13:50:54.
