data_PCOD8116547
_publ_section_title
;
Structure prediction by ZEFSAII (Michael W. Deem and Ramdas Pophale) SiO2 
 PCOD8116547
Probable space group: C 2/M
;
_chemical_formula_sum "Si O2"
_cell_formula_units_Z 32
_cell_length_a 9.000000
_cell_length_b 18.000000
_cell_length_c 30.000000
_cell_angle_alpha 90.000000
_cell_angle_beta 40.000000
_cell_angle_gamma 90.000000
_cell_volume 3123.947783
_symmetry_space_group_name_H-M "C 2/M"
_symmetry_group_IT_number 12
_symmetry_cell_setting 'monoclinic'
loop_
_space_group_symop_operation_xyz
x,y,z
-x,y,-z
-x,-y,-z
x,-y,z
1/2+x,1/2+y,z
1/2-x,1/2+y,-z
1/2-x,1/2-y,-z
1/2+x,1/2-y,z
loop_
_atom_site_type_symbol
_atom_site_label
_atom_site_fract_x
_atom_site_fract_y
_atom_site_fract_z
Si Si1 0.369317 0.826882 0.254837
Si Si2 0.190499 0.915210 0.854823
Si Si3 0.501053 0.720802 0.051986
Si Si4 0.947024 0.655564 0.462899
Si Si5 0.072861 0.414550 0.623050
Si Si6 0.199620 0.201364 0.195436
Si Si7 0.394715 0.415112 0.225458
Si Si8 0.583959 0.311943 0.405170
O O1 0.535284 0.898835 0.213674
O O2 0.326330 0.803657 0.213584
O O3 0.499977 0.760388 0.249261
O O4 0.151135 0.836520 0.338467
O O5 0.058203 0.864177 0.921096
O O6 0.069311 0.900196 0.835164
O O7 0.161845 0.000000 0.876863
O O8 0.348180 0.773660 0.118599
O O9 0.500000 0.729873 0.000000
O O10 0.750000 0.750000 0.000000
O O11 0.983983 0.593256 0.416432
O O12 0.681025 0.675127 0.525355
O O13 0.000000 0.624057 0.500000
O O14 0.115162 0.724739 0.410456
O O15 0.135777 0.500000 0.619084
O O16 0.279985 0.361164 0.590107
O O17 0.855893 0.386131 0.701958
O O18 0.097956 0.121757 0.206803
O O19 0.414550 0.500000 0.233848
#
# Coordination Sequence:
#
# PCOD8116547 Si02
#       8
#     8   8   8   8   8   8   8   8
#     4  11  23  36  65  91 122 163 210 270 318 375
#     4  10  21  41  64  92 125 163 212 262 314 373
#     4  11  22  39  62  91 128 168 206 249 308 382
#     4  11  25  39  61  92 128 166 213 274 323 380
#     4  11  24  44  66  89 126 174 217 262 330 400
#     4  11  23  39  61  95 124 162 211 260 315 373
#     4  10  21  40  64  89 123 162 208 268 325 374
#     4  11  23  40  62  92 123 167 216 268 323 389
#
# _framework density 10.243449
#
# number of rings (size 3 to 8) (size 9 to 14) (size 15 to 20)
#    0.000    1.250    1.250    6.375    5.250    2.000 
#    0.000    0.625    0.000    2.250    0.000    0.000 
#    0.000    0.000    0.000    0.000    0.000    0.000 
#
# Total GULP energy -396495.186603 kJ/mol
# GULP energy per Si atom -12390.474581 kJ/mol
# Density = 1.022013 g / cm^3
# Si number density = 10.243449 Si / 1000 Ang^3
#
#
#
# Elastic Constant Matrix: (Units=GPa)
#
#
# Indices 1 2 3 4 5 6 
#
# 1 99.0033 50.1921 33.7604 -0.0033 19.6183 0.0019
# 2 50.1921 73.1725 43.4155 -0.0015 -8.3622 0.0024
# 3 33.7604 43.4155 112.4521 -0.0039 18.2139 0.0032
# 4 -0.0033 -0.0015 -0.0039 26.1853 0.0050 1.6616
# 5 19.6183 -8.3622 18.2139 0.0050 36.3863 -0.0022
# 6 0.0019 0.0024 0.0032 1.6616 -0.0022 30.9286
#
#
#
# Elastic Compliance Matrix: (Units=1/GPa)
#
#
# Indices 1 2 3 4 5 6 
#
# 1 0.022619 -0.020028 0.003986 0.000006 -0.018794 -0.000002
# 2 -0.020028 0.038008 -0.012869 -0.000007 0.025975 0.000002
# 3 0.003986 -0.012869 0.014682 0.000004 -0.012456 -0.000002
# 4 0.000006 -0.000007 0.000004 0.038320 -0.000013 -0.002059
# 5 -0.018794 0.025975 -0.012456 -0.000013 0.049820 0.000005
# 6 -0.000002 0.000002 -0.000002 -0.002059 0.000005 0.032443
#
#
# Mechanical properties :
#
#
# Convention : Reuss Voigt Hill
#
# Bulk Modulus (GPa) = 57.18409 59.92933 58.55671
# Shear Modulus (GPa) = 19.26458 29.18404 24.22431
#
# Velocity S-wave (km/s) = 3.06982 3.77838 3.44238
# Velocity P-wave (km/s) = 6.36696 6.95348 6.66667
#
# Compressibility (1/GPa) = 0.01748738
#
# Stress axis : x y z
#
# Youngs Moduli (GPa) = 44.20988 26.31012 68.11152
#
# Poissons Ratio (x) = 0.52694 -0.27147
# Poissons Ratio (y) = 0.88544 0.87649
# Poissons Ratio (z) = -0.17621 0.33857
#
# Static dielectric constant tensor:
#      x y z
#    x 3.700160 0.000000 0.151410 
#    y 0.000000 3.635410 0.000030 
#    z 0.151410 0.000030 3.927160 
# 
# 
# High freq. dielectric constant tensor:
#      x y z
#    x 1.800220 0.000000 0.018230 
#    y 0.000000 1.788080 0.000000 
#    z 0.018230 0.000000 1.814490 
# 
# From -- ./inp_files/372906.got.cif
#   From: 2010.06.25/outbox.ucp.g09.slc.cvg/sg12_187_cif.got.tgz:372906.got - 2010.06.28 13:50:54.
