data_PCOD8116044
_publ_section_title
;
Structure prediction by ZEFSAII (Michael W. Deem and Ramdas Pophale) SiO2 
 PCOD8116044
Probable space group: C 2/M
;
_chemical_formula_sum "Si O2"
_cell_formula_units_Z 48
_cell_length_a 18.458243
_cell_length_b 9.232155
_cell_length_c 23.775019
_cell_angle_alpha 90.000000
_cell_angle_beta 136.378851
_cell_angle_gamma 90.000000
_cell_volume 2795.066572
_symmetry_space_group_name_H-M "C 2/M"
_symmetry_group_IT_number 12
_symmetry_cell_setting 'monoclinic'
loop_
_space_group_symop_operation_xyz
x,y,z
-x,y,-z
-x,-y,-z
x,-y,z
1/2+x,1/2+y,z
1/2-x,1/2+y,-z
1/2-x,1/2-y,-z
1/2+x,1/2-y,z
loop_
_atom_site_type_symbol
_atom_site_label
_atom_site_fract_x
_atom_site_fract_y
_atom_site_fract_z
Si Si1 0.442835 0.168134 0.414280
Si Si2 0.804275 0.165007 0.079940
Si Si3 0.732356 0.667950 0.817986
Si Si4 0.015118 0.331157 0.683488
Si Si5 0.712725 0.329120 0.252741
Si Si6 0.463079 0.330272 0.756611
O O1 0.500000 0.243532 0.500000
O O2 0.515802 0.191206 0.399669
O O3 0.324800 0.229092 0.339162
O O4 0.428371 0.000000 0.419438
O O5 0.734498 0.181924 0.097784
O O6 0.923431 0.220528 0.156615
O O7 0.809150 0.000000 0.063182
O O8 0.750000 0.250000 0.000000
O O9 0.716059 0.500000 0.792812
O O10 0.626104 0.755885 0.752544
O O11 0.813888 0.743691 0.820525
O O12 0.023627 0.500000 0.703100
O O13 0.936067 0.253834 0.682998
O O14 0.714635 0.500000 0.241051
O O15 0.624044 0.286733 0.247288
O O16 0.462672 0.500000 0.742733
#
# Coordination Sequence:
#
# PCOD8116044 Si02
#       6
#     8   8   8   8   8   8
#     4   8  14  26  45  68  91 116 150 189 223 259
#     4   9  18  31  47  66  88 116 148 184 225 267
#     4   9  17  30  47  67  92 119 148 185 225 264
#     4   9  16  27  46  68  88 119 158 185 216 268
#     4   9  17  30  49  69  89 120 156 184 219 268
#     4   9  18  32  47  66  93 120 149 187 227 264
#
# _framework density 17.173114999999999
#
# number of rings (size 3 to 8) (size 9 to 14) (size 15 to 20)
#    0.000    3.167    0.000    3.000    0.000    4.000 
#    0.000    1.667    0.000   17.500    0.000    0.000 
#    0.000    0.000    0.000    0.000    0.000    0.000 
#
# Total GULP energy -297337.875025 kJ/mol
# GULP energy per Si atom -12389.078126 kJ/mol
# Density = 1.713403 g / cm^3
# Si number density = 17.173115 Si / 1000 Ang^3
#
#
#
# Elastic Constant Matrix: (Units=GPa)
#
#
# Indices 1 2 3 4 5 6 
#
# 1 149.5698 54.1949 54.2957 0.0000 -26.1446 0.0000
# 2 54.1949 64.6231 34.5373 0.0000 -19.7080 0.0000
# 3 54.2957 34.5373 84.7520 0.0000 -23.8143 0.0000
# 4 0.0000 0.0000 0.0000 16.3430 0.0000 -7.8117
# 5 -26.1446 -19.7080 -23.8143 0.0000 24.8682 0.0000
# 6 0.0000 0.0000 0.0000 -7.8117 0.0000 31.7245
#
#
#
# Elastic Compliance Matrix: (Units=1/GPa)
#
#
# Indices 1 2 3 4 5 6 
#
# 1 0.010733 -0.006214 -0.003498 0.000000 0.003010 0.000000
# 2 -0.006214 0.025798 -0.003589 0.000000 0.010476 0.000000
# 3 -0.003498 -0.003589 0.018703 0.000000 0.011388 0.000000
# 4 0.000000 0.000000 0.000000 0.069350 0.000000 0.017076
# 5 0.003010 0.010476 0.011388 0.000000 0.062584 0.000000
# 6 0.000000 0.000000 0.000000 0.017076 0.000000 0.035726
#
#
# Mechanical properties :
#
#
# Convention : Reuss Voigt Hill
#
# Bulk Modulus (GPa) = 34.92523 65.00007 49.96265
# Shear Modulus (GPa) = 19.30202 24.98161 22.14182
#
# Velocity S-wave (km/s) = 3.35620 3.81818 3.59462
# Velocity P-wave (km/s) = 5.94980 7.57430 6.81066
#
# Compressibility (1/GPa) = 0.02863259
#
# Stress axis : x y z
#
# Youngs Moduli (GPa) = 93.16713 38.76254 53.46831
#
# Poissons Ratio (x) = 0.24086 0.18705
# Poissons Ratio (y) = 0.57892 0.19188
# Poissons Ratio (z) = 0.32593 0.13910
#
# Static dielectric constant tensor:
#      x y z
#    x 3.768720 0.000000 -0.447450 
#    y 0.000000 3.225320 0.000000 
#    z -0.447450 0.000000 3.210420 
# 
# 
# High freq. dielectric constant tensor:
#      x y z
#    x 1.665600 0.000000 -0.031800 
#    y 0.000000 1.652320 0.000000 
#    z -0.031800 0.000000 1.632260 
# 
# From -- ./inp_files/229301.got.cif
#   From: 2010.06.25/outbox.cif.g09.slc.cpg/sg12_115_cif.got.tgz:229301.got - 2010.06.28 00:19:55.
