data_PCOD8116886
_publ_section_title
;
Structure prediction by ZEFSAII (Michael W. Deem and Ramdas Pophale) SiO2 
 PCOD8116886
Probable space group: P 2/C
;
_chemical_formula_sum "Si O2"
_cell_formula_units_Z 30
_cell_length_a 6.357484
_cell_length_b 10.805908
_cell_length_c 26.899409
_cell_angle_alpha 90.000000
_cell_angle_beta 79.018385
_cell_angle_gamma 90.000000
_cell_volume 1814.107092
_symmetry_space_group_name_H-M "P 2/C"
_symmetry_group_IT_number 13
_symmetry_cell_setting 'monoclinic'
loop_
_space_group_symop_operation_xyz
x,y,z
-x,y,1/2-z
-x,-y,-z
x,-y,1/2+z
loop_
_atom_site_type_symbol
_atom_site_label
_atom_site_fract_x
_atom_site_fract_y
_atom_site_fract_z
Si Si1 0.686146 0.583971 0.936565
Si Si2 0.383997 0.094405 0.968707
Si Si3 0.290902 0.082853 0.385550
Si Si4 0.000338 0.765513 0.528980
Si Si5 0.917694 0.112782 0.203311
Si Si6 0.667233 0.263648 0.340919
Si Si7 0.500000 0.739257 0.750000
Si Si8 0.342490 0.676903 0.025905
O O1 0.679378 0.630555 0.880953
O O2 0.706046 0.435240 0.934143
O O3 0.887548 0.641200 0.956512
O O4 0.466681 0.624635 0.972467
O O5 0.524622 0.216606 0.952082
O O6 0.336934 0.036237 0.917205
O O7 0.168175 0.128138 0.007482
O O8 0.500000 0.000000 0.000000
O O9 0.154134 0.183776 0.421509
O O10 0.154514 0.036242 0.342924
O O11 0.517056 0.146962 0.362082
O O12 0.877988 0.733694 0.483808
O O13 0.703687 0.178050 0.229817
O O14 0.000000 0.038787 0.250000
O O15 0.095250 0.212637 0.179244
O O16 0.566015 0.334658 0.297007
#
# Coordination Sequence:
#
# PCOD8116886 Si02
#       8
#     4   4   4   4   4   4   2   4
#     4  10  19  32  49  70  97 134 169 200 247 293
#     4  11  22  32  46  70 103 137 173 205 241 296
#     4  11  19  29  50  74  97 135 167 199 255 302
#     4  11  19  32  48  70  99 136 169 206 244 291
#     4   9  18  31  48  71 103 123 156 206 251 304
#     4  10  17  31  50  74 100 129 159 203 256 298
#     4   8  18  30  46  78 100 120 158 202 256 312
#     4  10  21  33  45  68 104 134 170 208 233 289
#
# _framework density 16.53706
#
# number of rings (size 3 to 8) (size 9 to 14) (size 15 to 20)
#    0.000    1.867    4.000    1.600    0.000    0.000 
#    0.000    0.000    0.000    0.000    0.000    7.467 
#    0.000    9.600    0.000    0.000    0.000    0.000 
#
# Total GULP energy -371721.034833 kJ/mol
# GULP energy per Si atom -12390.701161 kJ/mol
# Density = 1.649942 g / cm^3
# Si number density = 16.537060 Si / 1000 Ang^3
#
#
#
# Elastic Constant Matrix: (Units=GPa)
#
#
# Indices 1 2 3 4 5 6 
#
# 1 102.2424 35.7805 44.8558 0.0000 6.1849 0.0000
# 2 35.7805 83.4511 41.0258 0.0000 8.9350 0.0000
# 3 44.8558 41.0258 107.8728 0.0000 27.8696 0.0000
# 4 0.0000 0.0000 0.0000 15.2840 0.0000 2.8946
# 5 6.1849 8.9350 27.8696 0.0000 40.7508 0.0000
# 6 0.0000 0.0000 0.0000 2.8946 0.0000 18.1413
#
#
#
# Elastic Compliance Matrix: (Units=1/GPa)
#
#
# Indices 1 2 3 4 5 6 
#
# 1 0.012871 -0.003505 -0.004510 0.000000 0.001899 0.000000
# 2 -0.003505 0.015711 -0.004573 0.000000 0.000215 0.000000
# 3 -0.004510 -0.004573 0.015120 0.000000 -0.008654 0.000000
# 4 0.000000 0.000000 0.000000 0.067466 0.000000 -0.010765
# 5 0.001899 0.000215 -0.008654 0.000000 0.030122 0.000000
# 6 0.000000 0.000000 0.000000 -0.010765 0.000000 0.056840
#
#
# Mechanical properties :
#
#
# Convention : Reuss Voigt Hill
#
# Bulk Modulus (GPa) = 53.97604 59.65450 56.81527
# Shear Modulus (GPa) = 21.78812 26.29551 24.04181
#
# Velocity S-wave (km/s) = 3.63372 3.99193 3.81703
# Velocity P-wave (km/s) = 7.09334 7.57620 7.33875
#
# Compressibility (1/GPa) = 0.01852674
#
# Stress axis : x y z
#
# Youngs Moduli (GPa) = 77.69516 63.64925 66.13560
#
# Poissons Ratio (x) = 0.22308 0.29825
# Poissons Ratio (y) = 0.27231 0.30246
# Poissons Ratio (z) = 0.35038 0.29109
#
# Static dielectric constant tensor:
#      x y z
#    x 3.519990 0.000000 0.225280 
#    y 0.000000 2.870560 0.000000 
#    z 0.225280 0.000000 3.504520 
# 
# 
# High freq. dielectric constant tensor:
#      x y z
#    x 1.666410 0.000000 0.006540 
#    y 0.000000 1.588560 0.000000 
#    z 0.006540 0.000000 1.636870 
# 
# From -- ./inp_files/90413.got.cif
#   From: 2010.06.25/outbox.cif.g09.slc.cpg/sg13_46_cif.got.tgz:90413.got - 2010.06.28 04:50:58.
