data_PCOD8116794
_publ_section_title
;
Structure prediction by ZEFSAII (Michael W. Deem and Ramdas Pophale) SiO2 
 PCOD8116794
Probable space group: P 2/C
;
_chemical_formula_sum "Si O2"
_cell_formula_units_Z 26
_cell_length_a 12.897364
_cell_length_b 7.034059
_cell_length_c 14.520139
_cell_angle_alpha 90.000000
_cell_angle_beta 116.358323
_cell_angle_gamma 90.000000
_cell_volume 1180.327941
_symmetry_space_group_name_H-M "P 2/C"
_symmetry_group_IT_number 13
_symmetry_cell_setting 'monoclinic'
loop_
_space_group_symop_operation_xyz
x,y,z
-x,y,1/2-z
-x,-y,-z
x,-y,1/2+z
loop_
_atom_site_type_symbol
_atom_site_label
_atom_site_fract_x
_atom_site_fract_y
_atom_site_fract_z
Si Si1 0.889286 0.787223 0.325364
Si Si2 0.744234 0.049651 0.393296
Si Si3 0.152114 0.788508 0.396667
Si Si4 0.557652 0.337353 0.122939
Si Si5 0.676098 0.466866 0.005140
Si Si6 0.500000 0.041077 0.250000
Si Si7 0.720891 0.510361 0.825191
O O1 0.855912 0.862725 0.210679
O O2 0.833207 0.581003 0.322656
O O3 0.025648 0.762446 0.391184
O O4 0.844545 0.943525 0.378738
O O5 0.776966 0.056889 0.514604
O O6 0.619846 0.938932 0.328755
O O7 0.740536 0.269282 0.358623
O O8 0.210254 0.580736 0.419193
O O9 0.644512 0.306140 0.069269
O O10 0.543568 0.150149 0.176757
O O11 0.612778 0.501161 0.211484
O O12 0.431888 0.389172 0.036583
O O13 0.693279 0.389034 0.907813
#
# Coordination Sequence:
#
# PCOD8116794 Si02
#       7
#     4   4   4   4   4   2   4
#     4  11  23  41  62  91 122 161 213 251 306 371
#     4  10  22  42  59  88 123 164 198 261 312 360
#     4  10  21  41  63  87 126 162 202 266 303 361
#     4  10  16  32  58  86 120 156 190 248 304 362
#     4  10  18  31  60  89 115 159 200 239 317 355
#     4  10  18  38  58  82 130 156 200 258 308 356
#     4  10  20  38  62  88 120 159 201 254 306 368
#
# _framework density 22.027777
#
# number of rings (size 3 to 8) (size 9 to 14) (size 15 to 20)
#    0.000    1.846    6.154    0.462    0.000    2.462 
#    8.308    3.846    0.000    0.000    0.000    0.000 
#    0.000    0.000    0.000    0.000    0.000    0.000 
#
# Total GULP energy -322091.214422 kJ/mol
# GULP energy per Si atom -12388.123632 kJ/mol
# Density = 2.197764 g / cm^3
# Si number density = 22.027777 Si / 1000 Ang^3
#
#
#
# Elastic Constant Matrix: (Units=GPa)
#
#
# Indices 1 2 3 4 5 6 
#
# 1 136.0863 17.6468 46.0487 0.0000 3.9400 0.0000
# 2 17.6468 26.4160 11.2705 0.0000 -1.1152 0.0000
# 3 46.0487 11.2705 108.3135 0.0000 2.7162 0.0000
# 4 0.0000 0.0000 0.0000 12.9961 0.0000 1.9387
# 5 3.9400 -1.1152 2.7162 0.0000 42.1178 0.0000
# 6 0.0000 0.0000 0.0000 1.9387 0.0000 24.6692
#
#
#
# Elastic Compliance Matrix: (Units=1/GPa)
#
#
# Indices 1 2 3 4 5 6 
#
# 1 0.009118 -0.004686 -0.003370 0.000000 -0.000760 0.000000
# 2 -0.004686 0.042095 -0.002431 0.000000 0.001710 0.000000
# 3 -0.003370 -0.002431 0.010930 0.000000 -0.000454 0.000000
# 4 0.000000 0.000000 0.000000 0.077859 0.000000 -0.006119
# 5 -0.000760 0.001710 -0.000454 0.000000 0.023889 0.000000
# 6 0.000000 0.000000 0.000000 -0.006119 0.000000 0.041017
#
#
# Mechanical properties :
#
#
# Convention : Reuss Voigt Hill
#
# Bulk Modulus (GPa) = 24.28954 46.74976 35.51965
# Shear Modulus (GPa) = 20.86773 29.01327 24.94050
#
# Velocity S-wave (km/s) = 3.08122 3.63315 3.36851
# Velocity P-wave (km/s) = 4.86922 6.23449 5.59367
#
# Compressibility (1/GPa) = 0.04116999
#
# Stress axis : x y z
#
# Youngs Moduli (GPa) = 109.67116 23.75558 91.49543
#
# Poissons Ratio (x) = 0.11131 0.30833
# Poissons Ratio (y) = 0.51387 0.22243
# Poissons Ratio (z) = 0.36958 0.05775
#
# Static dielectric constant tensor:
#      x y z
#    x 4.273280 0.000000 -0.126100 
#    y 0.000000 3.309350 0.000000 
#    z -0.126100 0.000000 4.707200 
# 
# 
# High freq. dielectric constant tensor:
#      x y z
#    x 1.878030 0.000000 -0.004350 
#    y 0.000000 1.810500 0.000000 
#    z -0.004350 0.000000 1.890720 
# 
# From -- ./inp_files/50188.got.cif
#   From: 2010.06.25/outbox.cif.g09.slc.cpg/sg13_26_cif.got.tgz:50188.got - 2010.06.28 04:50:58.
