data_PCOD8116236
_publ_section_title
;
Structure prediction by ZEFSAII (Michael W. Deem and Ramdas Pophale) SiO2 
 PCOD8116236
Probable space group: C 2/M
;
_chemical_formula_sum "Si O2"
_cell_formula_units_Z 32
_cell_length_a 18.000000
_cell_length_b 9.000000
_cell_length_c 30.000000
_cell_angle_alpha 90.000000
_cell_angle_beta 40.000000
_cell_angle_gamma 90.000000
_cell_volume 3123.947783
_symmetry_space_group_name_H-M "C 2/M"
_symmetry_group_IT_number 12
_symmetry_cell_setting 'monoclinic'
loop_
_space_group_symop_operation_xyz
x,y,z
-x,y,-z
-x,-y,-z
x,-y,z
1/2+x,1/2+y,z
1/2-x,1/2+y,-z
1/2-x,1/2-y,-z
1/2+x,1/2-y,z
loop_
_atom_site_type_symbol
_atom_site_label
_atom_site_fract_x
_atom_site_fract_y
_atom_site_fract_z
Si Si1 0.160028 0.665778 0.136492
Si Si2 0.312796 0.177889 0.266246
Si Si3 0.915929 0.167552 0.665243
Si Si4 0.148826 0.173101 0.520416
Si Si5 0.091381 0.176448 0.993186
Si Si6 0.795742 0.328250 0.373831
Si Si7 0.489171 0.335636 0.725880
Si Si8 0.025916 0.333549 0.112469
O O1 0.159676 0.500000 0.156699
O O2 0.286411 0.740200 0.080936
O O3 0.062951 0.753044 0.207878
O O4 0.133666 0.662406 0.096209
O O5 0.199213 0.249645 0.296947
O O6 0.302761 0.237628 0.320995
O O7 0.420401 0.239437 0.188750
O O8 0.319669 0.000000 0.262573
O O9 0.901781 0.165109 0.724927
O O10 0.027295 0.245555 0.591153
O O11 0.914887 0.000000 0.646598
O O12 0.250000 0.250000 0.500000
O O13 0.174766 0.198705 0.455490
O O14 0.150841 0.000000 0.532101
O O15 0.098135 0.000000 0.992081
O O16 0.057088 0.230868 0.057296
O O17 0.000000 0.236786 0.000000
O O18 0.827430 0.500000 0.359715
O O19 0.900355 0.240404 0.348749
O O20 0.520238 0.500000 0.727769
O O21 0.996653 0.500000 0.108915
#
# Coordination Sequence:
#
# PCOD8116236 Si02
#       8
#     8   8   8   8   8   8   8   8
#     4  10  21  39  59  80 110 145 183 222 266 321
#     4   9  18  34  54  79 112 142 177 226 274 316
#     4   9  19  33  50  79 113 141 178 229 275 316
#     4  10  19  32  53  79 107 143 183 225 274 322
#     4  10  23  40  57  82 116 147 174 219 274 322
#     4  10  19  34  57  80 107 145 184 223 271 325
#     4  11  21  33  55  83 110 141 180 228 272 316
#     4  10  20  36  60  82 106 145 184 224 265 314
#
# _framework density 10.243449
#
# number of rings (size 3 to 8) (size 9 to 14) (size 15 to 20)
#    0.000    2.125    2.500    0.750    1.750    1.750 
#    0.000    2.500    0.000    3.000    0.000    1.750 
#    0.000    0.000    0.000    0.000    0.000    0.000 
#
# Total GULP energy -396422.449257 kJ/mol
# GULP energy per Si atom -12388.201539 kJ/mol
# Density = 1.022013 g / cm^3
# Si number density = 10.243449 Si / 1000 Ang^3
#
#
#
# Elastic Constant Matrix: (Units=GPa)
#
#
# Indices 1 2 3 4 5 6 
#
# 1 39.6963 17.9672 28.4491 0.0002 -15.9058 -0.0014
# 2 17.9672 26.1117 23.8444 0.0018 6.1503 0.0008
# 3 28.4491 23.8444 92.4963 -0.0001 5.7667 -0.0004
# 4 0.0002 0.0018 -0.0001 17.1067 0.0001 7.1515
# 5 -15.9058 6.1503 5.7667 0.0001 25.7375 0.0002
# 6 -0.0014 0.0008 -0.0004 7.1515 0.0002 11.8694
#
#
#
# Elastic Compliance Matrix: (Units=1/GPa)
#
#
# Indices 1 2 3 4 5 6 
#
# 1 0.117039 -0.085031 -0.020135 0.000000 0.097161 0.000017
# 2 -0.085031 0.114111 0.001737 -0.000005 -0.080207 -0.000013
# 3 -0.020135 0.001737 0.017604 0.000001 -0.016803 -0.000002
# 4 0.000000 -0.000005 0.000001 0.078138 0.000001 -0.047079
# 5 0.097161 -0.080207 -0.016803 0.000001 0.121830 0.000014
# 6 0.000017 -0.000013 -0.000002 -0.047079 0.000014 0.112616
#
#
# Mechanical properties :
#
#
# Convention : Reuss Voigt Hill
#
# Bulk Modulus (GPa) = 23.86884 33.20287 28.53586
# Shear Modulus (GPa) = 6.39254 16.81230 11.60242
#
# Velocity S-wave (km/s) = 1.76835 2.86778 2.38236
# Velocity P-wave (km/s) = 3.98064 5.21609 4.63967
#
# Compressibility (1/GPa) = 0.04189562
#
# Stress axis : x y z
#
# Youngs Moduli (GPa) = 8.54418 8.76337 56.80533
#
# Poissons Ratio (x) = 0.74516 1.14378
# Poissons Ratio (y) = 0.72652 -0.09867
# Poissons Ratio (z) = 0.17204 -0.01522
#
# Static dielectric constant tensor:
#      x y z
#    x 3.645530 0.000000 -0.108940 
#    y 0.000000 3.334860 0.000010 
#    z -0.108940 0.000010 4.083670 
# 
# 
# High freq. dielectric constant tensor:
#      x y z
#    x 1.779810 0.000000 0.002930 
#    y 0.000000 1.751230 0.000000 
#    z 0.002930 0.000000 1.814100 
# 
# From -- ./inp_files/378025.got.cif
#   From: 2010.06.25/outbox.ucp.g09.slc.cvg/sg12_190_cif.got.tgz:378025.got - 2010.06.28 13:50:54.
