data_PCOD8116899
_publ_section_title
;
Structure prediction by ZEFSAII (Michael W. Deem and Ramdas Pophale) SiO2 
 PCOD8116899
Probable space group: P 2/C
;
_chemical_formula_sum "Si O2"
_cell_formula_units_Z 18
_cell_length_a 10.680061
_cell_length_b 5.089544
_cell_length_c 19.298310
_cell_angle_alpha 90.000000
_cell_angle_beta 144.650858
_cell_angle_gamma 90.000000
_cell_volume 606.901682
_symmetry_space_group_name_H-M "P 2/C"
_symmetry_group_IT_number 13
_symmetry_cell_setting 'monoclinic'
loop_
_space_group_symop_operation_xyz
x,y,z
-x,y,1/2-z
-x,-y,-z
x,-y,1/2+z
loop_
_atom_site_type_symbol
_atom_site_label
_atom_site_fract_x
_atom_site_fract_y
_atom_site_fract_z
Si Si1 0.602783 0.221245 0.592855
Si Si2 0.266722 0.961478 0.107687
Si Si3 0.614372 0.551786 0.907294
Si Si4 0.198234 0.836673 0.713750
Si Si5 0.000000 0.551566 0.750000
O O1 0.421544 0.444541 0.529921
O O2 0.801771 0.360000 0.645315
O O3 0.500000 0.000000 0.500000
O O4 0.670270 0.082084 0.695108
O O5 0.500000 0.004033 0.250000
O O6 0.255021 0.173524 0.038730
O O7 0.095473 0.051769 0.093635
O O8 0.248835 0.662893 0.074149
O O9 0.364032 0.599489 0.769048
O O10 0.025262 0.731930 0.692142
#
# Coordination Sequence:
#
# PCOD8116899 Si02
#       5
#     4   4   4   4   2
#     4  11  23  41  66  97 136 176 221 273 336 402
#     4  10  17  31  59  91 122 158 224 271 317 393
#     4  10  19  33  59  96 121 165 218 271 325 386
#     4  10  21  36  62  95 129 170 219 278 331 388
#     4  10  24  40  62  98 136 182 222 268 340 398
#
# _framework density 29.658843000000001
#
# number of rings (size 3 to 8) (size 9 to 14) (size 15 to 20)
#    0.000    1.778    4.444    2.667    3.111    3.556 
#    0.000    0.000    0.000    2.667    0.000    0.000 
#    0.000    0.000    0.000    0.000    0.000    0.000 
#
# Total GULP energy -223053.275757 kJ/mol
# GULP energy per Si atom -12391.848653 kJ/mol
# Density = 2.959134 g / cm^3
# Si number density = 29.658843 Si / 1000 Ang^3
#
#
#
# Elastic Constant Matrix: (Units=GPa)
#
#
# Indices 1 2 3 4 5 6 
#
# 1 193.6455 71.9323 46.3671 0.0000 0.4927 0.0000
# 2 71.9323 188.2513 42.1578 0.0000 4.9200 0.0000
# 3 46.3671 42.1578 62.9222 0.0000 -20.6756 0.0000
# 4 0.0000 0.0000 0.0000 25.1959 0.0000 6.3880
# 5 0.4927 4.9200 -20.6756 0.0000 38.1283 0.0000
# 6 0.0000 0.0000 0.0000 6.3880 0.0000 74.4799
#
#
#
# Elastic Compliance Matrix: (Units=1/GPa)
#
#
# Indices 1 2 3 4 5 6 
#
# 1 0.006900 -0.001458 -0.004958 0.000000 -0.002590 0.000000
# 2 -0.001458 0.007031 -0.004779 0.000000 -0.003480 0.000000
# 3 -0.004958 -0.004779 0.027953 0.000000 0.015839 0.000000
# 4 0.000000 0.000000 0.000000 0.040571 0.000000 -0.003480
# 5 -0.002590 -0.003480 0.015839 0.000000 0.035298 0.000000
# 6 0.000000 0.000000 0.000000 -0.003480 0.000000 0.013725
#
#
# Mechanical properties :
#
#
# Convention : Reuss Voigt Hill
#
# Bulk Modulus (GPa) = 51.30466 85.08150 68.19308
# Shear Modulus (GPa) = 31.17869 46.51828 38.84848
#
# Velocity S-wave (km/s) = 3.24581 3.96466 3.62310
# Velocity P-wave (km/s) = 5.60204 7.05032 6.36749
#
# Compressibility (1/GPa) = 0.01949141
#
# Stress axis : x y z
#
# Youngs Moduli (GPa) = 144.93659 142.23645 35.77470
#
# Poissons Ratio (x) = 0.20743 0.17737
# Poissons Ratio (y) = 0.21137 0.17098
# Poissons Ratio (z) = 0.71860 0.67979
#
# Static dielectric constant tensor:
#      x y z
#    x 6.181080 0.000000 -0.115790 
#    y 0.000000 7.855140 0.000000 
#    z -0.115790 0.000000 6.356000 
# 
# 
# High freq. dielectric constant tensor:
#      x y z
#    x 2.235460 0.000000 -0.004090 
#    y 0.000000 2.226450 0.000000 
#    z -0.004090 0.000000 2.196880 
# 
# From -- ./inp_files/77059.got.cif
#   From: 2010.06.25/outbox.cif.g09.slc.cpg/sg13_39_cif.got.tgz:77059.got - 2010.06.28 04:50:58.
