data_PCOD8116652
_publ_section_title
;
Structure prediction by ZEFSAII (Michael W. Deem and Ramdas Pophale) SiO2 
 PCOD8116652
Probable space group: P 2/C
;
_chemical_formula_sum "Si O2"
_cell_formula_units_Z 32
_cell_length_a 10.651906
_cell_length_b 8.921358
_cell_length_c 19.611752
_cell_angle_alpha 90.000000
_cell_angle_beta 56.654506
_cell_angle_gamma 90.000000
_cell_volume 1556.876504
_symmetry_space_group_name_H-M "P 2/C"
_symmetry_group_IT_number 13
_symmetry_cell_setting 'monoclinic'
loop_
_space_group_symop_operation_xyz
x,y,z
-x,y,1/2-z
-x,-y,-z
x,-y,1/2+z
loop_
_atom_site_type_symbol
_atom_site_label
_atom_site_fract_x
_atom_site_fract_y
_atom_site_fract_z
Si Si1 0.843625 0.577814 0.769722
Si Si2 0.834478 0.535289 0.631566
Si Si3 0.874235 0.083727 0.206850
Si Si4 0.637806 0.694412 0.940352
Si Si5 0.797712 0.997227 0.872873
Si Si6 0.343239 0.828852 0.835748
Si Si7 0.171960 0.553543 0.508349
Si Si8 0.684594 0.753876 0.505912
O O1 0.797455 0.472939 0.718722
O O2 0.860352 0.747002 0.737606
O O3 0.720430 0.576441 0.865400
O O4 0.000000 0.513635 0.750000
O O5 0.709533 0.659123 0.654461
O O6 0.822213 0.413074 0.575124
O O7 0.006327 0.601043 0.583801
O O8 0.775601 0.061464 0.167468
O O9 0.820042 0.974552 0.284821
O O10 0.047114 0.052575 0.137628
O O11 0.462436 0.670318 0.979787
O O12 0.673683 0.868071 0.917703
O O13 0.695117 0.651226 0.998565
O O14 0.743845 0.145728 0.926464
O O15 0.500000 0.850916 0.750000
O O16 0.352399 0.855777 0.915249
O O17 0.193579 0.374736 0.514172
#
# Coordination Sequence:
#
# PCOD8116652 Si02
#       8
#     4   4   4   4   4   4   4   4
#     4  10  14  29  55  81  96 132 192 230 258 313
#     4   9  18  32  53  76 104 139 180 226 268 324
#     4   9  17  33  56  75 106 148 183 226 276 326
#     4  11  19  34  57  80 108 145 184 227 278 331
#     4  10  19  35  56  82 106 143 192 229 271 335
#     4  10  19  34  55  84 111 139 185 243 278 318
#     4  10  20  35  51  76 113 146 176 220 286 330
#     4  11  23  33  52  86 117 140 178 235 282 331
#
# _framework density 20.553974
#
# number of rings (size 3 to 8) (size 9 to 14) (size 15 to 20)
#    0.000    2.000    3.750    3.750    0.000    0.500 
#    0.000    2.500    0.000    0.000    0.000    5.250 
#    0.000    0.000    0.000    0.000    0.000    0.000 
#
# Total GULP energy -396515.746345 kJ/mol
# GULP energy per Si atom -12391.117073 kJ/mol
# Density = 2.050719 g / cm^3
# Si number density = 20.553974 Si / 1000 Ang^3
#
#
#
# Elastic Constant Matrix: (Units=GPa)
#
#
# Indices 1 2 3 4 5 6 
#
# 1 125.3085 -1.4661 30.2770 0.0000 12.3095 0.0000
# 2 -1.4661 14.8443 4.2166 0.0000 4.1719 0.0000
# 3 30.2770 4.2166 66.6201 0.0000 13.3872 0.0000
# 4 0.0000 0.0000 0.0000 13.7761 0.0000 3.5408
# 5 12.3095 4.1719 13.3872 0.0000 43.0895 0.0000
# 6 0.0000 0.0000 0.0000 3.5408 0.0000 13.0175
#
#
#
# Elastic Compliance Matrix: (Units=1/GPa)
#
#
# Indices 1 2 3 4 5 6 
#
# 1 0.009130 0.002486 -0.003983 0.000000 -0.001611 0.000000
# 2 0.002486 0.070588 -0.004353 0.000000 -0.006192 0.000000
# 3 -0.003983 -0.004353 0.017900 0.000000 -0.004002 0.000000
# 4 0.000000 0.000000 0.000000 0.078046 0.000000 -0.021229
# 5 -0.001611 -0.006192 -0.004002 0.000000 0.025511 0.000000
# 6 0.000000 0.000000 0.000000 -0.021229 0.000000 0.082594
#
#
# Mechanical properties :
#
#
# Convention : Reuss Voigt Hill
#
# Bulk Modulus (GPa) = 11.63897 30.31422 20.97660
# Shear Modulus (GPa) = 15.42692 25.55966 20.49329
#
# Velocity S-wave (km/s) = 2.74260 3.53021 3.16103
# Velocity P-wave (km/s) = 3.96284 5.60331 4.85290
#
# Compressibility (1/GPa) = 0.08591825
#
# Stress axis : x y z
#
# Youngs Moduli (GPa) = 109.52871 14.16666 55.86496
#
# Poissons Ratio (x) = -0.03522 0.22250
# Poissons Ratio (y) = -0.27228 0.24320
# Poissons Ratio (z) = 0.43624 0.06167
#
# Static dielectric constant tensor:
#      x y z
#    x 4.163780 0.000000 0.449230 
#    y 0.000000 3.098320 0.000000 
#    z 0.449230 0.000000 4.104590 
# 
# 
# High freq. dielectric constant tensor:
#      x y z
#    x 1.824160 0.000000 0.011900 
#    y 0.000000 1.732760 0.000000 
#    z 0.011900 0.000000 1.808790 
# 
# From -- ./inp_files/78263.got.cif
#   From: 2010.06.25/outbox.cif.g09.slc.cpg/sg13_40_cif.got.tgz:78263.got - 2010.06.28 04:50:58.
