data_PCOD8116054
_publ_section_title
;
Structure prediction by ZEFSAII (Michael W. Deem and Ramdas Pophale) SiO2 
 PCOD8116054
Probable space group: C 2/M
;
_chemical_formula_sum "Si O2"
_cell_formula_units_Z 56
_cell_length_a 27.547861
_cell_length_b 9.419962
_cell_length_c 16.062567
_cell_angle_alpha 90.000000
_cell_angle_beta 64.035437
_cell_angle_gamma 90.000000
_cell_volume 3747.512404
_symmetry_space_group_name_H-M "C 2/M"
_symmetry_group_IT_number 12
_symmetry_cell_setting 'monoclinic'
loop_
_space_group_symop_operation_xyz
x,y,z
-x,y,-z
-x,-y,-z
x,-y,z
1/2+x,1/2+y,z
1/2-x,1/2+y,-z
1/2-x,1/2-y,-z
1/2+x,1/2-y,z
loop_
_atom_site_type_symbol
_atom_site_label
_atom_site_fract_x
_atom_site_fract_y
_atom_site_fract_z
Si Si1 0.060894 0.832395 0.540788
Si Si2 0.941753 0.831952 0.644580
Si Si3 0.703032 0.836206 0.991523
Si Si4 0.263794 0.335090 0.176824
Si Si5 0.241169 0.164074 0.630081
Si Si6 0.853366 0.339251 0.803320
Si Si7 0.171159 0.165835 0.528963
O O1 0.072507 0.779545 0.438066
O O2 0.109279 0.781707 0.565059
O O3 0.003018 0.778958 0.618463
O O4 0.057163 0.000000 0.539183
O O5 0.901737 0.761124 0.739890
O O6 0.935740 0.000000 0.658848
O O7 0.694147 0.760169 0.908762
O O8 0.719766 0.000000 0.965535
O O9 0.750000 0.750000 0.000000
O O10 0.651810 0.826255 0.092070
O O11 0.274159 0.500000 0.148542
O O12 0.275991 0.298591 0.263470
O O13 0.202201 0.293734 0.200644
O O14 0.190703 0.201109 0.607794
O O15 0.292858 0.254968 0.566107
O O16 0.257741 0.000000 0.609561
O O17 0.867447 0.500000 0.767329
O O18 0.176144 0.000000 0.505212
#
# Coordination Sequence:
#
# PCOD8116054 Si02
#       7
#     8   8   8   8   8   8   8
#     4   8  15  27  40  57  80 104 133 166 194 223
#     4   9  16  26  41  58  77 104 136 164 190 228
#     4   9  17  28  41  58  81 107 132 161 197 237
#     4   9  17  28  40  57  83 109 132 162 198 235
#     4   9  17  27  40  60  83 106 133 165 199 233
#     4   9  17  27  38  56  82 104 124 157 197 233
#     4   9  16  27  42  58  80 109 136 163 197 237
#
# _framework density 14.943246
#
# number of rings (size 3 to 8) (size 9 to 14) (size 15 to 20)
#    0.000    3.143    0.000    3.000    0.000    3.429 
#    0.000    2.143    0.000    0.000    0.000    1.000 
#    0.000    8.000    0.000    0.000    0.000    0.000 
#
# Total GULP energy -347002.783351 kJ/mol
# GULP energy per Si atom -12392.956548 kJ/mol
# Density = 1.490923 g / cm^3
# Si number density = 14.943246 Si / 1000 Ang^3
#
#
#
# Elastic Constant Matrix: (Units=GPa)
#
#
# Indices 1 2 3 4 5 6 
#
# 1 89.2791 30.3938 49.1559 0.0000 -1.3112 0.0000
# 2 30.3938 54.7819 49.0736 0.0000 -2.4172 0.0000
# 3 49.1559 49.0736 109.2050 0.0000 1.0666 0.0000
# 4 0.0000 0.0000 0.0000 28.2785 0.0000 -3.1663
# 5 -1.3112 -2.4172 1.0666 0.0000 19.4966 0.0000
# 6 0.0000 0.0000 0.0000 -3.1663 0.0000 15.1159
#
#
#
# Elastic Compliance Matrix: (Units=1/GPa)
#
#
# Indices 1 2 3 4 5 6 
#
# 1 0.015388 -0.003829 -0.005214 0.000000 0.000845 0.000000
# 2 -0.003829 0.031914 -0.012660 0.000000 0.004392 0.000000
# 3 -0.005214 -0.012660 0.017221 0.000000 -0.002862 0.000000
# 4 0.000000 0.000000 0.000000 0.036212 0.000000 0.007585
# 5 0.000845 0.004392 -0.002862 0.000000 0.052049 0.000000
# 6 0.000000 0.000000 0.000000 0.007585 0.000000 0.067744
#
#
# Mechanical properties :
#
#
# Convention : Reuss Voigt Hill
#
# Bulk Modulus (GPa) = 47.35890 56.72362 52.04126
# Shear Modulus (GPa) = 18.45204 20.88772 19.66988
#
# Velocity S-wave (km/s) = 3.51780 3.74278 3.63203
# Velocity P-wave (km/s) = 6.94703 7.53124 7.24503
#
# Compressibility (1/GPa) = 0.02111535
#
# Stress axis : x y z
#
# Youngs Moduli (GPa) = 64.98766 31.33454 58.06857
#
# Poissons Ratio (x) = 0.12000 0.30275
# Poissons Ratio (y) = 0.24887 0.73516
# Poissons Ratio (z) = 0.33883 0.39670
#
# Static dielectric constant tensor:
#      x y z
#    x 2.930100 0.000000 0.102310 
#    y 0.000000 2.864000 0.000000 
#    z 0.102310 0.000000 3.105840 
# 
# 
# High freq. dielectric constant tensor:
#      x y z
#    x 1.543530 0.000000 0.004730 
#    y 0.000000 1.565950 0.000000 
#    z 0.004730 0.000000 1.567370 
# 
# From -- ./inp_files/248161.got.cif
#   From: 2010.06.25/outbox.cif.g09.slc.cpg/sg12_125_cif.got.tgz:248161.got - 2010.06.28 00:19:55.
