data_PCOD8116866
_publ_section_title
;
Structure prediction by ZEFSAII (Michael W. Deem and Ramdas Pophale) SiO2 
 PCOD8116866
Probable space group: P 2/C
;
_chemical_formula_sum "Si O2"
_cell_formula_units_Z 24
_cell_length_a 7.017072
_cell_length_b 8.660884
_cell_length_c 22.179783
_cell_angle_alpha 90.000000
_cell_angle_beta 70.447441
_cell_angle_gamma 90.000000
_cell_volume 1270.225175
_symmetry_space_group_name_H-M "P 2/C"
_symmetry_group_IT_number 13
_symmetry_cell_setting 'monoclinic'
loop_
_space_group_symop_operation_xyz
x,y,z
-x,y,1/2-z
-x,-y,-z
x,-y,1/2+z
loop_
_atom_site_type_symbol
_atom_site_label
_atom_site_fract_x
_atom_site_fract_y
_atom_site_fract_z
Si Si1 0.968469 0.582649 0.939751
Si Si2 0.553826 0.689281 0.955226
Si Si3 0.500000 0.482622 0.750000
Si Si4 0.761915 0.761816 0.277004
Si Si5 0.379350 0.269113 0.354653
Si Si6 0.315738 0.370495 0.587150
Si Si7 0.500000 0.977540 0.750000
O O1 0.779962 0.705135 0.958967
O O2 0.908987 0.443631 0.899508
O O3 0.156187 0.682390 0.898339
O O4 0.000000 0.500000 0.000000
O O5 0.511236 0.786685 0.898731
O O6 0.386442 0.737326 0.023255
O O7 0.303383 0.374265 0.761801
O O8 0.517581 0.584851 0.688507
O O9 0.678146 0.724808 0.352409
O O10 0.000000 0.779996 0.250000
O O11 0.663939 0.922659 0.268225
O O12 0.519534 0.488724 0.434300
O O13 0.370388 0.126157 0.309896
#
# Coordination Sequence:
#
# PCOD8116866 Si02
#       7
#     4   4   2   4   4   4   2
#     4  10  17  29  58  93 117 140 176 240 302 345
#     4   9  18  32  56  93 117 140 174 250 298 332
#     4  10  20  32  62  86 106 150 190 252 284 332
#     4  11  22  41  56  81 117 157 199 230 283 347
#     4  11  19  38  57  88 118 144 199 236 291 338
#     4   9  17  34  58  91 115 143 180 248 297 327
#     4  10  28  40  56  78 122 170 190 232 278 348
#
# _framework density 18.894288
#
# number of rings (size 3 to 8) (size 9 to 14) (size 15 to 20)
#    1.000    1.000    3.333    1.000    0.000    1.333 
#    0.000    4.167    0.000    2.000    0.000    0.000 
#    0.000    0.000    0.000    0.000    0.000    0.000 
#
# Total GULP energy -297316.299673 kJ/mol
# GULP energy per Si atom -12388.179153 kJ/mol
# Density = 1.885128 g / cm^3
# Si number density = 18.894288 Si / 1000 Ang^3
#
#
#
# Elastic Constant Matrix: (Units=GPa)
#
#
# Indices 1 2 3 4 5 6 
#
# 1 124.2535 36.4966 42.9397 0.0000 1.2058 0.0000
# 2 36.4966 74.5862 40.5063 0.0000 0.4904 0.0000
# 3 42.9397 40.5063 127.3471 0.0000 4.5550 0.0000
# 4 0.0000 0.0000 0.0000 25.7722 0.0000 7.3814
# 5 1.2058 0.4904 4.5550 0.0000 33.2219 0.0000
# 6 0.0000 0.0000 0.0000 7.3814 0.0000 15.2360
#
#
#
# Elastic Compliance Matrix: (Units=1/GPa)
#
#
# Indices 1 2 3 4 5 6 
#
# 1 0.009870 -0.003653 -0.002166 0.000000 -0.000007 0.000000
# 2 -0.003653 0.017566 -0.004373 0.000000 0.000473 0.000000
# 3 -0.002166 -0.004373 0.010018 0.000000 -0.001230 0.000000
# 4 0.000000 0.000000 0.000000 0.045053 0.000000 -0.021827
# 5 -0.000007 0.000473 -0.001230 0.000000 0.030263 0.000000
# 6 0.000000 0.000000 0.000000 -0.021827 0.000000 0.076208
#
#
# Mechanical properties :
#
#
# Convention : Reuss Voigt Hill
#
# Bulk Modulus (GPa) = 58.57969 62.89690 60.73829
# Shear Modulus (GPa) = 23.25036 28.59564 25.92300
#
# Velocity S-wave (km/s) = 3.51172 3.89453 3.70807
# Velocity P-wave (km/s) = 6.89305 7.32013 7.10980
#
# Compressibility (1/GPa) = 0.01707076
#
# Stress axis : x y z
#
# Youngs Moduli (GPa) = 101.32135 56.92658 99.82431
#
# Poissons Ratio (x) = 0.20797 0.21618
# Poissons Ratio (y) = 0.37015 0.43649
# Poissons Ratio (z) = 0.21942 0.24892
#
# Static dielectric constant tensor:
#      x y z
#    x 3.418300 0.000000 0.112100 
#    y 0.000000 3.090670 0.000000 
#    z 0.112100 0.000000 3.615870 
# 
# 
# High freq. dielectric constant tensor:
#      x y z
#    x 1.731270 0.000000 0.009760 
#    y 0.000000 1.687820 0.000000 
#    z 0.009760 0.000000 1.749330 
# 
# From -- ./inp_files/83393.got.cif
#   From: 2010.06.25/outbox.cif.g09.slc.cpg/sg13_42_cif.got.tgz:83393.got - 2010.06.28 04:50:58.
