data_PCOD8116043
_publ_section_title
;
Structure prediction by ZEFSAII (Michael W. Deem and Ramdas Pophale) SiO2 
 PCOD8116043
Probable space group: C 2/M
;
_chemical_formula_sum "Si O2"
_cell_formula_units_Z 64
_cell_length_a 18.956241
_cell_length_b 9.272999
_cell_length_c 21.245831
_cell_angle_alpha 90.000000
_cell_angle_beta 90.024111
_cell_angle_gamma 90.000000
_cell_volume 3734.617419
_symmetry_space_group_name_H-M "C 2/M"
_symmetry_group_IT_number 12
_symmetry_cell_setting 'monoclinic'
loop_
_space_group_symop_operation_xyz
x,y,z
-x,y,-z
-x,-y,-z
x,-y,z
1/2+x,1/2+y,z
1/2-x,1/2+y,-z
1/2-x,1/2-y,-z
1/2+x,1/2-y,z
loop_
_atom_site_type_symbol
_atom_site_label
_atom_site_fract_x
_atom_site_fract_y
_atom_site_fract_z
Si Si1 0.113500 0.668446 0.096743
Si Si2 0.826323 0.829148 0.374643
Si Si3 0.921893 0.831929 0.490191
Si Si4 0.861443 0.332994 0.041984
Si Si5 0.233806 0.833230 0.870186
Si Si6 0.128245 0.168533 0.763681
Si Si7 0.971359 0.666949 0.151090
Si Si8 0.214421 0.829725 0.442130
O O1 0.097839 0.500000 0.088690
O O2 0.183452 0.699942 0.137270
O O3 0.048222 0.733810 0.135775
O O4 0.119496 0.733134 0.026270
O O5 0.882756 0.774579 0.427039
O O6 0.857455 0.784272 0.307498
O O7 0.750863 0.745436 0.381585
O O8 0.811774 0.000000 0.380005
O O9 0.870551 0.803875 0.550903
O O10 0.000000 0.759984 0.500000
O O11 0.933644 0.000000 0.479849
O O12 0.841109 0.500000 0.036095
O O13 0.793494 0.252246 0.069200
O O14 0.926592 0.306780 0.088248
O O15 0.195505 0.785069 0.805934
O O16 0.220020 0.000000 0.884379
O O17 0.059147 0.249026 0.788941
O O18 0.113487 0.000000 0.768382
O O19 0.973644 0.500000 0.170086
O O20 0.250000 0.750000 0.500000
O O21 0.230955 0.000000 0.443243
#
# Coordination Sequence:
#
# PCOD8116043 Si02
#       8
#     8   8   8   8   8   8   8   8
#     4   9  16  27  44  64  84 109 141 177 221 266
#     4   9  17  30  48  65  85 117 150 178 209 250
#     4   8  14  26  45  68  90 111 137 170 208 246
#     4   9  16  27  44  64  84 107 139 179 220 262
#     4   9  17  29  44  61  84 113 143 176 214 260
#     4   9  18  32  46  61  84 116 149 176 210 255
#     4   9  17  29  45  63  84 111 143 179 216 257
#     4   9  16  27  46  70  93 116 143 175 208 246
#
# _framework density 17.136963000000002
#
# number of rings (size 3 to 8) (size 9 to 14) (size 15 to 20)
#    0.000    3.125    0.000    1.875    0.000    2.000 
#    0.000    2.500    0.000   12.375    0.000    0.000 
#    0.000    0.000    0.000    0.000    0.000    0.000 
#
# Total GULP energy -396562.929830 kJ/mol
# GULP energy per Si atom -12392.591557 kJ/mol
# Density = 1.709796 g / cm^3
# Si number density = 17.136963 Si / 1000 Ang^3
#
#
#
# Elastic Constant Matrix: (Units=GPa)
#
#
# Indices 1 2 3 4 5 6 
#
# 1 134.5806 36.6998 62.9277 0.0000 -24.0482 0.0000
# 2 36.6998 37.9261 29.8309 0.0000 -11.7151 0.0000
# 3 62.9277 29.8309 111.8922 0.0000 -24.4006 0.0000
# 4 0.0000 0.0000 0.0000 21.2184 0.0000 -7.7127
# 5 -24.0482 -11.7151 -24.4006 0.0000 22.4520 0.0000
# 6 0.0000 0.0000 0.0000 -7.7127 0.0000 21.8529
#
#
#
# Elastic Compliance Matrix: (Units=1/GPa)
#
#
# Indices 1 2 3 4 5 6 
#
# 1 0.012042 -0.007119 -0.003764 0.000000 0.005093 0.000000
# 2 -0.007119 0.039434 -0.004830 0.000000 0.007702 0.000000
# 3 -0.003764 -0.004830 0.014303 0.000000 0.008992 0.000000
# 4 0.000000 0.000000 0.000000 0.054065 0.000000 0.019082
# 5 0.005093 0.007702 0.008992 0.000000 0.063786 0.000000
# 6 0.000000 0.000000 0.000000 0.019082 0.000000 0.052495
#
#
# Mechanical properties :
#
#
# Convention : Reuss Voigt Hill
#
# Bulk Modulus (GPa) = 29.10950 60.36839 44.73895
# Shear Modulus (GPa) = 17.92112 23.43402 20.67757
#
# Velocity S-wave (km/s) = 3.23733 3.70192 3.47739
# Velocity P-wave (km/s) = 5.56749 7.31955 6.50280
#
# Compressibility (1/GPa) = 0.03435305
#
# Stress axis : x y z
#
# Youngs Moduli (GPa) = 83.04515 25.35889 69.91765
#
# Poissons Ratio (x) = 0.18052 0.26314
# Poissons Ratio (y) = 0.59118 0.33771
# Poissons Ratio (z) = 0.31255 0.12249
#
# Static dielectric constant tensor:
#      x y z
#    x 3.556460 0.000000 -0.247570 
#    y 0.000000 3.069850 0.000000 
#    z -0.247570 0.000000 3.282510 
# 
# 
# High freq. dielectric constant tensor:
#      x y z
#    x 1.665100 0.000000 -0.014380 
#    y 0.000000 1.633800 0.000000 
#    z -0.014380 0.000000 1.644520 
# 
# From -- ./inp_files/341989.got.cif
#   From: 2010.06.25/outbox.cif.g09.slc.cpg/sg12_171_cif.got.tgz:341989.got - 2010.06.28 00:19:55.
