data_PCOD8116159
_publ_section_title
;
Structure prediction by ZEFSAII (Michael W. Deem and Ramdas Pophale) SiO2 
 PCOD8116159
Probable space group: C 2/M
;
_chemical_formula_sum "Si O2"
_cell_formula_units_Z 56
_cell_length_a 27.246104
_cell_length_b 9.594547
_cell_length_c 26.909802
_cell_angle_alpha 90.000000
_cell_angle_beta 27.137279
_cell_angle_gamma 90.000000
_cell_volume 3208.649877
_symmetry_space_group_name_H-M "C 2/M"
_symmetry_group_IT_number 12
_symmetry_cell_setting 'monoclinic'
loop_
_space_group_symop_operation_xyz
x,y,z
-x,y,-z
-x,-y,-z
x,-y,z
1/2+x,1/2+y,z
1/2-x,1/2+y,-z
1/2-x,1/2-y,-z
1/2+x,1/2-y,z
loop_
_atom_site_type_symbol
_atom_site_label
_atom_site_fract_x
_atom_site_fract_y
_atom_site_fract_z
Si Si1 0.612215 0.161131 0.085859
Si Si2 0.951438 0.664699 0.658179
Si Si3 0.805144 0.338589 0.701076
Si Si4 0.386221 0.160253 0.246524
Si Si5 0.805682 0.337635 0.879182
Si Si6 0.104969 0.339851 0.876662
Si Si7 0.817050 0.337307 0.575495
O O1 0.490228 0.207033 0.184194
O O2 0.630167 0.187724 0.127788
O O3 0.630505 0.000000 0.054763
O O4 0.694187 0.252958 0.979450
O O5 0.954132 0.500000 0.659542
O O6 0.901515 0.709815 0.650241
O O7 0.880958 0.723136 0.767417
O O8 0.075139 0.716944 0.549451
O O9 0.777611 0.500000 0.733863
O O10 0.701408 0.251996 0.810810
O O11 0.836773 0.306916 0.615952
O O12 0.414329 0.186358 0.163956
O O13 0.284213 0.252688 0.354831
O O14 0.356521 0.000000 0.283703
O O15 0.778007 0.500000 0.896257
O O16 0.131902 0.500000 0.863871
O O17 0.000000 0.289451 0.000000
O O18 0.794912 0.500000 0.586070
#
# Coordination Sequence:
#
# PCOD8116159 Si02
#       7
#     8   8   8   8   8   8   8
#     4   9  18  33  51  69  93 123 152 187 234 279
#     4   9  17  30  49  71  95 121 152 192 234 270
#     4   9  17  29  46  68  92 121 154 187 226 269
#     4   9  18  32  48  65  91 125 155 186 231 276
#     4   9  18  32  50  72  94 118 152 192 231 275
#     4   9  18  30  43  63  92 123 154 187 224 270
#     4   9  17  31  49  69  93 123 157 189 224 272
#
# _framework density 17.452822999999999
#
# number of rings (size 3 to 8) (size 9 to 14) (size 15 to 20)
#    0.000    3.000    0.000    0.429    2.000    2.571 
#    0.000    2.143    0.000    3.429    0.000    0.000 
#    0.000    0.000    0.000    0.000    0.000    0.000 
#
# Total GULP energy -347173.626295 kJ/mol
# GULP energy per Si atom -12399.058082 kJ/mol
# Density = 1.741310 g / cm^3
# Si number density = 17.452823 Si / 1000 Ang^3
#
#
#
# Elastic Constant Matrix: (Units=GPa)
#
#
# Indices 1 2 3 4 5 6 
#
# 1 64.6317 30.8015 55.4211 0.0008 -18.7910 -0.0004
# 2 30.8015 50.9599 57.5796 0.0109 -11.0821 -0.0050
# 3 55.4211 57.5796 150.1066 0.0020 -17.0109 -0.0030
# 4 0.0008 0.0109 0.0020 26.0046 -0.0012 -5.2229
# 5 -18.7910 -11.0821 -17.0109 -0.0012 29.7403 0.0004
# 6 -0.0004 -0.0050 -0.0030 -5.2229 0.0004 19.4504
#
#
#
# Elastic Compliance Matrix: (Units=1/GPa)
#
#
# Indices 1 2 3 4 5 6 
#
# 1 0.027363 -0.007289 -0.006047 0.000003 0.011114 -0.000002
# 2 -0.007289 0.037496 -0.011367 -0.000014 0.002865 0.000004
# 3 -0.006047 -0.011367 0.013197 0.000004 -0.000508 0.000000
# 4 0.000003 -0.000014 0.000004 0.040647 0.000000 0.010915
# 5 0.011114 0.002865 -0.000508 0.000000 0.041423 0.000000
# 6 -0.000002 0.000004 0.000000 0.010915 0.000000 0.054344
#
#
# Mechanical properties :
#
#
# Convention : Reuss Voigt Hill
#
# Bulk Modulus (GPa) = 34.90539 61.47808 48.19174
# Shear Modulus (GPa) = 18.28645 23.16546 20.72595
#
# Velocity S-wave (km/s) = 3.24043 3.64719 3.44981
# Velocity P-wave (km/s) = 5.83471 7.28270 6.59854
#
# Compressibility (1/GPa) = 0.02864887
#
# Stress axis : x y z
#
# Youngs Moduli (GPa) = 36.54621 26.66957 75.77266
#
# Poissons Ratio (x) = 0.19440 0.45820
# Poissons Ratio (y) = 0.26640 0.86132
# Poissons Ratio (z) = 0.22100 0.30316
#
# Static dielectric constant tensor:
#      x y z
#    x 3.215290 0.000000 -0.045660 
#    y 0.000000 3.115690 0.000000 
#    z -0.045660 0.000000 3.434140 
# 
# 
# High freq. dielectric constant tensor:
#      x y z
#    x 1.664300 0.000000 -0.006700 
#    y 0.000000 1.654340 0.000000 
#    z -0.006700 0.000000 1.678450 
# 
# From -- ./inp_files/181554.got.cif
#   From: 2010.06.25/outbox.cif.g09.slc.cpg/sg12_91_cif.got.tgz:181554.got - 2010.06.28 00:19:55.
