data_PCOD8116283
_publ_section_title
;
Structure prediction by ZEFSAII (Michael W. Deem and Ramdas Pophale) SiO2 
 PCOD8116283
Probable space group: C 2/M
;
_chemical_formula_sum "Si O2"
_cell_formula_units_Z 32
_cell_length_a 18.000000
_cell_length_b 9.000000
_cell_length_c 30.000000
_cell_angle_alpha 90.000000
_cell_angle_beta 40.000000
_cell_angle_gamma 90.000000
_cell_volume 3123.947783
_symmetry_space_group_name_H-M "C 2/M"
_symmetry_group_IT_number 12
_symmetry_cell_setting 'monoclinic'
loop_
_space_group_symop_operation_xyz
x,y,z
-x,y,-z
-x,-y,-z
x,-y,z
1/2+x,1/2+y,z
1/2-x,1/2+y,-z
1/2-x,1/2-y,-z
1/2+x,1/2-y,z
loop_
_atom_site_type_symbol
_atom_site_label
_atom_site_fract_x
_atom_site_fract_y
_atom_site_fract_z
Si Si1 0.452175 0.666903 0.651280
Si Si2 0.573514 0.323276 0.508539
Si Si3 0.572584 0.676104 0.007913
Si Si4 0.310434 0.667934 0.885371
Si Si5 0.980689 0.824562 0.733161
Si Si6 0.258661 0.327404 0.374647
Si Si7 0.488015 0.332528 0.140131
Si Si8 0.217284 0.665296 0.720125
O O1 0.502649 0.500000 0.630426
O O2 0.517151 0.742924 0.579573
O O3 0.477577 0.751536 0.685831
O O4 0.313556 0.661863 0.713970
O O5 0.500000 0.266749 0.500000
O O6 0.579948 0.500000 0.506308
O O7 0.701404 0.253459 0.443625
O O8 0.577255 0.500000 0.006832
O O9 0.507952 0.734457 0.081832
O O10 0.500000 0.738506 0.000000
O O11 0.701981 0.731500 0.945112
O O12 0.270776 0.500000 0.892757
O O13 0.383112 0.739833 0.810940
O O14 0.388550 0.669389 0.893177
O O15 0.106734 0.790076 0.693601
O O16 0.960002 0.000000 0.739517
O O17 0.231609 0.500000 0.390807
O O18 0.213323 0.257086 0.349653
O O19 0.438259 0.500000 0.161495
O O20 0.398989 0.233848 0.207858
O O21 0.189534 0.500000 0.715176
#
# Coordination Sequence:
#
# PCOD8116283 Si02
#       8
#     8   8   8   8   8   8   8   8
#     4   9  19  35  55  79 111 148 185 232 283 328
#     4  10  19  35  56  80 111 147 189 234 279 328
#     4  10  23  40  57  83 121 153 179 223 285 334
#     4  10  20  37  61  83 109 148 194 232 268 327
#     4   9  19  36  56  81 113 148 182 228 286 330
#     4  11  21  36  58  83 115 148 184 230 283 337
#     4  10  21  39  59  82 114 151 185 227 281 328
#     4  11  21  35  59  87 110 143 193 235 275 328
#
# _framework density 10.243449
#
# number of rings (size 3 to 8) (size 9 to 14) (size 15 to 20)
#    0.000    2.000    2.500    1.125    1.750    2.000 
#    0.000    0.000    0.000    4.500    0.000    0.000 
#    0.000    0.000    0.000    0.000    0.000    0.000 
#
# Total GULP energy -396577.359489 kJ/mol
# GULP energy per Si atom -12393.042484 kJ/mol
# Density = 1.022013 g / cm^3
# Si number density = 10.243449 Si / 1000 Ang^3
#
#
#
# Elastic Constant Matrix: (Units=GPa)
#
#
# Indices 1 2 3 4 5 6 
#
# 1 47.5472 20.9813 37.4050 -0.0005 27.6597 0.0072
# 2 20.9813 15.7759 14.5961 0.0031 -10.0048 0.0045
# 3 37.4050 14.5961 92.8297 0.0001 -4.5282 0.0024
# 4 -0.0005 0.0031 0.0001 17.4209 -0.0001 -5.3943
# 5 27.6597 -10.0048 -4.5282 -0.0001 19.7953 0.0021
# 6 0.0072 0.0045 0.0024 -5.3943 0.0021 9.7240
#
#
#
# Elastic Compliance Matrix: (Units=1/GPa)
#
#
# Indices 1 2 3 4 5 6 
#
# 1 -0.009498 0.030471 0.000439 -0.000012 0.028772 -0.000020
# 2 0.030471 0.012500 -0.016193 -0.000008 -0.039964 -0.000020
# 3 0.000439 -0.016193 0.012856 0.000005 -0.005857 0.000008
# 4 -0.000012 -0.000008 0.000005 0.069308 0.000010 0.038448
# 5 0.028772 -0.039964 -0.005857 0.000010 -0.011224 0.000006
# 6 -0.000020 -0.000020 0.000008 0.038448 0.000006 0.124168
#
#
# Mechanical properties :
#
#
# Convention : Reuss Voigt Hill
#
# Bulk Modulus (GPa) = 22.07829 33.56861 27.82345
# Shear Modulus (GPa) = 27.20751 14.93273 21.07012
#
# Velocity S-wave (km/s) = 3.64819 2.70273 3.21045
# Velocity P-wave (km/s) = 5.34283 5.11475 5.23003
#
# Compressibility (1/GPa) = 0.04529336
#
# Stress axis : x y z
#
# Youngs Moduli (GPa) = -105.29084 80.00073 77.78566
#
# Poissons Ratio (x) = -2.43773 -0.03417
# Poissons Ratio (y) = 3.20836 1.25959
# Poissons Ratio (z) = 0.04625 1.29546
#
# Static dielectric constant tensor:
#      x y z
#    x 3.700680 0.000000 0.304060 
#    y 0.000000 3.341550 0.000000 
#    z 0.304060 0.000000 3.865390 
# 
# 
# High freq. dielectric constant tensor:
#      x y z
#    x 1.784160 0.000000 0.007120 
#    y 0.000000 1.758960 0.000000 
#    z 0.007120 0.000000 1.815340 
# 
# From -- ./inp_files/378095.got.cif
#   From: 2010.06.25/outbox.ucp.g09.slc.cvg/sg12_190_cif.got.tgz:378095.got - 2010.06.28 13:50:54.
