data_PCOD8116160
_publ_section_title
;
Structure prediction by ZEFSAII (Michael W. Deem and Ramdas Pophale) SiO2 
 PCOD8116160
Probable space group: C 2/M
;
_chemical_formula_sum "Si O2"
_cell_formula_units_Z 56
_cell_length_a 21.806567
_cell_length_b 31.428084
_cell_length_c 9.411671
_cell_angle_alpha 90.000000
_cell_angle_beta 151.480531
_cell_angle_gamma 90.000000
_cell_volume 3079.686639
_symmetry_space_group_name_H-M "C 2/M"
_symmetry_group_IT_number 12
_symmetry_cell_setting 'monoclinic'
loop_
_space_group_symop_operation_xyz
x,y,z
-x,y,-z
-x,-y,-z
x,-y,z
1/2+x,1/2+y,z
1/2-x,1/2+y,-z
1/2-x,1/2-y,-z
1/2+x,1/2-y,z
loop_
_atom_site_type_symbol
_atom_site_label
_atom_site_fract_x
_atom_site_fract_y
_atom_site_fract_z
Si Si1 0.594973 0.131298 0.882836
Si Si2 0.124080 0.092236 0.841979
Si Si3 0.125218 0.269815 0.434600
Si Si4 0.659159 0.207265 0.191852
Si Si5 0.831384 0.657857 0.270686
Si Si6 0.243570 0.451922 0.140311
Si Si7 0.004193 0.951641 0.166293
O O1 0.441058 0.130014 0.572342
O O2 0.642963 0.158634 0.845202
O O3 0.648622 0.157938 0.124986
O O4 0.636946 0.082203 0.969190
O O5 0.206504 0.059002 0.915988
O O6 0.095058 0.072065 0.934533
O O7 0.000000 0.105146 0.500000
O O8 0.195956 0.135822 0.023148
O O9 0.207813 0.226107 0.602923
O O10 0.168319 0.294798 0.380567
O O11 0.169232 0.294969 0.665245
O O12 0.968630 0.265224 0.115950
O O13 0.187034 0.500000 0.022989
O O14 0.354074 0.448319 0.481887
O O15 0.956982 0.000000 0.061485
O O16 0.000000 0.931173 0.000000
#
# Coordination Sequence:
#
# PCOD8116160 Si02
#       7
#     8   8   8   8   8   8   8
#     4   9  18  33  52  72 100 131 165 204 246 296
#     4   9  17  31  48  69  97 129 163 205 245 297
#     4   9  18  34  53  74  99 135 165 205 248 304
#     4   9  18  34  53  74 102 132 168 202 252 299
#     4   9  18  33  50  71 100 129 161 203 246 293
#     4   9  17  31  50  71  98 132 166 204 247 293
#     4   9  17  29  46  68  95 126 163 207 251 291
#
# _framework density 18.183668000000001
#
# number of rings (size 3 to 8) (size 9 to 14) (size 15 to 20)
#    0.000    3.000    0.000    0.429    0.000    3.429 
#    7.714    6.429    0.000    0.000    0.000   11.000 
#    0.000    0.000    0.000    0.000    0.000    0.000 
#
# Total GULP energy -347021.381501 kJ/mol
# GULP energy per Si atom -12393.620768 kJ/mol
# Density = 1.814228 g / cm^3
# Si number density = 18.183668 Si / 1000 Ang^3
#
#
#
# Elastic Constant Matrix: (Units=GPa)
#
#
# Indices 1 2 3 4 5 6 
#
# 1 60.8865 19.8686 22.3621 0.0000 -4.7461 0.0000
# 2 19.8686 63.6465 25.6220 0.0000 5.3368 0.0000
# 3 22.3621 25.6220 45.3912 0.0000 2.3499 0.0000
# 4 0.0000 0.0000 0.0000 26.5797 0.0000 1.3114
# 5 -4.7461 5.3368 2.3499 0.0000 32.9976 0.0000
# 6 0.0000 0.0000 0.0000 1.3114 0.0000 25.5636
#
#
#
# Elastic Compliance Matrix: (Units=1/GPa)
#
#
# Indices 1 2 3 4 5 6 
#
# 1 0.021050 -0.003444 -0.008644 0.000000 0.004200 0.000000
# 2 -0.003444 0.021100 -0.010048 0.000000 -0.003192 0.000000
# 3 -0.008644 -0.010048 0.032060 0.000000 -0.001901 0.000000
# 4 0.000000 0.000000 0.000000 0.037718 0.000000 -0.001935
# 5 0.004200 -0.003192 -0.001901 0.000000 0.031561 0.000000
# 6 0.000000 0.000000 0.000000 -0.001935 0.000000 0.039217
#
#
# Mechanical properties :
#
#
# Convention : Reuss Voigt Hill
#
# Bulk Modulus (GPa) = 33.40313 33.95885 33.68099
# Shear Modulus (GPa) = 21.10092 23.83294 22.46693
#
# Velocity S-wave (km/s) = 3.41021 3.62426 3.51886
# Velocity P-wave (km/s) = 5.82372 6.01911 5.92222
#
# Compressibility (1/GPa) = 0.02993731
#
# Stress axis : x y z
#
# Youngs Moduli (GPa) = 47.50640 47.39424 31.19188
#
# Poissons Ratio (x) = 0.16320 0.26962
# Poissons Ratio (y) = 0.16359 0.31343
# Poissons Ratio (z) = 0.41064 0.47624
#
# Static dielectric constant tensor:
#      x y z
#    x 3.403890 0.000000 -0.017070 
#    y 0.000000 3.129190 0.000000 
#    z -0.017070 0.000000 3.424560 
# 
# 
# High freq. dielectric constant tensor:
#      x y z
#    x 1.700750 0.000000 -0.004990 
#    y 0.000000 1.679310 0.000000 
#    z -0.004990 0.000000 1.704500 
# 
# From -- ./inp_files/91612.got.cif
#   From: 2010.06.25/outbox.cif.g09.slc.cpg/sg12_46_cif.got.tgz:91612.got - 2010.06.28 00:19:55.
