data_PCOD8116026
_publ_section_title
;
Structure prediction by ZEFSAII (Michael W. Deem and Ramdas Pophale) SiO2 
 PCOD8116026
Probable space group: C 2/M
;
_chemical_formula_sum "Si O2"
_cell_formula_units_Z 56
_cell_length_a 28.199929
_cell_length_b 7.675137
_cell_length_c 15.620767
_cell_angle_alpha 90.000000
_cell_angle_beta 84.074065
_cell_angle_gamma 90.000000
_cell_volume 3362.865468
_symmetry_space_group_name_H-M "C 2/M"
_symmetry_group_IT_number 12
_symmetry_cell_setting 'monoclinic'
loop_
_space_group_symop_operation_xyz
x,y,z
-x,y,-z
-x,-y,-z
x,-y,z
1/2+x,1/2+y,z
1/2-x,1/2+y,-z
1/2-x,1/2-y,-z
1/2+x,1/2-y,z
loop_
_atom_site_type_symbol
_atom_site_label
_atom_site_fract_x
_atom_site_fract_y
_atom_site_fract_z
Si Si1 0.363983 0.698090 0.025699
Si Si2 0.333375 0.292933 0.848640
Si Si3 0.429513 0.000000 0.570099
Si Si4 0.407314 0.700167 0.693506
Si Si5 0.036175 0.500000 0.616218
Si Si6 0.962286 0.207196 0.075446
Si Si7 0.766585 0.702297 0.090798
Si Si8 0.013133 0.799829 0.739521
O O1 0.377873 0.500000 0.006646
O O2 0.410121 0.785290 0.061499
O O3 0.317895 0.708168 0.097940
O O4 0.352448 0.786820 0.935541
O O5 0.334885 0.500000 0.857572
O O6 0.366149 0.230816 0.764702
O O7 0.278010 0.234896 0.841257
O O8 0.405045 0.824357 0.611060
O O9 0.484095 0.000000 0.586232
O O10 0.425095 0.000000 0.467770
O O11 0.398940 0.500000 0.666069
O O12 0.456872 0.718870 0.734293
O O13 0.043015 0.675926 0.670229
O O14 0.976786 0.269730 0.167172
O O15 0.962904 0.000000 0.074217
O O16 0.000000 0.282062 0.000000
O O17 0.775557 0.500000 0.100685
O O18 0.750000 0.750000 0.000000
O O19 0.029684 0.000000 0.722215
#
# Coordination Sequence:
#
# PCOD8116026 Si02
#       8
#     8   8   4   8   4   8   8   8
#     4   9  16  27  41  59  85 116 150 185 213 246
#     4   8  14  25  41  58  82 116 144 175 216 258
#     4   9  18  30  44  66  86 114 142 174 225 270
#     4   9  16  28  44  64  89 113 143 180 216 266
#     4   9  18  32  45  60  92 114 141 184 216 263
#     4   9  16  27  45  64  85 119 156 187 210 245
#     4   9  16  27  40  56  80 113 148 177 216 256
#     4   9  17  29  46  64  85 120 152 177 216 257
#
# _framework density 16.652463999999998
#
# number of rings (size 3 to 8) (size 9 to 14) (size 15 to 20)
#    0.000    3.143    0.000    2.143    0.000    4.000 
#    7.714    3.214    0.000    0.000    0.000    0.000 
#    0.000    1.143    0.571    0.000    0.000    0.000 
#
# Total GULP energy -346899.781701 kJ/mol
# GULP energy per Si atom -12389.277918 kJ/mol
# Density = 1.661456 g / cm^3
# Si number density = 16.652464 Si / 1000 Ang^3
#
#
#
# Elastic Constant Matrix: (Units=GPa)
#
#
# Indices 1 2 3 4 5 6 
#
# 1 99.6519 19.0354 50.6466 0.0000 -16.0573 0.0000
# 2 19.0354 57.6424 42.7876 0.0000 -7.3372 0.0000
# 3 50.6466 42.7876 125.0542 0.0000 -19.2868 0.0000
# 4 0.0000 0.0000 0.0000 18.5459 0.0000 -4.7435
# 5 -16.0573 -7.3372 -19.2868 0.0000 19.4653 0.0000
# 6 0.0000 0.0000 0.0000 -4.7435 0.0000 14.3466
#
#
#
# Elastic Compliance Matrix: (Units=1/GPa)
#
#
# Indices 1 2 3 4 5 6 
#
# 1 0.013338 -0.000415 -0.004234 0.000000 0.006651 0.000000
# 2 -0.000415 0.023285 -0.007670 0.000000 0.000835 0.000000
# 3 -0.004234 -0.007670 0.013399 0.000000 0.006892 0.000000
# 4 0.000000 0.000000 0.000000 0.058901 0.000000 0.019475
# 5 0.006651 0.000835 0.006892 0.000000 0.064003 0.000000
# 6 0.000000 0.000000 0.000000 0.019475 0.000000 0.076142
#
#
# Mechanical properties :
#
#
# Convention : Reuss Voigt Hill
#
# Bulk Modulus (GPa) = 39.39652 56.36530 47.88091
# Shear Modulus (GPa) = 17.71994 21.79682 19.75838
#
# Velocity S-wave (km/s) = 3.26560 3.62183 3.44832
# Velocity P-wave (km/s) = 6.15859 7.17020 6.68356
#
# Compressibility (1/GPa) = 0.02538295
#
# Stress axis : x y z
#
# Youngs Moduli (GPa) = 74.97500 42.94568 74.63487
#
# Poissons Ratio (x) = 0.01783 0.31600
# Poissons Ratio (y) = 0.03112 0.57247
# Poissons Ratio (z) = 0.31744 0.32940
#
# Static dielectric constant tensor:
#      x y z
#    x 3.342410 0.000000 -0.258460 
#    y 0.000000 3.069060 0.000000 
#    z -0.258460 0.000000 3.121860 
# 
# 
# High freq. dielectric constant tensor:
#      x y z
#    x 1.624000 0.000000 -0.022790 
#    y 0.000000 1.636500 0.000000 
#    z -0.022790 0.000000 1.603400 
# 
# From -- ./inp_files/247837.got.cif
#   From: 2010.06.25/outbox.cif.g09.slc.cpg/sg12_124_cif.got.tgz:247837.got - 2010.06.28 00:19:55.
