data_PCOD8116147
_publ_section_title
;
Structure prediction by ZEFSAII (Michael W. Deem and Ramdas Pophale) SiO2 
 PCOD8116147
Probable space group: C 2/M
;
_chemical_formula_sum "Si O2"
_cell_formula_units_Z 40
_cell_length_a 10.219109
_cell_length_b 25.330755
_cell_length_c 16.466920
_cell_angle_alpha 90.000000
_cell_angle_beta 151.752596
_cell_angle_gamma 90.000000
_cell_volume 2017.397455
_symmetry_space_group_name_H-M "C 2/M"
_symmetry_group_IT_number 12
_symmetry_cell_setting 'monoclinic'
loop_
_space_group_symop_operation_xyz
x,y,z
-x,y,-z
-x,-y,-z
x,-y,z
1/2+x,1/2+y,z
1/2-x,1/2+y,-z
1/2-x,1/2-y,-z
1/2+x,1/2-y,z
loop_
_atom_site_type_symbol
_atom_site_label
_atom_site_fract_x
_atom_site_fract_y
_atom_site_fract_z
Si Si1 0.920541 0.500000 0.250436
Si Si2 0.609275 0.500000 0.922234
Si Si3 0.530921 0.281918 0.829408
Si Si4 0.563741 0.103821 0.402995
Si Si5 0.802955 0.705558 0.207164
Si Si6 0.447121 0.603189 0.756005
O O1 0.656087 0.500000 0.164641
O O2 0.096284 0.552355 0.364840
O O3 0.864281 0.500000 0.123505
O O4 0.628671 0.551143 0.873628
O O5 0.242794 0.279806 0.722361
O O6 0.520956 0.253104 0.736773
O O7 0.619852 0.343320 0.868679
O O8 0.750000 0.250000 0.000000
O O9 0.496523 0.153745 0.308147
O O10 0.849312 0.108233 0.609098
O O11 0.314861 0.097977 0.329474
O O12 0.500000 0.695383 0.000000
#
# Coordination Sequence:
#
# PCOD8116147 Si02
#       6
#     4   4   8   8   8   8
#     4   9  17  23  41  67  90 124 150 194 233 287
#     4   9  17  25  43  63  92 120 158 187 239 283
#     4   9  18  30  48  68  95 126 158 192 233 275
#     4   9  17  27  43  64  96 121 156 189 239 279
#     4   9  18  30  47  68  94 127 157 195 229 280
#     4   9  17  29  42  65  93 126 151 194 236 282
#
# _framework density 19.827525999999999
#
# number of rings (size 3 to 8) (size 9 to 14) (size 15 to 20)
#    0.000    3.000    0.000    0.600   11.200    3.200 
#    0.000    0.000    0.000    0.000    0.000    7.700 
#    0.000    3.200    0.000    0.000    0.000    0.000 
#
# Total GULP energy -247763.183951 kJ/mol
# GULP energy per Si atom -12388.159198 kJ/mol
# Density = 1.978240 g / cm^3
# Si number density = 19.827526 Si / 1000 Ang^3
#
#
#
# Elastic Constant Matrix: (Units=GPa)
#
#
# Indices 1 2 3 4 5 6 
#
# 1 54.1518 53.7117 15.5434 0.0014 -15.1019 0.0004
# 2 53.7117 222.2583 65.4830 0.0002 -25.5332 0.0002
# 3 15.5434 65.4830 83.7609 0.0034 -26.7070 0.0019
# 4 0.0014 0.0002 0.0034 27.1773 0.0030 -12.6414
# 5 -15.1019 -25.5332 -26.7070 0.0030 16.8193 0.0016
# 6 0.0004 0.0002 0.0019 -12.6414 0.0016 25.4079
#
#
#
# Elastic Compliance Matrix: (Units=1/GPa)
#
#
# Indices 1 2 3 4 5 6 
#
# 1 0.032019 -0.006819 0.010644 -0.000011 0.035300 -0.000009
# 2 -0.006819 0.007388 -0.005847 0.000002 -0.004190 0.000002
# 3 0.010644 -0.005847 0.029879 -0.000016 0.048126 -0.000013
# 4 -0.000011 0.000002 -0.000016 0.047875 -0.000042 0.023820
# 5 0.035300 -0.004190 0.048126 -0.000042 0.161209 -0.000035
# 6 -0.000009 0.000002 -0.000013 0.023820 -0.000035 0.051209
#
#
# Mechanical properties :
#
#
# Convention : Reuss Voigt Hill
#
# Bulk Modulus (GPa) = 15.32691 69.96080 42.64386
# Shear Modulus (GPa) = 14.06985 28.90976 21.48981
#
# Velocity S-wave (km/s) = 2.66674 3.82260 3.29574
# Velocity P-wave (km/s) = 4.15078 7.40570 6.00305
#
# Compressibility (1/GPa) = 0.06524471
#
# Stress axis : x y z
#
# Youngs Moduli (GPa) = 31.23137 135.34867 33.46789
#
# Poissons Ratio (x) = 0.92289 -0.35625
# Poissons Ratio (y) = 0.21296 0.19568
# Poissons Ratio (z) = -0.33244 0.79136
#
# Static dielectric constant tensor:
#      x y z
#    x 3.670590 0.000000 -0.509140 
#    y 0.000000 4.067920 0.000000 
#    z -0.509140 0.000000 3.449140 
# 
# 
# High freq. dielectric constant tensor:
#      x y z
#    x 1.716920 0.000000 -0.043880 
#    y 0.000000 1.791500 0.000000 
#    z -0.043880 0.000000 1.746420 
# 
# From -- ./inp_files/49909.got.cif
#   From: 2010.06.25/outbox.cif.g09.slc.cpg/sg12_25_cif.got.tgz:49909.got - 2010.06.28 00:19:55.
