data_PCOD8116768
_publ_section_title
;
Structure prediction by ZEFSAII (Michael W. Deem and Ramdas Pophale) SiO2 
 PCOD8116768
Probable space group: P 2/C
;
_chemical_formula_sum "Si O2"
_cell_formula_units_Z 26
_cell_length_a 9.059953
_cell_length_b 7.781204
_cell_length_c 19.852642
_cell_angle_alpha 90.000000
_cell_angle_beta 109.920393
_cell_angle_gamma 90.000000
_cell_volume 1315.818604
_symmetry_space_group_name_H-M "P 2/C"
_symmetry_group_IT_number 13
_symmetry_cell_setting 'monoclinic'
loop_
_space_group_symop_operation_xyz
x,y,z
-x,y,1/2-z
-x,-y,-z
x,-y,1/2+z
loop_
_atom_site_type_symbol
_atom_site_label
_atom_site_fract_x
_atom_site_fract_y
_atom_site_fract_z
Si Si1 0.668570 0.063676 0.770315
Si Si2 0.299540 0.848180 0.846332
Si Si3 0.134451 0.123272 0.451278
Si Si4 0.906555 0.185990 0.909550
Si Si5 0.408657 0.295340 0.174594
Si Si6 0.917707 0.442529 0.380738
Si Si7 0.000000 0.360339 0.250000
O O1 0.500000 0.157473 0.750000
O O2 0.798148 0.180370 0.826196
O O3 0.700034 0.027262 0.695841
O O4 0.665357 0.880167 0.807610
O O5 0.282666 0.875400 0.924048
O O6 0.463221 0.743902 0.863644
O O7 0.146489 0.751989 0.796011
O O8 0.190401 0.134445 0.537724
O O9 0.017272 0.281842 0.421607
O O10 0.050698 0.942609 0.423871
O O11 0.970922 0.381166 0.925242
O O12 0.500000 0.390007 0.250000
O O13 0.265067 0.411871 0.127147
O O14 0.940823 0.472179 0.304087
#
# Coordination Sequence:
#
# PCOD8116768 Si02
#       7
#     4   4   4   4   4   4   2
#     4   9  17  34  56  82 108 139 184 227 275 332
#     4   9  17  33  62  79 110 154 184 235 285 334
#     4  10  22  39  56  80 114 153 190 227 286 344
#     4  11  22  36  58  82 115 151 186 234 286 337
#     4   9  16  33  56  82 109 148 183 231 292 329
#     4  11  20  34  58  81 113 148 191 235 282 338
#     4  10  16  30  52  88 106 134 198 234 270 330
#
# _framework density 19.759561999999999
#
# number of rings (size 3 to 8) (size 9 to 14) (size 15 to 20)
#    0.000    2.462    4.615    1.385    0.000    1.846 
#    0.000    3.846    3.385    0.000    0.000    0.000 
#    0.000    0.000    0.000    0.000    0.000    0.000 
#
# Total GULP energy -322177.737557 kJ/mol
# GULP energy per Si atom -12391.451444 kJ/mol
# Density = 1.971459 g / cm^3
# Si number density = 19.759562 Si / 1000 Ang^3
#
#
#
# Elastic Constant Matrix: (Units=GPa)
#
#
# Indices 1 2 3 4 5 6 
#
# 1 106.1749 25.2088 33.3181 0.0000 -27.6302 0.0000
# 2 25.2088 85.3540 7.8244 0.0000 0.5165 0.0000
# 3 33.3181 7.8244 67.7097 0.0000 -26.7152 0.0000
# 4 0.0000 0.0000 0.0000 14.5281 0.0000 -4.2657
# 5 -27.6302 0.5165 -26.7152 0.0000 39.2458 0.0000
# 6 0.0000 0.0000 0.0000 -4.2657 0.0000 3.4123
#
#
#
# Elastic Compliance Matrix: (Units=1/GPa)
#
#
# Indices 1 2 3 4 5 6 
#
# 1 0.013145 -0.003627 -0.003252 0.000000 0.007088 0.000000
# 2 -0.003627 0.012906 -0.001068 0.000000 -0.003450 0.000000
# 3 -0.003252 -0.001068 0.021321 0.000000 0.012238 0.000000
# 4 0.000000 0.000000 0.000000 0.108749 0.000000 0.135947
# 5 0.007088 -0.003450 0.012238 0.000000 0.038847 0.000000
# 6 0.000000 0.000000 0.000000 0.135947 0.000000 0.463003
#
#
# Mechanical properties :
#
#
# Convention : Reuss Voigt Hill
#
# Bulk Modulus (GPa) = 31.76904 43.54903 37.65903
# Shear Modulus (GPa) = 7.30612 24.29639 15.80126
#
# Velocity S-wave (km/s) = 1.92498 3.51037 2.83092
# Velocity P-wave (km/s) = 4.58840 6.20625 5.45761
#
# Compressibility (1/GPa) = 0.03147719
#
# Stress axis : x y z
#
# Youngs Moduli (GPa) = 76.07617 77.48398 46.90136
#
# Poissons Ratio (x) = 0.28103 0.15254
# Poissons Ratio (y) = 0.27593 0.05009
# Poissons Ratio (z) = 0.24743 0.08275
#
# Static dielectric constant tensor:
#      x y z
#    x 3.763020 0.000000 -0.310700 
#    y 0.000000 3.289030 0.000000 
#    z -0.310700 0.000000 3.833520 
# 
# 
# High freq. dielectric constant tensor:
#      x y z
#    x 1.765200 0.000000 -0.012890 
#    y 0.000000 1.742300 0.000000 
#    z -0.012890 0.000000 1.761810 
# 
# From -- ./inp_files/75037.got.cif
#   From: 2010.06.25/outbox.cif.g09.slc.cpg/sg13_38_cif.got.tgz:75037.got - 2010.06.28 04:50:58.
