data_PCOD8116260
_publ_section_title
;
Structure prediction by ZEFSAII (Michael W. Deem and Ramdas Pophale) SiO2 
 PCOD8116260
Probable space group: C 2/M
;
_chemical_formula_sum "Si O2"
_cell_formula_units_Z 32
_cell_length_a 18.000000
_cell_length_b 9.000000
_cell_length_c 30.000000
_cell_angle_alpha 90.000000
_cell_angle_beta 40.000000
_cell_angle_gamma 90.000000
_cell_volume 3123.947783
_symmetry_space_group_name_H-M "C 2/M"
_symmetry_group_IT_number 12
_symmetry_cell_setting 'monoclinic'
loop_
_space_group_symop_operation_xyz
x,y,z
-x,y,-z
-x,-y,-z
x,-y,z
1/2+x,1/2+y,z
1/2-x,1/2+y,-z
1/2-x,1/2-y,-z
1/2+x,1/2-y,z
loop_
_atom_site_type_symbol
_atom_site_label
_atom_site_fract_x
_atom_site_fract_y
_atom_site_fract_z
Si Si1 0.363022 0.165216 0.934229
Si Si2 0.833897 0.831807 0.428427
Si Si3 0.431788 0.834173 0.677614
Si Si4 0.918815 0.166561 0.825571
Si Si5 0.405673 0.836907 0.134330
Si Si6 0.749780 0.332671 0.288420
Si Si7 0.340850 0.665687 0.324813
Si Si8 0.734903 0.164751 0.162514
O O1 0.437901 0.235774 0.860281
O O2 0.455511 0.166882 0.931844
O O3 0.325924 0.000000 0.938012
O O4 0.250000 0.250000 0.000000
O O5 0.750000 0.750000 0.500000
O O6 0.792776 0.813203 0.396497
O O7 0.962395 0.774864 0.371441
O O8 0.834512 0.000000 0.443645
O O9 0.351032 0.783407 0.674670
O O10 0.361028 0.822646 0.755439
O O11 0.476524 0.000000 0.648258
O O12 0.798221 0.220737 0.860510
O O13 0.020473 0.184906 0.742630
O O14 0.903113 0.000000 0.849315
O O15 0.357632 0.806413 0.206122
O O16 0.360442 0.710237 0.122341
O O17 0.360975 0.000000 0.139684
O O18 0.702766 0.500000 0.307292
O O19 0.786240 0.297354 0.321760
O O20 0.309006 0.500000 0.321794
O O21 0.741753 0.000000 0.139611
#
# Coordination Sequence:
#
# PCOD8116260 Si02
#       8
#     8   8   8   8   8   8   8   8
#     4  11  23  40  59  85 118 155 193 235 286 345
#     4  11  23  40  59  84 117 155 193 235 287 345
#     4  10  20  35  56  84 117 152 189 233 286 341
#     4  11  21  36  59  86 116 151 191 238 286 337
#     4   9  19  35  55  81 115 150 186 230 284 338
#     4  10  19  33  57  86 115 147 187 237 285 335
#     4  10  21  36  57  85 116 148 189 236 284 336
#     4  10  20  33  56  87 116 146 188 238 284 334
#
# _framework density 10.243449
#
# number of rings (size 3 to 8) (size 9 to 14) (size 15 to 20)
#    0.000    1.750    2.500    2.250    0.000    4.000 
#    0.000    1.250    0.000    7.500    0.000    0.000 
#    0.000    0.000    0.000    0.000    0.000    0.000 
#
# Total GULP energy -396568.200853 kJ/mol
# GULP energy per Si atom -12392.756277 kJ/mol
# Density = 1.022013 g / cm^3
# Si number density = 10.243449 Si / 1000 Ang^3
#
#
#
# Elastic Constant Matrix: (Units=GPa)
#
#
# Indices 1 2 3 4 5 6 
#
# 1 47.5913 31.9754 -8.7384 0.0002 -4.0238 -0.0024
# 2 31.9754 79.2659 9.5112 0.0014 -0.9876 -0.0025
# 3 -8.7384 9.5112 -8.2748 -0.0010 -0.0403 -0.0044
# 4 0.0002 0.0014 -0.0010 28.8047 0.0002 0.5417
# 5 -4.0238 -0.9876 -0.0403 0.0002 12.6697 0.0013
# 6 -0.0024 -0.0025 -0.0044 0.5417 0.0013 26.8037
#
#
#
# Elastic Compliance Matrix: (Units=1/GPa)
#
#
# Indices 1 2 3 4 5 6 
#
# 1 0.019846 -0.004758 -0.026456 -0.000001 0.005848 -0.000003
# 2 -0.004758 0.012238 0.019094 0.000000 -0.000497 0.000004
# 3 -0.026456 0.019094 -0.070929 -0.000003 -0.007140 -0.000012
# 4 -0.000001 0.000000 -0.000003 0.034730 -0.000001 -0.000702
# 5 0.005848 -0.000497 -0.007140 -0.000001 0.080724 -0.000005
# 6 -0.000003 0.000004 -0.000012 -0.000702 -0.000005 0.037322
#
#
# Mechanical properties :
#
#
# Convention : Reuss Voigt Hill
#
# Bulk Modulus (GPa) = -15.85150 20.45320 2.30085
# Shear Modulus (GPa) = 42.68264 19.37791 31.03028
#
# Velocity S-wave (km/s) = 4.56939 3.07883 3.89606
# Velocity P-wave (km/s) = 4.48162 4.75859 4.62218
#
# Compressibility (1/GPa) = -0.06308552
#
# Stress axis : x y z
#
# Youngs Moduli (GPa) = 50.38775 81.71260 -14.09862
#
# Poissons Ratio (x) = 0.38883 -0.37299
# Poissons Ratio (y) = 0.23977 0.26920
# Poissons Ratio (z) = 1.33305 -1.56022
#
# Static dielectric constant tensor:
#      x y z
#    x 3.489950 0.000010 -0.067580 
#    y 0.000010 3.804090 0.000000 
#    z -0.067580 0.000000 3.126330 
# 
# 
# High freq. dielectric constant tensor:
#      x y z
#    x 1.778990 0.000000 -0.004710 
#    y 0.000000 1.803420 0.000000 
#    z -0.004710 0.000000 1.760670 
# 
# From -- ./inp_files/378262.got.cif
#   From: 2010.06.25/outbox.ucp.g09.slc.cvg/sg12_190_cif.got.tgz:378262.got - 2010.06.28 13:50:54.
