data_PCOD8116934
_publ_section_title
;
Structure prediction by ZEFSAII (Michael W. Deem and Ramdas Pophale) SiO2 
 PCOD8116934
Probable space group: P 2/C
;
_chemical_formula_sum "Si O2"
_cell_formula_units_Z 26
_cell_length_a 9.311383
_cell_length_b 9.844729
_cell_length_c 20.977994
_cell_angle_alpha 90.000000
_cell_angle_beta 42.330842
_cell_angle_gamma 90.000000
_cell_volume 1294.976337
_symmetry_space_group_name_H-M "P 2/C"
_symmetry_group_IT_number 13
_symmetry_cell_setting 'monoclinic'
loop_
_space_group_symop_operation_xyz
x,y,z
-x,y,1/2-z
-x,-y,-z
x,-y,1/2+z
loop_
_atom_site_type_symbol
_atom_site_label
_atom_site_fract_x
_atom_site_fract_y
_atom_site_fract_z
Si Si1 0.500000 0.493761 0.750000
Si Si2 0.815110 0.037997 0.975214
Si Si3 0.742670 0.730761 0.728709
Si Si4 0.548913 0.290229 0.059887
Si Si5 0.773939 0.452968 0.547248
Si Si6 0.281425 0.988750 0.847207
Si Si7 0.212627 0.249288 0.068270
O O1 0.686050 0.583391 0.720560
O O2 0.617028 0.407266 0.656644
O O3 0.715083 0.176619 0.981500
O O4 0.727676 0.008599 0.074172
O O5 0.070503 0.062010 0.889096
O O6 0.744834 0.911562 0.954116
O O7 0.586352 0.772455 0.837336
O O8 0.983126 0.728619 0.676655
O O9 0.719983 0.833527 0.677038
O O10 0.671245 0.426145 0.039464
O O11 0.391708 0.320475 0.052573
O O12 0.797595 0.318828 0.497634
O O13 0.000000 0.500000 0.500000
O O14 0.500000 0.060130 0.750000
#
# Coordination Sequence:
#
# PCOD8116934 Si02
#       7
#     2   4   4   4   4   4   4
#     4  10  18  36  60  88 116 150 204 254 290 338
#     4  10  22  34  62  88 120 157 197 246 299 356
#     4  10  18  34  63  89 113 152 209 247 290 351
#     4  11  22  40  62  87 123 159 197 249 300 360
#     4  11  23  39  64  88 119 154 205 251 294 353
#     4  10  17  33  57  90 116 149 200 250 290 335
#     4  11  23  39  59  91 124 159 194 244 311 363
#
# _framework density 20.077587999999999
#
# number of rings (size 3 to 8) (size 9 to 14) (size 15 to 20)
#    0.000    1.538    3.846    2.308    4.308    0.000 
#    1.385    0.000    0.000    1.846    0.000    0.000 
#    0.000    0.000    0.000    0.000    0.000    0.000 
#
# Total GULP energy -322379.432580 kJ/mol
# GULP energy per Si atom -12399.208945 kJ/mol
# Density = 2.003189 g / cm^3
# Si number density = 20.077588 Si / 1000 Ang^3
#
#
#
# Elastic Constant Matrix: (Units=GPa)
#
#
# Indices 1 2 3 4 5 6 
#
# 1 103.0928 9.0400 22.4525 0.0000 -19.3332 0.0000
# 2 9.0400 48.5468 17.6379 0.0000 -9.3033 0.0000
# 3 22.4525 17.6379 103.6318 0.0000 -19.9145 0.0000
# 4 0.0000 0.0000 0.0000 26.1760 0.0000 0.3102
# 5 -19.3332 -9.3033 -19.9145 0.0000 32.6674 0.0000
# 6 0.0000 0.0000 0.0000 0.3102 0.0000 26.6090
#
#
#
# Elastic Compliance Matrix: (Units=1/GPa)
#
#
# Indices 1 2 3 4 5 6 
#
# 1 0.011074 -0.000534 -0.001221 0.000000 0.005657 0.000000
# 2 -0.000534 0.022583 -0.002891 0.000000 0.004352 0.000000
# 3 -0.001221 -0.002891 0.011450 0.000000 0.005434 0.000000
# 4 0.000000 0.000000 0.000000 0.038208 0.000000 -0.000445
# 5 0.005657 0.004352 0.005434 0.000000 0.038512 0.000000
# 6 0.000000 0.000000 0.000000 -0.000445 0.000000 0.037586
#
#
# Mechanical properties :
#
#
# Convention : Reuss Voigt Hill
#
# Bulk Modulus (GPa) = 27.92263 39.28135 33.60199
# Shear Modulus (GPa) = 27.67865 30.83324 29.25594
#
# Velocity S-wave (km/s) = 3.71696 3.92306 3.82140
# Velocity P-wave (km/s) = 5.68846 6.33465 6.02023
#
# Compressibility (1/GPa) = 0.03581325
#
# Stress axis : x y z
#
# Youngs Moduli (GPa) = 90.30419 44.28161 87.33253
#
# Poissons Ratio (x) = 0.02366 0.10665
# Poissons Ratio (y) = 0.04825 0.25251
# Poissons Ratio (z) = 0.11028 0.12803
#
# Static dielectric constant tensor:
#      x y z
#    x 3.654340 0.000000 -0.313710 
#    y 0.000000 3.328570 0.000000 
#    z -0.313710 0.000000 4.171660 
# 
# 
# High freq. dielectric constant tensor:
#      x y z
#    x 1.784310 0.000000 -0.016290 
#    y 0.000000 1.756300 0.000000 
#    z -0.016290 0.000000 1.792760 
# 
# From -- ./inp_files/76379.got.cif
#   From: 2010.06.25/outbox.cif.g09.slc.cpg/sg13_39_cif.got.tgz:76379.got - 2010.06.28 04:50:58.
