data_PCOD8116455
_publ_section_title
;
Structure prediction by ZEFSAII (Michael W. Deem and Ramdas Pophale) SiO2 
 PCOD8116455
Probable space group: C 2/M
;
_chemical_formula_sum "Si O2"
_cell_formula_units_Z 32
_cell_length_a 30.000000
_cell_length_b 9.000000
_cell_length_c 24.000000
_cell_angle_alpha 90.000000
_cell_angle_beta 30.000000
_cell_angle_gamma 90.000000
_cell_volume 3240.000000
_symmetry_space_group_name_H-M "C 2/M"
_symmetry_group_IT_number 12
_symmetry_cell_setting 'monoclinic'
loop_
_space_group_symop_operation_xyz
x,y,z
-x,y,-z
-x,-y,-z
x,-y,z
1/2+x,1/2+y,z
1/2-x,1/2+y,-z
1/2-x,1/2-y,-z
1/2+x,1/2-y,z
loop_
_atom_site_type_symbol
_atom_site_label
_atom_site_fract_x
_atom_site_fract_y
_atom_site_fract_z
Si Si1 0.918407 0.671970 0.217954
Si Si2 0.931555 0.171864 0.432749
Si Si3 0.974528 0.335905 0.282221
Si Si4 0.945788 0.675458 0.611929
Si Si5 0.179557 0.666596 0.037763
Si Si6 0.749110 0.833540 0.348567
Si Si7 0.246914 0.335340 0.219685
Si Si8 0.385335 0.825070 0.007030
O O1 0.901769 0.500000 0.220415
O O2 0.926306 0.693413 0.275707
O O3 0.840151 0.767519 0.275158
O O4 0.013856 0.731862 0.091670
O O5 0.945042 0.202142 0.353207
O O6 0.832883 0.229315 0.549258
O O7 0.011095 0.250735 0.380552
O O8 0.936125 0.000000 0.442084
O O9 0.944464 0.500000 0.336062
O O10 0.080954 0.333050 0.169027
O O11 0.954073 0.500000 0.610322
O O12 0.843756 0.724019 0.711266
O O13 0.000000 0.731622 0.500000
O O14 0.217109 0.500000 0.991950
O O15 0.250000 0.750000 0.000000
O O16 0.167082 0.741938 0.990137
O O17 0.744195 0.843364 0.288138
O O18 0.737929 0.000000 0.385315
O O19 0.267625 0.500000 0.173507
O O20 0.326791 0.220910 0.122697
O O21 0.392729 0.000000 0.989415
#
# Coordination Sequence:
#
# PCOD8116455 Si02
#       8
#     8   8   8   8   8   8   8   8
#     4   9  20  41  64  86 114 152 195 241 290 341
#     4  12  25  38  58  90 120 149 194 243 290 346
#     4   9  20  40  61  81 115 157 193 232 288 348
#     4  10  20  40  62  80 115 159 195 235 287 345
#     4   9  19  35  55  81 112 150 191 233 281 337
#     4  11  23  41  62  85 115 153 196 241 290 346
#     4  10  22  38  59  86 115 154 198 234 280 348
#     4   9  20  38  58  83 119 152 186 237 292 339
#
# _framework density 9.8765429999999999
#
# number of rings (size 3 to 8) (size 9 to 14) (size 15 to 20)
#    0.000    2.125    1.250    3.000    1.750    4.750 
#    0.000    5.000    0.000    0.000    0.000    0.000 
#    0.000    0.000    0.000    0.000    0.000    0.000 
#
# Total GULP energy -396526.773925 kJ/mol
# GULP energy per Si atom -12391.461685 kJ/mol
# Density = 0.985406 g / cm^3
# Si number density = 9.876543 Si / 1000 Ang^3
#
#
#
# Elastic Constant Matrix: (Units=GPa)
#
#
# Indices 1 2 3 4 5 6 
#
# 1 120.8947 38.7351 38.2227 -0.0006 -33.9329 -0.0006
# 2 38.7351 61.8631 31.7831 -0.0376 -10.0884 0.0154
# 3 38.2227 31.7831 78.1543 -0.0013 -13.6433 0.0051
# 4 -0.0006 -0.0376 -0.0013 27.8027 0.0028 -2.5629
# 5 -33.9329 -10.0884 -13.6433 0.0028 37.0034 -0.0023
# 6 -0.0006 0.0154 0.0051 -2.5629 -0.0023 29.4129
#
#
#
# Elastic Compliance Matrix: (Units=1/GPa)
#
#
# Indices 1 2 3 4 5 6 
#
# 1 0.013741 -0.005576 -0.002692 -0.000008 0.010088 0.000004
# 2 -0.005576 0.022948 -0.006847 0.000030 -0.001381 -0.000008
# 3 -0.002692 -0.006847 0.017249 -0.000009 0.002025 0.000000
# 4 -0.000008 0.000030 -0.000009 0.036259 -0.000005 0.003159
# 5 0.010088 -0.001381 0.002025 -0.000005 0.036646 0.000003
# 6 0.000004 -0.000008 0.000000 0.003159 0.000003 0.034274
#
#
# Mechanical properties :
#
#
# Convention : Reuss Voigt Hill
#
# Bulk Modulus (GPa) = 42.17523 53.15487 47.66505
# Shear Modulus (GPa) = 25.09437 28.98854 27.04145
#
# Velocity S-wave (km/s) = 3.56814 3.83501 3.70398
# Velocity P-wave (km/s) = 6.19460 6.82479 6.51732
#
# Compressibility (1/GPa) = 0.02371060
#
# Stress axis : x y z
#
# Youngs Moduli (GPa) = 72.77712 43.57635 57.97309
#
# Poissons Ratio (x) = 0.24297 0.15604
# Poissons Ratio (y) = 0.40578 0.39692
# Poissons Ratio (z) = 0.19589 0.29835
#
# Static dielectric constant tensor:
#      x y z
#    x 3.719540 -0.000050 -0.162440 
#    y -0.000050 3.352020 0.000020 
#    z -0.162440 0.000020 3.341290 
# 
# 
# High freq. dielectric constant tensor:
#      x y z
#    x 1.785350 0.000000 -0.015690 
#    y 0.000000 1.756440 0.000000 
#    z -0.015690 0.000000 1.760910 
# 
# From -- ./inp_files/249974.got.cif
#   From: 2010.06.25/outbox.ucp.g09.slc.cvg/sg12_125_cif.got.tgz:249974.got - 2010.06.28 13:50:54.
