data_PCOD8116630
_publ_section_title
;
Structure prediction by ZEFSAII (Michael W. Deem and Ramdas Pophale) SiO2 
 PCOD8116630
Probable space group: C 2/M
;
_chemical_formula_sum "Si O2"
_cell_formula_units_Z 28
_cell_length_a 9.000000
_cell_length_b 30.000000
_cell_length_c 21.000000
_cell_angle_alpha 90.000000
_cell_angle_beta 30.000000
_cell_angle_gamma 90.000000
_cell_volume 2835.000000
_symmetry_space_group_name_H-M "C 2/M"
_symmetry_group_IT_number 12
_symmetry_cell_setting 'monoclinic'
loop_
_space_group_symop_operation_xyz
x,y,z
-x,y,-z
-x,-y,-z
x,-y,z
1/2+x,1/2+y,z
1/2-x,1/2+y,-z
1/2-x,1/2-y,-z
1/2+x,1/2-y,z
loop_
_atom_site_type_symbol
_atom_site_label
_atom_site_fract_x
_atom_site_fract_y
_atom_site_fract_z
Si Si1 0.495809 0.050384 0.608393
Si Si2 0.980894 0.051166 0.321710
Si Si3 0.180449 0.299201 0.999775
Si Si4 0.658847 0.875112 0.638293
Si Si5 0.846257 0.211500 0.359979
Si Si6 0.705281 0.202514 0.270445
Si Si7 0.222755 0.639704 0.760737
O O1 0.782949 0.059606 0.457934
O O2 0.204983 0.058376 0.673640
O O3 0.487165 0.081727 0.674075
O O4 0.502649 0.000000 0.631472
O O5 0.237193 0.089126 0.227167
O O6 0.106872 0.000000 0.276296
O O7 0.518517 0.317721 0.871687
O O8 0.250000 0.250000 0.000000
O O9 0.000000 0.297684 0.000000
O O10 0.010195 0.331594 0.111834
O O11 0.560472 0.832850 0.632487
O O12 0.598951 0.864862 0.734773
O O13 0.000000 0.884123 0.500000
O O14 0.500000 0.221543 0.500000
O O15 0.870766 0.207963 0.275915
O O16 0.067420 0.250494 0.300162
O O17 0.960068 0.166249 0.352853
#
# Coordination Sequence:
#
# PCOD8116630 Si02
#       7
#     8   8   8   8   8   8   8
#     4   9  19  37  63  94 136 175 206 258 324 393
#     4   9  19  38  64  96 130 170 216 261 319 386
#     4  12  26  47  67  89 122 171 231 271 312 378
#     4  12  24  38  60  99 136 167 207 261 329 391
#     4  12  24  40  63  92 127 168 207 262 333 390
#     4  12  24  43  61  87 127 168 215 269 314 381
#     4  12  24  38  66  95 129 175 216 267 319 380
#
# _framework density 9.8765429999999999
#
# number of rings (size 3 to 8) (size 9 to 14) (size 15 to 20)
#    0.000    0.857    4.286    4.286    4.000    0.857 
#    0.000    0.000    0.000    1.286    0.000    2.000 
#    0.000    0.000    0.000    0.000    0.000    0.000 
#
# Total GULP energy -346987.088577 kJ/mol
# GULP energy per Si atom -12392.396021 kJ/mol
# Density = 0.985406 g / cm^3
# Si number density = 9.876543 Si / 1000 Ang^3
#
#
#
# Elastic Constant Matrix: (Units=GPa)
#
#
# Indices 1 2 3 4 5 6 
#
# 1 143.7549 72.8685 25.5974 -0.0005 14.9227 0.0000
# 2 72.8685 165.1989 32.0012 0.0008 4.1159 -0.0002
# 3 25.5974 32.0012 84.3632 0.0065 -0.4586 -0.0012
# 4 -0.0005 0.0008 0.0065 25.7482 -0.0008 -2.3595
# 5 14.9227 4.1159 -0.4586 -0.0008 30.4683 0.0000
# 6 0.0000 -0.0002 -0.0012 -2.3595 0.0000 48.2259
#
#
#
# Elastic Compliance Matrix: (Units=1/GPa)
#
#
# Indices 1 2 3 4 5 6 
#
# 1 0.009606 -0.003846 -0.001479 0.000001 -0.004207 0.000000
# 2 -0.003846 0.008099 -0.001901 0.000000 0.000761 0.000000
# 3 -0.001479 -0.001901 0.013030 -0.000003 0.001177 0.000000
# 4 0.000001 0.000000 -0.000003 0.039013 0.000001 0.001909
# 5 -0.004207 0.000761 0.001177 0.000001 0.034797 0.000000
# 6 0.000000 0.000000 0.000000 0.001909 0.000000 0.020829
#
#
# Mechanical properties :
#
#
# Convention : Reuss Voigt Hill
#
# Bulk Modulus (GPa) = 61.41253 72.69458 67.05355
# Shear Modulus (GPa) = 34.42301 38.41180 36.41741
#
# Velocity S-wave (km/s) = 4.17905 4.41454 4.29841
# Velocity P-wave (km/s) = 7.37859 7.92879 7.65863
#
# Compressibility (1/GPa) = 0.01628332
#
# Stress axis : x y z
#
# Youngs Moduli (GPa) = 104.10443 123.47214 76.74773
#
# Poissons Ratio (x) = 0.47485 0.11348
# Poissons Ratio (y) = 0.40036 0.14591
# Poissons Ratio (z) = 0.15393 0.23474
#
# Static dielectric constant tensor:
#      x y z
#    x 4.035580 0.000000 -0.044060 
#    y 0.000000 3.784160 0.000000 
#    z -0.044060 0.000000 3.635070 
# 
# 
# High freq. dielectric constant tensor:
#      x y z
#    x 1.798040 0.000000 -0.006630 
#    y 0.000000 1.783160 0.000000 
#    z -0.006630 0.000000 1.743650 
# 
# From -- ./inp_files/302992.got.cif
#   From: 2010.06.25/outbox.ucp.g09.slc.cvg/sg12_152_cif.got.tgz:302992.got - 2010.06.28 13:50:54.
