data_PCOD8116623
_publ_section_title
;
Structure prediction by ZEFSAII (Michael W. Deem and Ramdas Pophale) SiO2 
 PCOD8116623
Probable space group: C 2/M
;
_chemical_formula_sum "Si O2"
_cell_formula_units_Z 32
_cell_length_a 12.000000
_cell_length_b 18.000000
_cell_length_c 30.000000
_cell_angle_alpha 90.000000
_cell_angle_beta 30.000000
_cell_angle_gamma 90.000000
_cell_volume 3240.000000
_symmetry_space_group_name_H-M "C 2/M"
_symmetry_group_IT_number 12
_symmetry_cell_setting 'monoclinic'
loop_
_space_group_symop_operation_xyz
x,y,z
-x,y,-z
-x,-y,-z
x,-y,z
1/2+x,1/2+y,z
1/2-x,1/2+y,-z
1/2-x,1/2-y,-z
1/2+x,1/2-y,z
loop_
_atom_site_type_symbol
_atom_site_label
_atom_site_fract_x
_atom_site_fract_y
_atom_site_fract_z
Si Si1 0.380791 0.087663 0.447711
Si Si2 0.581387 0.179786 0.751300
Si Si3 0.633976 0.585984 0.689119
Si Si4 0.750396 0.912049 0.072559
Si Si5 0.763252 0.329024 0.404405
Si Si6 0.675223 0.668809 0.142672
Si Si7 0.168549 0.671919 0.009900
Si Si8 0.436540 0.672523 0.375362
O O1 0.618157 0.113578 0.384927
O O2 0.375506 0.109321 0.397399
O O3 0.190723 0.129816 0.541219
O O4 0.343549 0.000000 0.465530
O O5 0.426108 0.119172 0.830027
O O6 0.633881 0.160578 0.681060
O O7 0.454859 0.257045 0.799293
O O8 0.812714 0.188023 0.696711
O O9 0.636024 0.500000 0.678075
O O10 0.465363 0.600964 0.788314
O O11 0.549801 0.624922 0.673892
O O12 0.704690 0.886773 0.037331
O O13 0.727003 0.000000 0.081898
O O14 0.000000 0.886286 0.000000
O O15 0.500000 0.342065 0.500000
O O16 0.812687 0.248718 0.407642
O O17 0.911974 0.673884 0.084910
O O18 0.691680 0.654470 0.083697
O O19 0.250000 0.750000 0.000000
#
# Coordination Sequence:
#
# PCOD8116623 Si02
#       8
#     8   8   8   8   8   8   8   8
#     4  11  25  44  64  90 131 177 218 269 329 389
#     4  12  25  42  68 101 131 174 220 273 329 389
#     4  11  24  42  65  96 131 170 216 268 329 390
#     4  11  26  46  69  99 135 174 218 271 333 397
#     4  12  25  43  67  97 133 174 222 276 327 387
#     4  11  24  41  65 101 129 169 217 269 326 394
#     4  11  23  42  70  94 132 172 214 269 328 392
#     4  12  24  41  68  95 129 171 222 274 324 387
#
# _framework density 9.8765429999999999
#
# number of rings (size 3 to 8) (size 9 to 14) (size 15 to 20)
#    0.000    0.625    3.750    4.125    0.000    7.750 
#    0.000    3.750    0.000    0.000    0.000    0.000 
#    0.000    0.000    0.000    0.000    0.000    0.000 
#
# Total GULP energy -396847.424035 kJ/mol
# GULP energy per Si atom -12401.482001 kJ/mol
# Density = 0.985406 g / cm^3
# Si number density = 9.876543 Si / 1000 Ang^3
#
#
#
# Elastic Constant Matrix: (Units=GPa)
#
#
# Indices 1 2 3 4 5 6 
#
# 1 145.8099 33.6618 54.2033 -0.0244 20.0766 -0.0108
# 2 33.6618 62.0030 24.2817 -0.0257 5.2574 -0.0033
# 3 54.2033 24.2817 132.9109 -0.0487 24.1048 0.0052
# 4 -0.0244 -0.0257 -0.0487 35.3739 0.0290 1.1162
# 5 20.0766 5.2574 24.1048 0.0290 45.9563 -0.0023
# 6 -0.0108 -0.0033 0.0052 1.1162 -0.0023 35.8267
#
#
#
# Elastic Compliance Matrix: (Units=1/GPa)
#
#
# Indices 1 2 3 4 5 6 
#
# 1 0.008965 -0.003668 -0.002599 0.000002 -0.002134 0.000003
# 2 -0.003668 0.018877 -0.002046 0.000008 0.000516 0.000001
# 3 -0.002599 -0.002046 0.009625 0.000013 -0.003679 -0.000003
# 4 0.000002 0.000008 0.000013 0.028297 -0.000026 -0.000882
# 5 -0.002134 0.000516 -0.003679 -0.000026 0.024562 0.000002
# 6 0.000003 0.000001 -0.000003 -0.000882 0.000002 0.027940
#
#
# Mechanical properties :
#
#
# Convention : Reuss Voigt Hill
#
# Bulk Modulus (GPa) = 47.98505 62.77973 55.38239
# Shear Modulus (GPa) = 35.25077 38.66984 36.96031
#
# Velocity S-wave (km/s) = 4.22900 4.42935 4.33033
# Velocity P-wave (km/s) = 6.94198 7.61643 7.28701
#
# Compressibility (1/GPa) = 0.02083983
#
# Stress axis : x y z
#
# Youngs Moduli (GPa) = 111.54411 52.97317 103.89837
#
# Poissons Ratio (x) = 0.19433 0.27003
# Poissons Ratio (y) = 0.40920 0.21261
# Poissons Ratio (z) = 0.28990 0.10840
#
# Static dielectric constant tensor:
#      x y z
#    x 4.121830 -0.000060 0.161640 
#    y -0.000060 3.621080 0.000130 
#    z 0.161640 0.000130 4.123700 
# 
# 
# High freq. dielectric constant tensor:
#      x y z
#    x 1.801010 0.000000 0.004990 
#    y 0.000000 1.773060 0.000000 
#    z 0.004990 0.000000 1.801380 
# 
# From -- ./inp_files/374425.got.cif
#   From: 2010.06.25/outbox.ucp.g09.slc.cvg/sg12_188_cif.got.tgz:374425.got - 2010.06.28 13:50:54.
