data_PCOD8116730
_publ_section_title
;
Structure prediction by ZEFSAII (Michael W. Deem and Ramdas Pophale) SiO2 
 PCOD8116730
Probable space group: P 2/C
;
_chemical_formula_sum "Si O2"
_cell_formula_units_Z 28
_cell_length_a 12.380090
_cell_length_b 14.819731
_cell_length_c 8.784882
_cell_angle_alpha 90.000000
_cell_angle_beta 124.705035
_cell_angle_gamma 90.000000
_cell_volume 1325.017271
_symmetry_space_group_name_H-M "P 2/C"
_symmetry_group_IT_number 13
_symmetry_cell_setting 'monoclinic'
loop_
_space_group_symop_operation_xyz
x,y,z
-x,y,1/2-z
-x,-y,-z
x,-y,1/2+z
loop_
_atom_site_type_symbol
_atom_site_label
_atom_site_fract_x
_atom_site_fract_y
_atom_site_fract_z
Si Si1 0.240002 0.748346 0.596161
Si Si2 0.571735 0.609689 0.588809
Si Si3 0.964545 0.141895 0.386992
Si Si4 0.679511 0.541340 0.379518
Si Si5 0.354630 0.069484 0.093669
Si Si6 0.729048 0.382095 0.623246
Si Si7 0.806369 0.967046 0.309520
O O1 0.318307 0.675786 0.757690
O O2 0.109579 0.780182 0.578615
O O3 0.336508 0.832149 0.650080
O O4 0.198472 0.702216 0.400336
O O5 0.596639 0.604908 0.426744
O O6 0.584416 0.511202 0.681450
O O7 0.426203 0.644145 0.509544
O O8 0.000000 0.181976 0.250000
O O9 0.093717 0.115842 0.587630
O O10 0.879014 0.051894 0.289706
O O11 0.762925 0.471588 0.549328
O O12 0.769550 0.601844 0.334093
O O13 0.500000 0.036093 0.250000
O O14 0.250409 0.998504 0.075702
O O15 0.318818 0.068545 0.887078
#
# Coordination Sequence:
#
# PCOD8116730 Si02
#       7
#     4   4   4   4   4   4   4
#     4  10  22  32  52  78 119 155 186 238 298 326
#     4  10  16  29  48  79 116 155 189 237 289 344
#     4  10  20  40  62  82 108 149 208 250 277 329
#     4   9  16  26  51  76 113 158 198 228 280 350
#     4  11  21  38  58  90 121 149 177 232 305 364
#     4  10  16  29  47  81 115 154 193 238 288 350
#     4  10  21  37  66  85 107 147 197 240 283 341
#
# _framework density 21.131800999999999
#
# number of rings (size 3 to 8) (size 9 to 14) (size 15 to 20)
#    0.000    2.000    1.429    6.000    0.000    0.000 
#    2.571    0.000    0.000    0.000    0.000   16.000 
#    0.000    0.000    0.000    0.000    0.000    0.000 
#
# Total GULP energy -347037.828678 kJ/mol
# GULP energy per Si atom -12394.208167 kJ/mol
# Density = 2.108370 g / cm^3
# Si number density = 21.131801 Si / 1000 Ang^3
#
#
#
# Elastic Constant Matrix: (Units=GPa)
#
#
# Indices 1 2 3 4 5 6 
#
# 1 103.8981 60.1150 39.2861 0.0000 -26.5822 0.0000
# 2 60.1150 77.8047 34.8270 0.0000 -10.5239 0.0000
# 3 39.2861 34.8270 103.7593 0.0000 -18.0410 0.0000
# 4 0.0000 0.0000 0.0000 9.4718 0.0000 0.8710
# 5 -26.5822 -10.5239 -18.0410 0.0000 44.0409 0.0000
# 6 0.0000 0.0000 0.0000 0.8710 0.0000 32.6147
#
#
#
# Elastic Compliance Matrix: (Units=1/GPa)
#
#
# Indices 1 2 3 4 5 6 
#
# 1 0.020432 -0.013939 -0.001607 0.000000 0.008343 0.000000
# 2 -0.013939 0.024747 -0.003729 0.000000 -0.004027 0.000000
# 3 -0.001607 -0.003729 0.012031 0.000000 0.003068 0.000000
# 4 0.000000 0.000000 0.000000 0.105837 0.000000 -0.002826
# 5 0.008343 -0.004027 0.003068 0.000000 0.028036 0.000000
# 6 0.000000 0.000000 0.000000 -0.002826 0.000000 0.030736
#
#
# Mechanical properties :
#
#
# Convention : Reuss Voigt Hill
#
# Bulk Modulus (GPa) = 53.58854 61.54647 57.56751
# Shear Modulus (GPa) = 18.75550 27.30774 23.03162
#
# Velocity S-wave (km/s) = 2.98241 3.59870 3.30495
# Velocity P-wave (km/s) = 6.10524 6.81585 6.47031
#
# Compressibility (1/GPa) = 0.01866070
#
# Stress axis : x y z
#
# Youngs Moduli (GPa) = 48.94300 40.40935 83.11814
#
# Poissons Ratio (x) = 0.56326 0.13356
# Poissons Ratio (y) = 0.68220 0.30994
# Poissons Ratio (z) = 0.07864 0.15068
#
# Static dielectric constant tensor:
#      x y z
#    x 3.783090 0.000000 -0.429740 
#    y 0.000000 3.674500 0.000000 
#    z -0.429740 0.000000 3.668880 
# 
# 
# High freq. dielectric constant tensor:
#      x y z
#    x 1.814380 0.000000 -0.033640 
#    y 0.000000 1.807910 0.000000 
#    z -0.033640 0.000000 1.820810 
# 
# From -- ./inp_files/16844.got.cif
#   From: 2010.06.25/outbox.cif.g09.slc.cpg/sg13_9_cif.got.tgz:16844.got - 2010.06.28 04:50:58.
