data_PCOD8116142
_publ_section_title
;
Structure prediction by ZEFSAII (Michael W. Deem and Ramdas Pophale) SiO2 
 PCOD8116142
Probable space group: C 2/M
;
_chemical_formula_sum "Si O2"
_cell_formula_units_Z 40
_cell_length_a 8.802837
_cell_length_b 26.788779
_cell_length_c 18.908629
_cell_angle_alpha 90.000000
_cell_angle_beta 33.189391
_cell_angle_gamma 90.000000
_cell_volume 2440.883099
_symmetry_space_group_name_H-M "C 2/M"
_symmetry_group_IT_number 12
_symmetry_cell_setting 'monoclinic'
loop_
_space_group_symop_operation_xyz
x,y,z
-x,y,-z
-x,-y,-z
x,-y,z
1/2+x,1/2+y,z
1/2-x,1/2+y,-z
1/2-x,1/2-y,-z
1/2+x,1/2-y,z
loop_
_atom_site_type_symbol
_atom_site_label
_atom_site_fract_x
_atom_site_fract_y
_atom_site_fract_z
Si Si1 0.377680 0.871490 0.121240
Si Si2 0.665214 0.443528 0.006036
Si Si3 0.000000 0.233474 0.500000
Si Si4 0.942761 0.188602 0.371299
Si Si5 0.000000 0.388615 0.500000
Si Si6 0.915388 0.056303 0.249980
O O1 0.229869 0.825378 0.219319
O O2 0.164436 0.915194 0.189501
O O3 0.500000 0.849876 0.000000
O O4 0.610627 0.899154 0.076998
O O5 0.795404 0.500000 0.956983
O O6 0.439806 0.438633 0.156274
O O7 0.500000 0.433500 0.000000
O O8 0.022320 0.199887 0.421273
O O9 0.715313 0.265546 0.605622
O O10 0.732540 0.142663 0.450274
O O11 0.123266 0.421700 0.388895
O O12 0.937418 0.000000 0.267600
#
# Coordination Sequence:
#
# PCOD8116142 Si02
#       6
#     8   8   4   8   4   8
#     4   9  17  30  47  67  90 117 150 181 213 258
#     4   9  17  28  43  65  93 123 151 179 212 250
#     4   9  18  34  51  66  86 112 143 180 230 277
#     4   9  18  32  50  68  87 113 144 182 224 269
#     4   9  17  28  45  70  92 114 149 184 213 253
#     4   9  16  27  44  65  93 125 151 177 209 249
#
# _framework density 16.387512000000001
#
# number of rings (size 3 to 8) (size 9 to 14) (size 15 to 20)
#    0.000    3.000    0.000    0.900    0.000    4.000 
#    0.000    3.000    0.000    0.000    0.000   14.000 
#    0.000    0.000    0.000    0.000    0.000    0.000 
#
# Total GULP energy -247874.176529 kJ/mol
# GULP energy per Si atom -12393.708826 kJ/mol
# Density = 1.635021 g / cm^3
# Si number density = 16.387512 Si / 1000 Ang^3
#
#
#
# Elastic Constant Matrix: (Units=GPa)
#
#
# Indices 1 2 3 4 5 6 
#
# 1 115.0098 47.0674 53.8323 -0.0015 14.6448 0.0173
# 2 47.0674 76.9634 60.1725 0.0008 15.7260 0.0010
# 3 53.8323 60.1725 122.6783 -0.0058 12.3068 0.0731
# 4 -0.0015 0.0008 -0.0058 28.0136 0.0009 -5.2638
# 5 14.6448 15.7260 12.3068 0.0009 15.9905 -0.0150
# 6 0.0173 0.0010 0.0731 -5.2638 -0.0150 159.6311
#
#
#
# Elastic Compliance Matrix: (Units=1/GPa)
#
#
# Indices 1 2 3 4 5 6 
#
# 1 0.012436 -0.004417 -0.002800 0.000000 -0.004891 0.000000
# 2 -0.004417 0.025908 -0.009340 -0.000002 -0.014245 0.000003
# 3 -0.002800 -0.009340 0.013852 0.000002 0.001089 -0.000006
# 4 0.000000 -0.000002 0.000002 0.035920 -0.000001 0.001184
# 5 -0.004891 -0.014245 0.001089 -0.000001 0.080188 0.000008
# 6 0.000000 0.000003 -0.000006 0.001184 0.000008 0.006304
#
#
# Mechanical properties :
#
#
# Convention : Reuss Voigt Hill
#
# Bulk Modulus (GPa) = 52.40664 70.75511 61.58087
# Shear Modulus (GPa) = 23.35567 50.96563 37.16065
#
# Velocity S-wave (km/s) = 3.77929 5.58281 4.76712
# Velocity P-wave (km/s) = 7.14794 9.21016 8.24379
#
# Compressibility (1/GPa) = 0.01908155
#
# Stress axis : x y z
#
# Youngs Moduli (GPa) = 80.41317 38.59869 72.19137
#
# Poissons Ratio (x) = 0.17048 0.20213
# Poissons Ratio (y) = 0.35517 0.67428
# Poissons Ratio (z) = 0.22515 0.36052
#
# Static dielectric constant tensor:
#      x y z
#    x 2.990080 0.000000 0.169790 
#    y 0.000000 3.134300 -0.000010 
#    z 0.169790 -0.000010 3.567270 
# 
# 
# High freq. dielectric constant tensor:
#      x y z
#    x 1.624570 0.000000 0.004680 
#    y 0.000000 1.624570 0.000000 
#    z 0.004680 0.000000 1.629740 
# 
# From -- ./inp_files/121323.got.cif
#   From: 2010.06.25/outbox.cif.g09.slc.cpg/sg12_61_cif.got.tgz:121323.got - 2010.06.28 00:19:55.
