data_PCOD8116813
_publ_section_title
;
Structure prediction by ZEFSAII (Michael W. Deem and Ramdas Pophale) SiO2 
 PCOD8116813
Probable space group: P 2/C
;
_chemical_formula_sum "Si O2"
_cell_formula_units_Z 18
_cell_length_a 8.176840
_cell_length_b 18.064289
_cell_length_c 5.439563
_cell_angle_alpha 90.000000
_cell_angle_beta 85.904324
_cell_angle_gamma 90.000000
_cell_volume 801.419403
_symmetry_space_group_name_H-M "P 2/C"
_symmetry_group_IT_number 13
_symmetry_cell_setting 'monoclinic'
loop_
_space_group_symop_operation_xyz
x,y,z
-x,y,1/2-z
-x,-y,-z
x,-y,1/2+z
loop_
_atom_site_type_symbol
_atom_site_label
_atom_site_fract_x
_atom_site_fract_y
_atom_site_fract_z
Si Si1 0.664675 0.331264 0.592948
Si Si2 0.184370 0.969862 0.474120
Si Si3 0.500000 0.560495 0.750000
Si Si4 0.897308 0.197301 0.511980
Si Si5 0.189908 0.526221 0.352288
O O1 0.500000 0.307774 0.750000
O O2 0.621317 0.382981 0.370591
O O3 0.754211 0.256973 0.502654
O O4 0.789750 0.386555 0.725415
O O5 0.189633 0.881743 0.459962
O O6 0.272202 0.997853 0.717410
O O7 0.000000 0.000000 0.500000
O O8 0.628213 0.507708 0.585896
O O9 0.000000 0.211832 0.750000
O O10 0.000000 0.201533 0.250000
O O11 0.098252 0.510568 0.624658
#
# Coordination Sequence:
#
# PCOD8116813 Si02
#       5
#     4   4   2   4   4
#     4  11  22  37  61  91 122 154 204 255 300 348
#     4  10  16  35  63  84 105 153 214 229 263 360
#     4  10  18  36  60  88 108 160 218 250 266 358
#     4  12  25  39  60  95 127 155 189 254 310 355
#     4  10  17  32  58  85 102 149 215 248 264 337
#
# _framework density 22.460146999999999
#
# number of rings (size 3 to 8) (size 9 to 14) (size 15 to 20)
#    0.000    1.333    7.778    1.333    3.111    0.000 
#    0.000    0.000    0.000   17.333    0.000    0.000 
#    0.000    0.000    0.000    0.000    0.000    0.000 
#
# Total GULP energy -223014.997147 kJ/mol
# GULP energy per Si atom -12389.722064 kJ/mol
# Density = 2.240903 g / cm^3
# Si number density = 22.460147 Si / 1000 Ang^3
#
#
#
# Elastic Constant Matrix: (Units=GPa)
#
#
# Indices 1 2 3 4 5 6 
#
# 1 61.4331 45.6191 45.9181 0.0000 2.5747 0.0000
# 2 45.6191 198.5996 48.3224 0.0000 -3.4520 0.0000
# 3 45.9181 48.3224 169.6021 0.0000 5.6244 0.0000
# 4 0.0000 0.0000 0.0000 102.1335 0.0000 66.0660
# 5 2.5747 -3.4520 5.6244 0.0000 27.4198 0.0000
# 6 0.0000 0.0000 0.0000 66.0660 0.0000 97.6842
#
#
#
# Elastic Compliance Matrix: (Units=1/GPa)
#
#
# Indices 1 2 3 4 5 6 
#
# 1 0.023183 -0.004126 -0.005046 0.000000 -0.001661 0.000000
# 2 -0.004126 0.006172 -0.000685 0.000000 0.001305 0.000000
# 3 -0.005046 -0.000685 0.007495 0.000000 -0.001150 0.000000
# 4 0.000000 0.000000 0.000000 0.017406 0.000000 -0.011772
# 5 -0.001661 0.001305 -0.001150 0.000000 0.037026 0.000000
# 6 0.000000 0.000000 0.000000 -0.011772 0.000000 0.018199
#
#
# Mechanical properties :
#
#
# Convention : Reuss Voigt Hill
#
# Bulk Modulus (GPa) = 58.35275 78.81711 68.58493
# Shear Modulus (GPa) = 37.06221 64.76584 50.91403
#
# Velocity S-wave (km/s) = 4.06659 5.37573 4.76632
# Velocity P-wave (km/s) = 6.93444 8.58484 7.80340
#
# Compressibility (1/GPa) = 0.01713715
#
# Stress axis : x y z
#
# Youngs Moduli (GPa) = 43.13465 162.01177 133.41365
#
# Poissons Ratio (x) = 0.66853 0.67319
# Poissons Ratio (y) = 0.17799 0.09135
# Poissons Ratio (z) = 0.21765 0.11093
#
# Static dielectric constant tensor:
#      x y z
#    x 3.876530 0.000000 0.229650 
#    y 0.000000 4.072060 0.000000 
#    z 0.229650 0.000000 5.248650 
# 
# 
# High freq. dielectric constant tensor:
#      x y z
#    x 1.866650 0.000000 0.005620 
#    y 0.000000 1.883390 0.000000 
#    z 0.005620 0.000000 1.919040 
# 
# From -- ./inp_files/1335.got.cif
#   From: 2010.06.25/outbox.cif.g09.slc.cpg/sg13_1_cif.got.tgz:1335.got - 2010.06.28 04:50:58.
