data_PCOD8116232
_publ_section_title
;
Structure prediction by ZEFSAII (Michael W. Deem and Ramdas Pophale) SiO2 
 PCOD8116232
Probable space group: C 2/M
;
_chemical_formula_sum "Si O2"
_cell_formula_units_Z 20
_cell_length_a 24.000000
_cell_length_b 9.000000
_cell_length_c 30.000000
_cell_angle_alpha 90.000000
_cell_angle_beta 20.000000
_cell_angle_gamma 90.000000
_cell_volume 2216.290529
_symmetry_space_group_name_H-M "C 2/M"
_symmetry_group_IT_number 12
_symmetry_cell_setting 'monoclinic'
loop_
_space_group_symop_operation_xyz
x,y,z
-x,y,-z
-x,-y,-z
x,-y,z
1/2+x,1/2+y,z
1/2-x,1/2+y,-z
1/2-x,1/2-y,-z
1/2+x,1/2-y,z
loop_
_atom_site_type_symbol
_atom_site_label
_atom_site_fract_x
_atom_site_fract_y
_atom_site_fract_z
Si Si1 0.757061 0.178898 0.200344
Si Si2 0.719212 0.325636 0.069103
Si Si3 0.953609 0.325373 0.973228
Si Si4 0.436507 0.328262 0.414725
Si Si5 0.415944 0.827591 0.336777
O O1 0.567406 0.232411 0.345137
O O2 0.866642 0.248603 0.158251
O O3 0.764599 0.000000 0.196214
O O4 0.831654 0.242113 0.098602
O O5 0.674430 0.500000 0.099573
O O6 0.568027 0.225016 0.195201
O O7 0.750000 0.250000 0.000000
O O8 0.877254 0.303482 0.981865
O O9 0.966796 0.500000 0.975518
O O10 0.492554 0.500000 0.375093
O O11 0.423810 0.278461 0.373415
O O12 0.247006 0.307452 0.572008
O O13 0.431849 0.000000 0.339501
#
# Coordination Sequence:
#
# PCOD8116232 Si02
#       5
#     8   8   8   8   8
#     4  11  20  30  51  79 107 139 171 217 265 312
#     4  11  23  37  56  77 106 143 179 218 261 311
#     4  10  20  34  51  74 105 140 175 215 264 316
#     4  10  19  32  51  77 109 141 170 213 268 318
#     4  10  20  33  52  77 106 138 177 218 261 313
#
# _framework density 9.0240880000000008
#
# number of rings (size 3 to 8) (size 9 to 14) (size 15 to 20)
#    0.000    1.600    2.000    5.400    0.000    4.800 
#    0.000    0.000    0.000    1.200    0.000    8.400 
#    0.000    0.000    0.000    0.000    0.000    0.000 
#
# Total GULP energy -247769.471114 kJ/mol
# GULP energy per Si atom -12388.473556 kJ/mol
# Density = 0.900355 g / cm^3
# Si number density = 9.024088 Si / 1000 Ang^3
#
#
#
# Elastic Constant Matrix: (Units=GPa)
#
#
# Indices 1 2 3 4 5 6 
#
# 1 100.4989 42.7508 44.4666 0.0036 -30.7386 -0.0008
# 2 42.7508 140.2855 30.1735 -0.0226 -27.8811 0.0109
# 3 44.4666 30.1735 71.0746 -0.0054 -43.2501 0.0022
# 4 0.0036 -0.0226 -0.0054 33.2011 -0.0078 -10.1047
# 5 -30.7386 -27.8811 -43.2501 -0.0078 33.9985 -0.0002
# 6 -0.0008 0.0109 0.0022 -10.1047 -0.0002 33.0679
#
#
#
# Elastic Compliance Matrix: (Units=1/GPa)
#
#
# Indices 1 2 3 4 5 6 
#
# 1 0.014773 -0.002466 -0.005748 -0.000003 0.004021 0.000001
# 2 -0.002466 0.009057 0.003810 0.000009 0.010045 0.000000
# 3 -0.005748 0.003810 0.065461 0.000035 0.081201 0.000005
# 4 -0.000003 0.000009 0.000035 0.033208 0.000056 0.010148
# 5 0.004021 0.010045 0.081201 0.000056 0.144584 0.000010
# 6 0.000001 0.000000 0.000005 0.010148 0.000010 0.033342
#
#
# Mechanical properties :
#
#
# Convention : Reuss Voigt Hill
#
# Bulk Modulus (GPa) = 12.42516 60.73789 36.58152
# Shear Modulus (GPa) = 14.87834 33.01804 23.94819
#
# Velocity S-wave (km/s) = 2.87430 4.28183 3.64662
# Velocity P-wave (km/s) = 4.23259 7.62704 6.16792
#
# Compressibility (1/GPa) = 0.08048187
#
# Stress axis : x y z
#
# Youngs Moduli (GPa) = 67.69184 110.41633 15.27632
#
# Poissons Ratio (x) = 0.27232 0.08781
# Poissons Ratio (y) = 0.16695 -0.05821
# Poissons Ratio (z) = 0.38911 -0.42073
#
# Static dielectric constant tensor:
#      x y z
#    x 3.328410 0.000380 -0.479660 
#    y 0.000380 3.252110 -0.008010 
#    z -0.479660 -0.008010 0.826120 
# 
# 
# High freq. dielectric constant tensor:
#      x y z
#    x 1.679200 0.000000 -0.049890 
#    y 0.000000 1.732090 0.000010 
#    z -0.049890 0.000010 1.693090 
# 
# From -- ./inp_files/162741.got.cif
#   From: 2010.06.25/outbox.ucp.g09.slc.cvg/sg12_82_cif.got.tgz:162741.got - 2010.06.28 13:50:54.
