data_PCOD8116490
_publ_section_title
;
Structure prediction by ZEFSAII (Michael W. Deem and Ramdas Pophale) SiO2 
 PCOD8116490
Probable space group: C 2/M
;
_chemical_formula_sum "Si O2"
_cell_formula_units_Z 32
_cell_length_a 30.000000
_cell_length_b 9.000000
_cell_length_c 15.000000
_cell_angle_alpha 90.000000
_cell_angle_beta 60.000000
_cell_angle_gamma 90.000000
_cell_volume 3507.402885
_symmetry_space_group_name_H-M "C 2/M"
_symmetry_group_IT_number 12
_symmetry_cell_setting 'monoclinic'
loop_
_space_group_symop_operation_xyz
x,y,z
-x,y,-z
-x,-y,-z
x,-y,z
1/2+x,1/2+y,z
1/2-x,1/2+y,-z
1/2-x,1/2-y,-z
1/2+x,1/2-y,z
loop_
_atom_site_type_symbol
_atom_site_label
_atom_site_fract_x
_atom_site_fract_y
_atom_site_fract_z
Si Si1 0.423743 0.177058 0.833773
Si Si2 0.143404 0.181739 0.939955
Si Si3 0.250197 0.818057 0.098966
Si Si4 0.963369 0.177026 0.281444
Si Si5 0.386148 0.824247 0.220431
Si Si6 0.619645 0.323743 0.485057
Si Si7 0.304914 0.174063 0.454133
Si Si8 0.645009 0.823118 0.272991
O O1 0.480698 0.246647 0.766589
O O2 0.392753 0.206452 0.772972
O O3 0.427273 0.000000 0.849527
O O4 0.394576 0.259508 0.944271
O O5 0.199889 0.253208 0.899577
O O6 0.122176 0.239953 0.865552
O O7 0.145635 0.000000 0.938672
O O8 0.199160 0.761549 0.201484
O O9 0.251902 0.000000 0.094531
O O10 0.250000 0.750000 0.000000
O O11 0.933796 0.249950 0.226455
O O12 0.932478 0.207324 0.405270
O O13 0.968837 0.000000 0.259689
O O14 0.335132 0.803421 0.331122
O O15 0.397423 0.000000 0.193174
O O16 0.627792 0.500000 0.463857
O O17 0.667043 0.255525 0.492291
O O18 0.618202 0.244183 0.389263
O O19 0.250000 0.250000 0.500000
O O20 0.299237 0.000000 0.482720
O O21 0.654569 0.000000 0.275474
#
# Coordination Sequence:
#
# PCOD8116490 Si02
#       8
#     8   8   8   8   8   8   8   8
#     4  11  24  42  65  91 123 162 208 259 311 367
#     4  12  25  41  64  93 126 164 207 255 308 370
#     4  12  24  41  64  90 126 166 206 254 310 367
#     4  10  22  42  66  92 124 161 206 258 313 368
#     4  10  22  41  63  89 123 162 205 254 309 367
#     4  10  22  40  62  89 124 162 203 254 310 367
#     4  10  21  37  59  86 120 159 204 252 304 366
#     4  11  24  41  63  92 125 164 210 256 307 368
#
# _framework density 9.1235599999999994
#
# number of rings (size 3 to 8) (size 9 to 14) (size 15 to 20)
#    0.000    1.250    1.250    4.500    1.750    5.500 
#    0.000    5.000    0.000    0.000    0.000    0.000 
#    0.000    0.000    0.000    0.000    0.000    0.000 
#
# Total GULP energy -396728.561547 kJ/mol
# GULP energy per Si atom -12397.767548 kJ/mol
# Density = 0.910279 g / cm^3
# Si number density = 9.123560 Si / 1000 Ang^3
#
#
#
# Elastic Constant Matrix: (Units=GPa)
#
#
# Indices 1 2 3 4 5 6 
#
# 1 156.4828 72.7364 77.9915 0.0000 -5.3921 0.0000
# 2 72.7364 197.8126 70.0118 0.0000 1.0268 0.0000
# 3 77.9915 70.0118 150.1307 0.0000 9.7585 0.0000
# 4 0.0000 0.0000 0.0000 45.9724 0.0000 0.9776
# 5 -5.3921 1.0268 9.7585 0.0000 46.6766 0.0000
# 6 0.0000 0.0000 0.0000 0.9776 0.0000 45.1708
#
#
#
# Elastic Compliance Matrix: (Units=1/GPa)
#
#
# Indices 1 2 3 4 5 6 
#
# 1 0.009441 -0.002036 -0.004084 0.000000 0.001989 0.000000
# 2 -0.002036 0.006504 -0.001977 0.000000 0.000035 0.000000
# 3 -0.004084 -0.001977 0.009867 0.000000 -0.002491 0.000000
# 4 0.000000 0.000000 0.000000 0.021762 0.000000 -0.000471
# 5 0.001989 0.000035 -0.002491 0.000000 0.022174 0.000000
# 6 0.000000 0.000000 0.000000 -0.000471 0.000000 0.022148
#
#
# Mechanical properties :
#
#
# Convention : Reuss Voigt Hill
#
# Bulk Modulus (GPa) = 103.99781 105.10061 104.54921
# Shear Modulus (GPa) = 44.92477 46.47638 45.70057
#
# Velocity S-wave (km/s) = 4.96726 5.05231 5.00996
# Velocity P-wave (km/s) = 9.48768 9.57904 9.53347
#
# Compressibility (1/GPa) = 0.00961559
#
# Stress axis : x y z
#
# Youngs Moduli (GPa) = 105.91896 153.75810 101.35140
#
# Poissons Ratio (x) = 0.31310 0.41395
# Poissons Ratio (y) = 0.21569 0.20041
# Poissons Ratio (z) = 0.43260 0.30404
#
# Static dielectric constant tensor:
#      x y z
#    x 3.669010 0.000000 0.024670 
#    y 0.000000 3.985420 0.000000 
#    z 0.024670 0.000000 3.773140 
# 
# 
# High freq. dielectric constant tensor:
#      x y z
#    x 1.733600 0.000000 0.002510 
#    y 0.000000 1.755060 0.000000 
#    z 0.002510 0.000000 1.739240 
# 
# From -- ./inp_files/249129.got.cif
#   From: 2010.06.25/outbox.ucp.g09.slc.cvg/sg12_125_cif.got.tgz:249129.got - 2010.06.28 13:50:54.
