data_PCOD8116373
_publ_section_title
;
Structure prediction by ZEFSAII (Michael W. Deem and Ramdas Pophale) SiO2 
 PCOD8116373
Probable space group: C 2/M
;
_chemical_formula_sum "Si O2"
_cell_formula_units_Z 28
_cell_length_a 21.000000
_cell_length_b 9.000000
_cell_length_c 30.000000
_cell_angle_alpha 90.000000
_cell_angle_beta 30.000000
_cell_angle_gamma 90.000000
_cell_volume 2835.000000
_symmetry_space_group_name_H-M "C 2/M"
_symmetry_group_IT_number 12
_symmetry_cell_setting 'monoclinic'
loop_
_space_group_symop_operation_xyz
x,y,z
-x,y,-z
-x,-y,-z
x,-y,z
1/2+x,1/2+y,z
1/2-x,1/2+y,-z
1/2-x,1/2-y,-z
1/2+x,1/2-y,z
loop_
_atom_site_type_symbol
_atom_site_label
_atom_site_fract_x
_atom_site_fract_y
_atom_site_fract_z
Si Si1 0.078377 0.673046 0.561383
Si Si2 0.563483 0.667780 0.187434
Si Si3 0.858805 0.176792 0.242134
Si Si4 0.864820 0.166947 0.385972
Si Si5 0.084981 0.175502 0.890521
Si Si6 0.305956 0.675714 0.084162
Si Si7 0.098264 0.170800 0.400864
O O1 0.047190 0.500000 0.576231
O O2 0.074559 0.720989 0.615271
O O3 0.221476 0.712866 0.457675
O O4 0.966497 0.756936 0.603240
O O5 0.610261 0.500000 0.150646
O O6 0.489268 0.730179 0.188309
O O7 0.452769 0.674718 0.290314
O O8 0.687640 0.757051 0.128252
O O9 0.864470 0.229921 0.187480
O O10 0.728531 0.250663 0.338382
O O11 0.847049 0.000000 0.254947
O O12 0.860052 0.000000 0.409096
O O13 0.183822 0.226794 0.869742
O O14 0.075660 0.000000 0.899178
O O15 0.940026 0.234239 0.983021
O O16 0.289829 0.500000 0.089680
O O17 0.000000 0.190756 0.500000
O O18 0.127949 0.000000 0.372170
#
# Coordination Sequence:
#
# PCOD8116373 Si02
#       7
#     8   8   8   8   8   8   8
#     4  10  20  35  57  80 103 144 193 233 277 331
#     4  10  21  35  53  81 115 148 181 233 287 330
#     4  10  21  38  59  82 112 150 195 234 276 335
#     4   9  19  35  52  76 112 145 181 231 285 332
#     4   8  17  36  59  83 110 144 187 235 279 331
#     4   9  18  35  59  83 111 146 187 232 280 337
#     4  11  24  39  55  79 114 150 185 231 284 330
#
# _framework density 9.8765429999999999
#
# number of rings (size 3 to 8) (size 9 to 14) (size 15 to 20)
#    0.000    2.429    0.000    2.571    2.000    4.571 
#    0.000    2.143    0.000    0.000    0.000    0.000 
#    0.000    0.000    0.000    0.000    0.000    0.000 
#
# Total GULP energy -346992.170714 kJ/mol
# GULP energy per Si atom -12392.577525 kJ/mol
# Density = 0.985406 g / cm^3
# Si number density = 9.876543 Si / 1000 Ang^3
#
#
#
# Elastic Constant Matrix: (Units=GPa)
#
#
# Indices 1 2 3 4 5 6 
#
# 1 160.9753 53.9891 48.1995 -0.0163 -36.8738 0.0130
# 2 53.9891 64.0100 30.2898 -0.0179 -10.4106 -0.0145
# 3 48.1995 30.2898 59.7428 -0.0036 -16.0414 0.0131
# 4 -0.0163 -0.0179 -0.0036 18.2980 0.0006 -9.5994
# 5 -36.8738 -10.4106 -16.0414 0.0006 38.2450 -0.0036
# 6 0.0130 -0.0145 0.0131 -9.5994 -0.0036 34.4282
#
#
#
# Elastic Compliance Matrix: (Units=1/GPa)
#
#
# Indices 1 2 3 4 5 6 
#
# 1 0.011222 -0.006466 -0.003767 0.000000 0.007479 -0.000005
# 2 -0.006466 0.024344 -0.007911 0.000029 -0.002926 0.000023
# 3 -0.003767 -0.007911 0.025057 -0.000014 0.004724 -0.000015
# 4 0.000000 0.000029 -0.000014 0.064015 0.000003 0.017849
# 5 0.007479 -0.002926 0.004724 0.000003 0.034544 -0.000001
# 6 -0.000005 0.000023 -0.000015 0.017849 -0.000001 0.034023
#
#
# Mechanical properties :
#
#
# Convention : Reuss Voigt Hill
#
# Bulk Modulus (GPa) = 41.09444 61.07609 51.08526
# Shear Modulus (GPa) = 21.04331 28.34424 24.69378
#
# Velocity S-wave (km/s) = 3.26746 3.79215 3.53954
# Velocity P-wave (km/s) = 5.92320 7.08243 6.52859
#
# Compressibility (1/GPa) = 0.02433419
#
# Stress axis : x y z
#
# Youngs Moduli (GPa) = 89.11046 41.07743 39.90850
#
# Poissons Ratio (x) = 0.26561 0.15034
# Poissons Ratio (y) = 0.57620 0.31574
# Poissons Ratio (z) = 0.33569 0.32498
#
# Static dielectric constant tensor:
#      x y z
#    x 3.981850 -0.000020 -0.086510 
#    y -0.000020 3.473060 0.000000 
#    z -0.086510 0.000000 3.608860 
# 
# 
# High freq. dielectric constant tensor:
#      x y z
#    x 1.793360 0.000000 -0.015680 
#    y 0.000000 1.746750 0.000000 
#    z -0.015680 0.000000 1.766840 
# 
# From -- ./inp_files/280922.got.cif
#   From: 2010.06.25/outbox.ucp.g09.slc.cvg/sg12_141_cif.got.tgz:280922.got - 2010.06.28 13:50:54.
