data_PCOD8116208
_publ_section_title
;
Structure prediction by ZEFSAII (Michael W. Deem and Ramdas Pophale) SiO2 
 PCOD8116208
Probable space group: C 2/M
;
_chemical_formula_sum "Si O2"
_cell_formula_units_Z 32
_cell_length_a 18.000000
_cell_length_b 9.000000
_cell_length_c 30.000000
_cell_angle_alpha 90.000000
_cell_angle_beta 40.000000
_cell_angle_gamma 90.000000
_cell_volume 3123.947783
_symmetry_space_group_name_H-M "C 2/M"
_symmetry_group_IT_number 12
_symmetry_cell_setting 'monoclinic'
loop_
_space_group_symop_operation_xyz
x,y,z
-x,y,-z
-x,-y,-z
x,-y,z
1/2+x,1/2+y,z
1/2-x,1/2+y,-z
1/2-x,1/2-y,-z
1/2+x,1/2-y,z
loop_
_atom_site_type_symbol
_atom_site_label
_atom_site_fract_x
_atom_site_fract_y
_atom_site_fract_z
Si Si1 0.271331 0.328293 0.058014
Si Si2 0.093002 0.174891 0.697931
Si Si3 0.018321 0.166504 0.565420
Si Si4 0.031885 0.324242 0.321423
Si Si5 0.009382 0.167601 0.914356
Si Si6 0.182237 0.833190 0.413741
Si Si7 0.554802 0.334469 0.152274
Si Si8 0.747141 0.326661 0.831445
O O1 0.273025 0.500000 0.044102
O O2 0.166543 0.249836 0.080899
O O3 0.229974 0.298008 0.127440
O O4 0.394057 0.255185 0.987770
O O5 0.225103 0.215515 0.646712
O O6 0.067297 0.254376 0.663233
O O7 0.013151 0.238910 0.774859
O O8 0.078076 0.000000 0.700958
O O9 0.990561 0.280000 0.617572
O O10 0.916911 0.171496 0.576823
O O11 0.134236 0.211943 0.484999
O O12 0.031119 0.000000 0.579245
O O13 0.027795 0.500000 0.319085
O O14 0.152639 0.259063 0.246009
O O15 0.026410 0.165768 0.853445
O O16 0.123900 0.251950 0.878604
O O17 0.007314 0.000000 0.934717
O O18 0.234175 0.000000 0.392460
O O19 0.592177 0.500000 0.148813
O O20 0.737623 0.500000 0.824645
#
# Coordination Sequence:
#
# PCOD8116208 Si02
#       8
#     8   8   8   8   8   8   8   8
#     4  10  18  33  57  79 104 141 184 228 273 329
#     4  11  23  37  56  81 115 154 191 233 281 331
#     4   9  20  40  63  88 117 147 179 223 280 334
#     4  11  22  36  58  84 114 151 191 235 277 329
#     4   9  18  32  53  79 106 140 183 229 278 328
#     4   9  20  40  64  87 115 148 182 224 274 333
#     4  10  21  35  52  77 111 146 178 225 281 329
#     4   9  18  32  52  80 109 138 181 231 274 321
#
# _framework density 10.243449
#
# number of rings (size 3 to 8) (size 9 to 14) (size 15 to 20)
#    0.000    2.250    1.250    2.250    1.750    3.500 
#    0.000    1.250    0.000    3.750    0.000    0.000 
#    0.000    0.000    0.000    0.000    0.000    0.000 
#
# Total GULP energy -396530.853665 kJ/mol
# GULP energy per Si atom -12391.589177 kJ/mol
# Density = 1.022013 g / cm^3
# Si number density = 10.243449 Si / 1000 Ang^3
#
#
#
# Elastic Constant Matrix: (Units=GPa)
#
#
# Indices 1 2 3 4 5 6 
#
# 1 23.4353 15.4988 14.6729 0.0000 -8.4614 0.0021
# 2 15.4988 43.8233 29.8158 0.0015 -3.2202 0.0023
# 3 14.6729 29.8158 100.8694 -0.0007 -3.5200 -0.0008
# 4 0.0000 0.0015 -0.0007 20.8554 -0.0002 2.3107
# 5 -8.4614 -3.2202 -3.5200 -0.0002 28.7555 0.0006
# 6 0.0021 0.0023 -0.0008 2.3107 0.0006 15.8179
#
#
#
# Elastic Compliance Matrix: (Units=1/GPa)
#
#
# Indices 1 2 3 4 5 6 
#
# 1 0.062910 -0.019059 -0.002959 0.000002 0.016015 -0.000007
# 2 -0.019059 0.034474 -0.007511 -0.000002 -0.002667 -0.000002
# 3 -0.002959 -0.007511 0.012558 0.000001 -0.000174 0.000002
# 4 0.000002 -0.000002 0.000001 0.048738 0.000001 -0.007120
# 5 0.016015 -0.002667 -0.000174 0.000001 0.039168 -0.000003
# 6 -0.000007 -0.000002 0.000002 -0.007120 -0.000003 0.064259
#
#
# Mechanical properties :
#
#
# Convention : Reuss Voigt Hill
#
# Bulk Modulus (GPa) = 19.65234 32.01146 25.83190
# Shear Modulus (GPa) = 14.78738 20.29514 17.54126
#
# Velocity S-wave (km/s) = 2.68954 3.15086 2.92930
# Velocity P-wave (km/s) = 4.38843 5.37554 4.90687
#
# Compressibility (1/GPa) = 0.05088452
#
# Stress axis : x y z
#
# Youngs Moduli (GPa) = 15.89571 29.00772 79.62962
#
# Poissons Ratio (x) = 0.55287 0.23559
# Poissons Ratio (y) = 0.30296 0.59807
# Poissons Ratio (z) = 0.04703 0.21787
#
# Static dielectric constant tensor:
#      x y z
#    x 3.490500 0.000000 -0.075390 
#    y 0.000000 3.414340 0.000000 
#    z -0.075390 0.000000 3.972200 
# 
# 
# High freq. dielectric constant tensor:
#      x y z
#    x 1.787470 0.000000 0.002720 
#    y 0.000000 1.755240 0.000000 
#    z 0.002720 0.000000 1.818700 
# 
# From -- ./inp_files/378216.got.cif
#   From: 2010.06.25/outbox.ucp.g09.slc.cvg/sg12_190_cif.got.tgz:378216.got - 2010.06.28 13:50:54.
