data_PCOD8116203
_publ_section_title
;
Structure prediction by ZEFSAII (Michael W. Deem and Ramdas Pophale) SiO2 
 PCOD8116203
Probable space group: C 2/M
;
_chemical_formula_sum "Si O2"
_cell_formula_units_Z 28
_cell_length_a 21.000000
_cell_length_b 9.000000
_cell_length_c 30.000000
_cell_angle_alpha 90.000000
_cell_angle_beta 30.000000
_cell_angle_gamma 90.000000
_cell_volume 2835.000000
_symmetry_space_group_name_H-M "C 2/M"
_symmetry_group_IT_number 12
_symmetry_cell_setting 'monoclinic'
loop_
_space_group_symop_operation_xyz
x,y,z
-x,y,-z
-x,-y,-z
x,-y,z
1/2+x,1/2+y,z
1/2-x,1/2+y,-z
1/2-x,1/2-y,-z
1/2+x,1/2-y,z
loop_
_atom_site_type_symbol
_atom_site_label
_atom_site_fract_x
_atom_site_fract_y
_atom_site_fract_z
Si Si1 0.337904 0.328245 0.183924
Si Si2 0.268414 0.836407 0.846113
Si Si3 0.939767 0.336976 0.988135
Si Si4 0.464022 0.832951 0.412621
Si Si5 0.252951 0.834182 0.610359
Si Si6 0.833743 0.824566 0.647862
Si Si7 0.942056 0.334033 0.326877
O O1 0.331561 0.500000 0.201226
O O2 0.247008 0.289951 0.196640
O O3 0.297022 0.226280 0.250095
O O4 0.482857 0.281269 0.087734
O O5 0.202748 0.722438 0.919739
O O6 0.411704 0.839132 0.775294
O O7 0.205234 0.000000 0.889017
O O8 0.938090 0.500000 0.966633
O O9 0.000000 0.346522 0.000000
O O10 0.330323 0.842149 0.517895
O O11 0.554170 0.733786 0.388627
O O12 0.436059 0.763731 0.380574
O O13 0.523975 0.000000 0.370710
O O14 0.334014 0.744175 0.598083
O O15 0.122510 0.757767 0.673806
O O16 0.225843 0.000000 0.645211
O O17 0.844655 0.000000 0.636639
O O18 0.882487 0.500000 0.363869
#
# Coordination Sequence:
#
# PCOD8116203 Si02
#       7
#     8   8   8   8   8   8   8
#     4  10  18  33  55  79 110 146 185 225 276 333
#     4   9  17  31  53  79 109 147 183 221 274 330
#     4   9  17  28  46  78 115 143 177 227 273 318
#     4  10  21  40  61  82 110 146 187 234 283 334
#     4  11  24  39  57  81 112 150 190 230 281 337
#     4  12  24  37  57  83 113 147 188 235 282 331
#     4  10  20  37  59  83 114 147 186 232 279 330
#
# _framework density 9.8765429999999999
#
# number of rings (size 3 to 8) (size 9 to 14) (size 15 to 20)
#    0.000    1.857    1.429    3.429    0.000    6.286 
#    0.000    0.000    0.000    0.857    0.000    0.000 
#    0.000    0.000    0.000    0.000    0.000    0.000 
#
# Total GULP energy -347075.255433 kJ/mol
# GULP energy per Si atom -12395.544837 kJ/mol
# Density = 0.985406 g / cm^3
# Si number density = 9.876543 Si / 1000 Ang^3
#
#
#
# Elastic Constant Matrix: (Units=GPa)
#
#
# Indices 1 2 3 4 5 6 
#
# 1 71.6131 33.9748 -1.8193 0.0011 -9.3700 -0.0084
# 2 33.9748 108.0289 14.2300 0.0016 -8.6650 -0.0020
# 3 -1.8193 14.2300 39.8652 0.0004 -5.6075 0.0022
# 4 0.0011 0.0016 0.0004 24.8224 -0.0001 1.9316
# 5 -9.3700 -8.6650 -5.6075 -0.0001 12.1114 0.0026
# 6 -0.0084 -0.0020 0.0022 1.9316 0.0026 30.1722
#
#
#
# Elastic Compliance Matrix: (Units=1/GPa)
#
#
# Indices 1 2 3 4 5 6 
#
# 1 0.018222 -0.005329 0.004472 -0.000001 0.012356 0.000003
# 2 -0.005329 0.011656 -0.004076 0.000000 0.002330 -0.000001
# 3 0.004472 -0.004076 0.028688 0.000000 0.013826 -0.000002
# 4 -0.000001 0.000000 0.000000 0.040488 0.000000 -0.002592
# 5 0.012356 0.002330 0.013826 0.000000 0.100194 -0.000006
# 6 0.000003 -0.000001 -0.000002 -0.002592 -0.000006 0.033309
#
#
# Mechanical properties :
#
#
# Convention : Reuss Voigt Hill
#
# Bulk Modulus (GPa) = 20.53379 34.69756 27.61568
# Shear Modulus (GPa) = 19.33053 24.96264 22.14658
#
# Velocity S-wave (km/s) = 3.13166 3.55876 3.35202
# Velocity P-wave (km/s) = 4.84708 5.87283 5.38444
#
# Compressibility (1/GPa) = 0.04870022
#
# Stress axis : x y z
#
# Youngs Moduli (GPa) = 54.87792 85.78912 34.85726
#
# Poissons Ratio (x) = 0.45716 -0.15587
# Poissons Ratio (y) = 0.29244 0.14209
# Poissons Ratio (z) = -0.24540 0.34970
#
# Static dielectric constant tensor:
#      x y z
#    x 3.295230 0.000000 0.101040 
#    y 0.000000 3.774320 0.000000 
#    z 0.101040 0.000000 3.533750 
# 
# 
# High freq. dielectric constant tensor:
#      x y z
#    x 1.738180 0.000000 0.000680 
#    y 0.000000 1.768720 0.000000 
#    z 0.000680 0.000000 1.761070 
# 
# From -- ./inp_files/275599.got.cif
#   From: 2010.06.25/outbox.ucp.g09.slc.cvg/sg12_138_cif.got.tgz:275599.got - 2010.06.28 13:50:54.
