data_PCOD8116577
_publ_section_title
;
Structure prediction by ZEFSAII (Michael W. Deem and Ramdas Pophale) SiO2 
 PCOD8116577
Probable space group: C 2/M
;
_chemical_formula_sum "Si O2"
_cell_formula_units_Z 32
_cell_length_a 18.000000
_cell_length_b 9.000000
_cell_length_c 30.000000
_cell_angle_alpha 90.000000
_cell_angle_beta 40.000000
_cell_angle_gamma 90.000000
_cell_volume 3123.947783
_symmetry_space_group_name_H-M "C 2/M"
_symmetry_group_IT_number 12
_symmetry_cell_setting 'monoclinic'
loop_
_space_group_symop_operation_xyz
x,y,z
-x,y,-z
-x,-y,-z
x,-y,z
1/2+x,1/2+y,z
1/2-x,1/2+y,-z
1/2-x,1/2-y,-z
1/2+x,1/2-y,z
loop_
_atom_site_type_symbol
_atom_site_label
_atom_site_fract_x
_atom_site_fract_y
_atom_site_fract_z
Si Si1 0.465626 0.333815 0.214403
Si Si2 0.715081 0.826422 0.561663
Si Si3 0.212987 0.334163 0.302904
Si Si4 0.872339 0.825197 0.938884
Si Si5 0.714740 0.673706 0.212518
Si Si6 0.632686 0.669943 0.427029
Si Si7 0.966402 0.328006 0.066281
Si Si8 0.000150 0.671525 0.716817
O O1 0.490056 0.500000 0.222096
O O2 0.351041 0.336377 0.237500
O O3 0.570254 0.279800 0.134690
O O4 0.436332 0.215426 0.266521
O O5 0.750000 0.750000 0.500000
O O6 0.795955 0.765278 0.564027
O O7 0.582490 0.792078 0.636686
O O8 0.735920 0.000000 0.545605
O O9 0.162412 0.500000 0.321936
O O10 0.175671 0.242949 0.277169
O O11 0.158865 0.265208 0.371767
O O12 0.950553 0.773490 0.943408
O O13 0.856681 0.000000 0.948868
O O14 0.750000 0.750000 0.000000
O O15 0.713509 0.500000 0.218783
O O16 0.835801 0.726062 0.135951
O O17 0.613875 0.727993 0.226408
O O18 0.500000 0.684435 0.500000
O O19 0.669163 0.500000 0.400910
O O20 0.982317 0.500000 0.072436
O O21 0.000000 0.301534 0.000000
O O22 0.966002 0.500000 0.732708
#
# Coordination Sequence:
#
# PCOD8116577 Si02
#       8
#     8   8   8   8   8   8   8   8
#     4  10  22  41  64  89 122 161 202 253 307 363
#     4  10  23  41  60  87 124 162 201 250 304 364
#     4  11  22  40  65  92 122 158 206 259 308 362
#     4  11  24  42  64  93 127 163 207 254 306 366
#     4  11  24  41  64  91 124 165 206 252 311 369
#     4  10  22  41  63  90 123 162 206 251 306 368
#     4  10  23  43  64  89 124 164 205 254 309 367
#     4  11  24  41  63  92 125 160 205 256 305 364
#
# _framework density 10.243449
#
# number of rings (size 3 to 8) (size 9 to 14) (size 15 to 20)
#    0.000    1.500    2.500    1.500    3.500    4.000 
#    0.000    0.000    0.000    0.000    0.000    0.000 
#    0.000    0.000    0.000    0.000    0.000    0.000 
#
# Total GULP energy -396817.455591 kJ/mol
# GULP energy per Si atom -12400.545487 kJ/mol
# Density = 1.022013 g / cm^3
# Si number density = 10.243449 Si / 1000 Ang^3
#
#
#
# Elastic Constant Matrix: (Units=GPa)
#
#
# Indices 1 2 3 4 5 6 
#
# 1 54.4174 30.0602 25.5251 0.0004 2.2067 -0.0007
# 2 30.0602 72.5647 52.7568 0.0017 4.9808 -0.0007
# 3 25.5251 52.7568 110.7000 0.0001 7.5678 -0.0002
# 4 0.0004 0.0017 0.0001 35.2349 0.0002 1.0527
# 5 2.2067 4.9808 7.5678 0.0002 34.8323 0.0005
# 6 -0.0007 -0.0007 -0.0002 1.0527 0.0005 31.8909
#
#
#
# Elastic Compliance Matrix: (Units=1/GPa)
#
#
# Indices 1 2 3 4 5 6 
#
# 1 0.023936 -0.009034 -0.001217 0.000000 0.000040 0.000000
# 2 -0.009034 0.024521 -0.009544 -0.000001 -0.000860 0.000000
# 3 -0.001217 -0.009544 0.013971 0.000000 -0.001594 0.000000
# 4 0.000000 -0.000001 0.000000 0.028409 0.000000 -0.000938
# 5 0.000040 -0.000860 -0.001594 0.000000 0.029176 0.000000
# 6 0.000000 0.000000 0.000000 -0.000938 0.000000 0.031388
#
#
# Mechanical properties :
#
#
# Convention : Reuss Voigt Hill
#
# Bulk Modulus (GPa) = 43.78450 50.48512 47.13481
# Shear Modulus (GPa) = 25.17583 29.01430 27.09507
#
# Velocity S-wave (km/s) = 3.50933 3.76738 3.64064
# Velocity P-wave (km/s) = 6.15133 6.60457 6.38197
#
# Compressibility (1/GPa) = 0.02283913
#
# Stress axis : x y z
#
# Youngs Moduli (GPa) = 41.77850 40.78112 71.57441
#
# Poissons Ratio (x) = 0.36841 0.08707
# Poissons Ratio (y) = 0.37742 0.68313
# Poissons Ratio (z) = 0.05083 0.38923
#
# Static dielectric constant tensor:
#      x y z
#    x 3.703110 0.000000 -0.114970 
#    y 0.000000 3.666980 0.000000 
#    z -0.114970 0.000000 3.802800 
# 
# 
# High freq. dielectric constant tensor:
#      x y z
#    x 1.795830 0.000000 -0.001430 
#    y 0.000000 1.795510 0.000000 
#    z -0.001430 0.000000 1.816080 
# 
# From -- ./inp_files/378102.got.cif
#   From: 2010.06.25/outbox.ucp.g09.slc.cvg/sg12_190_cif.got.tgz:378102.got - 2010.06.28 13:50:54.
