data_PCOD8116009
_publ_section_title
;
Structure prediction by ZEFSAII (Michael W. Deem and Ramdas Pophale) SiO2 
 PCOD8116009
Probable space group: C 2/M
;
_chemical_formula_sum "Si O2"
_cell_formula_units_Z 64
_cell_length_a 23.131331
_cell_length_b 9.271994
_cell_length_c 19.057181
_cell_angle_alpha 90.000000
_cell_angle_beta 97.566440
_cell_angle_gamma 90.000000
_cell_volume 4051.673044
_symmetry_space_group_name_H-M "C 2/M"
_symmetry_group_IT_number 12
_symmetry_cell_setting 'monoclinic'
loop_
_space_group_symop_operation_xyz
x,y,z
-x,y,-z
-x,-y,-z
x,-y,z
1/2+x,1/2+y,z
1/2-x,1/2+y,-z
1/2-x,1/2-y,-z
1/2+x,1/2-y,z
loop_
_atom_site_type_symbol
_atom_site_label
_atom_site_fract_x
_atom_site_fract_y
_atom_site_fract_z
Si Si1 0.121135 0.834105 0.777139
Si Si2 0.568628 0.839272 0.495728
Si Si3 0.325613 0.332402 0.956016
Si Si4 0.583399 0.333278 0.624239
Si Si5 0.008069 0.828722 0.209755
Si Si6 0.216771 0.167935 0.895707
Si Si7 0.546852 0.671202 0.062366
Si Si8 0.530420 0.169835 0.344165
O O1 0.131045 0.815994 0.694469
O O2 0.175010 0.764683 0.828312
O O3 0.058433 0.772132 0.791600
O O4 0.120258 0.000000 0.799514
O O5 0.500000 0.826794 0.500000
O O6 0.604583 0.729797 0.552236
O O7 0.578071 0.804097 0.414212
O O8 0.591023 0.000000 0.516118
O O9 0.320515 0.500000 0.936749
O O10 0.278008 0.250234 0.901614
O O11 0.389103 0.270264 0.946525
O O12 0.315642 0.302808 0.036298
O O13 0.565780 0.500000 0.612201
O O14 0.529055 0.240903 0.640063
O O15 0.030407 0.778560 0.137727
O O16 0.048617 0.748634 0.274567
O O17 0.012997 0.000000 0.222154
O O18 0.230090 0.000000 0.886497
O O19 0.546082 0.500000 0.056678
O O20 0.500000 0.736048 0.000000
O O21 0.521077 0.000000 0.330345
#
# Coordination Sequence:
#
# PCOD8116009 Si02
#       8
#     8   8   8   8   8   8   8   8
#     4   8  14  24  38  57  79 104 134 164 195 233
#     4   8  14  23  33  47  72 106 136 159 192 239
#     4   9  17  28  43  63  81 100 133 170 198 231
#     4   9  15  22  35  55  76  99 133 172 200 230
#     4   9  16  26  41  60  79 102 137 173 200 234
#     4   9  16  28  44  58  79 109 134 160 197 238
#     4   9  16  27  45  65  83 105 133 167 206 242
#     4   9  16  25  35  49  75 109 137 161 195 239
#
# _framework density 15.795945
#
# number of rings (size 3 to 8) (size 9 to 14) (size 15 to 20)
#    0.000    3.250    0.000    3.000    0.000    5.750 
#    0.000    3.750    0.000    4.500    0.000    0.000 
#    0.000    1.000    0.000    2.250    0.000    5.375 
#
# Total GULP energy -396463.076840 kJ/mol
# GULP energy per Si atom -12389.471151 kJ/mol
# Density = 1.575999 g / cm^3
# Si number density = 15.795945 Si / 1000 Ang^3
#
#
#
# Elastic Constant Matrix: (Units=GPa)
#
#
# Indices 1 2 3 4 5 6 
#
# 1 78.3594 25.1332 53.5793 0.0000 9.1534 0.0000
# 2 25.1332 53.2578 50.0088 0.0000 7.5338 0.0000
# 3 53.5793 50.0088 140.7720 0.0000 15.0730 0.0000
# 4 0.0000 0.0000 0.0000 21.9205 0.0000 3.5826
# 5 9.1534 7.5338 15.0730 0.0000 16.5718 0.0000
# 6 0.0000 0.0000 0.0000 3.5826 0.0000 13.9300
#
#
#
# Elastic Compliance Matrix: (Units=1/GPa)
#
#
# Indices 1 2 3 4 5 6 
#
# 1 0.017764 -0.002829 -0.005366 0.000000 -0.003645 0.000000
# 2 -0.002829 0.028880 -0.008801 0.000000 -0.003561 0.000000
# 3 -0.005366 -0.008801 0.012771 0.000000 -0.004651 0.000000
# 4 0.000000 0.000000 0.000000 0.047621 0.000000 -0.012248
# 5 -0.003645 -0.003561 -0.004651 0.000000 0.068206 0.000000
# 6 0.000000 0.000000 0.000000 -0.012248 0.000000 0.074938
#
#
# Mechanical properties :
#
#
# Convention : Reuss Voigt Hill
#
# Bulk Modulus (GPa) = 39.33607 58.87018 49.10313
# Shear Modulus (GPa) = 17.08553 20.06231 18.57392
#
# Velocity S-wave (km/s) = 3.29240 3.56770 3.43281
# Velocity P-wave (km/s) = 6.27773 7.37031 6.84585
#
# Compressibility (1/GPa) = 0.02542196
#
# Stress axis : x y z
#
# Youngs Moduli (GPa) = 56.29417 34.62624 78.30475
#
# Poissons Ratio (x) = 0.09795 0.42017
# Poissons Ratio (y) = 0.15925 0.68920
# Poissons Ratio (z) = 0.30207 0.30476
#
# Static dielectric constant tensor:
#      x y z
#    x 2.700140 0.000000 0.237910 
#    y 0.000000 2.903820 0.000000 
#    z 0.237910 0.000000 3.710920 
# 
# 
# High freq. dielectric constant tensor:
#      x y z
#    x 1.547410 0.000000 0.019000 
#    y 0.000000 1.588180 0.000000 
#    z 0.019000 0.000000 1.622710 
# 
# From -- ./inp_files/287668.got.cif
#   From: 2010.06.25/outbox.cif.g09.slc.cpg/sg12_144_cif.got.tgz:287668.got - 2010.06.28 00:19:55.
