data_PCOD8116527
_publ_section_title
;
Structure prediction by ZEFSAII (Michael W. Deem and Ramdas Pophale) SiO2 
 PCOD8116527
Probable space group: C 2/M
;
_chemical_formula_sum "Si O2"
_cell_formula_units_Z 32
_cell_length_a 18.000000
_cell_length_b 9.000000
_cell_length_c 30.000000
_cell_angle_alpha 90.000000
_cell_angle_beta 40.000000
_cell_angle_gamma 90.000000
_cell_volume 3123.947783
_symmetry_space_group_name_H-M "C 2/M"
_symmetry_group_IT_number 12
_symmetry_cell_setting 'monoclinic'
loop_
_space_group_symop_operation_xyz
x,y,z
-x,y,-z
-x,-y,-z
x,-y,z
1/2+x,1/2+y,z
1/2-x,1/2+y,-z
1/2-x,1/2-y,-z
1/2+x,1/2-y,z
loop_
_atom_site_type_symbol
_atom_site_label
_atom_site_fract_x
_atom_site_fract_y
_atom_site_fract_z
Si Si1 0.161376 0.177210 0.334658
Si Si2 0.802249 0.672433 0.411291
Si Si3 0.918080 0.327139 0.452609
Si Si4 0.633319 0.323969 0.705448
Si Si5 0.626057 0.668793 0.166052
Si Si6 0.463184 0.333361 0.063336
Si Si7 0.245533 0.169268 0.200865
Si Si8 0.283101 0.664281 0.027534
O O1 0.267605 0.232891 0.315390
O O2 0.189295 0.230651 0.271825
O O3 0.043149 0.255629 0.404072
O O4 0.147666 0.000000 0.345359
O O5 0.791225 0.500000 0.402601
O O6 0.879720 0.691952 0.419372
O O7 0.673627 0.738979 0.475107
O O8 0.868946 0.768941 0.344157
O O9 0.920640 0.500000 0.465504
O O10 0.656750 0.500000 0.697097
O O11 0.506290 0.285598 0.784220
O O12 0.646560 0.500000 0.141510
O O13 0.647487 0.689133 0.208726
O O14 0.724942 0.765512 0.097650
O O15 0.417871 0.500000 0.073542
O O16 0.364101 0.251959 0.135696
O O17 0.500000 0.253754 0.000000
O O18 0.578907 0.335625 0.038685
O O19 0.282559 0.000000 0.190175
O O20 0.232727 0.500000 0.048171
O O21 0.250000 0.750000 0.000000
#
# Coordination Sequence:
#
# PCOD8116527 Si02
#       8
#     8   8   8   8   8   8   8   8
#     4  11  24  41  60  89 125 159 201 249 299 354
#     4  10  21  39  65  95 125 159 199 246 296 351
#     4  10  21  39  65  95 124 159 202 243 294 354
#     4  11  24  41  61  87 123 162 202 248 300 358
#     4  10  22  41  62  86 117 156 199 244 299 356
#     4  10  21  39  60  86 116 150 195 246 297 350
#     4  10  22  39  62  88 116 154 197 246 298 353
#     4  11  24  40  60  86 118 155 196 245 300 357
#
# _framework density 10.243449
#
# number of rings (size 3 to 8) (size 9 to 14) (size 15 to 20)
#    0.000    1.625    1.250    2.625    1.750    6.250 
#    0.000    2.500    0.000    0.000    0.000    0.000 
#    0.000    0.000    0.000    0.000    0.000    0.000 
#
# Total GULP energy -396782.358923 kJ/mol
# GULP energy per Si atom -12399.448716 kJ/mol
# Density = 1.022013 g / cm^3
# Si number density = 10.243449 Si / 1000 Ang^3
#
#
#
# Elastic Constant Matrix: (Units=GPa)
#
#
# Indices 1 2 3 4 5 6 
#
# 1 60.7663 27.2434 13.3791 0.0013 -17.6819 0.0056
# 2 27.2434 84.7379 32.7310 0.0009 -11.2809 0.0040
# 3 13.3791 32.7310 78.3974 -0.0001 -21.8086 0.0002
# 4 0.0013 0.0009 -0.0001 32.6521 0.0003 -1.8257
# 5 -17.6819 -11.2809 -21.8086 0.0003 38.6351 0.0003
# 6 0.0056 0.0040 0.0002 -1.8257 0.0003 32.6232
#
#
#
# Elastic Compliance Matrix: (Units=1/GPa)
#
#
# Indices 1 2 3 4 5 6 
#
# 1 0.021532 -0.006292 0.001403 -0.000001 0.008809 -0.000003
# 2 -0.006292 0.015937 -0.006034 0.000000 -0.001632 -0.000001
# 3 0.001403 -0.006034 0.017467 0.000000 0.008740 0.000000
# 4 -0.000001 0.000000 0.000000 0.030722 -0.000001 0.001719
# 5 0.008809 -0.001632 0.008740 -0.000001 0.034371 -0.000002
# 6 -0.000003 -0.000001 0.000000 0.001719 -0.000002 0.030749
#
#
# Mechanical properties :
#
#
# Convention : Reuss Voigt Hill
#
# Bulk Modulus (GPa) = 30.22106 41.17872 35.69989
# Shear Modulus (GPa) = 27.22508 30.81863 29.02185
#
# Velocity S-wave (km/s) = 3.64937 3.88275 3.76787
# Velocity P-wave (km/s) = 5.70444 6.34387 6.03263
#
# Compressibility (1/GPa) = 0.03308951
#
# Stress axis : x y z
#
# Youngs Moduli (GPa) = 46.44328 62.74572 57.25214
#
# Poissons Ratio (x) = 0.39477 -0.08031
# Poissons Ratio (y) = 0.29220 0.34547
# Poissons Ratio (z) = -0.06515 0.37862
#
# Static dielectric constant tensor:
#      x y z
#    x 3.632780 -0.000010 -0.024640 
#    y -0.000010 3.761160 0.000000 
#    z -0.024640 0.000000 3.579270 
# 
# 
# High freq. dielectric constant tensor:
#      x y z
#    x 1.801070 0.000000 -0.010350 
#    y 0.000000 1.805070 0.000000 
#    z -0.010350 0.000000 1.809310 
# 
# From -- ./inp_files/378080.got.cif
#   From: 2010.06.25/outbox.ucp.g09.slc.cvg/sg12_190_cif.got.tgz:378080.got - 2010.06.28 13:50:54.
