data_PCOD8116628
_publ_section_title
;
Structure prediction by ZEFSAII (Michael W. Deem and Ramdas Pophale) SiO2 
 PCOD8116628
Probable space group: C 2/M
;
_chemical_formula_sum "Si O2"
_cell_formula_units_Z 28
_cell_length_a 21.000000
_cell_length_b 18.000000
_cell_length_c 21.000000
_cell_angle_alpha 90.000000
_cell_angle_beta 160.000000
_cell_angle_gamma 90.000000
_cell_volume 2714.955898
_symmetry_space_group_name_H-M "C 2/M"
_symmetry_group_IT_number 12
_symmetry_cell_setting 'monoclinic'
loop_
_space_group_symop_operation_xyz
x,y,z
-x,y,-z
-x,-y,-z
x,-y,z
1/2+x,1/2+y,z
1/2-x,1/2+y,-z
1/2-x,1/2-y,-z
1/2+x,1/2-y,z
loop_
_atom_site_type_symbol
_atom_site_label
_atom_site_fract_x
_atom_site_fract_y
_atom_site_fract_z
Si Si1 0.212852 0.840304 0.210029
Si Si2 0.215889 0.831710 0.708846
Si Si3 0.694259 0.152574 0.472497
Si Si4 0.067249 0.787143 0.792968
Si Si5 0.642866 0.915506 0.284485
Si Si6 0.232020 0.913791 0.856453
Si Si7 0.454005 0.086800 0.544701
O O1 0.200953 0.750425 0.202160
O O2 0.348262 0.870030 0.280240
O O3 0.295541 0.874985 0.352400
O O4 0.000000 0.868551 0.000000
O O5 0.282397 0.868585 0.705283
O O6 0.264455 0.885475 0.814346
O O7 0.000000 0.820737 0.500000
O O8 0.552077 0.221115 0.351204
O O9 0.692855 0.122860 0.398566
O O10 0.619096 0.091271 0.451330
O O11 0.910452 0.175459 0.692551
O O12 0.114045 0.851324 0.784435
O O13 0.250000 0.750000 0.000000
O O14 0.723675 0.000000 0.358250
O O15 0.422408 0.918109 0.073300
O O16 0.149005 0.000000 0.777566
O O17 0.479442 0.000000 0.551115
#
# Coordination Sequence:
#
# PCOD8116628 Si02
#       7
#     8   8   8   8   8   8   8
#     4  11  24  45  71  97 136 175 224 284 344 402
#     4  12  24  40  67  98 133 175 233 279 336 404
#     4  11  25  42  72 100 134 183 224 276 345 405
#     4  11  24  44  68  98 134 179 234 277 332 405
#     4  11  24  43  65  98 140 178 221 279 340 406
#     4  11  24  43  66  97 136 178 226 282 339 401
#     4  11  25  45  69 103 137 172 228 286 340 413
#
# _framework density 10.313243
#
# number of rings (size 3 to 8) (size 9 to 14) (size 15 to 20)
#    0.000    0.857    2.857    4.714    4.000    8.000 
#    0.000    0.000    0.000    0.000    0.000    0.000 
#    0.000    0.000    0.000    0.000    0.000    0.000 
#
# Total GULP energy -346920.272441 kJ/mol
# GULP energy per Si atom -12390.009730 kJ/mol
# Density = 1.028977 g / cm^3
# Si number density = 10.313243 Si / 1000 Ang^3
#
#
#
# Elastic Constant Matrix: (Units=GPa)
#
#
# Indices 1 2 3 4 5 6 
#
# 1 158.5601 65.7795 42.7702 -0.0082 3.8495 -0.0009
# 2 65.7795 182.0336 32.1008 -0.0073 4.6904 0.0049
# 3 42.7702 32.1008 148.6865 -0.0308 16.9644 -0.0242
# 4 -0.0082 -0.0073 -0.0308 24.3173 -0.0397 1.7027
# 5 3.8495 4.6904 16.9644 -0.0397 33.7727 -0.0156
# 6 -0.0009 0.0049 -0.0242 1.7027 -0.0156 47.5233
#
#
#
# Elastic Compliance Matrix: (Units=1/GPa)
#
#
# Indices 1 2 3 4 5 6 
#
# 1 0.007816 -0.002526 -0.001741 0.000000 0.000335 0.000000
# 2 -0.002526 0.006528 -0.000649 0.000000 -0.000293 -0.000001
# 3 -0.001741 -0.000649 0.007780 0.000003 -0.003619 0.000003
# 4 0.000000 0.000000 0.000003 0.041226 0.000046 -0.001477
# 5 0.000335 -0.000293 -0.003619 0.000046 0.031430 0.000007
# 6 0.000000 -0.000001 0.000003 -0.001477 0.000007 0.021095
#
#
# Mechanical properties :
#
#
# Convention : Reuss Voigt Hill
#
# Bulk Modulus (GPa) = 81.36144 85.62012 83.49078
# Shear Modulus (GPa) = 38.51894 44.36465 41.44179
#
# Velocity S-wave (km/s) = 4.32609 4.64277 4.48722
# Velocity P-wave (km/s) = 8.03020 8.38691 8.21049
#
# Compressibility (1/GPa) = 0.01229083
#
# Stress axis : x y z
#
# Youngs Moduli (GPa) = 127.93870 153.17776 128.54212
#
# Poissons Ratio (x) = 0.38693 0.22381
# Poissons Ratio (y) = 0.32318 0.08348
# Poissons Ratio (z) = 0.22276 0.09948
#
# Static dielectric constant tensor:
#      x y z
#    x 3.961130 -0.000100 0.157440 
#    y -0.000100 4.336250 -0.000100 
#    z 0.157440 -0.000100 4.078830 
# 
# 
# High freq. dielectric constant tensor:
#      x y z
#    x 1.823810 -0.000010 0.010380 
#    y -0.000010 1.844080 -0.000010 
#    z 0.010380 -0.000010 1.829180 
# 
# From -- ./inp_files/322717.got.cif
#   From: 2010.06.25/outbox.ucp.g09.slc.cvg/sg12_162_cif.got.tgz:322717.got - 2010.06.28 13:50:54.
