data_PCOD8116988
_publ_section_title
;
Structure prediction by ZEFSAII (Michael W. Deem and Ramdas Pophale) SiO2 
 PCOD8116988
Probable space group: P 2/C
;
_chemical_formula_sum "Si O2"
_cell_formula_units_Z 20
_cell_length_a 12.219033
_cell_length_b 11.274365
_cell_length_c 14.080499
_cell_angle_alpha 90.000000
_cell_angle_beta 149.652649
_cell_angle_gamma 90.000000
_cell_volume 980.043946
_symmetry_space_group_name_H-M "P 2/C"
_symmetry_group_IT_number 13
_symmetry_cell_setting 'monoclinic'
loop_
_space_group_symop_operation_xyz
x,y,z
-x,y,1/2-z
-x,-y,-z
x,-y,1/2+z
loop_
_atom_site_type_symbol
_atom_site_label
_atom_site_fract_x
_atom_site_fract_y
_atom_site_fract_z
Si Si1 0.051854 0.261278 0.583344
Si Si2 0.445687 0.863730 0.468797
Si Si3 0.226922 0.257626 0.960518
Si Si4 0.124973 0.272626 0.253084
Si Si5 0.261669 0.533228 0.351676
O O1 0.148705 0.389770 0.683790
O O2 0.811129 0.250509 0.454205
O O3 0.013685 0.242467 0.444091
O O4 0.226184 0.162471 0.745889
O O5 0.410541 0.828953 0.554249
O O6 0.637429 0.783768 0.570775
O O7 0.500000 0.000000 0.500000
O O8 0.268366 0.392529 0.955323
O O9 0.000000 0.211698 0.750000
O O10 0.129887 0.413751 0.268515
O O11 0.000000 0.218207 0.250000
O O12 0.500000 0.500000 0.500000
#
# Coordination Sequence:
#
# PCOD8116988 Si02
#       5
#     4   4   4   4   4
#     4  10  22  40  62  88 120 160 198 241 300 356
#     4  10  22  42  62  86 119 152 201 254 289 352
#     4   8  17  37  63  83 117 149 196 243 292 353
#     4  12  24  38  60  89 124 161 195 243 303 352
#     4  10  17  38  62  89 123 152 192 248 298 358
#
# _framework density 20.407249
#
# number of rings (size 3 to 8) (size 9 to 14) (size 15 to 20)
#    0.000    2.400    4.000    2.400    0.000    4.800 
#    0.000    4.000    0.000    0.000    0.000    0.000 
#    0.000    0.000    0.000    0.000    0.000    0.000 
#
# Total GULP energy -247783.041176 kJ/mol
# GULP energy per Si atom -12389.152059 kJ/mol
# Density = 2.036080 g / cm^3
# Si number density = 20.407249 Si / 1000 Ang^3
#
#
#
# Elastic Constant Matrix: (Units=GPa)
#
#
# Indices 1 2 3 4 5 6 
#
# 1 188.9611 48.3972 69.6004 0.0000 8.8628 0.0000
# 2 48.3972 138.2342 33.5748 0.0000 6.9894 0.0000
# 3 69.6004 33.5748 68.5810 0.0000 -1.0306 0.0000
# 4 0.0000 0.0000 0.0000 21.1389 0.0000 12.0794
# 5 8.8628 6.9894 -1.0306 0.0000 34.1249 0.0000
# 6 0.0000 0.0000 0.0000 12.0794 0.0000 13.5156
#
#
#
# Elastic Compliance Matrix: (Units=1/GPa)
#
#
# Indices 1 2 3 4 5 6 
#
# 1 0.008755 -0.000885 -0.008487 0.000000 -0.002349 0.000000
# 2 -0.000885 0.008412 -0.003244 0.000000 -0.001591 0.000000
# 3 -0.008487 -0.003244 0.024837 0.000000 0.003619 0.000000
# 4 0.000000 0.000000 0.000000 0.096684 0.000000 -0.086411
# 5 -0.002349 -0.001591 0.003619 0.000000 0.030349 0.000000
# 6 0.000000 0.000000 0.000000 -0.086411 0.000000 0.151218
#
#
# Mechanical properties :
#
#
# Convention : Reuss Voigt Hill
#
# Bulk Modulus (GPa) = 59.62334 77.65789 68.64061
# Shear Modulus (GPa) = 14.24179 30.03612 22.13895
#
# Velocity S-wave (km/s) = 2.64461 3.84061 3.29729
# Velocity P-wave (km/s) = 6.21333 7.60288 6.94295
#
# Compressibility (1/GPa) = 0.01677196
#
# Stress axis : x y z
#
# Youngs Moduli (GPa) = 114.21965 118.87278 40.26211
#
# Poissons Ratio (x) = 0.10521 0.34171
# Poissons Ratio (y) = 0.10109 0.13061
# Poissons Ratio (z) = 0.96941 0.38563
#
# Static dielectric constant tensor:
#      x y z
#    x 4.510040 0.000000 0.330580 
#    y 0.000000 3.616740 0.000000 
#    z 0.330580 0.000000 3.486180 
# 
# 
# High freq. dielectric constant tensor:
#      x y z
#    x 1.809980 0.000000 0.025250 
#    y 0.000000 1.779160 0.000000 
#    z 0.025250 0.000000 1.783750 
# 
# From -- ./inp_files/51238.got.cif
#   From: 2010.06.25/outbox.cif.g09.slc.cpg/sg13_26_cif.got.tgz:51238.got - 2010.06.28 04:50:58.
