data_PCOD8116649
_publ_section_title
;
Structure prediction by ZEFSAII (Michael W. Deem and Ramdas Pophale) SiO2 
 PCOD8116649
Probable space group: P 2/C
;
_chemical_formula_sum "Si O2"
_cell_formula_units_Z 26
_cell_length_a 25.553992
_cell_length_b 7.554172
_cell_length_c 11.968468
_cell_angle_alpha 90.000000
_cell_angle_beta 32.389465
_cell_angle_gamma 90.000000
_cell_volume 1237.607005
_symmetry_space_group_name_H-M "P 2/C"
_symmetry_group_IT_number 13
_symmetry_cell_setting 'monoclinic'
loop_
_space_group_symop_operation_xyz
x,y,z
-x,y,1/2-z
-x,-y,-z
x,-y,1/2+z
loop_
_atom_site_type_symbol
_atom_site_label
_atom_site_fract_x
_atom_site_fract_y
_atom_site_fract_z
Si Si1 0.531938 0.793492 0.315491
Si Si2 0.000000 0.641730 0.750000
Si Si3 0.384663 0.844201 0.778577
Si Si4 0.847945 0.644660 0.604007
Si Si5 0.686431 0.492744 0.541427
Si Si6 0.989471 0.709149 0.530495
Si Si7 0.811844 0.756837 0.434596
O O1 0.500000 0.728593 0.250000
O O2 0.442514 0.792230 0.561915
O O3 0.616303 0.664349 0.211512
O O4 0.570672 0.994133 0.234027
O O5 0.089912 0.522488 0.548834
O O6 0.031115 0.760207 0.802144
O O7 0.380254 0.667556 0.864650
O O8 0.273250 0.896586 0.943733
O O9 0.900293 0.759306 0.608363
O O10 0.834568 0.775545 0.524317
O O11 0.741835 0.574802 0.831598
O O12 0.769401 0.557031 0.482155
O O13 0.000000 0.500000 0.500000
O O14 0.090002 0.802318 0.310886
#
# Coordination Sequence:
#
# PCOD8116649 Si02
#       7
#     4   2   4   4   4   4   4
#     4  11  22  41  61  80 113 153 190 240 299 349
#     4  10  14  24  44  74 122 150 186 224 270 338
#     4   9  22  41  57  82 116 147 190 241 295 345
#     4  11  16  29  53  88 115 151 195 231 280 342
#     4  10  21  35  58  90 110 147 196 237 286 344
#     4  10  15  26  48  82 118 153 188 231 277 337
#     4  10  18  32  52  87 116 144 196 235 280 343
#
# _framework density 21.008285000000001
#
# number of rings (size 3 to 8) (size 9 to 14) (size 15 to 20)
#    0.923    0.923    6.154    1.385    0.000    0.615 
#    5.538    0.000    0.000    0.923    0.000    3.231 
#    0.000    0.000    0.000    0.000    0.000    0.000 
#
# Total GULP energy -322100.733916 kJ/mol
# GULP energy per Si atom -12388.489766 kJ/mol
# Density = 2.096047 g / cm^3
# Si number density = 21.008285 Si / 1000 Ang^3
#
#
#
# Elastic Constant Matrix: (Units=GPa)
#
#
# Indices 1 2 3 4 5 6 
#
# 1 111.0950 3.7695 35.8318 0.0000 21.1729 0.0000
# 2 3.7695 45.3695 27.3811 0.0000 -5.3544 0.0000
# 3 35.8318 27.3811 118.1148 0.0000 -4.4825 0.0000
# 4 0.0000 0.0000 0.0000 12.8812 0.0000 -0.8839
# 5 21.1729 -5.3544 -4.4825 0.0000 30.6720 0.0000
# 6 0.0000 0.0000 0.0000 -0.8839 0.0000 9.2081
#
#
#
# Elastic Compliance Matrix: (Units=1/GPa)
#
#
# Indices 1 2 3 4 5 6 
#
# 1 0.011971 0.000420 -0.004063 0.000000 -0.008784 0.000000
# 2 0.000420 0.026049 -0.006038 0.000000 0.003375 0.000000
# 3 -0.004063 -0.006038 0.011227 0.000000 0.003391 0.000000
# 4 0.000000 0.000000 0.000000 0.078147 0.000000 0.007501
# 5 -0.008784 0.003375 0.003391 0.000000 0.039752 0.000000
# 6 0.000000 0.000000 0.000000 0.007501 0.000000 0.109320
#
#
# Mechanical properties :
#
#
# Convention : Reuss Voigt Hill
#
# Bulk Modulus (GPa) = 33.45933 45.39379 39.42656
# Shear Modulus (GPa) = 16.35118 24.39205 20.37162
#
# Velocity S-wave (km/s) = 2.79287 3.41114 3.11737
# Velocity P-wave (km/s) = 5.13434 6.09664 5.63606
#
# Compressibility (1/GPa) = 0.02988703
#
# Stress axis : x y z
#
# Youngs Moduli (GPa) = 83.53187 38.38980 89.06954
#
# Poissons Ratio (x) = -0.01614 0.36185
# Poissons Ratio (y) = -0.03512 0.53780
# Poissons Ratio (z) = 0.33935 0.23180
#
# Static dielectric constant tensor:
#      x y z
#    x 6.124930 0.000000 0.356120 
#    y 0.000000 3.226830 0.000000 
#    z 0.356120 0.000000 4.038520 
# 
# 
# High freq. dielectric constant tensor:
#      x y z
#    x 1.814330 0.000000 -0.005490 
#    y 0.000000 1.770540 0.000000 
#    z -0.005490 0.000000 1.839430 
# 
# From -- ./inp_files/42255.got.cif
#   From: 2010.06.25/outbox.cif.g09.slc.cpg/sg13_22_cif.got.tgz:42255.got - 2010.06.28 04:50:58.
