data_PCOD8116765
_publ_section_title
;
Structure prediction by ZEFSAII (Michael W. Deem and Ramdas Pophale) SiO2 
 PCOD8116765
Probable space group: P 2/C
;
_chemical_formula_sum "Si O2"
_cell_formula_units_Z 24
_cell_length_a 19.895182
_cell_length_b 9.037706
_cell_length_c 9.723308
_cell_angle_alpha 90.000000
_cell_angle_beta 53.707962
_cell_angle_gamma 90.000000
_cell_volume 1409.161895
_symmetry_space_group_name_H-M "P 2/C"
_symmetry_group_IT_number 13
_symmetry_cell_setting 'monoclinic'
loop_
_space_group_symop_operation_xyz
x,y,z
-x,y,1/2-z
-x,-y,-z
x,-y,1/2+z
loop_
_atom_site_type_symbol
_atom_site_label
_atom_site_fract_x
_atom_site_fract_y
_atom_site_fract_z
Si Si1 0.210417 0.122279 0.959074
Si Si2 0.942637 0.964328 0.442470
Si Si3 0.657300 0.648785 0.215331
Si Si4 0.505864 0.855567 0.401271
Si Si5 0.220287 0.136043 0.265451
Si Si6 0.643616 0.365940 0.416994
O O1 0.249211 0.283764 0.878192
O O2 0.259021 0.997318 0.810358
O O3 0.224431 0.085580 0.102060
O O4 0.111297 0.110287 0.040467
O O5 0.876006 0.838057 0.569165
O O6 0.000000 0.904032 0.250000
O O7 0.000000 0.000000 0.500000
O O8 0.594010 0.780457 0.325487
O O9 0.638742 0.516308 0.339689
O O10 0.643365 0.591236 0.077549
O O11 0.500000 0.904568 0.250000
O O12 0.433375 0.739453 0.527119
O O13 0.500000 0.000000 0.500000
O O14 0.270815 0.285432 0.229421
#
# Coordination Sequence:
#
# PCOD8116765 Si02
#       6
#     4   4   4   4   4   4
#     4   9  18  31  51  77 104 130 171 215 260 301
#     4  10  16  30  52  79 100 130 167 218 264 311
#     4  10  21  36  52  76 109 144 175 209 257 306
#     4  10  21  36  56  80 108 136 178 219 253 298
#     4   9  18  31  51  77 104 129 172 216 259 300
#     4  10  21  36  52  76 109 143 175 212 253 309
#
# _framework density 17.031399
#
# number of rings (size 3 to 8) (size 9 to 14) (size 15 to 20)
#    1.000    1.333    1.667    1.500    0.000    2.667 
#    0.000    0.000    0.000    2.000    0.000    0.000 
#    0.000    0.000    0.000    0.000    0.000    0.000 
#
# Total GULP energy -297394.140813 kJ/mol
# GULP energy per Si atom -12391.422534 kJ/mol
# Density = 1.699264 g / cm^3
# Si number density = 17.031399 Si / 1000 Ang^3
#
#
#
# Elastic Constant Matrix: (Units=GPa)
#
#
# Indices 1 2 3 4 5 6 
#
# 1 84.7055 39.4186 42.0818 0.0000 -0.0484 0.0000
# 2 39.4186 95.3286 63.1725 0.0000 13.0474 0.0000
# 3 42.0818 63.1725 120.2732 0.0000 3.3882 0.0000
# 4 0.0000 0.0000 0.0000 33.6674 0.0000 4.3457
# 5 -0.0484 13.0474 3.3882 0.0000 28.8503 0.0000
# 6 0.0000 0.0000 0.0000 4.3457 0.0000 9.9356
#
#
#
# Elastic Compliance Matrix: (Units=1/GPa)
#
#
# Indices 1 2 3 4 5 6 
#
# 1 0.015518 -0.004784 -0.002988 0.000000 0.002541 0.000000
# 2 -0.004784 0.018796 -0.007985 0.000000 -0.007571 0.000000
# 3 -0.002988 -0.007985 0.013497 0.000000 0.002021 0.000000
# 4 0.000000 0.000000 0.000000 0.031480 0.000000 -0.013769
# 5 0.002541 -0.007571 0.002021 0.000000 0.037852 0.000000
# 6 0.000000 0.000000 0.000000 -0.013769 0.000000 0.106671
#
#
# Mechanical properties :
#
#
# Convention : Reuss Voigt Hill
#
# Bulk Modulus (GPa) = 61.36519 65.51701 63.44110
# Shear Modulus (GPa) = 19.17461 24.86630 22.02046
#
# Velocity S-wave (km/s) = 3.35899 3.82518 3.59964
# Velocity P-wave (km/s) = 7.15211 7.61979 7.38965
#
# Compressibility (1/GPa) = 0.01629588
#
# Stress axis : x y z
#
# Youngs Moduli (GPa) = 64.44132 53.20213 74.08916
#
# Poissons Ratio (x) = 0.25453 0.22140
# Poissons Ratio (y) = 0.30830 0.59163
# Poissons Ratio (z) = 0.19257 0.42484
#
# Static dielectric constant tensor:
#      x y z
#    x 3.311060 0.000000 -0.101610 
#    y 0.000000 2.830990 0.000000 
#    z -0.101610 0.000000 3.082490 
# 
# 
# High freq. dielectric constant tensor:
#      x y z
#    x 1.663540 0.000000 -0.000500 
#    y 0.000000 1.620780 0.000000 
#    z -0.000500 0.000000 1.672950 
# 
# From -- ./inp_files/22497.got.cif
#   From: 2010.06.25/outbox.cif.g09.slc.cpg/sg13_12_cif.got.tgz:22497.got - 2010.06.28 04:50:58.
