data_PCOD8116022
_publ_section_title
;
Structure prediction by ZEFSAII (Michael W. Deem and Ramdas Pophale) SiO2 
 PCOD8116022
Probable space group: C 2/M
;
_chemical_formula_sum "Si O2"
_cell_formula_units_Z 64
_cell_length_a 28.083350
_cell_length_b 9.808082
_cell_length_c 14.724418
_cell_angle_alpha 90.000000
_cell_angle_beta 89.633848
_cell_angle_gamma 90.000000
_cell_volume 4055.666825
_symmetry_space_group_name_H-M "C 2/M"
_symmetry_group_IT_number 12
_symmetry_cell_setting 'monoclinic'
loop_
_space_group_symop_operation_xyz
x,y,z
-x,y,-z
-x,-y,-z
x,-y,z
1/2+x,1/2+y,z
1/2-x,1/2+y,-z
1/2-x,1/2-y,-z
1/2+x,1/2-y,z
loop_
_atom_site_type_symbol
_atom_site_label
_atom_site_fract_x
_atom_site_fract_y
_atom_site_fract_z
Si Si1 0.657153 0.349432 0.789203
Si Si2 0.395224 0.161800 0.645031
Si Si3 0.408578 0.847320 0.300170
Si Si4 0.725581 0.652198 0.616425
Si Si5 0.256160 0.661152 0.088722
Si Si6 0.805875 0.661162 0.745817
Si Si7 0.659497 0.152401 0.527737
Si Si8 0.501989 0.162673 0.396629
O O1 0.635850 0.500000 0.806723
O O2 0.612789 0.245257 0.780611
O O3 0.687980 0.350825 0.698246
O O4 0.691376 0.307951 0.872255
O O5 0.360991 0.207812 0.729567
O O6 0.372563 0.216214 0.551697
O O7 0.449316 0.216356 0.652224
O O8 0.397509 0.000000 0.640144
O O9 0.371618 0.851683 0.382131
O O10 0.458066 0.782910 0.336679
O O11 0.416539 0.000000 0.261501
O O12 0.730075 0.500000 0.575025
O O13 0.775740 0.706291 0.656868
O O14 0.706950 0.756530 0.539676
O O15 0.249861 0.500000 0.068439
O O16 0.216015 0.717274 0.160110
O O17 0.250000 0.750000 0.000000
O O18 0.800738 0.500000 0.751501
O O19 0.676739 0.000000 0.501774
O O20 0.500000 0.219002 0.500000
O O21 0.498903 0.000000 0.400228
#
# Coordination Sequence:
#
# PCOD8116022 Si02
#       8
#     8   8   8   8   8   8   8   8
#     4   8  15  27  41  58  82 110 134 160 202 253
#     4   9  15  23  37  56  80 111 143 172 204 241
#     4   9  15  23  38  60  84 108 140 181 209 227
#     4   8  14  25  38  51  75 109 139 165 195 235
#     4   9  17  30  48  68  87 106 131 164 205 255
#     4   8  15  27  40  56  80 109 137 163 198 250
#     4   9  15  22  35  56  78 105 142 175 200 228
#     4   9  14  22  36  57  84 112 144 182 215 235
#
# _framework density 15.780388
#
# number of rings (size 3 to 8) (size 9 to 14) (size 15 to 20)
#    0.000    3.375    1.250    1.500    0.000    1.000 
#    0.000    1.875    0.000    1.875    0.000    0.875 
#    0.000    7.000    0.000    0.000    0.000    0.000 
#
# Total GULP energy -396468.178612 kJ/mol
# GULP energy per Si atom -12389.630582 kJ/mol
# Density = 1.574447 g / cm^3
# Si number density = 15.780388 Si / 1000 Ang^3
#
#
#
# Elastic Constant Matrix: (Units=GPa)
#
#
# Indices 1 2 3 4 5 6 
#
# 1 126.0914 38.2844 40.4977 0.0000 6.6011 0.0000
# 2 38.2844 45.2075 25.6733 0.0000 10.7557 0.0000
# 3 40.4977 25.6733 51.5741 0.0000 10.8465 0.0000
# 4 0.0000 0.0000 0.0000 11.2645 0.0000 10.8647
# 5 6.6011 10.7557 10.8465 0.0000 20.0840 0.0000
# 6 0.0000 0.0000 0.0000 10.8647 0.0000 15.3550
#
#
#
# Elastic Compliance Matrix: (Units=1/GPa)
#
#
# Indices 1 2 3 4 5 6 
#
# 1 0.012087 -0.007335 -0.006577 0.000000 0.003508 0.000000
# 2 -0.007335 0.036902 -0.010109 0.000000 -0.011892 0.000000
# 3 -0.006577 -0.010109 0.031580 0.000000 -0.009480 0.000000
# 4 0.000000 0.000000 0.000000 0.279564 0.000000 -0.197811
# 5 0.003508 -0.011892 -0.009480 0.000000 0.060126 0.000000
# 6 0.000000 0.000000 0.000000 -0.197811 0.000000 0.205090
#
#
# Mechanical properties :
#
#
# Convention : Reuss Voigt Hill
#
# Bulk Modulus (GPa) = 30.74414 47.97597 39.36005
# Shear Modulus (GPa) = 7.30744 17.23521 12.27133
#
# Velocity S-wave (km/s) = 2.15424 3.30842 2.79163
# Velocity P-wave (km/s) = 5.07075 6.71286 5.94874
#
# Compressibility (1/GPa) = 0.03252652
#
# Stress axis : x y z
#
# Youngs Moduli (GPa) = 82.73578 27.09862 31.66556
#
# Poissons Ratio (x) = 0.19877 0.20827
# Poissons Ratio (y) = 0.60687 0.32011
# Poissons Ratio (z) = 0.54417 0.27394
#
# Static dielectric constant tensor:
#      x y z
#    x 3.314970 0.000000 0.025850 
#    y 0.000000 2.940230 0.000000 
#    z 0.025850 0.000000 2.732980 
# 
# 
# High freq. dielectric constant tensor:
#      x y z
#    x 1.609170 0.000000 0.001900 
#    y 0.000000 1.566670 0.000000 
#    z 0.001900 0.000000 1.569650 
# 
# From -- ./inp_files/248242.got.cif
#   From: 2010.06.25/outbox.cif.g09.slc.cpg/sg12_125_cif.got.tgz:248242.got - 2010.06.28 00:19:55.
