data_PCOD8116226
_publ_section_title
;
Structure prediction by ZEFSAII (Michael W. Deem and Ramdas Pophale) SiO2 
 PCOD8116226
Probable space group: C 2/M
;
_chemical_formula_sum "Si O2"
_cell_formula_units_Z 24
_cell_length_a 30.000000
_cell_length_b 9.000000
_cell_length_c 9.000000
_cell_angle_alpha 90.000000
_cell_angle_beta 90.000000
_cell_angle_gamma 90.000000
_cell_volume 2430.000000
_symmetry_space_group_name_H-M "C 2/M"
_symmetry_group_IT_number 12
_symmetry_cell_setting 'monoclinic'
loop_
_space_group_symop_operation_xyz
x,y,z
-x,y,-z
-x,-y,-z
x,-y,z
1/2+x,1/2+y,z
1/2-x,1/2+y,-z
1/2-x,1/2-y,-z
1/2+x,1/2-y,z
loop_
_atom_site_type_symbol
_atom_site_label
_atom_site_fract_x
_atom_site_fract_y
_atom_site_fract_z
Si Si1 0.504126 0.837050 0.177468
Si Si2 0.744252 0.837104 0.354051
Si Si3 0.422796 0.337328 0.196867
Si Si4 0.913999 0.837562 0.846359
Si Si5 0.674137 0.824871 0.130367
Si Si6 0.828517 0.164621 0.163231
O O1 0.459020 0.778777 0.254365
O O2 0.543262 0.730813 0.234799
O O3 0.513654 0.000000 0.239365
O O4 0.500000 0.838930 0.000000
O O5 0.750000 0.750000 0.500000
O O6 0.710686 0.756692 0.241535
O O7 0.792850 0.846149 0.288614
O O8 0.725607 0.000000 0.391349
O O9 0.432857 0.500000 0.264714
O O10 0.373864 0.277482 0.241561
O O11 0.424311 0.346387 0.019358
O O12 0.873270 0.729283 0.813237
O O13 0.904402 0.000000 0.779215
O O14 0.676063 0.000000 0.126785
O O15 0.687337 0.770749 0.967391
O O16 0.838554 0.000000 0.094631
#
# Coordination Sequence:
#
# PCOD8116226 Si02
#       6
#     8   8   8   8   8   8
#     4   9  15  22  35  59  92 124 154 191 233 277
#     4  10  22  37  52  72  98 128 163 202 244 291
#     4   8  14  24  39  60  89 123 156 190 230 279
#     4   9  16  26  41  62  91 127 161 192 233 284
#     4  10  19  31  49  74 100 126 161 204 245 285
#     4   9  18  33  51  72  98 129 164 200 240 288
#
# _framework density 9.8765429999999999
#
# number of rings (size 3 to 8) (size 9 to 14) (size 15 to 20)
#    0.000    2.833    0.000    3.000    0.000    8.000 
#    0.000    0.000    0.000    0.000    0.000    1.167 
#    0.000    9.333    0.000    0.000    0.000    0.000 
#
# Total GULP energy -297325.218833 kJ/mol
# GULP energy per Si atom -12388.550785 kJ/mol
# Density = 0.985406 g / cm^3
# Si number density = 9.876543 Si / 1000 Ang^3
#
#
#
# Elastic Constant Matrix: (Units=GPa)
#
#
# Indices 1 2 3 4 5 6 
#
# 1 47.2030 15.5951 38.2455 0.0000 -7.7712 0.0000
# 2 15.5951 57.0611 38.6709 0.0000 -4.4234 0.0000
# 3 38.2455 38.6709 25.6392 0.0000 -5.2379 0.0000
# 4 0.0000 0.0000 0.0000 11.7312 0.0000 0.8122
# 5 -7.7712 -4.4234 -5.2379 0.0000 -22.4857 0.0000
# 6 0.0000 0.0000 0.0000 0.8122 0.0000 23.9900
#
#
#
# Elastic Compliance Matrix: (Units=1/GPa)
#
#
# Indices 1 2 3 4 5 6 
#
# 1 0.000426 -0.023862 0.034635 0.000000 -0.003521 0.000000
# 2 -0.023862 0.005583 0.027333 0.000000 0.000781 0.000000
# 3 0.034635 0.027333 -0.054823 0.000000 -0.004577 0.000000
# 4 0.000000 0.000000 0.000000 0.085443 0.000000 -0.002893
# 5 -0.003521 0.000781 -0.004577 0.000000 -0.042343 0.000000
# 6 0.000000 0.000000 0.000000 -0.002893 0.000000 0.041782
#
#
# Mechanical properties :
#
#
# Convention : Reuss Voigt Hill
#
# Bulk Modulus (GPa) = 36.49702 34.99181 35.74442
# Shear Modulus (GPa) = -161.23719 5.13989 -78.04865
#
# Velocity S-wave (km/s) = -9.04453 1.61484 -6.29269
# Velocity P-wave (km/s) = 9.51602 4.60760 5.88747
#
# Compressibility (1/GPa) = 0.02739950
#
# Stress axis : x y z
#
# Youngs Moduli (GPa) = 2344.86852 179.10201 -18.24067
#
# Poissons Ratio (x) = 4.27376 0.63177
# Poissons Ratio (y) = 55.95367 0.49857
# Poissons Ratio (z) = -81.21496 -4.89541
#
# Static dielectric constant tensor:
#      x y z
#    x 4.268700 0.000000 0.119900 
#    y 0.000000 3.211610 0.000000 
#    z 0.119900 0.000000 2.754170 
# 
# 
# High freq. dielectric constant tensor:
#      x y z
#    x 1.774200 0.000000 -0.000250 
#    y 0.000000 1.759790 0.000000 
#    z -0.000250 0.000000 1.679490 
# 
# From -- ./inp_files/108641.got.cif
#   From: 2010.06.25/outbox.ucp.g09.slc.cvg/sg12_55_cif.got.tgz:108641.got - 2010.06.28 13:50:54.
