data_PCOD8116645
_publ_section_title
;
Structure prediction by ZEFSAII (Michael W. Deem and Ramdas Pophale) SiO2 
 PCOD8116645
Probable space group: P 2/C
;
_chemical_formula_sum "Si O2"
_cell_formula_units_Z 28
_cell_length_a 7.483460
_cell_length_b 33.081270
_cell_length_c 5.413223
_cell_angle_alpha 90.000000
_cell_angle_beta 55.252198
_cell_angle_gamma 90.000000
_cell_volume 1101.126799
_symmetry_space_group_name_H-M "P 2/C"
_symmetry_group_IT_number 13
_symmetry_cell_setting 'monoclinic'
loop_
_space_group_symop_operation_xyz
x,y,z
-x,y,1/2-z
-x,-y,-z
x,-y,1/2+z
loop_
_atom_site_type_symbol
_atom_site_label
_atom_site_fract_x
_atom_site_fract_y
_atom_site_fract_z
Si Si1 0.377252 0.772177 0.605608
Si Si2 0.758498 0.143781 0.305712
Si Si3 0.135278 0.396264 0.393658
Si Si4 0.745299 0.981347 0.412108
Si Si5 0.863658 0.691855 0.607362
Si Si6 0.750200 0.516351 0.692910
Si Si7 0.269261 0.111521 0.671500
O O1 0.500000 0.788898 0.750000
O O2 0.199486 0.807685 0.710778
O O3 0.303107 0.728003 0.746052
O O4 0.500000 0.767405 0.250000
O O5 0.501681 0.133464 0.504787
O O6 0.862986 0.125376 0.477162
O O7 0.859238 0.124456 0.976941
O O8 0.254920 0.352365 0.312990
O O9 0.287156 0.435377 0.256056
O O10 0.000000 0.396376 0.250000
O O11 0.000000 0.402129 0.750000
O O12 0.700609 0.936280 0.356472
O O13 0.000000 0.990722 0.250000
O O14 0.646510 0.989806 0.767537
O O15 0.000000 0.694131 0.750000
O O16 0.000000 0.698206 0.250000
O O17 0.637164 0.503522 0.523056
O O18 0.000000 0.500000 0.500000
#
# Coordination Sequence:
#
# PCOD8116645 Si02
#       7
#     4   4   4   4   4   4   4
#     4  12  21  40  66  85 113 158 203 240 297 358
#     4  10  19  35  56  80 106 133 177 241 282 311
#     4  10  16  27  42  64 105 145 172 223 291 340
#     4  10  21  37  55  77 112 152 181 214 265 338
#     4  10  23  38  55  84 122 156 186 244 304 357
#     4  10  14  20  36  63  90 136 177 219 268 348
#     4  10  18  35  56  81 105 137 178 227 274 313
#
# _framework density 25.428498999999999
#
# number of rings (size 3 to 8) (size 9 to 14) (size 15 to 20)
#    0.000    1.714    5.714    1.714    0.000    0.000 
#    0.000   10.714    0.000    0.000    0.000    0.000 
#    0.000    3.429    0.000    0.000    0.000    0.000 
#
# Total GULP energy -346967.977629 kJ/mol
# GULP energy per Si atom -12391.713487 kJ/mol
# Density = 2.537062 g / cm^3
# Si number density = 25.428499 Si / 1000 Ang^3
#
#
#
# Elastic Constant Matrix: (Units=GPa)
#
#
# Indices 1 2 3 4 5 6 
#
# 1 110.5660 23.4982 55.9428 0.0000 48.2018 0.0000
# 2 23.4982 248.1919 73.8613 0.0000 25.2067 0.0000
# 3 55.9428 73.8613 227.3790 0.0000 55.5670 0.0000
# 4 0.0000 0.0000 0.0000 62.7502 0.0000 -0.9580
# 5 48.2018 25.2067 55.5670 0.0000 46.7043 0.0000
# 6 0.0000 0.0000 0.0000 -0.9580 0.0000 31.7356
#
#
#
# Elastic Compliance Matrix: (Units=1/GPa)
#
#
# Indices 1 2 3 4 5 6 
#
# 1 0.016451 0.000158 0.000101 0.000000 -0.017183 0.000000
# 2 0.000158 0.004493 -0.001221 0.000000 -0.001135 0.000000
# 3 0.000101 -0.001221 0.006534 0.000000 -0.007219 0.000000
# 4 0.000000 0.000000 0.000000 0.015944 0.000000 0.000481
# 5 -0.017183 -0.001135 -0.007219 0.000000 0.048347 0.000000
# 6 0.000000 0.000000 0.000000 0.000481 0.000000 0.031525
#
#
# Mechanical properties :
#
#
# Convention : Reuss Voigt Hill
#
# Bulk Modulus (GPa) = 39.13491 99.19351 69.16421
# Shear Modulus (GPa) = 37.38711 57.09365 47.24038
#
# Velocity S-wave (km/s) = 3.83859 4.74356 4.31487
# Velocity P-wave (km/s) = 5.92199 8.31236 7.21683
#
# Compressibility (1/GPa) = 0.02555263
#
# Stress axis : x y z
#
# Youngs Moduli (GPa) = 60.78583 222.57796 153.04846
#
# Poissons Ratio (x) = -0.03510 -0.01539
# Poissons Ratio (y) = -0.00959 0.18685
# Poissons Ratio (z) = -0.00611 0.27173
#
# Static dielectric constant tensor:
#      x y z
#    x 4.818680 0.000000 0.778950 
#    y 0.000000 4.946800 0.000000 
#    z 0.778950 0.000000 5.475120 
# 
# 
# High freq. dielectric constant tensor:
#      x y z
#    x 2.035140 0.000000 0.029590 
#    y 0.000000 2.022860 0.000000 
#    z 0.029590 0.000000 2.055310 
# 
# From -- ./inp_files/2676.got.cif
#   From: 2010.06.25/outbox.cif.g09.slc.cpg/sg13_2_cif.got.tgz:2676.got - 2010.06.28 04:50:58.
