data_PCOD8116254
_publ_section_title
;
Structure prediction by ZEFSAII (Michael W. Deem and Ramdas Pophale) SiO2 
 PCOD8116254
Probable space group: C 2/M
;
_chemical_formula_sum "Si O2"
_cell_formula_units_Z 32
_cell_length_a 24.000000
_cell_length_b 9.000000
_cell_length_c 30.000000
_cell_angle_alpha 90.000000
_cell_angle_beta 30.000000
_cell_angle_gamma 90.000000
_cell_volume 3240.000000
_symmetry_space_group_name_H-M "C 2/M"
_symmetry_group_IT_number 12
_symmetry_cell_setting 'monoclinic'
loop_
_space_group_symop_operation_xyz
x,y,z
-x,y,-z
-x,-y,-z
x,-y,z
1/2+x,1/2+y,z
1/2-x,1/2+y,-z
1/2-x,1/2-y,-z
1/2+x,1/2-y,z
loop_
_atom_site_type_symbol
_atom_site_label
_atom_site_fract_x
_atom_site_fract_y
_atom_site_fract_z
Si Si1 0.735304 0.671333 0.929976
Si Si2 0.957992 0.330929 0.889475
Si Si3 0.674011 0.176748 0.787300
Si Si4 0.590037 0.669648 0.405164
Si Si5 0.854693 0.167450 0.407017
Si Si6 0.941536 0.162721 0.672634
Si Si7 0.982511 0.669399 0.769440
Si Si8 0.232163 0.831253 0.833793
O O1 0.746090 0.500000 0.936757
O O2 0.860740 0.739097 0.842219
O O3 0.680260 0.690102 0.919097
O O4 0.657219 0.747504 0.020674
O O5 0.938731 0.500000 0.917493
O O6 0.995241 0.318198 0.813172
O O7 0.061246 0.258440 0.844568
O O8 0.784320 0.239654 0.684901
O O9 0.672462 0.224947 0.839966
O O10 0.677268 0.000000 0.782935
O O11 0.500000 0.751410 0.500000
O O12 0.603341 0.500000 0.412038
O O13 0.534915 0.685312 0.395418
O O14 0.750000 0.250000 0.500000
O O15 0.939264 0.171345 0.388733
O O16 0.913689 0.243039 0.323643
O O17 0.821431 0.000000 0.416451
O O18 0.862848 0.290696 0.746785
O O19 0.885483 0.000000 0.719483
O O20 0.989898 0.500000 0.747501
O O21 0.219663 0.000000 0.826345
#
# Coordination Sequence:
#
# PCOD8116254 Si02
#       8
#     8   8   8   8   8   8   8   8
#     4  10  21  36  57  83 112 147 189 237 289 345
#     4  10  22  37  57  82 112 152 191 237 289 339
#     4   9  19  35  52  78 112 144 184 233 284 336
#     4   8  14  27  51  77 100 130 173 223 271 320
#     4  11  23  37  57  85 115 151 191 234 286 336
#     4   9  18  33  53  78 106 140 183 229 273 327
#     4  10  21  40  60  82 114 149 191 240 287 339
#     4  10  19  33  56  81 107 145 182 226 284 335
#
# _framework density 9.8765429999999999
#
# number of rings (size 3 to 8) (size 9 to 14) (size 15 to 20)
#    0.000    2.375    1.250    1.875    0.000    4.500 
#    0.000    6.250    0.000    6.000    0.000    0.000 
#    0.000    0.000    0.000    0.000    0.000    0.000 
#
# Total GULP energy -396544.774293 kJ/mol
# GULP energy per Si atom -12392.024197 kJ/mol
# Density = 0.985406 g / cm^3
# Si number density = 9.876543 Si / 1000 Ang^3
#
#
#
# Elastic Constant Matrix: (Units=GPa)
#
#
# Indices 1 2 3 4 5 6 
#
# 1 49.9013 17.3473 23.7222 -0.0114 -4.4765 0.0997
# 2 17.3473 52.0661 43.5582 -0.0188 4.6346 0.0997
# 3 23.7222 43.5582 117.0481 0.0010 6.1059 0.0424
# 4 -0.0114 -0.0188 0.0010 30.9545 -0.0032 1.8628
# 5 -4.4765 4.6346 6.1059 -0.0032 17.4437 -0.0107
# 6 0.0997 0.0997 0.0424 1.8628 -0.0107 19.5621
#
#
#
# Elastic Compliance Matrix: (Units=1/GPa)
#
#
# Indices 1 2 3 4 5 6 
#
# 1 0.024541 -0.006428 -0.003055 0.000011 0.009075 -0.000082
# 2 -0.006428 0.029829 -0.009471 0.000022 -0.006260 -0.000104
# 3 -0.003055 -0.009471 0.012831 -0.000010 -0.002759 0.000035
# 4 0.000011 0.000022 -0.000010 0.032492 0.000005 -0.003094
# 5 0.009075 -0.006260 -0.002759 0.000005 0.062285 0.000025
# 6 -0.000082 -0.000104 0.000035 -0.003094 0.000025 0.051415
#
#
# Mechanical properties :
#
#
# Convention : Reuss Voigt Hill
#
# Bulk Modulus (GPa) = 34.13885 43.14123 38.64004
# Shear Modulus (GPa) = 19.15231 22.55126 20.85179
#
# Velocity S-wave (km/s) = 3.11720 3.38251 3.25256
# Velocity P-wave (km/s) = 5.50238 6.09449 5.80599
#
# Compressibility (1/GPa) = 0.02929214
#
# Stress axis : x y z
#
# Youngs Moduli (GPa) = 40.74860 33.52433 77.93563
#
# Poissons Ratio (x) = 0.21551 0.23807
# Poissons Ratio (y) = 0.26195 0.73814
# Poissons Ratio (z) = 0.12448 0.31751
#
# Static dielectric constant tensor:
#      x y z
#    x 3.745710 -0.000190 -0.119010 
#    y -0.000190 3.494960 0.000090 
#    z -0.119010 0.000090 3.673950 
# 
# 
# High freq. dielectric constant tensor:
#      x y z
#    x 1.763540 -0.000010 0.003980 
#    y -0.000010 1.740490 0.000000 
#    z 0.003980 0.000000 1.771700 
# 
# From -- ./inp_files/382390.got.cif
#   From: 2010.06.25/outbox.ucp.g09.slc.cvg/sg12_192_cif.got.tgz:382390.got - 2010.06.28 13:50:54.
