data_PCOD8116095
_publ_section_title
;
Structure prediction by ZEFSAII (Michael W. Deem and Ramdas Pophale) SiO2 
 PCOD8116095
Probable space group: C 2/M
;
_chemical_formula_sum "Si O2"
_cell_formula_units_Z 48
_cell_length_a 30.470519
_cell_length_b 9.253224
_cell_length_c 10.424113
_cell_angle_alpha 90.000000
_cell_angle_beta 102.781709
_cell_angle_gamma 90.000000
_cell_volume 2866.253849
_symmetry_space_group_name_H-M "C 2/M"
_symmetry_group_IT_number 12
_symmetry_cell_setting 'monoclinic'
loop_
_space_group_symop_operation_xyz
x,y,z
-x,y,-z
-x,-y,-z
x,-y,z
1/2+x,1/2+y,z
1/2-x,1/2+y,-z
1/2-x,1/2-y,-z
1/2+x,1/2-y,z
loop_
_atom_site_type_symbol
_atom_site_label
_atom_site_fract_x
_atom_site_fract_y
_atom_site_fract_z
Si Si1 0.788815 0.836816 0.863749
Si Si2 0.883490 0.666806 0.209407
Si Si3 0.703314 0.663263 0.826297
Si Si4 0.124448 0.666543 0.095421
Si Si5 0.018943 0.672015 0.645590
Si Si6 0.029911 0.671839 0.135119
O O1 0.744768 0.749529 0.789414
O O2 0.833053 0.761704 0.833836
O O3 0.785629 0.000000 0.809581
O O4 0.791659 0.834576 0.018238
O O5 0.873524 0.500000 0.234531
O O6 0.843168 0.760216 0.243445
O O7 0.929494 0.721450 0.304214
O O8 0.888232 0.690166 0.060810
O O9 0.703440 0.500000 0.773638
O O10 0.136755 0.500000 0.128904
O O11 0.081860 0.718003 0.151848
O O12 0.016547 0.500000 0.645361
O O13 0.988504 0.733687 0.742081
O O14 0.000000 0.735320 0.500000
O O15 0.025915 0.500000 0.129027
O O16 0.000000 0.736712 0.000000
#
# Coordination Sequence:
#
# PCOD8116095 Si02
#       6
#     8   8   8   8   8   8
#     4   9  16  25  37  57  86 113 138 173 217 259
#     4   9  15  24  39  59  83 112 144 177 214 252
#     4   9  16  25  38  57  83 113 143 173 211 260
#     4   9  15  23  39  60  83 112 145 176 209 253
#     4   9  16  25  39  62  89 114 145 184 217 248
#     4   9  14  23  39  60  84 114 148 178 212 254
#
# _framework density 16.746597999999999
#
# number of rings (size 3 to 8) (size 9 to 14) (size 15 to 20)
#    0.000    3.000    1.667    1.000    0.000    4.000 
#    0.000    0.000    0.000    2.000    0.000    1.167 
#    0.000    0.000    0.000    0.000    0.000    0.000 
#
# Total GULP energy -297529.881755 kJ/mol
# GULP energy per Si atom -12397.078406 kJ/mol
# Density = 1.670848 g / cm^3
# Si number density = 16.746598 Si / 1000 Ang^3
#
#
#
# Elastic Constant Matrix: (Units=GPa)
#
#
# Indices 1 2 3 4 5 6 
#
# 1 173.2995 68.0287 60.6379 0.0000 20.2186 0.0000
# 2 68.0287 81.6515 23.5915 0.0000 11.6163 0.0000
# 3 60.6379 23.5915 60.4280 0.0000 3.1278 0.0000
# 4 0.0000 0.0000 0.0000 5.9507 0.0000 5.1619
# 5 20.2186 11.6163 3.1278 0.0000 18.9932 0.0000
# 6 0.0000 0.0000 0.0000 5.1619 0.0000 25.2438
#
#
#
# Elastic Compliance Matrix: (Units=1/GPa)
#
#
# Indices 1 2 3 4 5 6 
#
# 1 0.012711 -0.006656 -0.009750 0.000000 -0.007855 0.000000
# 2 -0.006656 0.018477 -0.000319 0.000000 -0.004163 0.000000
# 3 -0.009750 -0.000319 0.026133 0.000000 0.006271 0.000000
# 4 0.000000 0.000000 0.000000 0.204284 0.000000 -0.041773
# 5 -0.007855 -0.004163 0.006271 0.000000 0.062525 0.000000
# 6 0.000000 0.000000 0.000000 -0.041773 0.000000 0.048155
#
#
# Mechanical properties :
#
#
# Convention : Reuss Voigt Hill
#
# Bulk Modulus (GPa) = 41.89282 68.87724 55.38503
# Shear Modulus (GPa) = 12.08625 20.91227 16.49926
#
# Velocity S-wave (km/s) = 2.68939 3.53760 3.14224
# Velocity P-wave (km/s) = 5.89184 7.60950 6.80508
#
# Compressibility (1/GPa) = 0.02387044
#
# Stress axis : x y z
#
# Youngs Moduli (GPa) = 78.67125 54.12160 38.26613
#
# Poissons Ratio (x) = 0.36022 0.37310
# Poissons Ratio (y) = 0.52362 0.01221
# Poissons Ratio (z) = 0.76706 0.01727
#
# Static dielectric constant tensor:
#      x y z
#    x 3.356100 0.000000 0.095250 
#    y 0.000000 2.917410 0.000000 
#    z 0.095250 0.000000 2.798270 
# 
# 
# High freq. dielectric constant tensor:
#      x y z
#    x 1.662530 0.000000 0.016350 
#    y 0.000000 1.613360 0.000000 
#    z 0.016350 0.000000 1.585960 
# 
# From -- ./inp_files/179185.got.cif
#   From: 2010.06.25/outbox.cif.g09.slc.cpg/sg12_90_cif.got.tgz:179185.got - 2010.06.28 00:19:55.
