data_PCOD8116958
_publ_section_title
;
Structure prediction by ZEFSAII (Michael W. Deem and Ramdas Pophale) SiO2 
 PCOD8116958
Probable space group: P 2/C
;
_chemical_formula_sum "Si O2"
_cell_formula_units_Z 32
_cell_length_a 9.329162
_cell_length_b 9.232668
_cell_length_c 21.641382
_cell_angle_alpha 90.000000
_cell_angle_beta 67.780535
_cell_angle_gamma 90.000000
_cell_volume 1725.618909
_symmetry_space_group_name_H-M "P 2/C"
_symmetry_group_IT_number 13
_symmetry_cell_setting 'monoclinic'
loop_
_space_group_symop_operation_xyz
x,y,z
-x,y,1/2-z
-x,-y,-z
x,-y,1/2+z
loop_
_atom_site_type_symbol
_atom_site_label
_atom_site_fract_x
_atom_site_fract_y
_atom_site_fract_z
Si Si1 0.717860 0.757629 0.396324
Si Si2 0.020004 0.212968 0.317194
Si Si3 0.584364 0.761460 0.980569
Si Si4 0.352127 0.265768 0.233869
Si Si5 0.037374 0.943003 0.085039
Si Si6 0.567331 0.026465 0.370924
Si Si7 0.757503 0.072112 0.551569
Si Si8 0.745986 0.432094 0.364967
O O1 0.595898 0.745767 0.472767
O O2 0.885146 0.814304 0.389648
O O3 0.645993 0.868204 0.357718
O O4 0.757118 0.604091 0.359891
O O5 0.197332 0.260370 0.300835
O O6 0.000000 0.156179 0.250000
O O7 0.912530 0.354211 0.344342
O O8 0.973279 0.088325 0.372373
O O9 0.640399 0.612620 0.940661
O O10 0.611658 0.894332 0.928271
O O11 0.687078 0.791848 0.025150
O O12 0.500000 0.306493 0.250000
O O13 0.339279 0.388055 0.184010
O O14 0.369484 0.109786 0.198613
O O15 0.870233 0.883104 0.089678
O O16 0.145472 0.968458 0.008545
O O17 0.382434 0.018311 0.395586
#
# Coordination Sequence:
#
# PCOD8116958 Si02
#       8
#     4   4   4   4   4   4   4   4
#     4  11  19  33  54  82 109 140 176 219 274 328
#     4  10  20  38  56  75 107 148 191 223 259 336
#     4  10  17  35  53  79 109 151 175 215 263 344
#     4  10  21  39  60  79 100 144 194 228 264 321
#     4  11  19  32  55  84 109 140 180 228 283 311
#     4  10  18  35  58  84 107 140 184 226 274 324
#     4  10  18  30  56  84 114 133 172 236 280 316
#     4  10  21  35  53  77 110 148 182 214 266 331
#
# _framework density 18.544072
#
# number of rings (size 3 to 8) (size 9 to 14) (size 15 to 20)
#    0.000    1.750    3.750    3.375    0.000    0.000 
#    0.000    9.375    0.000    0.000    0.000    0.000 
#    0.000    0.000    0.000    0.000    0.000    0.000 
#
# Total GULP energy -396748.680291 kJ/mol
# GULP energy per Si atom -12398.396259 kJ/mol
# Density = 1.850186 g / cm^3
# Si number density = 18.544072 Si / 1000 Ang^3
#
#
#
# Elastic Constant Matrix: (Units=GPa)
#
#
# Indices 1 2 3 4 5 6 
#
# 1 160.6589 58.0269 37.0845 0.0000 -3.4139 0.0000
# 2 58.0269 127.3041 36.6044 0.0000 2.6091 0.0000
# 3 37.0845 36.6044 54.1727 0.0000 -7.4121 0.0000
# 4 0.0000 0.0000 0.0000 11.6383 0.0000 -4.2688
# 5 -3.4139 2.6091 -7.4121 0.0000 21.3489 0.0000
# 6 0.0000 0.0000 0.0000 -4.2688 0.0000 16.0312
#
#
#
# Elastic Compliance Matrix: (Units=1/GPa)
#
#
# Indices 1 2 3 4 5 6 
#
# 1 0.008023 -0.002603 -0.003690 0.000000 0.000320 0.000000
# 2 -0.002603 0.010873 -0.006093 0.000000 -0.003860 0.000000
# 3 -0.003690 -0.006093 0.026377 0.000000 0.009312 0.000000
# 4 0.000000 0.000000 0.000000 0.095224 0.000000 0.025356
# 5 0.000320 -0.003860 0.009312 0.000000 0.050597 0.000000
# 6 0.000000 0.000000 0.000000 0.025356 0.000000 0.069130
#
#
# Mechanical properties :
#
#
# Convention : Reuss Voigt Hill
#
# Bulk Modulus (GPa) = 48.77801 67.28527 58.03164
# Shear Modulus (GPa) = 17.13338 23.83166 20.48252
#
# Velocity S-wave (km/s) = 3.04292 3.58877 3.32706
# Velocity P-wave (km/s) = 6.22147 7.31677 6.79124
#
# Compressibility (1/GPa) = 0.02050104
#
# Stress axis : x y z
#
# Youngs Moduli (GPa) = 124.64374 91.97421 37.91215
#
# Poissons Ratio (x) = 0.23937 0.13989
# Poissons Ratio (y) = 0.32439 0.23101
# Poissons Ratio (z) = 0.45992 0.56042
#
# Static dielectric constant tensor:
#      x y z
#    x 3.734060 0.000000 -0.142650 
#    y 0.000000 3.103520 0.000000 
#    z -0.142650 0.000000 3.380190 
# 
# 
# High freq. dielectric constant tensor:
#      x y z
#    x 1.731900 0.000000 -0.016120 
#    y 0.000000 1.689340 0.000000 
#    z -0.016120 0.000000 1.709950 
# 
# From -- ./inp_files/91136.got.cif
#   From: 2010.06.25/outbox.cif.g09.slc.cpg/sg13_46_cif.got.tgz:91136.got - 2010.06.28 04:50:58.
