data_PCOD8116721
_publ_section_title
;
Structure prediction by ZEFSAII (Michael W. Deem and Ramdas Pophale) SiO2 
 PCOD8116721
Probable space group: P 2/C
;
_chemical_formula_sum "Si O2"
_cell_formula_units_Z 28
_cell_length_a 11.868767
_cell_length_b 8.889235
_cell_length_c 14.829200
_cell_angle_alpha 90.000000
_cell_angle_beta 63.617401
_cell_angle_gamma 90.000000
_cell_volume 1401.591451
_symmetry_space_group_name_H-M "P 2/C"
_symmetry_group_IT_number 13
_symmetry_cell_setting 'monoclinic'
loop_
_space_group_symop_operation_xyz
x,y,z
-x,y,1/2-z
-x,-y,-z
x,-y,1/2+z
loop_
_atom_site_type_symbol
_atom_site_label
_atom_site_fract_x
_atom_site_fract_y
_atom_site_fract_z
Si Si1 0.305844 0.239656 0.914485
Si Si2 0.000000 0.038382 0.750000
Si Si3 0.979681 0.501605 0.357848
Si Si4 0.500000 0.967392 0.250000
Si Si5 0.095816 0.935982 0.395252
Si Si6 0.284398 0.813320 0.782097
Si Si7 0.202078 0.451184 0.418372
Si Si8 0.180973 0.220483 0.137321
O O1 0.428223 0.146374 0.842212
O O2 0.180737 0.191829 0.906275
O O3 0.307256 0.418521 0.895558
O O4 0.289511 0.202897 0.024634
O O5 0.882159 0.940141 0.825190
O O6 0.965087 0.138198 0.674071
O O7 0.876659 0.581649 0.460812
O O8 0.926760 0.335324 0.355643
O O9 0.000000 0.578266 0.250000
O O10 0.109013 0.487345 0.367633
O O11 0.593842 0.079438 0.268451
O O12 0.165178 0.084030 0.339648
O O13 0.000000 0.000000 0.500000
O O14 0.287658 0.693661 0.863069
O O15 0.258874 0.725546 0.697649
#
# Coordination Sequence:
#
# PCOD8116721 Si02
#       8
#     4   2   4   2   4   4   4   4
#     4  10  22  38  58  85 117 159 197 254 299 335
#     4  10  16  28  52  84 118 156 186 226 296 372
#     4  10  17  31  55  92 131 151 176 234 304 376
#     4  10  24  44  62  78 114 160 212 262 286 334
#     4  10  19  32  53  83 121 151 191 241 299 366
#     4  10  21  38  61  83 110 159 207 243 294 353
#     4  10  21  33  60  90 120 158 192 238 303 365
#     4  10  17  32  60  86 116 155 195 232 299 365
#
# _framework density 19.977288999999999
#
# number of rings (size 3 to 8) (size 9 to 14) (size 15 to 20)
#    0.000    2.000    3.571    0.857    4.000    1.143 
#    1.286    0.000    6.286    2.571    0.000    0.000 
#    0.000    0.000    0.000    0.000    0.000    0.000 
#
# Total GULP energy -346896.053631 kJ/mol
# GULP energy per Si atom -12389.144773 kJ/mol
# Density = 1.993182 g / cm^3
# Si number density = 19.977289 Si / 1000 Ang^3
#
#
#
# Elastic Constant Matrix: (Units=GPa)
#
#
# Indices 1 2 3 4 5 6 
#
# 1 65.8160 20.7700 55.1041 0.0000 -0.4325 0.0000
# 2 20.7700 50.2236 35.2473 0.0000 -3.3798 0.0000
# 3 55.1041 35.2473 137.5332 0.0000 10.7119 0.0000
# 4 0.0000 0.0000 0.0000 14.0046 0.0000 1.6542
# 5 -0.4325 -3.3798 10.7119 0.0000 35.6473 0.0000
# 6 0.0000 0.0000 0.0000 1.6542 0.0000 29.0755
#
#
#
# Elastic Compliance Matrix: (Units=1/GPa)
#
#
# Indices 1 2 3 4 5 6 
#
# 1 0.023667 -0.003432 -0.008806 0.000000 0.002608 0.000000
# 2 -0.003432 0.025427 -0.005454 0.000000 0.004008 0.000000
# 3 -0.008806 -0.005454 0.012539 0.000000 -0.004392 0.000000
# 4 0.000000 0.000000 0.000000 0.071888 0.000000 -0.004090
# 5 0.002608 0.004008 -0.004392 0.000000 0.029784 0.000000
# 6 0.000000 0.000000 0.000000 -0.004090 0.000000 0.034626
#
#
# Mechanical properties :
#
#
# Convention : Reuss Voigt Hill
#
# Bulk Modulus (GPa) = 38.09520 52.86842 45.48181
# Shear Modulus (GPa) = 20.65566 25.24224 22.94895
#
# Velocity S-wave (km/s) = 3.21901 3.55850 3.39300
# Velocity P-wave (km/s) = 5.73818 6.58829 6.17787
#
# Compressibility (1/GPa) = 0.02625002
#
# Stress axis : x y z
#
# Youngs Moduli (GPa) = 42.25333 39.32761 79.75160
#
# Poissons Ratio (x) = 0.13497 0.70229
# Poissons Ratio (y) = 0.14501 0.43495
# Poissons Ratio (z) = 0.37208 0.21448
#
# Static dielectric constant tensor:
#      x y z
#    x 3.497310 0.000000 0.204620 
#    y 0.000000 3.464720 0.000000 
#    z 0.204620 0.000000 3.063630 
# 
# 
# High freq. dielectric constant tensor:
#      x y z
#    x 1.749330 0.000000 0.016070 
#    y 0.000000 1.769110 0.000000 
#    z 0.016070 0.000000 1.795540 
# 
# From -- ./inp_files/50010.got.cif
#   From: 2010.06.25/outbox.cif.g09.slc.cpg/sg13_26_cif.got.tgz:50010.got - 2010.06.28 04:50:58.
