data_PCOD8116543
_publ_section_title
;
Structure prediction by ZEFSAII (Michael W. Deem and Ramdas Pophale) SiO2 
 PCOD8116543
Probable space group: C 2/M
;
_chemical_formula_sum "Si O2"
_cell_formula_units_Z 32
_cell_length_a 18.000000
_cell_length_b 9.000000
_cell_length_c 30.000000
_cell_angle_alpha 90.000000
_cell_angle_beta 40.000000
_cell_angle_gamma 90.000000
_cell_volume 3123.947783
_symmetry_space_group_name_H-M "C 2/M"
_symmetry_group_IT_number 12
_symmetry_cell_setting 'monoclinic'
loop_
_space_group_symop_operation_xyz
x,y,z
-x,y,-z
-x,-y,-z
x,-y,z
1/2+x,1/2+y,z
1/2-x,1/2+y,-z
1/2-x,1/2-y,-z
1/2+x,1/2-y,z
loop_
_atom_site_type_symbol
_atom_site_label
_atom_site_fract_x
_atom_site_fract_y
_atom_site_fract_z
Si Si1 0.620333 0.658994 0.468160
Si Si2 0.675209 0.336026 0.209873
Si Si3 0.225216 0.669193 0.684704
Si Si4 0.484746 0.672525 0.799572
Si Si5 0.630779 0.166935 0.945416
Si Si6 0.708915 0.826382 0.062680
Si Si7 0.865795 0.667359 0.456570
Si Si8 0.885848 0.673034 0.679017
O O1 0.500000 0.645693 0.500000
O O2 0.639359 0.500000 0.485046
O O3 0.729750 0.679481 0.386025
O O4 0.610501 0.804539 0.502599
O O5 0.648824 0.500000 0.242131
O O6 0.578359 0.296744 0.218023
O O7 0.805080 0.336076 0.131404
O O8 0.674179 0.207333 0.246749
O O9 0.194323 0.500000 0.712201
O O10 0.327652 0.728271 0.668251
O O11 0.115053 0.773315 0.739166
O O12 0.481127 0.500000 0.813785
O O13 0.417238 0.762874 0.868282
O O14 0.695585 0.288569 0.944598
O O15 0.636474 0.000000 0.963995
O O16 0.500000 0.220034 0.000000
O O17 0.698537 0.000000 0.061048
O O18 0.750000 0.750000 0.000000
O O19 0.841622 0.500000 0.456554
O O20 0.750000 0.750000 0.500000
O O21 0.979594 0.721192 0.377722
O O22 0.874061 0.500000 0.672120
#
# Coordination Sequence:
#
# PCOD8116543 Si02
#       8
#     8   8   8   8   8   8   8   8
#     4  10  21  40  63  87 116 152 193 244 297 353
#     4   9  20  38  60  85 116 155 194 239 295 347
#     4  11  23  39  62  88 118 155 195 240 298 357
#     4  10  22  41  62  88 120 154 198 244 293 351
#     4   9  19  38  62  88 119 155 197 244 293 349
#     4  11  22  38  61  89 123 160 199 244 293 345
#     4  11  25  41  60  86 116 153 197 246 296 350
#     4  11  24  40  58  84 118 154 196 245 292 346
#
# _framework density 10.243449
#
# number of rings (size 3 to 8) (size 9 to 14) (size 15 to 20)
#    0.000    1.750    1.250    3.375    1.750    6.500 
#    0.000    3.750    0.000    0.000    0.000    0.000 
#    0.000    0.000    0.000    0.000    0.000    0.000 
#
# Total GULP energy -396609.611156 kJ/mol
# GULP energy per Si atom -12394.050349 kJ/mol
# Density = 1.022013 g / cm^3
# Si number density = 10.243449 Si / 1000 Ang^3
#
#
#
# Elastic Constant Matrix: (Units=GPa)
#
#
# Indices 1 2 3 4 5 6 
#
# 1 33.0404 23.7525 31.2516 0.0003 -15.5327 -0.0008
# 2 23.7525 76.5715 38.1339 -0.0002 -5.4890 -0.0007
# 3 31.2516 38.1339 90.0186 -0.0002 -16.8912 -0.0009
# 4 0.0003 -0.0002 -0.0002 35.1249 0.0001 -5.2751
# 5 -15.5327 -5.4890 -16.8912 0.0001 32.1986 0.0004
# 6 -0.0008 -0.0007 -0.0009 -5.2751 0.0004 31.7072
#
#
#
# Elastic Compliance Matrix: (Units=1/GPa)
#
#
# Indices 1 2 3 4 5 6 
#
# 1 0.059033 -0.010832 -0.012100 -0.000001 0.020284 0.000000
# 2 -0.010832 0.018566 -0.004981 0.000000 -0.004674 0.000000
# 3 -0.012100 -0.004981 0.017930 0.000000 0.002720 0.000000
# 4 -0.000001 0.000000 0.000000 0.029199 0.000000 0.004858
# 5 0.020284 -0.004674 0.002720 0.000000 0.041472 0.000000
# 6 0.000000 0.000000 0.000000 0.004858 0.000000 0.032347
#
#
# Mechanical properties :
#
#
# Convention : Reuss Voigt Hill
#
# Bulk Modulus (GPa) = 25.18718 42.87849 34.03284
# Shear Modulus (GPa) = 18.68409 26.90566 22.79487
#
# Velocity S-wave (km/s) = 3.02321 3.62789 3.33927
# Velocity P-wave (km/s) = 4.95049 6.20677 5.61388
#
# Compressibility (1/GPa) = 0.03970273
#
# Stress axis : x y z
#
# Youngs Moduli (GPa) = 16.93958 53.86331 55.77277
#
# Poissons Ratio (x) = 0.58346 0.67483
# Poissons Ratio (y) = 0.18349 0.27781
# Poissons Ratio (z) = 0.20496 0.26830
#
# Static dielectric constant tensor:
#      x y z
#    x 3.389510 0.000000 -0.149210 
#    y 0.000000 3.509480 0.000010 
#    z -0.149210 0.000010 3.773910 
# 
# 
# High freq. dielectric constant tensor:
#      x y z
#    x 1.778610 0.000000 -0.017100 
#    y 0.000000 1.801350 0.000000 
#    z -0.017100 0.000000 1.801770 
# 
# From -- ./inp_files/378182.got.cif
#   From: 2010.06.25/outbox.ucp.g09.slc.cvg/sg12_190_cif.got.tgz:378182.got - 2010.06.28 13:50:54.
