data_PCOD8116350
_publ_section_title
;
Structure prediction by ZEFSAII (Michael W. Deem and Ramdas Pophale) SiO2 
 PCOD8116350
Probable space group: C 2/M
;
_chemical_formula_sum "Si O2"
_cell_formula_units_Z 28
_cell_length_a 18.000000
_cell_length_b 9.000000
_cell_length_c 27.000000
_cell_angle_alpha 90.000000
_cell_angle_beta 40.000000
_cell_angle_gamma 90.000000
_cell_volume 2811.553005
_symmetry_space_group_name_H-M "C 2/M"
_symmetry_group_IT_number 12
_symmetry_cell_setting 'monoclinic'
loop_
_space_group_symop_operation_xyz
x,y,z
-x,y,-z
-x,-y,-z
x,-y,z
1/2+x,1/2+y,z
1/2-x,1/2+y,-z
1/2-x,1/2-y,-z
1/2+x,1/2-y,z
loop_
_atom_site_type_symbol
_atom_site_label
_atom_site_fract_x
_atom_site_fract_y
_atom_site_fract_z
Si Si1 0.214827 0.172524 0.067415
Si Si2 0.715036 0.331118 0.212256
Si Si3 0.364842 0.332130 0.067600
Si Si4 0.775352 0.672093 0.358963
Si Si5 0.855196 0.328929 0.658852
Si Si6 0.557833 0.339902 0.524013
Si Si7 0.986692 0.170589 0.760783
O O1 0.311940 0.215257 0.056870
O O2 0.086147 0.214938 0.152528
O O3 0.221134 0.000000 0.054906
O O4 0.250000 0.250000 0.000000
O O5 0.758243 0.500000 0.184395
O O6 0.815075 0.215838 0.145872
O O7 0.694836 0.291244 0.278579
O O8 0.597159 0.305063 0.242605
O O9 0.327874 0.500000 0.072953
O O10 0.500000 0.314996 0.000000
O O11 0.772266 0.500000 0.341882
O O12 0.718270 0.792610 0.351995
O O13 0.696213 0.687245 0.448911
O O14 0.906695 0.719163 0.301656
O O15 0.839076 0.500000 0.682601
O O16 0.992915 0.295213 0.584544
O O17 0.500000 0.352793 0.500000
O O18 0.537786 0.500000 0.561366
O O19 0.028936 0.000000 0.742573
#
# Coordination Sequence:
#
# PCOD8116350 Si02
#       7
#     8   8   8   8   8   8   8
#     4  10  21  37  57  80 107 141 178 218 264 312
#     4  10  21  38  57  77 107 143 176 215 264 314
#     4  10  21  37  57  81 109 139 173 217 265 313
#     4  10  20  34  55  80 106 139 176 216 263 314
#     4  11  21  33  54  81 107 138 178 220 261 309
#     4   8  16  32  51  74 105 137 172 216 264 310
#     4   9  20  37  55  77 106 138 173 217 265 311
#
# _framework density 9.9589090000000002
#
# number of rings (size 3 to 8) (size 9 to 14) (size 15 to 20)
#    0.000    2.286    0.000    4.714    0.000    8.857 
#    0.000    2.143    0.000    0.000    0.000    0.000 
#    0.000    0.000    0.000    0.000    0.000    0.000 
#
# Total GULP energy -346913.914567 kJ/mol
# GULP energy per Si atom -12389.782663 kJ/mol
# Density = 0.993624 g / cm^3
# Si number density = 9.958909 Si / 1000 Ang^3
#
#
#
# Elastic Constant Matrix: (Units=GPa)
#
#
# Indices 1 2 3 4 5 6 
#
# 1 18.2290 26.8882 26.0168 -0.0002 -12.0601 0.0004
# 2 26.8882 78.8909 37.9587 -0.0002 -23.3719 -0.0003
# 3 26.0168 37.9587 63.0844 -0.0002 -19.6274 0.0006
# 4 -0.0002 -0.0002 -0.0002 32.6651 0.0001 -1.1853
# 5 -12.0601 -23.3719 -19.6274 0.0001 25.1010 -0.0004
# 6 0.0004 -0.0003 0.0006 -1.1853 -0.0004 27.1590
#
#
#
# Elastic Compliance Matrix: (Units=1/GPa)
#
#
# Indices 1 2 3 4 5 6 
#
# 1 0.196681 -0.035392 -0.053745 0.000001 0.019519 -0.000002
# 2 -0.035392 0.026772 0.001259 0.000000 0.008907 0.000001
# 3 -0.053745 0.001259 0.039103 0.000000 0.005926 0.000000
# 4 0.000001 0.000000 0.000000 0.030662 0.000000 0.001338
# 5 0.019519 0.008907 0.005926 0.000000 0.062144 0.000001
# 6 -0.000002 0.000001 0.000000 0.001338 0.000001 0.036879
#
#
# Mechanical properties :
#
#
# Convention : Reuss Voigt Hill
#
# Bulk Modulus (GPa) = 11.52096 37.99243 24.75669
# Shear Modulus (GPa) = 8.37620 21.60772 14.99196
#
# Velocity S-wave (km/s) = 2.05293 3.29727 2.74650
# Velocity P-wave (km/s) = 3.37878 5.79758 4.74490
#
# Compressibility (1/GPa) = 0.08679835
#
# Stress axis : x y z
#
# Youngs Moduli (GPa) = 5.08438 37.35313 25.57336
#
# Poissons Ratio (x) = 1.32201 1.37444
# Poissons Ratio (y) = 0.17995 -0.03219
# Poissons Ratio (z) = 0.27326 -0.04701
#
# Static dielectric constant tensor:
#      x y z
#    x 3.428340 0.000000 0.413090 
#    y 0.000000 3.638180 0.000000 
#    z 0.413090 0.000000 4.948510 
# 
# 
# High freq. dielectric constant tensor:
#      x y z
#    x 1.733640 0.000000 -0.012390 
#    y 0.000000 1.784740 0.000000 
#    z -0.012390 0.000000 1.781130 
# 
# From -- ./inp_files/342320.got.cif
#   From: 2010.06.25/outbox.ucp.g09.slc.cvg/sg12_172_cif.got.tgz:342320.got - 2010.06.28 13:50:54.
