data_PCOD8116850
_publ_section_title
;
Structure prediction by ZEFSAII (Michael W. Deem and Ramdas Pophale) SiO2 
 PCOD8116850
Probable space group: P 2/C
;
_chemical_formula_sum "Si O2"
_cell_formula_units_Z 26
_cell_length_a 12.599530
_cell_length_b 21.424778
_cell_length_c 5.216300
_cell_angle_alpha 90.000000
_cell_angle_beta 59.812119
_cell_angle_gamma 90.000000
_cell_volume 1217.134404
_symmetry_space_group_name_H-M "P 2/C"
_symmetry_group_IT_number 13
_symmetry_cell_setting 'monoclinic'
loop_
_space_group_symop_operation_xyz
x,y,z
-x,y,1/2-z
-x,-y,-z
x,-y,1/2+z
loop_
_atom_site_type_symbol
_atom_site_label
_atom_site_fract_x
_atom_site_fract_y
_atom_site_fract_z
Si Si1 0.143207 0.328049 0.616237
Si Si2 0.500000 0.350848 0.750000
Si Si3 0.372742 0.144861 0.794139
Si Si4 0.500000 0.430811 0.250000
Si Si5 0.500000 0.943254 0.750000
Si Si6 0.234927 0.466681 0.569931
Si Si7 0.257560 0.725545 0.473287
Si Si8 0.273726 0.977710 0.502538
O O1 0.203462 0.396076 0.539231
O O2 0.199011 0.284235 0.325334
O O3 0.000000 0.335483 0.750000
O O4 0.166048 0.298794 0.866658
O O5 0.532337 0.390482 0.461035
O O6 0.614333 0.309620 0.696052
O O7 0.500000 0.171529 0.750000
O O8 0.408279 0.104355 0.504707
O O9 0.299839 0.094001 0.057037
O O10 0.280469 0.202281 0.873547
O O11 0.381584 0.474418 0.434605
O O12 0.597476 0.989884 0.775422
O O13 0.180215 0.510311 0.409056
O O14 0.200736 0.014191 0.819529
#
# Coordination Sequence:
#
# PCOD8116850 Si02
#       8
#     4   2   4   2   2   4   4   4
#     4  12  28  51  68  86 125 170 218 270 316 360
#     4  12  20  38  64  92 131 163 196 238 310 386
#     4  11  20  30  54  87 128 172 205 246 302 382
#     4  12  22  40  62  96 139 165 182 232 310 400
#     4  10  18  30  48  80 136 184 194 238 310 390
#     4  12  24  41  70 102 123 160 205 251 317 386
#     4  12  25  41  66  95 125 169 215 259 316 381
#     4  10  17  29  45  74 123 180 198 231 294 380
#
# _framework density 21.361647999999999
#
# number of rings (size 3 to 8) (size 9 to 14) (size 15 to 20)
#    0.000    0.615    6.154    3.692    2.154    1.231 
#    0.000    0.000    0.000    0.000    0.000    0.000 
#    0.000   49.231    0.000    0.000    0.000    0.000 
#
# Total GULP energy -322144.678527 kJ/mol
# GULP energy per Si atom -12390.179943 kJ/mol
# Density = 2.131303 g / cm^3
# Si number density = 21.361648 Si / 1000 Ang^3
#
#
#
# Elastic Constant Matrix: (Units=GPa)
#
#
# Indices 1 2 3 4 5 6 
#
# 1 87.4440 25.2999 28.6258 0.0000 15.7573 0.0000
# 2 25.2999 121.3099 31.3649 0.0000 14.6568 0.0000
# 3 28.6258 31.3649 67.3798 0.0000 25.8839 0.0000
# 4 0.0000 0.0000 0.0000 171.1819 0.0000 1.1187
# 5 15.7573 14.6568 25.8839 0.0000 37.2380 0.0000
# 6 0.0000 0.0000 0.0000 1.1187 0.0000 12.8141
#
#
#
# Elastic Compliance Matrix: (Units=1/GPa)
#
#
# Indices 1 2 3 4 5 6 
#
# 1 0.013660 -0.001478 -0.004254 0.000000 -0.002241 0.000000
# 2 -0.001478 0.009553 -0.003567 0.000000 -0.000655 0.000000
# 3 -0.004254 -0.003567 0.023300 0.000000 -0.012991 0.000000
# 4 0.000000 0.000000 0.000000 0.005845 0.000000 -0.000510
# 5 -0.002241 -0.000655 -0.012991 0.000000 0.037091 0.000000
# 6 0.000000 0.000000 0.000000 -0.000510 0.000000 0.078083
#
#
# Mechanical properties :
#
#
# Convention : Reuss Voigt Hill
#
# Bulk Modulus (GPa) = 35.82501 49.63497 42.72999
# Shear Modulus (GPa) = 25.58381 56.96969 41.27675
#
# Velocity S-wave (km/s) = 3.46446 5.16982 4.40054
# Velocity P-wave (km/s) = 5.72804 7.67607 6.77246
#
# Compressibility (1/GPa) = 0.02791346
#
# Stress axis : x y z
#
# Youngs Moduli (GPa) = 73.20569 104.67805 42.91884
#
# Poissons Ratio (x) = 0.15473 0.18259
# Poissons Ratio (y) = 0.10821 0.15311
# Poissons Ratio (z) = 0.31144 0.37342
#
# Static dielectric constant tensor:
#      x y z
#    x 3.685320 0.000000 0.367990 
#    y 0.000000 3.830940 0.000000 
#    z 0.367990 0.000000 3.903210 
# 
# 
# High freq. dielectric constant tensor:
#      x y z
#    x 1.812910 0.000000 0.039020 
#    y 0.000000 1.843580 0.000000 
#    z 0.039020 0.000000 1.835430 
# 
# From -- ./inp_files/4072.got.cif
#   From: 2010.06.25/outbox.cif.g09.slc.cpg/sg13_3_cif.got.tgz:4072.got - 2010.06.28 04:50:58.
