data_PCOD8116384
_publ_section_title
;
Structure prediction by ZEFSAII (Michael W. Deem and Ramdas Pophale) SiO2 
 PCOD8116384
Probable space group: C 2/M
;
_chemical_formula_sum "Si O2"
_cell_formula_units_Z 28
_cell_length_a 30.000000
_cell_length_b 9.000000
_cell_length_c 21.000000
_cell_angle_alpha 90.000000
_cell_angle_beta 30.000000
_cell_angle_gamma 90.000000
_cell_volume 2835.000000
_symmetry_space_group_name_H-M "C 2/M"
_symmetry_group_IT_number 12
_symmetry_cell_setting 'monoclinic'
loop_
_space_group_symop_operation_xyz
x,y,z
-x,y,-z
-x,-y,-z
x,-y,z
1/2+x,1/2+y,z
1/2-x,1/2+y,-z
1/2-x,1/2-y,-z
1/2+x,1/2-y,z
loop_
_atom_site_type_symbol
_atom_site_label
_atom_site_fract_x
_atom_site_fract_y
_atom_site_fract_z
Si Si1 0.764236 0.672643 0.881220
Si Si2 0.862681 0.325201 0.303961
Si Si3 0.978858 0.168570 0.952100
Si Si4 0.074441 0.667435 0.641449
Si Si5 0.261550 0.169537 0.639985
Si Si6 0.206837 0.324100 0.831628
Si Si7 0.379881 0.174410 0.855276
O O1 0.753669 0.500000 0.876344
O O2 0.772509 0.770494 0.806864
O O3 0.851625 0.699334 0.816641
O O4 0.678491 0.726469 0.025959
O O5 0.838888 0.500000 0.327449
O O6 0.871292 0.263988 0.365896
O O7 0.790469 0.224223 0.357994
O O8 0.957972 0.292060 0.155827
O O9 0.990506 0.000000 0.910890
O O10 0.881901 0.227033 0.054156
O O11 0.000000 0.167435 0.000000
O O12 0.053763 0.500000 0.688378
O O13 0.133957 0.673143 0.504737
O O14 0.979399 0.739372 0.741936
O O15 0.250787 0.285051 0.710080
O O16 0.230529 0.000000 0.695200
O O17 0.188750 0.500000 0.858079
O O18 0.369359 0.000000 0.885706
#
# Coordination Sequence:
#
# PCOD8116384 Si02
#       7
#     8   8   8   8   8   8   8
#     4  10  20  35  60  90 117 145 181 229 286 340
#     4  11  21  35  57  85 115 149 187 227 279 336
#     4  11  22  36  56  82 113 145 182 230 278 327
#     4   9  20  37  58  82 109 146 190 233 276 328
#     4  11  22  38  56  77 111 151 192 235 275 325
#     4  12  24  38  57  81 113 151 190 230 281 338
#     4   9  18  37  62  88 115 145 185 232 281 334
#
# _framework density 9.8765429999999999
#
# number of rings (size 3 to 8) (size 9 to 14) (size 15 to 20)
#    0.000    1.571    1.429    4.286    0.000    2.286 
#    0.000    5.000    0.000    4.286    0.000    0.000 
#    0.000    0.000    0.000    0.000    0.000    0.000 
#
# Total GULP energy -347091.089258 kJ/mol
# GULP energy per Si atom -12396.110331 kJ/mol
# Density = 0.985406 g / cm^3
# Si number density = 9.876543 Si / 1000 Ang^3
#
#
#
# Elastic Constant Matrix: (Units=GPa)
#
#
# Indices 1 2 3 4 5 6 
#
# 1 120.9163 32.6898 28.7066 -0.0023 -8.2014 0.0002
# 2 32.6898 96.5557 10.8383 -0.0182 -0.3260 0.0048
# 3 28.7066 10.8383 54.7359 -0.0102 1.4511 0.0015
# 4 -0.0023 -0.0182 -0.0102 27.1997 -0.0004 1.9574
# 5 -8.2014 -0.3260 1.4511 -0.0004 -8.2517 0.0001
# 6 0.0002 0.0048 0.0015 1.9574 0.0001 34.8555
#
#
#
# Elastic Compliance Matrix: (Units=1/GPa)
#
#
# Indices 1 2 3 4 5 6 
#
# 1 0.009307 -0.002726 -0.004080 -0.000003 -0.009860 0.000001
# 2 -0.002726 0.011386 -0.000880 0.000007 0.002105 -0.000002
# 3 -0.004080 -0.000880 0.020380 0.000007 0.007674 -0.000001
# 4 -0.000003 0.000007 0.000007 0.036914 0.000002 -0.002073
# 5 -0.009860 0.002105 0.007674 0.000002 -0.110121 0.000000
# 6 0.000001 -0.000002 -0.000001 -0.002073 0.000000 0.028806
#
#
# Mechanical properties :
#
#
# Convention : Reuss Voigt Hill
#
# Bulk Modulus (GPa) = 38.91117 46.29747 42.60432
# Shear Modulus (GPa) = 242.57038 24.09224 133.33131
#
# Velocity S-wave (km/s) = 11.09359 3.49617 8.22469
# Velocity P-wave (km/s) = 13.55847 6.30766 10.57399
#
# Compressibility (1/GPa) = 0.02569956
#
# Stress axis : x y z
#
# Youngs Moduli (GPa) = 107.44525 87.82969 49.06721
#
# Poissons Ratio (x) = 0.23945 0.20019
# Poissons Ratio (y) = 0.29293 0.04320
# Poissons Ratio (z) = 0.43837 0.07733
#
# Static dielectric constant tensor:
#      x y z
#    x 3.918340 -0.000010 -0.026970 
#    y -0.000010 3.660730 0.000020 
#    z -0.026970 0.000020 3.380860 
# 
# 
# High freq. dielectric constant tensor:
#      x y z
#    x 1.780650 0.000000 -0.001250 
#    y 0.000000 1.772150 0.000000 
#    z -0.001250 0.000000 1.747830 
# 
# From -- ./inp_files/238324.got.cif
#   From: 2010.06.25/outbox.ucp.g09.slc.cvg/sg12_120_cif.got.tgz:238324.got - 2010.06.28 13:50:54.
