data_PCOD8116434
_publ_section_title
;
Structure prediction by ZEFSAII (Michael W. Deem and Ramdas Pophale) SiO2 
 PCOD8116434
Probable space group: C 2/M
;
_chemical_formula_sum "Si O2"
_cell_formula_units_Z 32
_cell_length_a 18.000000
_cell_length_b 9.000000
_cell_length_c 30.000000
_cell_angle_alpha 90.000000
_cell_angle_beta 40.000000
_cell_angle_gamma 90.000000
_cell_volume 3123.947783
_symmetry_space_group_name_H-M "C 2/M"
_symmetry_group_IT_number 12
_symmetry_cell_setting 'monoclinic'
loop_
_space_group_symop_operation_xyz
x,y,z
-x,y,-z
-x,-y,-z
x,-y,z
1/2+x,1/2+y,z
1/2-x,1/2+y,-z
1/2-x,1/2-y,-z
1/2+x,1/2-y,z
loop_
_atom_site_type_symbol
_atom_site_label
_atom_site_fract_x
_atom_site_fract_y
_atom_site_fract_z
Si Si1 0.752204 0.325284 0.866831
Si Si2 0.321917 0.677173 0.506487
Si Si3 0.328911 0.675134 0.000172
Si Si4 0.318981 0.171345 0.269800
Si Si5 0.909160 0.825714 0.140256
Si Si6 0.183140 0.834345 0.642893
Si Si7 0.931279 0.834447 0.732257
Si Si8 0.567682 0.671170 0.363816
O O1 0.762702 0.500000 0.864913
O O2 0.663813 0.275574 0.869040
O O3 0.878541 0.260849 0.797013
O O4 0.707551 0.262744 0.934531
O O5 0.308809 0.500000 0.511092
O O6 0.250000 0.750000 0.500000
O O7 0.278677 0.734946 0.574214
O O8 0.454604 0.734011 0.440692
O O9 0.311325 0.500000 0.005939
O O10 0.460143 0.719528 0.930248
O O11 0.250000 0.750000 0.000000
O O12 0.365992 0.235050 0.202355
O O13 0.367886 0.262891 0.288539
O O14 0.181249 0.192363 0.341063
O O15 0.355802 0.000000 0.255509
O O16 0.896108 0.000000 0.156082
O O17 0.069193 0.841599 0.665651
O O18 0.233022 0.000000 0.628393
O O19 0.901215 0.756314 0.698624
O O20 0.878644 0.000000 0.761232
O O21 0.541624 0.500000 0.365104
#
# Coordination Sequence:
#
# PCOD8116434 Si02
#       8
#     8   8   8   8   8   8   8   8
#     4  10  21  38  62  90 117 153 202 247 287 345
#     4  11  21  38  62  88 118 157 202 247 300 357
#     4  10  23  41  60  87 123 159 195 240 295 350
#     4  11  23  40  62  88 119 155 198 246 295 353
#     4  10  21  40  63  86 118 159 196 240 298 350
#     4  11  24  41  59  86 123 159 197 245 303 358
#     4  10  20  38  61  85 117 157 196 240 296 353
#     4   9  19  38  61  85 117 155 194 241 297 352
#
# _framework density 10.243449
#
# number of rings (size 3 to 8) (size 9 to 14) (size 15 to 20)
#    0.000    1.750    2.500    1.500    1.750    4.000 
#    0.000    5.000    0.000    2.250    0.000    0.000 
#    0.000    0.000    0.000    0.000    0.000    0.000 
#
# Total GULP energy -396707.578470 kJ/mol
# GULP energy per Si atom -12397.111827 kJ/mol
# Density = 1.022013 g / cm^3
# Si number density = 10.243449 Si / 1000 Ang^3
#
#
#
# Elastic Constant Matrix: (Units=GPa)
#
#
# Indices 1 2 3 4 5 6 
#
# 1 50.2139 23.5015 34.9390 0.0018 17.8461 0.0088
# 2 23.5015 63.7945 47.0517 0.0022 12.9358 0.0055
# 3 34.9390 47.0517 145.8121 0.0001 10.3448 0.0004
# 4 0.0018 0.0022 0.0001 35.1976 -0.0001 3.5127
# 5 17.8461 12.9358 10.3448 -0.0001 35.9328 0.0006
# 6 0.0088 0.0055 0.0004 3.5127 0.0006 26.7425
#
#
#
# Elastic Compliance Matrix: (Units=1/GPa)
#
#
# Indices 1 2 3 4 5 6 
#
# 1 0.029649 -0.005181 -0.004614 0.000000 -0.011531 -0.000008
# 2 -0.005181 0.022647 -0.005789 -0.000001 -0.003913 -0.000003
# 3 -0.004614 -0.005789 0.009720 0.000000 0.001577 0.000002
# 4 0.000000 -0.000001 0.000000 0.028788 0.000001 -0.003781
# 5 -0.011531 -0.003913 0.001577 0.000001 0.034512 0.000004
# 6 -0.000008 -0.000003 0.000002 -0.003781 0.000004 0.037890
#
#
# Mechanical properties :
#
#
# Convention : Reuss Voigt Hill
#
# Bulk Modulus (GPa) = 32.41758 52.31166 42.36462
# Shear Modulus (GPa) = 24.43120 29.86313 27.14716
#
# Velocity S-wave (km/s) = 3.45705 3.82209 3.64414
# Velocity P-wave (km/s) = 5.63851 6.71323 6.19920
#
# Compressibility (1/GPa) = 0.03084746
#
# Stress axis : x y z
#
# Youngs Moduli (GPa) = 33.72849 44.15594 102.88154
#
# Poissons Ratio (x) = 0.22876 0.47474
# Poissons Ratio (y) = 0.17474 0.59557
# Poissons Ratio (z) = 0.15564 0.25561
#
# Static dielectric constant tensor:
#      x y z
#    x 3.587210 0.000000 0.028640 
#    y 0.000000 3.573030 -0.000010 
#    z 0.028640 -0.000010 3.883970 
# 
# 
# High freq. dielectric constant tensor:
#      x y z
#    x 1.793920 0.000000 0.004260 
#    y 0.000000 1.782170 0.000000 
#    z 0.004260 0.000000 1.817050 
# 
# From -- ./inp_files/346161.got.cif
#   From: 2010.06.25/outbox.ucp.g09.slc.cvg/sg12_174_cif.got.tgz:346161.got - 2010.06.28 13:50:54.
