data_PCOD8116377
_publ_section_title
;
Structure prediction by ZEFSAII (Michael W. Deem and Ramdas Pophale) SiO2 
 PCOD8116377
Probable space group: C 2/M
;
_chemical_formula_sum "Si O2"
_cell_formula_units_Z 32
_cell_length_a 30.000000
_cell_length_b 9.000000
_cell_length_c 18.000000
_cell_angle_alpha 90.000000
_cell_angle_beta 40.000000
_cell_angle_gamma 90.000000
_cell_volume 3123.947783
_symmetry_space_group_name_H-M "C 2/M"
_symmetry_group_IT_number 12
_symmetry_cell_setting 'monoclinic'
loop_
_space_group_symop_operation_xyz
x,y,z
-x,y,-z
-x,-y,-z
x,-y,z
1/2+x,1/2+y,z
1/2-x,1/2+y,-z
1/2-x,1/2-y,-z
1/2+x,1/2-y,z
loop_
_atom_site_type_symbol
_atom_site_label
_atom_site_fract_x
_atom_site_fract_y
_atom_site_fract_z
Si Si1 0.892445 0.827384 0.172741
Si Si2 0.118485 0.668195 0.960776
Si Si3 0.753507 0.672468 0.573795
Si Si4 0.497361 0.325290 0.587681
Si Si5 0.221748 0.826253 0.927947
Si Si6 0.348687 0.325437 0.828772
Si Si7 0.399743 0.826554 0.440637
Si Si8 0.028862 0.668453 0.801722
O O1 0.911818 0.730589 0.077058
O O2 0.813530 0.788492 0.293164
O O3 0.943772 0.782782 0.172533
O O4 0.903040 0.000000 0.141521
O O5 0.144283 0.500000 0.918208
O O6 0.183052 0.766050 0.904904
O O7 0.054211 0.677949 0.099822
O O8 0.760182 0.500000 0.547406
O O9 0.750000 0.750000 0.500000
O O10 0.820155 0.726060 0.535429
O O11 0.500000 0.272990 0.500000
O O12 0.501280 0.500000 0.591250
O O13 0.426496 0.265919 0.716173
O O14 0.566003 0.258361 0.535454
O O15 0.297343 0.753126 0.836128
O O16 0.232042 0.000000 0.906494
O O17 0.174750 0.782222 0.058550
O O18 0.343520 0.500000 0.820875
O O19 0.439946 0.778887 0.315415
O O20 0.406036 0.000000 0.448194
O O21 0.052369 0.500000 0.791624
#
# Coordination Sequence:
#
# PCOD8116377 Si02
#       8
#     8   8   8   8   8   8   8   8
#     4  11  23  37  56  84 115 150 190 236 286 338
#     4  11  23  37  55  81 115 153 190 231 285 347
#     4  10  21  38  60  85 114 148 191 238 284 338
#     4  10  22  39  58  84 117 150 189 234 283 343
#     4  10  20  35  58  85 111 144 187 237 284 337
#     4   9  19  37  59  82 112 147 185 231 285 341
#     4  10  21  38  61  86 113 147 191 240 286 339
#     4  10  21  38  59  82 111 149 193 235 283 344
#
# _framework density 10.243449
#
# number of rings (size 3 to 8) (size 9 to 14) (size 15 to 20)
#    0.000    1.875    1.250    2.250    0.000    6.250 
#    0.000    2.500    0.000    0.000    0.000    0.000 
#    0.000    0.000    0.000    0.000    0.000    0.000 
#
# Total GULP energy -396902.696056 kJ/mol
# GULP energy per Si atom -12403.209252 kJ/mol
# Density = 1.022013 g / cm^3
# Si number density = 10.243449 Si / 1000 Ang^3
#
#
#
# Elastic Constant Matrix: (Units=GPa)
#
#
# Indices 1 2 3 4 5 6 
#
# 1 118.7164 26.4794 22.7220 0.0050 -11.1841 0.0021
# 2 26.4794 21.3141 22.3151 0.0266 -3.1332 -0.0007
# 3 22.7220 22.3151 53.5258 0.0262 -11.1009 -0.0153
# 4 0.0050 0.0266 0.0262 21.9760 -0.0017 -2.5784
# 5 -11.1841 -3.1332 -11.1009 -0.0017 25.5954 -0.0072
# 6 0.0021 -0.0007 -0.0153 -2.5784 -0.0072 37.7891
#
#
#
# Elastic Compliance Matrix: (Units=1/GPa)
#
#
# Indices 1 2 3 4 5 6 
#
# 1 0.012225 -0.017875 0.003205 0.000016 0.004544 0.000002
# 2 -0.017875 0.110065 -0.040793 -0.000084 -0.012030 -0.000021
# 3 0.003205 -0.040793 0.036903 0.000008 0.012412 0.000017
# 4 0.000016 -0.000084 0.000008 0.045872 0.000004 0.003130
# 5 0.004544 -0.012030 0.012412 0.000004 0.044965 0.000013
# 6 0.000002 -0.000021 0.000017 0.003130 0.000013 0.026676
#
#
# Mechanical properties :
#
#
# Convention : Reuss Voigt Hill
#
# Bulk Modulus (GPa) = 20.71841 37.39881 29.05861
# Shear Modulus (GPa) = 12.38474 25.20809 18.79641
#
# Velocity S-wave (km/s) = 2.46137 3.51158 3.03229
# Velocity P-wave (km/s) = 4.26764 5.89374 5.14533
#
# Compressibility (1/GPa) = 0.04826626
#
# Stress axis : x y z
#
# Youngs Moduli (GPa) = 81.79891 9.08551 27.09801
#
# Poissons Ratio (x) = 0.16241 -0.08685
# Poissons Ratio (y) = 1.46218 1.10542
# Poissons Ratio (z) = -0.26216 0.37063
#
# Static dielectric constant tensor:
#      x y z
#    x 3.604640 -0.000080 -0.180660 
#    y -0.000080 3.533740 0.000270 
#    z -0.180660 0.000270 3.717330 
# 
# 
# High freq. dielectric constant tensor:
#      x y z
#    x 1.798230 0.000000 -0.012820 
#    y 0.000000 1.790880 0.000000 
#    z -0.012820 0.000000 1.797370 
# 
# From -- ./inp_files/295546.got.cif
#   From: 2010.06.25/outbox.ucp.g09.slc.cvg/sg12_148_cif.got.tgz:295546.got - 2010.06.28 13:50:54.
