data_PCOD8116016
_publ_section_title
;
Structure prediction by ZEFSAII (Michael W. Deem and Ramdas Pophale) SiO2 
 PCOD8116016
Probable space group: C 2/M
;
_chemical_formula_sum "Si O2"
_cell_formula_units_Z 56
_cell_length_a 22.663675
_cell_length_b 9.812626
_cell_length_c 25.523239
_cell_angle_alpha 90.000000
_cell_angle_beta 141.065315
_cell_angle_gamma 90.000000
_cell_volume 3567.065517
_symmetry_space_group_name_H-M "C 2/M"
_symmetry_group_IT_number 12
_symmetry_cell_setting 'monoclinic'
loop_
_space_group_symop_operation_xyz
x,y,z
-x,y,-z
-x,-y,-z
x,-y,z
1/2+x,1/2+y,z
1/2-x,1/2+y,-z
1/2-x,1/2-y,-z
1/2+x,1/2-y,z
loop_
_atom_site_type_symbol
_atom_site_label
_atom_site_fract_x
_atom_site_fract_y
_atom_site_fract_z
Si Si1 0.471436 0.161747 0.423912
Si Si2 0.106273 0.843180 0.223673
Si Si3 0.622748 0.842244 0.444467
Si Si4 0.665446 0.343382 0.380632
Si Si5 0.491001 0.152700 0.078673
Si Si6 0.765900 0.658423 0.250240
Si Si7 0.652488 0.846930 0.104355
O O1 0.500000 0.224233 0.500000
O O2 0.545230 0.211822 0.431512
O O3 0.368068 0.212897 0.337091
O O4 0.472923 0.000000 0.428765
O O5 0.130268 0.800969 0.299166
O O6 0.197751 0.813055 0.251978
O O7 0.016369 0.755888 0.142945
O O8 0.076829 0.000000 0.198973
O O9 0.612495 0.752855 0.385159
O O10 0.723176 0.819551 0.540804
O O11 0.606868 0.000000 0.418561
O O12 0.641062 0.500000 0.376711
O O13 0.571388 0.159373 0.091066
O O14 0.483693 0.000000 0.096670
O O15 0.392334 0.194053 0.982939
O O16 0.767315 0.500000 0.235775
O O17 0.733909 0.741433 0.176518
O O18 0.694130 0.000000 0.130358
#
# Coordination Sequence:
#
# PCOD8116016 Si02
#       7
#     8   8   8   8   8   8   8
#     4   9  16  27  44  64  85 109 138 171 203 237
#     4   9  16  25  39  61  86 109 134 167 207 244
#     4   9  17  29  45  62  80 108 143 171 199 239
#     4   9  17  29  43  60  84 110 136 170 208 241
#     4   8  14  24  38  56  80 110 139 165 197 242
#     4   9  16  25  40  62  84 108 139 170 200 239
#     4   8  14  25  38  54  81 113 138 162 199 245
#
# _framework density 15.699179000000001
#
# number of rings (size 3 to 8) (size 9 to 14) (size 15 to 20)
#    0.000    3.286    0.000    1.714    0.000    4.571 
#    0.000    3.571    0.000    3.429    0.000    1.000 
#    0.000    0.000    0.000    0.000    0.000    0.000 
#
# Total GULP energy -347098.660777 kJ/mol
# GULP energy per Si atom -12396.380742 kJ/mol
# Density = 1.566345 g / cm^3
# Si number density = 15.699179 Si / 1000 Ang^3
#
#
#
# Elastic Constant Matrix: (Units=GPa)
#
#
# Indices 1 2 3 4 5 6 
#
# 1 69.9480 38.9672 52.9212 0.0000 -7.2862 0.0000
# 2 38.9672 69.7202 72.4455 0.0000 -9.5487 0.0000
# 3 52.9212 72.4455 149.1490 0.0000 -10.7959 0.0000
# 4 0.0000 0.0000 0.0000 27.4185 0.0000 -5.1168
# 5 -7.2862 -9.5487 -10.7959 0.0000 20.0142 0.0000
# 6 0.0000 0.0000 0.0000 -5.1168 0.0000 16.1320
#
#
#
# Elastic Compliance Matrix: (Units=1/GPa)
#
#
# Indices 1 2 3 4 5 6 
#
# 1 0.021785 -0.008105 -0.003641 0.000000 0.002100 0.000000
# 2 -0.008105 0.032805 -0.012633 0.000000 0.005887 0.000000
# 3 -0.003641 -0.012633 0.014153 0.000000 0.000282 0.000000
# 4 0.000000 0.000000 0.000000 0.038766 0.000000 0.012296
# 5 0.002100 0.005887 0.000282 0.000000 0.053690 0.000000
# 6 0.000000 0.000000 0.000000 0.012296 0.000000 0.065889
#
#
# Mechanical properties :
#
#
# Convention : Reuss Voigt Hill
#
# Bulk Modulus (GPa) = 50.03373 68.60945 59.32159
# Shear Modulus (GPa) = 17.69868 21.01183 19.35525
#
# Velocity S-wave (km/s) = 3.36127 3.66239 3.51505
# Velocity P-wave (km/s) = 6.85592 7.85376 7.37174
#
# Compressibility (1/GPa) = 0.01998652
#
# Stress axis : x y z
#
# Youngs Moduli (GPa) = 45.90338 30.48271 70.65639
#
# Poissons Ratio (x) = 0.24706 0.25726
# Poissons Ratio (y) = 0.37204 0.89258
# Poissons Ratio (z) = 0.16714 0.38508
#
# Static dielectric constant tensor:
#      x y z
#    x 2.696330 0.000000 -0.035770 
#    y 0.000000 2.968120 0.000000 
#    z -0.035770 0.000000 3.252070 
# 
# 
# High freq. dielectric constant tensor:
#      x y z
#    x 1.560210 0.000000 -0.005670 
#    y 0.000000 1.590500 0.000000 
#    z -0.005670 0.000000 1.610290 
# 
# From -- ./inp_files/280198.got.cif
#   From: 2010.06.25/outbox.cif.g09.slc.cpg/sg12_141_cif.got.tgz:280198.got - 2010.06.28 00:19:55.
