data_PCOD8116297
_publ_section_title
;
Structure prediction by ZEFSAII (Michael W. Deem and Ramdas Pophale) SiO2 
 PCOD8116297
Probable space group: C 2/M
;
_chemical_formula_sum "Si O2"
_cell_formula_units_Z 32
_cell_length_a 18.000000
_cell_length_b 9.000000
_cell_length_c 30.000000
_cell_angle_alpha 90.000000
_cell_angle_beta 40.000000
_cell_angle_gamma 90.000000
_cell_volume 3123.947783
_symmetry_space_group_name_H-M "C 2/M"
_symmetry_group_IT_number 12
_symmetry_cell_setting 'monoclinic'
loop_
_space_group_symop_operation_xyz
x,y,z
-x,y,-z
-x,-y,-z
x,-y,z
1/2+x,1/2+y,z
1/2-x,1/2+y,-z
1/2-x,1/2-y,-z
1/2+x,1/2-y,z
loop_
_atom_site_type_symbol
_atom_site_label
_atom_site_fract_x
_atom_site_fract_y
_atom_site_fract_z
Si Si1 0.991195 0.174479 0.635284
Si Si2 0.506514 0.670535 0.224595
Si Si3 0.226350 0.666914 0.228441
Si Si4 0.927500 0.672270 0.489484
Si Si5 0.471680 0.331968 0.138916
Si Si6 0.766249 0.667825 0.873431
Si Si7 0.166318 0.675262 0.002837
Si Si8 0.325082 0.674920 0.377305
O O1 0.872195 0.217159 0.714075
O O2 0.004855 0.248461 0.581209
O O3 0.095154 0.229303 0.618842
O O4 0.992511 0.000000 0.628195
O O5 0.529888 0.500000 0.228627
O O6 0.520571 0.687944 0.165634
O O7 0.604633 0.778424 0.197543
O O8 0.384625 0.722361 0.302761
O O9 0.178816 0.500000 0.258859
O O10 0.336886 0.704385 0.207859
O O11 0.286068 0.677490 0.151946
O O12 0.917723 0.500000 0.481348
O O13 0.801457 0.745581 0.556941
O O14 0.000000 0.698996 0.500000
O O15 0.491049 0.500000 0.112651
O O16 0.535780 0.220804 0.075452
O O17 0.766642 0.500000 0.892312
O O18 0.696022 0.771957 0.939347
O O19 0.181807 0.500000 0.997861
O O20 0.250000 0.750000 0.000000
O O21 0.308575 0.500000 0.384860
#
# Coordination Sequence:
#
# PCOD8116297 Si02
#       8
#     8   8   8   8   8   8   8   8
#     4  11  22  38  61  86 121 159 196 245 297 354
#     4  10  19  35  61  87 116 153 200 250 298 355
#     4  10  23  41  62  90 122 158 201 246 297 358
#     4  10  22  39  62  88 118 156 199 245 295 357
#     4  10  22  39  62  89 119 157 198 248 303 355
#     4  11  22  38  61  89 122 156 200 250 296 354
#     4  12  24  39  61  88 120 158 202 249 299 359
#     4   9  19  36  59  89 117 154 200 242 294 353
#
# _framework density 10.243449
#
# number of rings (size 3 to 8) (size 9 to 14) (size 15 to 20)
#    0.000    1.625    2.500    2.250    1.750    1.750 
#    0.000    3.750    0.000    0.000    0.000    0.000 
#    0.000    0.000    0.000    0.000    0.000    0.000 
#
# Total GULP energy -396694.871749 kJ/mol
# GULP energy per Si atom -12396.714742 kJ/mol
# Density = 1.022013 g / cm^3
# Si number density = 10.243449 Si / 1000 Ang^3
#
#
#
# Elastic Constant Matrix: (Units=GPa)
#
#
# Indices 1 2 3 4 5 6 
#
# 1 30.2430 38.9401 30.3958 0.0008 -7.0400 0.0048
# 2 38.9401 89.6284 52.3873 0.0033 4.1210 0.0068
# 3 30.3958 52.3873 132.2652 0.0001 12.4040 0.0003
# 4 0.0008 0.0033 0.0001 31.7067 0.0000 -3.1743
# 5 -7.0400 4.1210 12.4040 0.0000 25.2603 0.0012
# 6 0.0048 0.0068 0.0003 -3.1743 0.0012 17.7942
#
#
#
# Elastic Compliance Matrix: (Units=1/GPa)
#
#
# Indices 1 2 3 4 5 6 
#
# 1 0.111852 -0.043173 -0.012777 0.000000 0.044490 -0.000017
# 2 -0.043173 0.031188 -0.000866 -0.000002 -0.016695 0.000001
# 3 -0.012777 -0.000866 0.011699 0.000001 -0.009165 0.000004
# 4 0.000000 -0.000002 0.000001 0.032113 0.000000 0.005729
# 5 0.044490 -0.016695 -0.009165 0.000000 0.059211 -0.000010
# 6 -0.000017 0.000001 0.000004 0.005729 -0.000010 0.057220
#
#
# Mechanical properties :
#
#
# Convention : Reuss Voigt Hill
#
# Bulk Modulus (GPa) = 24.32635 55.06477 39.69556
# Shear Modulus (GPa) = 11.61128 23.64648 17.62888
#
# Velocity S-wave (km/s) = 2.38327 3.40107 2.93660
# Velocity P-wave (km/s) = 4.41284 6.50841 5.56024
#
# Compressibility (1/GPa) = 0.04110769
#
# Stress axis : x y z
#
# Youngs Moduli (GPa) = 8.94040 32.06405 85.47622
#
# Poissons Ratio (x) = 1.38429 1.09214
# Poissons Ratio (y) = 0.38598 0.07398
# Poissons Ratio (z) = 0.11423 0.02775
#
# Static dielectric constant tensor:
#      x y z
#    x 3.699520 0.000000 -0.004470 
#    y 0.000000 3.570470 0.000000 
#    z -0.004470 0.000000 3.875270 
# 
# 
# High freq. dielectric constant tensor:
#      x y z
#    x 1.789920 0.000000 0.005720 
#    y 0.000000 1.779470 0.000000 
#    z 0.005720 0.000000 1.818400 
# 
# From -- ./inp_files/378255.got.cif
#   From: 2010.06.25/outbox.ucp.g09.slc.cvg/sg12_190_cif.got.tgz:378255.got - 2010.06.28 13:50:54.
