data_PCOD8116558
_publ_section_title
;
Structure prediction by ZEFSAII (Michael W. Deem and Ramdas Pophale) SiO2 
 PCOD8116558
Probable space group: C 2/M
;
_chemical_formula_sum "Si O2"
_cell_formula_units_Z 32
_cell_length_a 18.000000
_cell_length_b 9.000000
_cell_length_c 30.000000
_cell_angle_alpha 90.000000
_cell_angle_beta 40.000000
_cell_angle_gamma 90.000000
_cell_volume 3123.947783
_symmetry_space_group_name_H-M "C 2/M"
_symmetry_group_IT_number 12
_symmetry_cell_setting 'monoclinic'
loop_
_space_group_symop_operation_xyz
x,y,z
-x,y,-z
-x,-y,-z
x,-y,z
1/2+x,1/2+y,z
1/2-x,1/2+y,-z
1/2-x,1/2-y,-z
1/2+x,1/2-y,z
loop_
_atom_site_type_symbol
_atom_site_label
_atom_site_fract_x
_atom_site_fract_y
_atom_site_fract_z
Si Si1 0.373712 0.174927 0.214952
Si Si2 0.924066 0.677571 0.814433
Si Si3 0.826628 0.167077 0.559348
Si Si4 0.546487 0.328235 0.907989
Si Si5 0.332376 0.164349 0.641262
Si Si6 0.672359 0.671120 0.942754
Si Si7 0.432650 0.168409 0.331914
Si Si8 0.077481 0.333951 0.567299
O O1 0.488886 0.227224 0.187207
O O2 0.388275 0.230615 0.158157
O O3 0.262334 0.242576 0.289239
O O4 0.357444 0.000000 0.222880
O O5 0.918639 0.500000 0.812838
O O6 0.799195 0.747461 0.884465
O O7 0.972586 0.741807 0.744794
O O8 0.883738 0.260413 0.572785
O O9 0.691522 0.171721 0.634861
O O10 0.850830 0.235405 0.500029
O O11 0.874875 0.000000 0.537445
O O12 0.542110 0.500000 0.894819
O O13 0.621455 0.309947 0.917468
O O14 0.416798 0.265443 0.978918
O O15 0.442433 0.153521 0.621495
O O16 0.283493 0.000000 0.652694
O O17 0.688059 0.500000 0.947447
O O18 0.416741 0.247507 0.387101
O O19 0.471446 0.000000 0.324145
O O20 0.133078 0.500000 0.542101
#
# Coordination Sequence:
#
# PCOD8116558 Si02
#       8
#     8   8   8   8   8   8   8   8
#     4  11  22  36  55  80 111 148 183 219 271 328
#     4   9  17  32  55  79 107 145 185 222 265 320
#     4  11  21  37  59  81 110 145 176 219 277 331
#     4   9  18  34  57  87 113 139 180 226 268 313
#     4  11  23  38  57  81 109 142 183 231 272 315
#     4   8  16  32  57  84 111 143 182 224 264 314
#     4   9  18  34  55  80 108 141 182 224 268 321
#     4  10  22  37  57  83 106 139 186 228 269 320
#
# _framework density 10.243449
#
# number of rings (size 3 to 8) (size 9 to 14) (size 15 to 20)
#    0.000    2.250    1.250    2.625    1.750    3.000 
#    0.000    1.875    0.000    2.250    0.000    0.000 
#    0.000    0.000    0.000    0.000    0.000    0.000 
#
# Total GULP energy -396557.301111 kJ/mol
# GULP energy per Si atom -12392.415660 kJ/mol
# Density = 1.022013 g / cm^3
# Si number density = 10.243449 Si / 1000 Ang^3
#
#
#
# Elastic Constant Matrix: (Units=GPa)
#
#
# Indices 1 2 3 4 5 6 
#
# 1 24.9632 12.3521 -0.0248 0.0002 4.7763 0.0029
# 2 12.3521 67.6434 26.3731 0.0015 11.3845 0.0046
# 3 -0.0248 26.3731 73.0534 -0.0009 7.7352 -0.0013
# 4 0.0002 0.0015 -0.0009 25.7535 0.0001 1.2332
# 5 4.7763 11.3845 7.7352 0.0001 35.2189 0.0011
# 6 0.0029 0.0046 -0.0013 1.2332 0.0011 14.1314
#
#
#
# Elastic Compliance Matrix: (Units=1/GPa)
#
#
# Indices 1 2 3 4 5 6 
#
# 1 0.045308 -0.009039 0.003706 0.000001 -0.004037 -0.000006
# 2 -0.009039 0.019668 -0.006716 -0.000001 -0.003657 -0.000005
# 3 0.003706 -0.006716 0.016317 0.000001 -0.001915 0.000003
# 4 0.000001 -0.000001 0.000001 0.038993 0.000000 -0.003403
# 5 -0.004037 -0.003657 -0.001915 0.000000 0.030544 -0.000001
# 6 -0.000006 -0.000005 0.000003 -0.003403 -0.000001 0.071061
#
#
# Mechanical properties :
#
#
# Convention : Reuss Voigt Hill
#
# Bulk Modulus (GPa) = 17.48424 27.00675 22.24550
# Shear Modulus (GPa) = 18.86409 23.48474 21.17441
#
# Velocity S-wave (km/s) = 3.03774 3.38942 3.21839
# Velocity P-wave (km/s) = 4.56691 5.34122 4.96917
#
# Compressibility (1/GPa) = 0.05719436
#
# Stress axis : x y z
#
# Youngs Moduli (GPa) = 22.07140 50.84413 61.28464
#
# Poissons Ratio (x) = 0.45958 -0.22712
# Poissons Ratio (y) = 0.19950 0.41160
# Poissons Ratio (z) = -0.08180 0.34148
#
# Static dielectric constant tensor:
#      x y z
#    x 3.593990 0.000000 -0.056050 
#    y 0.000000 3.404700 0.000000 
#    z -0.056050 0.000000 3.980050 
# 
# 
# High freq. dielectric constant tensor:
#      x y z
#    x 1.789790 0.000000 0.000800 
#    y 0.000000 1.753000 0.000000 
#    z 0.000800 0.000000 1.821380 
# 
# From -- ./inp_files/378141.got.cif
#   From: 2010.06.25/outbox.ucp.g09.slc.cvg/sg12_190_cif.got.tgz:378141.got - 2010.06.28 13:50:54.
