data_PCOD8116943
_publ_section_title
;
Structure prediction by ZEFSAII (Michael W. Deem and Ramdas Pophale) SiO2 
 PCOD8116943
Probable space group: P 2/C
;
_chemical_formula_sum "Si O2"
_cell_formula_units_Z 32
_cell_length_a 9.870680
_cell_length_b 13.243548
_cell_length_c 12.006637
_cell_angle_alpha 90.000000
_cell_angle_beta 104.306533
_cell_angle_gamma 90.000000
_cell_volume 1520.866191
_symmetry_space_group_name_H-M "P 2/C"
_symmetry_group_IT_number 13
_symmetry_cell_setting 'monoclinic'
loop_
_space_group_symop_operation_xyz
x,y,z
-x,y,1/2-z
-x,-y,-z
x,-y,1/2+z
loop_
_atom_site_type_symbol
_atom_site_label
_atom_site_fract_x
_atom_site_fract_y
_atom_site_fract_z
Si Si1 0.072434 0.129804 0.880732
Si Si2 0.494324 0.130554 0.879522
Si Si3 0.922149 0.717041 0.481618
Si Si4 0.285228 0.033091 0.428392
Si Si5 0.846760 0.425305 0.774063
Si Si6 0.304605 0.701797 0.424617
Si Si7 0.162334 0.219741 0.309383
Si Si8 0.205167 0.635215 0.627132
O O1 0.174356 0.223774 0.879784
O O2 0.000000 0.099864 0.750000
O O3 0.964006 0.168633 0.952525
O O4 0.154988 0.033333 0.947305
O O5 0.500000 0.147521 0.750000
O O6 0.446462 0.237119 0.924730
O O7 0.389410 0.040757 0.886303
O O8 0.645245 0.095904 0.956381
O O9 0.846357 0.663747 0.364100
O O10 0.819325 0.727539 0.566003
O O11 0.052705 0.648465 0.543198
O O12 0.234094 0.110653 0.323573
O O13 0.729191 0.394263 0.660287
O O14 0.786836 0.523800 0.821998
O O15 0.000000 0.443708 0.750000
O O16 0.318121 0.658511 0.553247
O O17 0.238021 0.286241 0.232032
O O18 0.000000 0.207297 0.250000
#
# Coordination Sequence:
#
# PCOD8116943 Si02
#       8
#     4   4   4   4   4   4   4   4
#     4  10  17  34  56  91 129 160 197 242 309 379
#     4  10  24  43  63  87 109 159 222 268 302 364
#     4  10  19  32  53  88 132 162 192 235 296 380
#     4  10  23  38  61  87 118 160 208 256 315 359
#     4  12  19  33  61  93 121 166 197 250 303 370
#     4  10  21  38  59  86 122 159 208 256 309 358
#     4  10  22  36  53  91 130 166 188 244 312 371
#     4  10  22  35  56  88 129 157 201 244 303 381
#
# _framework density 21.040641000000001
#
# number of rings (size 3 to 8) (size 9 to 14) (size 15 to 20)
#    0.000    1.750    3.750    1.875    3.500    5.500 
#    0.000    0.000    0.000    3.000    0.000    0.000 
#    0.000    0.000    0.000    0.000    0.000    0.000 
#
# Total GULP energy -396756.564564 kJ/mol
# GULP energy per Si atom -12398.642643 kJ/mol
# Density = 2.099275 g / cm^3
# Si number density = 21.040641 Si / 1000 Ang^3
#
#
#
# Elastic Constant Matrix: (Units=GPa)
#
#
# Indices 1 2 3 4 5 6 
#
# 1 41.2447 50.4466 52.8655 0.0000 -6.5652 0.0000
# 2 50.4466 143.2821 74.1498 0.0000 -4.8176 0.0000
# 3 52.8655 74.1498 146.4307 0.0000 -28.0542 0.0000
# 4 0.0000 0.0000 0.0000 27.2507 0.0000 5.7694
# 5 -6.5652 -4.8176 -28.0542 0.0000 25.1881 0.0000
# 6 0.0000 0.0000 0.0000 5.7694 0.0000 15.3486
#
#
#
# Elastic Compliance Matrix: (Units=1/GPa)
#
#
# Indices 1 2 3 4 5 6 
#
# 1 0.059721 -0.012965 -0.015876 0.000000 -0.004596 0.000000
# 2 -0.012965 0.012688 -0.002449 0.000000 -0.003681 0.000000
# 3 -0.015876 -0.002449 0.016423 0.000000 0.013685 0.000000
# 4 0.000000 0.000000 0.000000 0.039869 0.000000 -0.014986
# 5 -0.004596 -0.003681 0.013685 0.000000 0.053042 0.000000
# 6 0.000000 0.000000 0.000000 -0.014986 0.000000 0.070786
#
#
# Mechanical properties :
#
#
# Convention : Reuss Voigt Hill
#
# Bulk Modulus (GPa) = 38.09422 76.20904 57.15163
# Shear Modulus (GPa) = 15.43881 23.79051 19.61466
#
# Velocity S-wave (km/s) = 2.71174 3.36623 3.05655
# Velocity P-wave (km/s) = 5.28669 7.16988 6.29906
#
# Compressibility (1/GPa) = 0.02625070
#
# Stress axis : x y z
#
# Youngs Moduli (GPa) = 16.74464 78.81682 60.88969
#
# Poissons Ratio (x) = 1.02184 0.96670
# Poissons Ratio (y) = 0.21709 0.14914
# Poissons Ratio (z) = 0.26584 0.19305
#
# Static dielectric constant tensor:
#      x y z
#    x 3.613190 0.000000 -0.114630 
#    y 0.000000 3.822320 0.000000 
#    z -0.114630 0.000000 3.952790 
# 
# 
# High freq. dielectric constant tensor:
#      x y z
#    x 1.784900 0.000000 -0.009980 
#    y 0.000000 1.827920 0.000000 
#    z -0.009980 0.000000 1.831920 
# 
# From -- ./inp_files/34180.got.cif
#   From: 2010.06.25/outbox.cif.g09.slc.cpg/sg13_18_cif.got.tgz:34180.got - 2010.06.28 04:50:58.
