data_PCOD8116929
_publ_section_title
;
Structure prediction by ZEFSAII (Michael W. Deem and Ramdas Pophale) SiO2 
 PCOD8116929
Probable space group: P 2/C
;
_chemical_formula_sum "Si O2"
_cell_formula_units_Z 26
_cell_length_a 8.760612
_cell_length_b 15.173360
_cell_length_c 11.526761
_cell_angle_alpha 90.000000
_cell_angle_beta 65.562889
_cell_angle_gamma 90.000000
_cell_volume 1394.965059
_symmetry_space_group_name_H-M "P 2/C"
_symmetry_group_IT_number 13
_symmetry_cell_setting 'monoclinic'
loop_
_space_group_symop_operation_xyz
x,y,z
-x,y,1/2-z
-x,-y,-z
x,-y,1/2+z
loop_
_atom_site_type_symbol
_atom_site_label
_atom_site_fract_x
_atom_site_fract_y
_atom_site_fract_z
Si Si1 0.329849 0.392495 0.755274
Si Si2 0.586749 0.136679 0.949414
Si Si3 0.876997 0.104896 0.689992
Si Si4 0.350653 0.673733 0.995258
Si Si5 0.500000 0.561087 0.750000
Si Si6 0.986600 0.287417 0.616379
Si Si7 0.639117 0.010268 0.610608
O O1 0.500000 0.345838 0.750000
O O2 0.328190 0.382301 0.618239
O O3 0.338075 0.497713 0.779295
O O4 0.167655 0.351043 0.871352
O O5 0.715831 0.147637 0.803501
O O6 0.416351 0.092812 0.953433
O O7 0.555744 0.233253 0.011438
O O8 0.668640 0.074840 0.022303
O O9 0.957736 0.185115 0.591741
O O10 0.815774 0.030645 0.618679
O O11 0.000000 0.063977 0.750000
O O12 0.468315 0.621849 0.870517
O O13 0.162438 0.685317 0.001833
O O14 0.000000 0.290470 0.750000
O O15 0.500000 0.987497 0.750000
#
# Coordination Sequence:
#
# PCOD8116929 Si02
#       7
#     4   4   4   4   2   4   4
#     4   9  20  35  58  85 103 135 190 229 276 328
#     4  10  19  34  52  79 106 149 183 226 274 324
#     4  10  17  33  53  82 105 140 190 227 274 320
#     4  11  20  37  57  79 115 145 185 227 279 341
#     4  10  24  34  56  84 112 148 178 224 290 338
#     4   9  17  33  56  81 104 139 182 231 270 320
#     4   9  21  32  52  79 112 141 186 228 271 329
#
# _framework density 18.638459999999998
#
# number of rings (size 3 to 8) (size 9 to 14) (size 15 to 20)
#    0.462    1.846    4.615    0.462    3.231    1.231 
#    0.000    0.000    0.000    0.000    0.000    0.000 
#    0.000    0.000    0.000    0.000    0.000    0.000 
#
# Total GULP energy -322240.103862 kJ/mol
# GULP energy per Si atom -12393.850149 kJ/mol
# Density = 1.859604 g / cm^3
# Si number density = 18.638460 Si / 1000 Ang^3
#
#
#
# Elastic Constant Matrix: (Units=GPa)
#
#
# Indices 1 2 3 4 5 6 
#
# 1 83.8805 22.1420 7.5913 0.0000 7.0953 0.0000
# 2 22.1420 87.3626 17.0040 0.0000 13.4313 0.0000
# 3 7.5913 17.0040 37.4693 0.0000 7.2815 0.0000
# 4 0.0000 0.0000 0.0000 15.6043 0.0000 2.7229
# 5 7.0953 13.4313 7.2815 0.0000 22.0754 0.0000
# 6 0.0000 0.0000 0.0000 2.7229 0.0000 28.2054
#
#
#
# Elastic Compliance Matrix: (Units=1/GPa)
#
#
# Indices 1 2 3 4 5 6 
#
# 1 0.012918 -0.002758 -0.000946 0.000000 -0.002162 0.000000
# 2 -0.002758 0.013979 -0.004599 0.000000 -0.006102 0.000000
# 3 -0.000946 -0.004599 0.030307 0.000000 -0.006895 0.000000
# 4 0.000000 0.000000 0.000000 0.065183 0.000000 -0.006293
# 5 -0.002162 -0.006102 -0.006895 0.000000 0.051981 0.000000
# 6 0.000000 0.000000 0.000000 -0.006293 0.000000 0.036062
#
#
# Mechanical properties :
#
#
# Convention : Reuss Voigt Hill
#
# Bulk Modulus (GPa) = 24.63105 33.57631 29.10368
# Shear Modulus (GPa) = 20.78419 23.97536 22.37977
#
# Velocity S-wave (km/s) = 3.34297 3.59045 3.46892
# Velocity P-wave (km/s) = 5.30514 5.93650 5.62968
#
# Compressibility (1/GPa) = 0.04059916
#
# Stress axis : x y z
#
# Youngs Moduli (GPa) = 77.41053 71.53733 32.99556
#
# Poissons Ratio (x) = 0.19727 0.03120
# Poissons Ratio (y) = 0.21347 0.15175
# Poissons Ratio (z) = 0.07320 0.32902
#
# Static dielectric constant tensor:
#      x y z
#    x 3.701190 0.000000 -0.052990 
#    y 0.000000 3.388380 0.000000 
#    z -0.052990 0.000000 3.116230 
# 
# 
# High freq. dielectric constant tensor:
#      x y z
#    x 1.722240 0.000000 -0.001040 
#    y 0.000000 1.716520 0.000000 
#    z -0.001040 0.000000 1.689240 
# 
# From -- ./inp_files/30018.got.cif
#   From: 2010.06.25/outbox.cif.g09.slc.cpg/sg13_16_cif.got.tgz:30018.got - 2010.06.28 04:50:58.
