data_PCOD8116948
_publ_section_title
;
Structure prediction by ZEFSAII (Michael W. Deem and Ramdas Pophale) SiO2 
 PCOD8116948
Probable space group: P 2/C
;
_chemical_formula_sum "Si O2"
_cell_formula_units_Z 26
_cell_length_a 22.067282
_cell_length_b 11.007633
_cell_length_c 14.416213
_cell_angle_alpha 90.000000
_cell_angle_beta 23.365892
_cell_angle_gamma 90.000000
_cell_volume 1388.827514
_symmetry_space_group_name_H-M "P 2/C"
_symmetry_group_IT_number 13
_symmetry_cell_setting 'monoclinic'
loop_
_space_group_symop_operation_xyz
x,y,z
-x,y,1/2-z
-x,-y,-z
x,-y,1/2+z
loop_
_atom_site_type_symbol
_atom_site_label
_atom_site_fract_x
_atom_site_fract_y
_atom_site_fract_z
Si Si1 0.261779 0.255801 0.495683
Si Si2 0.033206 0.464464 0.805748
Si Si3 0.471585 0.860712 0.562910
Si Si4 0.651899 0.095269 0.974646
Si Si5 0.500000 0.430056 0.250000
Si Si6 0.623589 0.175242 0.497459
Si Si7 0.775076 0.583413 0.810359
O O1 0.108900 0.330680 0.688701
O O2 0.310368 0.169157 0.341497
O O3 0.225940 0.172807 0.637627
O O4 0.402954 0.346894 0.316495
O O5 0.146283 0.554312 0.701537
O O6 0.000000 0.517037 0.750000
O O7 0.875044 0.459414 0.083151
O O8 0.612124 0.829906 0.435724
O O9 0.465388 0.791183 0.473651
O O10 0.500000 0.000000 0.500000
O O11 0.705508 0.957288 0.877852
O O12 0.500000 0.085799 0.250000
O O13 0.387381 0.515057 0.468695
O O14 0.755464 0.272097 0.331712
O O15 0.500000 0.183010 0.750000
#
# Coordination Sequence:
#
# PCOD8116948 Si02
#       7
#     4   4   4   4   2   4   4
#     4  10  17  34  58  80 106 138 185 230 276 327
#     4  10  22  39  57  73 107 154 190 224 273 332
#     4   9  16  28  51  83 111 134 171 218 276 327
#     4   8  15  29  52  79 106 134 171 222 279 321
#     4  10  18  34  58  80 108 136 192 234 270 324
#     4  10  18  31  49  78 115 139 167 223 277 323
#     4  10  21  38  54  79 112 145 188 230 274 323
#
# _framework density 18.720828999999998
#
# number of rings (size 3 to 8) (size 9 to 14) (size 15 to 20)
#    0.000    2.462    3.077    1.846    0.000    0.000 
#    2.769    3.077    0.000    0.923    0.000    0.000 
#    0.000    0.000    0.000    0.000    0.000    0.000 
#
# Total GULP energy -322138.073746 kJ/mol
# GULP energy per Si atom -12389.925913 kJ/mol
# Density = 1.867822 g / cm^3
# Si number density = 18.720829 Si / 1000 Ang^3
#
#
#
# Elastic Constant Matrix: (Units=GPa)
#
#
# Indices 1 2 3 4 5 6 
#
# 1 136.8265 43.0429 37.6040 0.0000 27.1557 0.0000
# 2 43.0429 94.1673 29.6785 0.0000 -0.7295 0.0000
# 3 37.6040 29.6785 77.7800 0.0000 5.1642 0.0000
# 4 0.0000 0.0000 0.0000 284.8288 0.0000 109.8419
# 5 27.1557 -0.7295 5.1642 0.0000 23.4044 0.0000
# 6 0.0000 0.0000 0.0000 109.8419 0.0000 70.5549
#
#
#
# Elastic Compliance Matrix: (Units=1/GPa)
#
#
# Indices 1 2 3 4 5 6 
#
# 1 0.012470 -0.004772 -0.003286 0.000000 -0.013892 0.000000
# 2 -0.004772 0.013943 -0.003460 0.000000 0.006735 0.000000
# 3 -0.003286 -0.003460 0.015750 0.000000 0.000229 0.000000
# 4 0.000000 0.000000 0.000000 0.008785 0.000000 -0.013678
# 5 -0.013892 0.006735 0.000229 0.000000 0.059006 0.000000
# 6 0.000000 0.000000 0.000000 -0.013678 0.000000 0.035467
#
#
# Mechanical properties :
#
#
# Convention : Reuss Voigt Hill
#
# Bulk Modulus (GPa) = 52.28002 58.82494 55.55248
# Shear Modulus (GPa) = 28.59866 88.98751 58.79309
#
# Velocity S-wave (km/s) = 3.91274 6.90197 5.61011
# Velocity P-wave (km/s) = 6.95697 9.74713 8.46777
#
# Compressibility (1/GPa) = 0.01912777
#
# Stress axis : x y z
#
# Youngs Moduli (GPa) = 80.19359 71.71848 63.49032
#
# Poissons Ratio (x) = 0.34224 0.20860
# Poissons Ratio (y) = 0.38268 0.21971
# Poissons Ratio (z) = 0.26348 0.24818
#
# Static dielectric constant tensor:
#      x y z
#    x 3.857800 0.000000 0.239390 
#    y 0.000000 3.722930 0.000000 
#    z 0.239390 0.000000 3.227140 
# 
# 
# High freq. dielectric constant tensor:
#      x y z
#    x 1.732040 0.000000 0.016840 
#    y 0.000000 1.725440 0.000000 
#    z 0.016840 0.000000 1.689780 
# 
# From -- ./inp_files/58897.got.cif
#   From: 2010.06.25/outbox.cif.g09.slc.cpg/sg13_30_cif.got.tgz:58897.got - 2010.06.28 04:50:58.
