data_PCOD8116484
_publ_section_title
;
Structure prediction by ZEFSAII (Michael W. Deem and Ramdas Pophale) SiO2 
 PCOD8116484
Probable space group: C 2/M
;
_chemical_formula_sum "Si O2"
_cell_formula_units_Z 32
_cell_length_a 30.000000
_cell_length_b 9.000000
_cell_length_c 24.000000
_cell_angle_alpha 90.000000
_cell_angle_beta 30.000000
_cell_angle_gamma 90.000000
_cell_volume 3240.000000
_symmetry_space_group_name_H-M "C 2/M"
_symmetry_group_IT_number 12
_symmetry_cell_setting 'monoclinic'
loop_
_space_group_symop_operation_xyz
x,y,z
-x,y,-z
-x,-y,-z
x,-y,z
1/2+x,1/2+y,z
1/2-x,1/2+y,-z
1/2-x,1/2-y,-z
1/2+x,1/2-y,z
loop_
_atom_site_type_symbol
_atom_site_label
_atom_site_fract_x
_atom_site_fract_y
_atom_site_fract_z
Si Si1 0.842894 0.670060 0.394283
Si Si2 0.680867 0.332164 0.035224
Si Si3 0.865824 0.324503 0.631264
Si Si4 0.102844 0.826376 0.007397
Si Si5 0.921835 0.668522 0.189778
Si Si6 0.497603 0.670627 0.295602
Si Si7 0.970896 0.675517 0.622013
Si Si8 0.174863 0.825809 0.807850
O O1 0.836573 0.500000 0.421009
O O2 0.750000 0.750000 0.500000
O O3 0.859280 0.680197 0.310801
O O4 0.915371 0.745566 0.356153
O O5 0.714869 0.500000 0.999452
O O6 0.675394 0.275748 0.976346
O O7 0.580874 0.314905 0.164882
O O8 0.750000 0.250000 0.000000
O O9 0.856715 0.500000 0.644809
O O10 0.940284 0.278190 0.506801
O O11 0.774265 0.258145 0.705852
O O12 0.889630 0.272726 0.668970
O O13 0.012078 0.739938 0.113970
O O14 0.083935 0.000000 0.036695
O O15 0.132957 0.790011 0.912739
O O16 0.939197 0.500000 0.152693
O O17 0.879442 0.749570 0.182574
O O18 0.469947 0.500000 0.335114
O O19 0.529508 0.739405 0.319522
O O20 0.966664 0.500000 0.638375
O O21 0.174529 0.000000 0.795041
#
# Coordination Sequence:
#
# PCOD8116484 Si02
#       8
#     8   8   8   8   8   8   8   8
#     4  11  25  43  64  90 120 159 202 247 302 363
#     4  10  23  40  61  89 122 158 199 247 297 349
#     4   8  17  35  57  86 116 150 195 242 285 339
#     4  10  21  40  62  85 115 157 200 240 289 349
#     4  11  24  41  60  86 118 151 190 243 302 354
#     4  11  23  40  61  90 125 159 197 246 303 359
#     4   9  18  35  60  85 116 154 197 240 286 345
#     4  10  21  36  60  87 114 153 200 243 287 345
#
# _framework density 9.8765429999999999
#
# number of rings (size 3 to 8) (size 9 to 14) (size 15 to 20)
#    0.000    2.000    1.250    2.250    3.500    5.000 
#    0.000    1.875    0.000    0.000    0.000    0.000 
#    0.000    0.000    0.000    0.000    0.000    0.000 
#
# Total GULP energy -396618.764122 kJ/mol
# GULP energy per Si atom -12394.336379 kJ/mol
# Density = 0.985406 g / cm^3
# Si number density = 9.876543 Si / 1000 Ang^3
#
#
#
# Elastic Constant Matrix: (Units=GPa)
#
#
# Indices 1 2 3 4 5 6 
#
# 1 172.0858 47.0240 25.1552 0.0364 -2.2244 -0.0084
# 2 47.0240 63.8489 26.6620 0.0257 2.4950 0.0054
# 3 25.1552 26.6620 44.5905 0.0428 -8.4466 -0.0188
# 4 0.0364 0.0257 0.0428 22.0632 -0.0144 -1.0288
# 5 -2.2244 2.4950 -8.4466 -0.0144 38.1256 -0.0017
# 6 -0.0084 0.0054 -0.0188 -1.0288 -0.0017 31.8520
#
#
#
# Elastic Compliance Matrix: (Units=1/GPa)
#
#
# Indices 1 2 3 4 5 6 
#
# 1 0.007333 -0.004977 -0.001063 -0.000004 0.000518 0.000002
# 2 -0.004977 0.024954 -0.013024 0.000001 -0.004809 -0.000013
# 3 -0.001063 -0.013024 0.032319 -0.000040 0.007950 0.000020
# 4 -0.000004 0.000001 -0.000040 0.045393 0.000008 0.001466
# 5 0.000518 -0.004809 0.007950 0.000008 0.028335 0.000007
# 6 0.000002 -0.000013 0.000020 0.001466 0.000007 0.031443
#
#
# Mechanical properties :
#
#
# Convention : Reuss Voigt Hill
#
# Bulk Modulus (GPa) = 37.76599 53.13417 45.45008
# Shear Modulus (GPa) = 23.07005 30.52042 26.79524
#
# Velocity S-wave (km/s) = 3.42119 3.93504 3.68708
# Velocity P-wave (km/s) = 5.89632 6.89953 6.41756
#
# Compressibility (1/GPa) = 0.02647885
#
# Stress axis : x y z
#
# Youngs Moduli (GPa) = 136.36631 40.07362 30.94135
#
# Poissons Ratio (x) = 0.19946 0.03288
# Poissons Ratio (y) = 0.67873 0.40297
# Poissons Ratio (z) = 0.14492 0.52191
#
# Static dielectric constant tensor:
#      x y z
#    x 3.777900 0.000090 0.257920 
#    y 0.000090 3.512740 -0.000130 
#    z 0.257920 -0.000130 3.335530 
# 
# 
# High freq. dielectric constant tensor:
#      x y z
#    x 1.806420 0.000000 0.000990 
#    y 0.000000 1.750520 0.000000 
#    z 0.000990 0.000000 1.765040 
# 
# From -- ./inp_files/353330.got.cif
#   From: 2010.06.25/outbox.ucp.g09.slc.cvg/sg12_177_cif.got.tgz:353330.got - 2010.06.28 13:50:54.
