data_PCOD8116435
_publ_section_title
;
Structure prediction by ZEFSAII (Michael W. Deem and Ramdas Pophale) SiO2 
 PCOD8116435
Probable space group: C 2/M
;
_chemical_formula_sum "Si O2"
_cell_formula_units_Z 32
_cell_length_a 30.000000
_cell_length_b 9.000000
_cell_length_c 24.000000
_cell_angle_alpha 90.000000
_cell_angle_beta 30.000000
_cell_angle_gamma 90.000000
_cell_volume 3240.000000
_symmetry_space_group_name_H-M "C 2/M"
_symmetry_group_IT_number 12
_symmetry_cell_setting 'monoclinic'
loop_
_space_group_symop_operation_xyz
x,y,z
-x,y,-z
-x,-y,-z
x,-y,z
1/2+x,1/2+y,z
1/2-x,1/2+y,-z
1/2-x,1/2-y,-z
1/2+x,1/2-y,z
loop_
_atom_site_type_symbol
_atom_site_label
_atom_site_fract_x
_atom_site_fract_y
_atom_site_fract_z
Si Si1 0.020324 0.175786 0.146434
Si Si2 0.910786 0.831883 0.627610
Si Si3 0.843976 0.168644 0.400861
Si Si4 0.758302 0.332499 0.266907
Si Si5 0.550907 0.825686 0.309583
Si Si6 0.371287 0.669351 0.501056
Si Si7 0.571874 0.324178 0.967118
Si Si8 0.652913 0.323554 0.099713
O O1 0.104941 0.219895 0.093338
O O2 0.925162 0.237436 0.274719
O O3 0.010408 0.000000 0.156002
O O4 0.042285 0.238214 0.060362
O O5 0.829016 0.818393 0.675172
O O6 0.889929 0.720766 0.701329
O O7 0.000000 0.780127 0.500000
O O8 0.921186 0.000000 0.639025
O O9 0.750000 0.250000 0.500000
O O10 0.871191 0.179354 0.435184
O O11 0.827672 0.000000 0.399640
O O12 0.796185 0.500000 0.227420
O O13 0.723355 0.283312 0.366999
O O14 0.833213 0.230334 0.158329
O O15 0.450386 0.777718 0.434391
O O16 0.586864 0.736160 0.218042
O O17 0.557514 0.000000 0.290532
O O18 0.391843 0.500000 0.498419
O O19 0.577155 0.500000 0.965063
O O20 0.500000 0.269507 0.000000
O O21 0.663927 0.500000 0.093569
O O22 0.750000 0.250000 0.000000
#
# Coordination Sequence:
#
# PCOD8116435 Si02
#       8
#     8   8   8   8   8   8   8   8
#     4   9  20  41  64  86 120 162 202 246 303 366
#     4  10  20  38  61  85 120 164 200 241 300 366
#     4  10  21  38  63  90 118 154 196 250 311 365
#     4  10  22  39  62  89 117 157 208 251 300 360
#     4  12  24  37  58  90 125 159 201 252 307 367
#     4  10  20  40  63  85 119 162 202 248 310 370
#     4  10  23  42  63  87 120 163 204 250 310 367
#     4  11  23  42  64  87 121 164 210 257 308 367
#
# _framework density 9.8765429999999999
#
# number of rings (size 3 to 8) (size 9 to 14) (size 15 to 20)
#    0.000    1.750    2.500    1.500    3.500    2.000 
#    0.000    1.250    0.000    0.000    0.000    0.000 
#    0.000    0.000    0.000    0.000    0.000    0.000 
#
# Total GULP energy -396636.184145 kJ/mol
# GULP energy per Si atom -12394.880755 kJ/mol
# Density = 0.985406 g / cm^3
# Si number density = 9.876543 Si / 1000 Ang^3
#
#
#
# Elastic Constant Matrix: (Units=GPa)
#
#
# Indices 1 2 3 4 5 6 
#
# 1 97.1119 31.9932 61.7264 -0.0334 10.7354 0.0190
# 2 31.9932 63.6703 34.9673 0.0299 0.4873 -0.0080
# 3 61.7264 34.9673 177.1905 0.0501 9.3267 -0.0144
# 4 -0.0334 0.0299 0.0501 38.3723 -0.0150 -1.7655
# 5 10.7354 0.4873 9.3267 -0.0150 41.7058 0.0031
# 6 0.0190 -0.0080 -0.0144 -1.7655 0.0031 21.0847
#
#
#
# Elastic Compliance Matrix: (Units=1/GPa)
#
#
# Indices 1 2 3 4 5 6 
#
# 1 0.014891 -0.005265 -0.003997 0.000020 -0.002878 -0.000016
# 2 -0.005265 0.019491 -0.002096 -0.000016 0.001596 0.000009
# 3 -0.003997 -0.002096 0.007482 -0.000012 -0.000620 0.000007
# 4 0.000020 -0.000016 -0.000012 0.026161 0.000007 0.002191
# 5 -0.002878 0.001596 -0.000620 0.000007 0.024838 0.000000
# 6 -0.000016 0.000009 0.000007 0.002191 0.000000 0.047611
#
#
# Mechanical properties :
#
#
# Convention : Reuss Voigt Hill
#
# Bulk Modulus (GPa) = 52.22727 66.14963 59.18845
# Shear Modulus (GPa) = 29.48586 34.18493 31.83539
#
# Velocity S-wave (km/s) = 3.86777 4.16458 4.01891
# Velocity P-wave (km/s) = 6.81496 7.52900 7.18086
#
# Compressibility (1/GPa) = 0.01914708
#
# Stress axis : x y z
#
# Youngs Moduli (GPa) = 67.15659 51.30685 133.64932
#
# Poissons Ratio (x) = 0.27014 0.53417
# Poissons Ratio (y) = 0.35360 0.28015
# Poissons Ratio (z) = 0.26841 0.10755
#
# Static dielectric constant tensor:
#      x y z
#    x 3.905830 -0.000330 0.253600 
#    y -0.000330 3.501840 0.000090 
#    z 0.253600 0.000090 4.189890 
# 
# 
# High freq. dielectric constant tensor:
#      x y z
#    x 1.776920 0.000000 0.010660 
#    y 0.000000 1.746360 0.000010 
#    z 0.010660 0.000010 1.795530 
# 
# From -- ./inp_files/353307.got.cif
#   From: 2010.06.25/outbox.ucp.g09.slc.cvg/sg12_177_cif.got.tgz:353307.got - 2010.06.28 13:50:54.
