data_PCOD8116789
_publ_section_title
;
Structure prediction by ZEFSAII (Michael W. Deem and Ramdas Pophale) SiO2 
 PCOD8116789
Probable space group: P 2/C
;
_chemical_formula_sum "Si O2"
_cell_formula_units_Z 32
_cell_length_a 15.732212
_cell_length_b 11.717616
_cell_length_c 19.424261
_cell_angle_alpha 90.000000
_cell_angle_beta 152.887708
_cell_angle_gamma 90.000000
_cell_volume 1631.874582
_symmetry_space_group_name_H-M "P 2/C"
_symmetry_group_IT_number 13
_symmetry_cell_setting 'monoclinic'
loop_
_space_group_symop_operation_xyz
x,y,z
-x,y,1/2-z
-x,-y,-z
x,-y,1/2+z
loop_
_atom_site_type_symbol
_atom_site_label
_atom_site_fract_x
_atom_site_fract_y
_atom_site_fract_z
Si Si1 0.011697 0.675688 0.419328
Si Si2 0.457030 0.015565 0.295928
Si Si3 0.646960 0.264699 0.254562
Si Si4 0.703252 0.856807 0.210109
Si Si5 0.568278 0.688938 0.548650
Si Si6 0.753435 0.681222 0.038633
Si Si7 0.202726 0.084597 0.868118
Si Si8 0.229213 0.522667 0.337711
O O1 0.865463 0.766167 0.342839
O O2 0.917656 0.554764 0.329376
O O3 0.176030 0.659880 0.593547
O O4 0.110116 0.726147 0.422092
O O5 0.500000 0.969447 0.250000
O O6 0.353909 0.137662 0.213979
O O7 0.647773 0.020511 0.476831
O O8 0.319168 0.930218 0.236842
O O9 0.656931 0.252163 0.179531
O O10 0.458036 0.330580 0.142164
O O11 0.761165 0.939320 0.187295
O O12 0.509748 0.787968 0.057035
O O13 0.413113 0.598358 0.458660
O O14 0.731840 0.612643 0.631141
O O15 0.759306 0.779292 0.101438
O O16 0.831860 0.564340 0.129564
O O17 0.000000 0.047313 0.750000
#
# Coordination Sequence:
#
# PCOD8116789 Si02
#       8
#     4   4   4   4   4   4   4   4
#     4  11  19  31  55  86 115 146 188 243 286 344
#     4  11  24  38  55  84 120 156 192 244 301 351
#     4  10  20  33  53  82 119 146 185 247 299 335
#     4  11  21  37  59  82 113 156 197 235 291 356
#     4   9  18  34  52  78 106 143 189 231 281 345
#     4  10  16  32  53  83 116 142 186 237 289 337
#     4  11  18  35  59  87 111 144 196 244 286 346
#     4   9  17  30  54  77 105 144 183 228 285 342
#
# _framework density 19.609349999999999
#
# number of rings (size 3 to 8) (size 9 to 14) (size 15 to 20)
#    0.000    1.750    6.250    2.625    0.000    1.000 
#    0.000    0.000    0.000   10.500    0.000    0.000 
#    0.000    0.000    0.000    0.000    0.000    0.000 
#
# Total GULP energy -396566.940765 kJ/mol
# GULP energy per Si atom -12392.716899 kJ/mol
# Density = 1.956472 g / cm^3
# Si number density = 19.609350 Si / 1000 Ang^3
#
#
#
# Elastic Constant Matrix: (Units=GPa)
#
#
# Indices 1 2 3 4 5 6 
#
# 1 101.7144 39.1027 26.8789 0.0000 -7.4800 0.0000
# 2 39.1027 53.1543 23.3712 0.0000 6.1733 0.0000
# 3 26.8789 23.3712 117.6011 0.0000 9.8709 0.0000
# 4 0.0000 0.0000 0.0000 15.5923 0.0000 -0.1930
# 5 -7.4800 6.1733 9.8709 0.0000 22.6105 0.0000
# 6 0.0000 0.0000 0.0000 -0.1930 0.0000 25.4939
#
#
#
# Elastic Compliance Matrix: (Units=1/GPa)
#
#
# Indices 1 2 3 4 5 6 
#
# 1 0.015484 -0.011572 -0.002008 0.000000 0.009158 0.000000
# 2 -0.011572 0.029614 -0.002326 0.000000 -0.010898 0.000000
# 3 -0.002008 -0.002326 0.009786 0.000000 -0.004301 0.000000
# 4 0.000000 0.000000 0.000000 0.064140 0.000000 0.000485
# 5 0.009158 -0.010898 -0.004301 0.000000 0.052110 0.000000
# 6 0.000000 0.000000 0.000000 0.000485 0.000000 0.039229
#
#
# Mechanical properties :
#
#
# Convention : Reuss Voigt Hill
#
# Bulk Modulus (GPa) = 43.34097 50.13061 46.73579
# Shear Modulus (GPa) = 20.01082 24.94714 22.47898
#
# Velocity S-wave (km/s) = 3.19795 3.57067 3.38944
# Velocity P-wave (km/s) = 5.98214 6.52838 6.26122
#
# Compressibility (1/GPa) = 0.02307286
#
# Stress axis : x y z
#
# Youngs Moduli (GPa) = 64.58215 33.76776 102.19159
#
# Poissons Ratio (x) = 0.39075 0.20521
# Poissons Ratio (y) = 0.74732 0.23767
# Poissons Ratio (z) = 0.12969 0.07854
#
# Static dielectric constant tensor:
#      x y z
#    x 3.562000 0.000000 0.148050 
#    y 0.000000 3.333940 0.000000 
#    z 0.148050 0.000000 3.749340 
# 
# 
# High freq. dielectric constant tensor:
#      x y z
#    x 1.749290 0.000000 0.003980 
#    y 0.000000 1.716010 0.000000 
#    z 0.003980 0.000000 1.772180 
# 
# From -- ./inp_files/68750.got.cif
#   From: 2010.06.25/outbox.cif.g09.slc.cpg/sg13_35_cif.got.tgz:68750.got - 2010.06.28 04:50:58.
