data_PCOD8116513
_publ_section_title
;
Structure prediction by ZEFSAII (Michael W. Deem and Ramdas Pophale) SiO2 
 PCOD8116513
Probable space group: C 2/M
;
_chemical_formula_sum "Si O2"
_cell_formula_units_Z 32
_cell_length_a 18.000000
_cell_length_b 9.000000
_cell_length_c 30.000000
_cell_angle_alpha 90.000000
_cell_angle_beta 40.000000
_cell_angle_gamma 90.000000
_cell_volume 3123.947783
_symmetry_space_group_name_H-M "C 2/M"
_symmetry_group_IT_number 12
_symmetry_cell_setting 'monoclinic'
loop_
_space_group_symop_operation_xyz
x,y,z
-x,y,-z
-x,-y,-z
x,-y,z
1/2+x,1/2+y,z
1/2-x,1/2+y,-z
1/2-x,1/2-y,-z
1/2+x,1/2-y,z
loop_
_atom_site_type_symbol
_atom_site_label
_atom_site_fract_x
_atom_site_fract_y
_atom_site_fract_z
Si Si1 0.007349 0.169341 0.276147
Si Si2 0.291305 0.167552 0.355281
Si Si3 0.011581 0.830161 0.373767
Si Si4 0.763692 0.332632 0.266601
Si Si5 0.908446 0.324433 0.505120
Si Si6 0.423347 0.328541 0.128967
Si Si7 0.678783 0.676424 0.993949
Si Si8 0.264493 0.827500 0.857932
O O1 0.958030 0.182244 0.349331
O O2 0.134207 0.230341 0.209210
O O3 0.918354 0.266646 0.289167
O O4 0.005329 0.000000 0.260906
O O5 0.239567 0.176915 0.330103
O O6 0.216067 0.261163 0.424696
O O7 0.297703 0.000000 0.370424
O O8 0.141805 0.771796 0.304517
O O9 0.942226 0.730467 0.440487
O O10 0.012786 0.000000 0.390926
O O11 0.786800 0.500000 0.240182
O O12 0.870638 0.240245 0.198352
O O13 0.900647 0.500000 0.507439
O O14 0.000000 0.268936 0.500000
O O15 0.434482 0.500000 0.134719
O O16 0.345927 0.296743 0.121719
O O17 0.548515 0.262724 0.059455
O O18 0.682929 0.500000 0.995887
O O19 0.732040 0.727045 0.922321
O O20 0.750000 0.750000 0.000000
O O21 0.300501 0.000000 0.840980
#
# Coordination Sequence:
#
# PCOD8116513 Si02
#       8
#     8   8   8   8   8   8   8   8
#     4  11  24  41  62  90 124 156 198 252 301 352
#     4  11  24  41  62  87 121 163 201 243 302 364
#     4  10  21  40  63  87 119 159 199 246 300 357
#     4  10  21  38  61  89 119 155 202 249 297 355
#     4  11  23  38  61  92 122 154 199 253 301 352
#     4  10  21  38  63  90 118 158 204 249 295 349
#     4  10  23  41  60  89 124 160 200 245 299 355
#     4  10  21  40  64  87 119 161 203 244 295 360
#
# _framework density 10.243449
#
# number of rings (size 3 to 8) (size 9 to 14) (size 15 to 20)
#    0.000    1.625    2.500    1.500    1.750    6.000 
#    0.000    0.000    0.000    2.250    0.000    0.000 
#    0.000    0.000    0.000    0.000    0.000    0.000 
#
# Total GULP energy -396779.425019 kJ/mol
# GULP energy per Si atom -12399.357032 kJ/mol
# Density = 1.022013 g / cm^3
# Si number density = 10.243449 Si / 1000 Ang^3
#
#
#
# Elastic Constant Matrix: (Units=GPa)
#
#
# Indices 1 2 3 4 5 6 
#
# 1 51.4171 31.7128 35.1514 0.0000 -5.6957 0.0027
# 2 31.7128 65.9226 49.4964 0.0000 -1.0434 0.0002
# 3 35.1514 49.4964 130.7640 -0.0004 13.1999 0.0003
# 4 0.0000 0.0000 -0.0004 31.2751 -0.0001 3.5860
# 5 -5.6957 -1.0434 13.1999 -0.0001 26.3742 0.0016
# 6 0.0027 0.0002 0.0003 3.5860 0.0016 27.2376
#
#
#
# Elastic Compliance Matrix: (Units=1/GPa)
#
#
# Indices 1 2 3 4 5 6 
#
# 1 0.030458 -0.010775 -0.004982 0.000000 0.008645 -0.000003
# 2 -0.010775 0.025679 -0.007047 0.000000 0.002216 0.000001
# 3 -0.004982 -0.007047 0.012418 0.000000 -0.007570 0.000001
# 4 0.000000 0.000000 0.000000 0.032464 0.000000 -0.004274
# 5 0.008645 0.002216 -0.007570 0.000000 0.043659 -0.000003
# 6 -0.000003 0.000001 0.000001 -0.004274 -0.000003 0.037277
#
#
# Mechanical properties :
#
#
# Convention : Reuss Voigt Hill
#
# Bulk Modulus (GPa) = 43.57787 53.42499 48.50143
# Shear Modulus (GPa) = 21.25748 25.76026 23.50887
#
# Velocity S-wave (km/s) = 3.22470 3.54983 3.39116
# Velocity P-wave (km/s) = 5.93145 6.55256 6.24973
#
# Compressibility (1/GPa) = 0.02294743
#
# Stress axis : x y z
#
# Youngs Moduli (GPa) = 32.83233 38.94242 80.52767
#
# Poissons Ratio (x) = 0.41960 0.40116
# Poissons Ratio (y) = 0.35376 0.56749
# Poissons Ratio (z) = 0.16356 0.27443
#
# Static dielectric constant tensor:
#      x y z
#    x 3.460570 0.000030 -0.093690 
#    y 0.000030 3.620610 0.000020 
#    z -0.093690 0.000020 3.718440 
# 
# 
# High freq. dielectric constant tensor:
#      x y z
#    x 1.794150 0.000000 0.002380 
#    y 0.000000 1.789140 0.000000 
#    z 0.002380 0.000000 1.813240 
# 
# From -- ./inp_files/378051.got.cif
#   From: 2010.06.25/outbox.ucp.g09.slc.cvg/sg12_190_cif.got.tgz:378051.got - 2010.06.28 13:50:54.
