data_PCOD8116365
_publ_section_title
;
Structure prediction by ZEFSAII (Michael W. Deem and Ramdas Pophale) SiO2 
 PCOD8116365
Probable space group: C 2/M
;
_chemical_formula_sum "Si O2"
_cell_formula_units_Z 32
_cell_length_a 21.000000
_cell_length_b 18.000000
_cell_length_c 24.000000
_cell_angle_alpha 90.000000
_cell_angle_beta 160.000000
_cell_angle_gamma 90.000000
_cell_volume 3102.806740
_symmetry_space_group_name_H-M "C 2/M"
_symmetry_group_IT_number 12
_symmetry_cell_setting 'monoclinic'
loop_
_space_group_symop_operation_xyz
x,y,z
-x,y,-z
-x,-y,-z
x,-y,z
1/2+x,1/2+y,z
1/2-x,1/2+y,-z
1/2-x,1/2-y,-z
1/2+x,1/2-y,z
loop_
_atom_site_type_symbol
_atom_site_label
_atom_site_fract_x
_atom_site_fract_y
_atom_site_fract_z
Si Si1 0.980985 0.209441 0.824048
Si Si2 0.407323 0.584841 0.160362
Si Si3 0.158978 0.416683 0.460529
Si Si4 0.911778 0.657973 0.481556
Si Si5 0.083333 0.186644 0.645113
Si Si6 0.698027 0.846393 0.374149
Si Si7 0.690746 0.913443 0.249291
Si Si8 0.160806 0.333252 0.046536
O O1 0.807107 0.169675 0.711625
O O2 0.890009 0.263493 0.702032
O O3 0.115511 0.145529 0.908455
O O4 0.098511 0.258965 0.962993
O O5 0.344422 0.500000 0.092231
O O6 0.621898 0.583573 0.352155
O O7 0.293134 0.614055 0.118876
O O8 0.080142 0.500000 0.391458
O O9 0.062543 0.380022 0.436122
O O10 0.120260 0.376977 0.369141
O O11 0.000000 0.613549 0.500000
O O12 0.023682 0.734844 0.572035
O O13 0.138421 0.133235 0.637659
O O14 0.252720 0.197389 0.825964
O O15 0.921167 0.153424 0.551519
O O16 0.641362 0.895785 0.273811
O O17 0.732854 0.000000 0.274893
O O18 0.503870 0.885899 0.066006
#
# Coordination Sequence:
#
# PCOD8116365 Si02
#       8
#     8   8   8   8   8   8   8   8
#     4   9  21  36  60  83 115 152 192 236 286 340
#     4  10  20  35  55  84 116 150 191 238 288 338
#     4  10  21  36  60  88 112 145 189 243 297 338
#     4  10  21  39  60  84 113 145 191 240 285 347
#     4  11  22  36  58  82 113 156 195 232 275 337
#     4  10  20  38  60  84 115 149 196 234 280 342
#     4  11  24  38  54  84 123 158 189 230 282 337
#     4  11  21  36  56  81 116 155 196 233 276 333
#
# _framework density 10.313243
#
# number of rings (size 3 to 8) (size 9 to 14) (size 15 to 20)
#    0.000    1.750    1.250    4.125    1.750    4.750 
#    0.000    0.000    0.000    0.000    0.000    0.000 
#    0.000   10.000    0.000    0.000    0.000    0.000 
#
# Total GULP energy -396464.765537 kJ/mol
# GULP energy per Si atom -12389.523923 kJ/mol
# Density = 1.028977 g / cm^3
# Si number density = 10.313243 Si / 1000 Ang^3
#
#
#
# Elastic Constant Matrix: (Units=GPa)
#
#
# Indices 1 2 3 4 5 6 
#
# 1 160.7699 40.3659 13.2827 -0.0590 4.7337 -0.0086
# 2 40.3659 101.4820 -0.1171 -0.0575 7.5228 -0.0377
# 3 13.2827 -0.1171 44.5174 -0.0807 -1.0807 -0.0596
# 4 -0.0590 -0.0575 -0.0807 16.2693 -0.0028 2.6410
# 5 4.7337 7.5228 -1.0807 -0.0028 23.7907 -0.0115
# 6 -0.0086 -0.0377 -0.0596 2.6410 -0.0115 31.6705
#
#
#
# Elastic Compliance Matrix: (Units=1/GPa)
#
#
# Indices 1 2 3 4 5 6 
#
# 1 0.007115 -0.002786 -0.002146 0.000006 -0.000632 -0.000006
# 2 -0.002786 0.011181 0.000789 0.000031 -0.002945 0.000010
# 3 -0.002146 0.000789 0.023135 0.000104 0.001228 0.000036
# 4 0.000006 0.000031 0.000104 0.062310 -0.000002 -0.005196
# 5 -0.000632 -0.002945 0.001228 -0.000002 0.043146 0.000014
# 6 -0.000006 0.000010 0.000036 -0.005196 0.000014 0.032009
#
#
# Mechanical properties :
#
#
# Convention : Reuss Voigt Hill
#
# Bulk Modulus (GPa) = 30.16818 45.98137 38.07477
# Shear Modulus (GPa) = 25.22315 31.22862 28.22589
#
# Velocity S-wave (km/s) = 3.50072 3.89524 3.70324
# Velocity P-wave (km/s) = 5.56757 6.52467 6.06503
#
# Compressibility (1/GPa) = 0.03314751
#
# Stress axis : x y z
#
# Youngs Moduli (GPa) = 140.53944 89.43459 43.22367
#
# Poissons Ratio (x) = 0.24915 0.09275
# Poissons Ratio (y) = 0.39152 -0.03411
# Poissons Ratio (z) = 0.30156 -0.07058
#
# Static dielectric constant tensor:
#      x y z
#    x 3.999110 -0.000240 0.159690 
#    y -0.000240 3.960660 -0.000330 
#    z 0.159690 -0.000330 3.685920 
# 
# 
# High freq. dielectric constant tensor:
#      x y z
#    x 1.825900 -0.000010 0.009110 
#    y -0.000010 1.800400 -0.000030 
#    z 0.009110 -0.000030 1.795780 
# 
# From -- ./inp_files/347939.got.cif
#   From: 2010.06.25/outbox.ucp.g09.slc.cvg/sg12_174_cif.got.tgz:347939.got - 2010.06.28 13:50:54.
