data_PCOD8116647
_publ_section_title
;
Structure prediction by ZEFSAII (Michael W. Deem and Ramdas Pophale) SiO2 
 PCOD8116647
Probable space group: P 2/C
;
_chemical_formula_sum "Si O2"
_cell_formula_units_Z 20
_cell_length_a 23.236366
_cell_length_b 8.532411
_cell_length_c 5.341407
_cell_angle_alpha 90.000000
_cell_angle_beta 110.170072
_cell_angle_gamma 90.000000
_cell_volume 994.054263
_symmetry_space_group_name_H-M "P 2/C"
_symmetry_group_IT_number 13
_symmetry_cell_setting 'monoclinic'
loop_
_space_group_symop_operation_xyz
x,y,z
-x,y,1/2-z
-x,-y,-z
x,-y,1/2+z
loop_
_atom_site_type_symbol
_atom_site_label
_atom_site_fract_x
_atom_site_fract_y
_atom_site_fract_z
Si Si1 0.571524 0.660783 0.857295
Si Si2 0.250007 0.401209 0.375009
Si Si3 0.378816 0.311744 0.568214
Si Si4 0.887228 0.600184 0.830848
Si Si5 0.068562 0.934744 0.602843
O O1 0.500000 0.621611 0.750000
O O2 0.609181 0.498998 0.913787
O O3 0.590198 0.759631 0.636689
O O4 0.590195 0.759629 0.133923
O O5 0.258128 0.500002 0.637187
O O6 0.305573 0.275325 0.458358
O O7 0.181814 0.327675 0.272720
O O8 0.899570 0.499995 0.599365
O O9 0.933220 0.746440 0.899829
O O10 0.102461 0.999999 0.403691
O O11 0.000000 0.000000 0.500000
#
# Coordination Sequence:
#
# PCOD8116647 Si02
#       5
#     4   4   4   4   4
#     4  10  16  20  29  45  72 112 164 194 226 294
#     4  10  16  27  41  61  87 121 155 213 255 298
#     4  10  14  22  31  45  72 107 154 199 240 281
#     4  10  21  35  57  83 110 135 184 231 262 312
#     4  10  21  40  60  82 113 149 177 210 270 336
#
# _framework density 20.119626
#
# number of rings (size 3 to 8) (size 9 to 14) (size 15 to 20)
#    0.000    2.000    4.000    4.200    0.000    0.000 
#    0.000   12.000    0.000    0.000    0.000    0.000 
#    0.000    0.000    0.000    0.000    0.000   34.000 
#
# Total GULP energy -247765.019406 kJ/mol
# GULP energy per Si atom -12388.250970 kJ/mol
# Density = 2.007383 g / cm^3
# Si number density = 20.119626 Si / 1000 Ang^3
#
#
#
# Elastic Constant Matrix: (Units=GPa)
#
#
# Indices 1 2 3 4 5 6 
#
# 1 90.4399 36.8771 52.8810 0.0000 2.8557 0.0000
# 2 36.8771 69.6882 40.2378 0.0000 -1.5120 0.0000
# 3 52.8810 40.2378 196.0188 0.0000 -50.2710 0.0000
# 4 0.0000 0.0000 0.0000 14.5524 0.0000 -4.4478
# 5 2.8557 -1.5120 -50.2710 0.0000 39.4557 0.0000
# 6 0.0000 0.0000 0.0000 -4.4478 0.0000 4.6475
#
#
#
# Elastic Compliance Matrix: (Units=1/GPa)
#
#
# Indices 1 2 3 4 5 6 
#
# 1 0.017010 -0.005983 -0.005548 0.000000 -0.008529 0.000000
# 2 -0.005983 0.019196 -0.003010 0.000000 -0.002667 0.000000
# 3 -0.005548 -0.003010 0.010828 0.000000 0.014082 0.000000
# 4 0.000000 0.000000 0.000000 0.097128 0.000000 0.092955
# 5 -0.008529 -0.002667 0.014082 0.000000 0.043802 0.000000
# 6 0.000000 0.000000 0.000000 0.092955 0.000000 0.304133
#
#
# Mechanical properties :
#
#
# Convention : Reuss Voigt Hill
#
# Bulk Modulus (GPa) = 55.70771 68.45984 62.08378
# Shear Modulus (GPa) = 9.48474 26.80786 18.14630
#
# Velocity S-wave (km/s) = 2.17357 3.65420 3.00646
# Velocity P-wave (km/s) = 5.83503 7.20448 6.55561
#
# Compressibility (1/GPa) = 0.01795084
#
# Stress axis : x y z
#
# Youngs Moduli (GPa) = 58.78912 52.09456 92.35543
#
# Poissons Ratio (x) = 0.31167 0.51241
# Poissons Ratio (y) = 0.35172 0.27803
# Poissons Ratio (z) = 0.32617 0.15683
#
# Static dielectric constant tensor:
#      x y z
#    x 4.113850 0.000000 -0.909350 
#    y 0.000000 2.759480 0.000000 
#    z -0.909350 0.000000 6.138860 
# 
# 
# High freq. dielectric constant tensor:
#      x y z
#    x 1.791230 0.000000 -0.017870 
#    y 0.000000 1.682830 0.000000 
#    z -0.017870 0.000000 1.831030 
# 
# From -- ./inp_files/7299.got.cif
#   From: 2010.06.25/outbox.cif.g09.slc.cpg/sg13_4_cif.got.tgz:7299.got - 2010.06.28 04:50:58.
