data_PCOD8116239
_publ_section_title
;
Structure prediction by ZEFSAII (Michael W. Deem and Ramdas Pophale) SiO2 
 PCOD8116239
Probable space group: C 2/M
;
_chemical_formula_sum "Si O2"
_cell_formula_units_Z 24
_cell_length_a 12.000000
_cell_length_b 27.000000
_cell_length_c 15.000000
_cell_angle_alpha 90.000000
_cell_angle_beta 30.000000
_cell_angle_gamma 90.000000
_cell_volume 2430.000000
_symmetry_space_group_name_H-M "C 2/M"
_symmetry_group_IT_number 12
_symmetry_cell_setting 'monoclinic'
loop_
_space_group_symop_operation_xyz
x,y,z
-x,y,-z
-x,-y,-z
x,-y,z
1/2+x,1/2+y,z
1/2-x,1/2+y,-z
1/2-x,1/2-y,-z
1/2+x,1/2-y,z
loop_
_atom_site_type_symbol
_atom_site_label
_atom_site_fract_x
_atom_site_fract_y
_atom_site_fract_z
Si Si1 0.443644 0.692553 0.785637
Si Si2 0.813185 0.556353 0.451898
Si Si3 0.924587 0.654930 0.454988
Si Si4 0.986006 0.555986 0.143077
Si Si5 0.332115 0.406926 0.778419
Si Si6 0.283633 0.704524 0.091762
O O1 0.709378 0.689208 0.587871
O O2 0.342399 0.651118 0.791764
O O3 0.358921 0.745651 0.814479
O O4 0.364223 0.682771 0.941769
O O5 0.842323 0.500000 0.467065
O O6 0.870450 0.596077 0.488797
O O7 0.974671 0.566724 0.255944
O O8 0.561937 0.566386 0.594582
O O9 0.000000 0.669376 0.500000
O O10 0.120565 0.664557 0.248830
O O11 0.911901 0.500000 0.174925
O O12 0.820262 0.591103 0.203331
O O13 0.233835 0.565153 0.933757
O O14 0.500000 0.715324 0.000000
#
# Coordination Sequence:
#
# PCOD8116239 Si02
#       6
#     8   8   8   8   8   8
#     4  10  23  39  59  88 115 149 190 234 282 341
#     4  10  21  36  56  81 113 151 191 233 279 335
#     4  11  22  41  60  83 116 151 193 237 284 329
#     4  10  19  32  53  82 118 150 183 231 288 338
#     4  10  19  33  55  82 115 147 186 229 283 341
#     4  11  22  40  64  84 114 152 189 234 287 339
#
# _framework density 9.8765429999999999
#
# number of rings (size 3 to 8) (size 9 to 14) (size 15 to 20)
#    0.000    1.667    1.667    4.000    2.333    1.667 
#    0.000    1.667    0.000    0.500    0.000    0.000 
#    0.000    0.000    0.000    0.000    0.000    0.000 
#
# Total GULP energy -297573.994869 kJ/mol
# GULP energy per Si atom -12398.916453 kJ/mol
# Density = 0.985406 g / cm^3
# Si number density = 9.876543 Si / 1000 Ang^3
#
#
#
# Elastic Constant Matrix: (Units=GPa)
#
#
# Indices 1 2 3 4 5 6 
#
# 1 45.3441 29.9019 6.6392 0.0001 -11.4516 -0.0026
# 2 29.9019 86.0376 17.4324 -0.0029 -3.2876 0.0046
# 3 6.6392 17.4324 91.4749 0.0067 -0.3626 -0.0094
# 4 0.0001 -0.0029 0.0067 23.8816 -0.0040 12.0920
# 5 -11.4516 -3.2876 -0.3626 -0.0040 20.0984 0.0059
# 6 -0.0026 0.0046 -0.0094 12.0920 0.0059 9.0219
#
#
#
# Elastic Compliance Matrix: (Units=1/GPa)
#
#
# Indices 1 2 3 4 5 6 
#
# 1 0.033756 -0.011008 -0.000283 -0.000001 0.017427 0.000004
# 2 -0.011008 0.015755 -0.002218 0.000023 -0.003735 -0.000042
# 3 -0.000283 -0.002218 0.011374 -0.000032 -0.000319 0.000055
# 4 -0.000001 0.000023 -0.000032 0.130297 0.000081 -0.174637
# 5 0.017427 -0.003735 -0.000319 0.000081 0.059068 -0.000141
# 6 0.000004 -0.000042 0.000055 -0.174637 -0.000141 0.344907
#
#
# Mechanical properties :
#
#
# Convention : Reuss Voigt Hill
#
# Bulk Modulus (GPa) = 29.52844 36.75596 33.14220
# Shear Modulus (GPa) = 7.89309 21.85925 14.87617
#
# Velocity S-wave (km/s) = 2.00114 3.33021 2.74726
# Velocity P-wave (km/s) = 4.50784 5.78231 5.18439
#
# Compressibility (1/GPa) = 0.03386566
#
# Stress axis : x y z
#
# Youngs Moduli (GPa) = 29.62466 63.47004 87.91982
#
# Poissons Ratio (x) = 0.69870 0.02488
# Poissons Ratio (y) = 0.32612 0.19504
# Poissons Ratio (z) = 0.00839 0.14080
#
# Static dielectric constant tensor:
#      x y z
#    x 3.263890 0.000000 0.058750 
#    y 0.000000 3.503210 0.000000 
#    z 0.058750 0.000000 3.950150 
# 
# 
# High freq. dielectric constant tensor:
#      x y z
#    x 1.741920 0.000000 0.005060 
#    y 0.000000 1.770160 0.000000 
#    z 0.005060 0.000000 1.789800 
# 
# From -- ./inp_files/50597.got.cif
#   From: 2010.06.25/outbox.ucp.g09.slc.cvg/sg12_26_cif.got.tgz:50597.got - 2010.06.28 13:50:54.
