data_PCOD8116817
_publ_section_title
;
Structure prediction by ZEFSAII (Michael W. Deem and Ramdas Pophale) SiO2 
 PCOD8116817
Probable space group: P 2/C
;
_chemical_formula_sum "Si O2"
_cell_formula_units_Z 30
_cell_length_a 17.444905
_cell_length_b 15.436481
_cell_length_c 11.727906
_cell_angle_alpha 90.000000
_cell_angle_beta 150.552718
_cell_angle_gamma 90.000000
_cell_volume 1552.634278
_symmetry_space_group_name_H-M "P 2/C"
_symmetry_group_IT_number 13
_symmetry_cell_setting 'monoclinic'
loop_
_space_group_symop_operation_xyz
x,y,z
-x,y,1/2-z
-x,-y,-z
x,-y,1/2+z
loop_
_atom_site_type_symbol
_atom_site_label
_atom_site_fract_x
_atom_site_fract_y
_atom_site_fract_z
Si Si1 0.768328 0.134854 0.453022
Si Si2 0.035654 0.232616 0.419277
Si Si3 0.349929 0.295838 0.908051
Si Si4 0.128646 0.384670 0.181883
Si Si5 0.977406 0.090208 0.532482
Si Si6 0.500000 0.160461 0.250000
Si Si7 0.300967 0.674490 0.696889
Si Si8 0.185638 0.568127 0.341582
O O1 0.811458 0.091705 0.386304
O O2 0.593720 0.106771 0.272866
O O3 0.781346 0.238312 0.454241
O O4 0.888360 0.103192 0.702311
O O5 0.217843 0.258769 0.653457
O O6 0.000000 0.191523 0.250000
O O7 0.931941 0.318278 0.301801
O O8 0.985813 0.165372 0.450833
O O9 0.298896 0.385665 0.898465
O O10 0.365971 0.222037 0.025221
O O11 0.512997 0.313308 0.058327
O O12 0.263682 0.343422 0.280046
O O13 0.199977 0.465170 0.344035
O O14 0.992642 0.407059 0.915118
O O15 0.000000 0.000000 0.500000
O O16 0.239684 0.595433 0.538397
#
# Coordination Sequence:
#
# PCOD8116817 Si02
#       8
#     4   4   4   4   4   2   4   4
#     4  10  20  37  68  92 122 157 206 258 300 374
#     4  11  23  41  59  82 129 168 195 251 330 382
#     4  10  19  35  60  90 115 160 212 255 302 357
#     4  10  22  34  53  85 119 160 206 246 305 368
#     4  11  23  38  63  98 120 152 214 259 308 372
#     4  10  16  36  68  96 118 156 212 256 296 366
#     4  11  19  36  64  86 116 160 213 257 301 366
#     4  10  19  32  53  86 120 151 204 261 296 338
#
# _framework density 19.321999999999999
#
# number of rings (size 3 to 8) (size 9 to 14) (size 15 to 20)
#    0.000    1.600    5.333    1.200    3.733    3.733 
#    0.000    2.667    0.000    0.000    0.000    0.000 
#    0.000    0.000    0.000    0.000    0.000    0.000 
#
# Total GULP energy -371867.206694 kJ/mol
# GULP energy per Si atom -12395.573556 kJ/mol
# Density = 1.927802 g / cm^3
# Si number density = 19.322000 Si / 1000 Ang^3
#
#
#
# Elastic Constant Matrix: (Units=GPa)
#
#
# Indices 1 2 3 4 5 6 
#
# 1 148.5216 52.0316 54.0126 0.0000 13.3718 0.0000
# 2 52.0316 91.7122 35.0533 0.0000 7.1595 0.0000
# 3 54.0126 35.0533 73.7925 0.0000 2.1500 0.0000
# 4 0.0000 0.0000 0.0000 16.1837 0.0000 -8.7760
# 5 13.3718 7.1595 2.1500 0.0000 33.4117 0.0000
# 6 0.0000 0.0000 0.0000 -8.7760 0.0000 50.4440
#
#
#
# Elastic Compliance Matrix: (Units=1/GPa)
#
#
# Indices 1 2 3 4 5 6 
#
# 1 0.010321 -0.003379 -0.005861 0.000000 -0.003029 0.000000
# 2 -0.003379 0.014632 -0.004434 0.000000 -0.001498 0.000000
# 3 -0.005861 -0.004434 0.019889 0.000000 0.002016 0.000000
# 4 0.000000 0.000000 0.000000 0.068227 0.000000 0.011870
# 5 -0.003029 -0.001498 0.002016 0.000000 0.031333 0.000000
# 6 0.000000 0.000000 0.000000 0.011870 0.000000 0.021889
#
#
# Mechanical properties :
#
#
# Convention : Reuss Voigt Hill
#
# Bulk Modulus (GPa) = 57.16077 66.24681 61.70379
# Shear Modulus (GPa) = 25.06629 31.53647 28.30138
#
# Velocity S-wave (km/s) = 3.60570 4.04437 3.83132
# Velocity P-wave (km/s) = 6.85436 7.49463 7.18163
#
# Compressibility (1/GPa) = 0.01749452
#
# Stress axis : x y z
#
# Youngs Moduli (GPa) = 96.88990 68.34248 50.27869
#
# Poissons Ratio (x) = 0.23091 0.29469
# Poissons Ratio (y) = 0.32737 0.22293
# Poissons Ratio (z) = 0.56789 0.30303
#
# Static dielectric constant tensor:
#      x y z
#    x 4.327710 0.000000 0.266240 
#    y 0.000000 3.448540 0.000000 
#    z 0.266240 0.000000 3.379310 
# 
# 
# High freq. dielectric constant tensor:
#      x y z
#    x 1.767120 0.000000 0.013650 
#    y 0.000000 1.731600 0.000000 
#    z 0.013650 0.000000 1.730130 
# 
# From -- ./inp_files/34615.got.cif
#   From: 2010.06.25/outbox.cif.g09.slc.cpg/sg13_18_cif.got.tgz:34615.got - 2010.06.28 04:50:58.
