data_PCOD8116598
_publ_section_title
;
Structure prediction by ZEFSAII (Michael W. Deem and Ramdas Pophale) SiO2 
 PCOD8116598
Probable space group: C 2/M
;
_chemical_formula_sum "Si O2"
_cell_formula_units_Z 22
_cell_length_a 18.000000
_cell_length_b 12.000000
_cell_length_c 30.000000
_cell_angle_alpha 90.000000
_cell_angle_beta 20.000000
_cell_angle_gamma 90.000000
_cell_volume 2216.290529
_symmetry_space_group_name_H-M "C 2/M"
_symmetry_group_IT_number 12
_symmetry_cell_setting 'monoclinic'
loop_
_space_group_symop_operation_xyz
x,y,z
-x,y,-z
-x,-y,-z
x,-y,z
1/2+x,1/2+y,z
1/2-x,1/2+y,-z
1/2-x,1/2-y,-z
1/2+x,1/2-y,z
loop_
_atom_site_type_symbol
_atom_site_label
_atom_site_fract_x
_atom_site_fract_y
_atom_site_fract_z
Si Si1 0.927639 0.000000 0.145705
Si Si2 0.041611 0.500000 0.422136
Si Si3 0.252858 0.500000 0.155243
Si Si4 0.371185 0.767321 0.478866
Si Si5 0.062966 0.267054 0.237599
Si Si6 0.719577 0.365560 0.235339
Si Si7 0.651587 0.265017 0.007715
O O1 0.732007 0.000000 0.220437
O O2 0.804621 0.000000 0.263378
O O3 0.070666 0.892188 0.053062
O O4 0.000000 0.500000 0.500000
O O5 0.941910 0.392049 0.453319
O O6 0.133273 0.391898 0.206189
O O7 0.500000 0.500000 0.000000
O O8 0.250000 0.750000 0.500000
O O9 0.579896 0.686294 0.355555
O O10 0.200885 0.732107 0.613759
O O11 0.144248 0.180278 0.229542
O O12 0.162858 0.236163 0.133335
O O13 0.704516 0.500000 0.244427
O O14 0.964155 0.325178 0.104999
O O15 0.750000 0.250000 0.000000
#
# Coordination Sequence:
#
# PCOD8116598 Si02
#       7
#     4   4   4   8   8   8   8
#     4  12  22  46  68  94 128 174 229 281 329 408
#     4  12  26  46  76  99 135 186 234 282 344 414
#     4  12  18  40  72  97 124 172 226 278 331 389
#     4  10  24  42  69 102 135 172 228 281 343 405
#     4  11  23  40  70  99 130 167 227 279 329 401
#     4  11  24  44  66  96 136 174 216 274 341 400
#     4  12  26  42  65  95 132 176 223 275 340 398
#
# _framework density 9.9264960000000002
#
# number of rings (size 3 to 8) (size 9 to 14) (size 15 to 20)
#    0.000    0.727    5.455    1.636   10.182    1.455 
#    0.000    0.000    0.000    1.636    0.000    0.000 
#    0.000    0.000    0.000    0.000    0.000    0.000 
#
# Total GULP energy -272568.273717 kJ/mol
# GULP energy per Si atom -12389.466987 kJ/mol
# Density = 0.990390 g / cm^3
# Si number density = 9.926496 Si / 1000 Ang^3
#
#
#
# Elastic Constant Matrix: (Units=GPa)
#
#
# Indices 1 2 3 4 5 6 
#
# 1 106.9850 39.6841 45.6320 -0.3212 24.4591 0.1225
# 2 39.6841 187.1860 56.4257 1.0464 9.3225 -0.3896
# 3 45.6320 56.4257 185.3543 -6.1914 44.3293 2.2160
# 4 -0.3212 1.0464 -6.1914-2345.8751 -0.0525 870.3751
# 5 24.4591 9.3225 44.3293 -0.0525 31.6079 -0.0071
# 6 0.1225 -0.3896 2.2160 870.3751 -0.0071 -290.2970
#
#
#
# Elastic Compliance Matrix: (Units=1/GPa)
#
#
# Indices 1 2 3 4 5 6 
#
# 1 0.012162 -0.002048 -0.000398 -0.000005 -0.008249 -0.000009
# 2 -0.002048 0.006255 -0.002013 0.000007 0.002562 -0.000002
# 3 -0.000398 -0.002013 0.008862 -0.000019 -0.011527 0.000013
# 4 -0.000005 0.000007 -0.000019 0.003792 0.000037 0.011370
# 5 -0.008249 0.002562 -0.011527 0.000037 0.053432 0.000016
# 6 -0.000009 -0.000002 0.000013 0.011370 0.000016 0.030644
#
#
# Mechanical properties :
#
#
# Convention : Reuss Voigt Hill
#
# Bulk Modulus (GPa) = 54.45781 84.77879 69.61830
# Shear Modulus (GPa) = 38.40687 -498.39394 -229.99354
#
# Velocity S-wave (km/s) = 4.40314 -15.86150 -10.77496
# Velocity P-wave (km/s) = 7.30344 17.10712 10.93877
#
# Compressibility (1/GPa) = 0.01836284
#
# Stress axis : x y z
#
# Youngs Moduli (GPa) = 82.22060 159.86078 112.84528
#
# Poissons Ratio (x) = 0.32734 0.04491
# Poissons Ratio (y) = 0.16836 0.22712
# Poissons Ratio (z) = 0.03272 0.32175
#
# Static dielectric constant tensor:
#      x y z
#    x 3.543390 -0.000530 0.164900 
#    y -0.000530 3.754760 -0.000190 
#    z 0.164900 -0.000190 4.442150 
# 
# 
# High freq. dielectric constant tensor:
#      x y z
#    x 1.759420 0.000000 0.020880 
#    y 0.000000 1.794660 0.000010 
#    z 0.020880 0.000010 1.808590 
# 
# From -- ./inp_files/379039.got.cif
#   From: 2010.06.25/outbox.ucp.g09.slc.cvg/sg12_190_cif.got.tgz:379039.got - 2010.06.28 13:50:54.
