data_PCOD8116139
_publ_section_title
;
Structure prediction by ZEFSAII (Michael W. Deem and Ramdas Pophale) SiO2 
 PCOD8116139
Probable space group: C 2/M
;
_chemical_formula_sum "Si O2"
_cell_formula_units_Z 40
_cell_length_a 23.066170
_cell_length_b 12.411943
_cell_length_c 20.903952
_cell_angle_alpha 90.000000
_cell_angle_beta 25.006385
_cell_angle_gamma 90.000000
_cell_volume 2529.855369
_symmetry_space_group_name_H-M "C 2/M"
_symmetry_group_IT_number 12
_symmetry_cell_setting 'monoclinic'
loop_
_space_group_symop_operation_xyz
x,y,z
-x,y,-z
-x,-y,-z
x,-y,z
1/2+x,1/2+y,z
1/2-x,1/2+y,-z
1/2-x,1/2-y,-z
1/2+x,1/2-y,z
loop_
_atom_site_type_symbol
_atom_site_label
_atom_site_fract_x
_atom_site_fract_y
_atom_site_fract_z
Si Si1 0.156742 0.877676 0.147941
Si Si2 0.343257 0.377677 0.461425
Si Si3 0.163145 0.000000 0.908828
Si Si4 0.163145 0.000000 0.764882
Si Si5 0.341106 0.309565 0.997801
Si Si6 0.158895 0.190434 0.680011
O O1 0.184057 0.864510 0.045371
O O2 1.000000 0.848539 0.320934
O O3 0.190717 0.000000 0.133435
O O4 0.254648 0.800050 0.090963
O O5 0.309285 0.500000 0.514868
O O6 0.245352 0.300050 0.600258
O O7 0.315942 0.364512 0.413485
O O8 0.221599 0.000000 0.778401
O O9 0.214649 0.892694 0.893282
O O10 0.000000 0.000000 0.073291
O O11 0.214649 0.892693 0.677421
O O12 0.500000 0.280710 0.849491
#
# Coordination Sequence:
#
# PCOD8116139 Si02
#       6
#     8   8   4   4   8   8
#     4   9  16  27  43  63  90 117 139 174 221 263
#     4   9  16  27  43  63  90 117 139 174 221 263
#     4   9  16  28  47  67  89 117 146 179 218 258
#     4   9  16  28  47  67  89 117 146 179 218 258
#     4   9  16  27  43  65  89 112 144 179 214 258
#     4   9  16  27  43  65  89 112 144 179 214 258
#
# _framework density 15.81118
#
# number of rings (size 3 to 8) (size 9 to 14) (size 15 to 20)
#    0.000    3.000    2.000    0.000    0.000    0.800 
#    0.000    1.000    0.000    3.600    0.000    8.400 
#    0.000    0.000    0.000    0.000    0.000    0.000 
#
# Total GULP energy -247971.469498 kJ/mol
# GULP energy per Si atom -12398.573475 kJ/mol
# Density = 1.577519 g / cm^3
# Si number density = 15.811180 Si / 1000 Ang^3
#
#
#
# Elastic Constant Matrix: (Units=GPa)
#
#
# Indices 1 2 3 4 5 6 
#
# 1 67.5342 62.1026 37.1211 0.0000 5.3786 -0.0001
# 2 62.1026 148.2636 66.0375 -0.0002 -3.5683 0.0001
# 3 37.1211 66.0375 60.7220 -0.0001 0.8001 0.0001
# 4 0.0000 -0.0002 -0.0001 29.6078 0.0001 -4.5185
# 5 5.3786 -3.5683 0.8001 0.0001 16.3933 0.0000
# 6 -0.0001 0.0001 0.0001 -4.5185 0.0000 24.6260
#
#
#
# Elastic Compliance Matrix: (Units=1/GPa)
#
#
# Indices 1 2 3 4 5 6 
#
# 1 0.027536 -0.008438 -0.007519 0.000000 -0.010504 0.000000
# 2 -0.008438 0.015876 -0.012197 0.000000 0.006819 0.000000
# 3 -0.007519 -0.012197 0.034354 0.000000 -0.001865 0.000000
# 4 0.000000 0.000000 0.000000 0.034748 0.000000 0.006376
# 5 -0.010504 0.006819 -0.001865 0.000000 0.066022 0.000000
# 6 0.000000 0.000000 0.000000 0.006376 0.000000 0.041777
#
#
# Mechanical properties :
#
#
# Convention : Reuss Voigt Hill
#
# Bulk Modulus (GPa) = 46.60093 67.44913 57.02503
# Shear Modulus (GPa) = 17.61970 21.54267 19.58119
#
# Velocity S-wave (km/s) = 3.34186 3.69521 3.52296
# Velocity P-wave (km/s) = 6.66544 7.80755 7.25899
#
# Compressibility (1/GPa) = 0.02145880
#
# Stress axis : x y z
#
# Youngs Moduli (GPa) = 36.31652 62.98863 29.10840
#
# Poissons Ratio (x) = 0.53148 0.21885
# Poissons Ratio (y) = 0.30643 0.35504
# Poissons Ratio (z) = 0.27305 0.76829
#
# Static dielectric constant tensor:
#      x y z
#    x 2.838360 0.000000 -0.020590 
#    y 0.000000 3.140050 0.000000 
#    z -0.020590 0.000000 2.861050 
# 
# 
# High freq. dielectric constant tensor:
#      x y z
#    x 1.574030 0.000000 -0.008170 
#    y 0.000000 1.615730 0.000000 
#    z -0.008170 0.000000 1.583040 
# 
# From -- ./inp_files/61403.got.cif
#   From: 2010.06.25/outbox.cif.g09.slc.cpg/sg12_31_cif.got.tgz:61403.got - 2010.06.28 00:19:55.
