data_PCOD8116473
_publ_section_title
;
Structure prediction by ZEFSAII (Michael W. Deem and Ramdas Pophale) SiO2 
 PCOD8116473
Probable space group: C 2/M
;
_chemical_formula_sum "Si O2"
_cell_formula_units_Z 28
_cell_length_a 21.000000
_cell_length_b 9.000000
_cell_length_c 30.000000
_cell_angle_alpha 90.000000
_cell_angle_beta 30.000000
_cell_angle_gamma 90.000000
_cell_volume 2835.000000
_symmetry_space_group_name_H-M "C 2/M"
_symmetry_group_IT_number 12
_symmetry_cell_setting 'monoclinic'
loop_
_space_group_symop_operation_xyz
x,y,z
-x,y,-z
-x,-y,-z
x,-y,z
1/2+x,1/2+y,z
1/2-x,1/2+y,-z
1/2-x,1/2-y,-z
1/2+x,1/2-y,z
loop_
_atom_site_type_symbol
_atom_site_label
_atom_site_fract_x
_atom_site_fract_y
_atom_site_fract_z
Si Si1 0.996898 0.676071 0.591186
Si Si2 0.791597 0.174237 0.230964
Si Si3 0.271535 0.674508 0.577744
Si Si4 0.140729 0.175035 0.907789
Si Si5 0.568993 0.169888 0.776709
Si Si6 0.420020 0.676686 0.367922
Si Si7 0.384061 0.825930 0.813884
O O1 0.011173 0.500000 0.589694
O O2 0.094574 0.738525 0.494390
O O3 0.039670 0.765230 0.608631
O O4 0.851308 0.716344 0.666285
O O5 0.806380 0.236387 0.171494
O O6 0.902207 0.238151 0.196041
O O7 0.812375 0.000000 0.218922
O O8 0.295727 0.500000 0.556425
O O9 0.179814 0.708059 0.674563
O O10 0.208186 0.741098 0.571158
O O11 0.235968 0.212089 0.891894
O O12 0.127904 0.000000 0.911862
O O13 0.000000 0.245557 0.000000
O O14 0.430394 0.204654 0.837249
O O15 0.573848 0.000000 0.788423
O O16 0.398156 0.500000 0.381674
O O17 0.535015 0.717715 0.265681
O O18 0.413508 0.000000 0.784766
#
# Coordination Sequence:
#
# PCOD8116473 Si02
#       7
#     8   8   8   8   8   8   8
#     4  11  21  34  51  75 109 146 186 232 278 320
#     4  10  21  36  56  81 110 144 182 231 276 322
#     4  10  21  36  52  75 107 148 191 229 269 319
#     4   9  17  34  62  89 109 137 182 228 271 327
#     4   9  20  36  55  76 109 152 184 222 271 326
#     4  11  20  31  51  79 109 145 185 229 277 323
#     4   9  17  35  58  81 110 145 186 225 269 326
#
# _framework density 9.8765429999999999
#
# number of rings (size 3 to 8) (size 9 to 14) (size 15 to 20)
#    0.000    2.143    1.429    3.429    0.000    4.571 
#    0.000    3.571    0.000    1.714    0.000    0.000 
#    0.000    0.000    0.000    0.000    0.000    0.000 
#
# Total GULP energy -346992.266992 kJ/mol
# GULP energy per Si atom -12392.580964 kJ/mol
# Density = 0.985406 g / cm^3
# Si number density = 9.876543 Si / 1000 Ang^3
#
#
#
# Elastic Constant Matrix: (Units=GPa)
#
#
# Indices 1 2 3 4 5 6 
#
# 1 147.7949 32.0587 46.6848 0.0134 -28.8018 -0.1073
# 2 32.0587 73.8196 21.7789 0.0172 -8.4129 -0.0966
# 3 46.6848 21.7789 77.6657 -0.0065 -30.1272 -0.0052
# 4 0.0134 0.0172 -0.0065 17.6772 0.0039 -1.1048
# 5 -28.8018 -8.4129 -30.1272 0.0039 31.6470 0.0211
# 6 -0.1073 -0.0966 -0.0052 -1.1048 0.0211 34.6395
#
#
#
# Elastic Compliance Matrix: (Units=1/GPa)
#
#
# Indices 1 2 3 4 5 6 
#
# 1 0.009201 -0.002580 -0.002894 -0.000006 0.004933 0.000018
# 2 -0.002580 0.015492 -0.003340 -0.000012 -0.001409 0.000035
# 3 -0.002894 -0.003340 0.022491 0.000008 0.017890 -0.000026
# 4 -0.000006 -0.000012 0.000008 0.056683 -0.000009 0.001808
# 5 0.004933 -0.001409 0.017890 -0.000009 0.052744 -0.000018
# 6 0.000018 0.000035 -0.000026 0.001808 -0.000018 0.028927
#
#
# Mechanical properties :
#
#
# Convention : Reuss Voigt Hill
#
# Bulk Modulus (GPa) = 33.83313 55.59168 44.71241
# Shear Modulus (GPa) = 23.47216 30.04326 26.75771
#
# Velocity S-wave (km/s) = 3.45088 3.90415 3.68449
# Velocity P-wave (km/s) = 5.74833 6.96618 6.38635
#
# Compressibility (1/GPa) = 0.02955683
#
# Stress axis : x y z
#
# Youngs Moduli (GPa) = 108.68122 64.55017 44.46167
#
# Poissons Ratio (x) = 0.16654 0.12866
# Poissons Ratio (y) = 0.28039 0.14851
# Poissons Ratio (z) = 0.31449 0.21561
#
# Static dielectric constant tensor:
#      x y z
#    x 3.839180 0.000010 -0.276250 
#    y 0.000010 3.468730 -0.000010 
#    z -0.276250 -0.000010 3.773900 
# 
# 
# High freq. dielectric constant tensor:
#      x y z
#    x 1.782750 0.000000 -0.021260 
#    y 0.000000 1.755340 0.000000 
#    z -0.021260 0.000000 1.751760 
# 
# From -- ./inp_files/319664.got.cif
#   From: 2010.06.25/outbox.ucp.g09.slc.cvg/sg12_160_cif.got.tgz:319664.got - 2010.06.28 13:50:54.
