data_PCOD8116766
_publ_section_title
;
Structure prediction by ZEFSAII (Michael W. Deem and Ramdas Pophale) SiO2 
 PCOD8116766
Probable space group: P 2/C
;
_chemical_formula_sum "Si O2"
_cell_formula_units_Z 30
_cell_length_a 8.348376
_cell_length_b 11.327807
_cell_length_c 24.539889
_cell_angle_alpha 90.000000
_cell_angle_beta 39.283458
_cell_angle_gamma 90.000000
_cell_volume 1469.373296
_symmetry_space_group_name_H-M "P 2/C"
_symmetry_group_IT_number 13
_symmetry_cell_setting 'monoclinic'
loop_
_space_group_symop_operation_xyz
x,y,z
-x,y,1/2-z
-x,-y,-z
x,-y,1/2+z
loop_
_atom_site_type_symbol
_atom_site_label
_atom_site_fract_x
_atom_site_fract_y
_atom_site_fract_z
Si Si1 0.762449 0.718269 0.153377
Si Si2 0.500000 0.685149 0.750000
Si Si3 0.013448 0.482689 0.378713
Si Si4 0.179090 0.339421 0.979050
Si Si5 0.324078 0.158998 0.026128
Si Si6 0.797047 0.905425 0.467633
Si Si7 0.368534 0.241524 0.396929
Si Si8 0.800821 0.671656 0.849421
O O1 0.500000 0.755766 0.250000
O O2 0.912209 0.618799 0.148113
O O3 0.937232 0.834988 0.104493
O O4 0.691166 0.653067 0.114528
O O5 0.743807 0.602161 0.686568
O O6 0.499504 0.770635 0.697018
O O7 0.855405 0.460542 0.476883
O O8 0.842087 0.450761 0.371151
O O9 0.341942 0.246979 0.970712
O O10 0.903154 0.293985 0.038697
O O11 0.170421 0.219942 0.115681
O O12 0.161229 0.045178 0.049795
O O13 0.612556 0.131750 0.966674
O O14 0.658099 0.881806 0.562691
O O15 0.524996 0.331721 0.394421
O O16 0.000000 0.694375 0.750000
#
# Coordination Sequence:
#
# PCOD8116766 Si02
#       8
#     4   2   4   4   4   4   4   4
#     4  11  22  38  57  86 124 155 192 248 301 364
#     4  10  16  30  52  82 114 146 192 240 302 336
#     4  10  19  34  56  83 117 154 190 240 302 355
#     4   9  20  37  61  81 112 157 201 239 295 353
#     4   9  19  40  64  81 113 161 199 252 293 355
#     4   9  20  40  60  83 117 158 202 240 307 354
#     4   9  18  31  55  84 114 143 192 249 287 357
#     4  10  18  33  56  88 114 145 198 248 293 348
#
# _framework density 20.416868000000001
#
# number of rings (size 3 to 8) (size 9 to 14) (size 15 to 20)
#    0.000    2.400    2.000    0.400    0.000    2.133 
#    0.000   20.667    1.467    0.000    0.000    0.000 
#    0.000    0.000    0.000    0.000    0.000    0.000 
#
# Total GULP energy -371737.611419 kJ/mol
# GULP energy per Si atom -12391.253714 kJ/mol
# Density = 2.037040 g / cm^3
# Si number density = 20.416868 Si / 1000 Ang^3
#
#
#
# Elastic Constant Matrix: (Units=GPa)
#
#
# Indices 1 2 3 4 5 6 
#
# 1 73.4009 0.5632 14.0294 0.0000 17.6906 0.0000
# 2 0.5632 59.8384 10.0087 0.0000 5.1144 0.0000
# 3 14.0294 10.0087 86.8103 0.0000 19.6691 0.0000
# 4 0.0000 0.0000 0.0000 13.4959 0.0000 -4.8329
# 5 17.6906 5.1144 19.6691 0.0000 27.8025 0.0000
# 6 0.0000 0.0000 0.0000 -4.8329 0.0000 20.0794
#
#
#
# Elastic Compliance Matrix: (Units=1/GPa)
#
#
# Indices 1 2 3 4 5 6 
#
# 1 0.016135 0.000781 -0.000404 0.000000 -0.010125 0.000000
# 2 0.000781 0.017179 -0.001522 0.000000 -0.002580 0.000000
# 3 -0.000404 -0.001522 0.013860 0.000000 -0.009269 0.000000
# 4 0.000000 0.000000 0.000000 0.081086 0.000000 0.019517
# 5 -0.010125 -0.002580 -0.009269 0.000000 0.049442 0.000000
# 6 0.000000 0.000000 0.000000 0.019517 0.000000 0.054500
#
#
# Mechanical properties :
#
#
# Convention : Reuss Voigt Hill
#
# Bulk Modulus (GPa) = 22.27908 29.91690 26.09799
# Shear Modulus (GPa) = 20.04379 25.30545 22.67462
#
# Velocity S-wave (km/s) = 3.13665 3.52438 3.33616
# Velocity P-wave (km/s) = 4.90448 5.58986 5.25835
#
# Compressibility (1/GPa) = 0.04488516
#
# Stress axis : x y z
#
# Youngs Moduli (GPa) = 61.97629 58.20893 72.14920
#
# Poissons Ratio (x) = -0.04546 0.02912
# Poissons Ratio (y) = -0.04841 0.10983
# Poissons Ratio (z) = 0.02501 0.08861
#
# Static dielectric constant tensor:
#      x y z
#    x 4.340140 0.000000 0.453350 
#    y 0.000000 3.498330 0.000000 
#    z 0.453350 0.000000 4.012350 
# 
# 
# High freq. dielectric constant tensor:
#      x y z
#    x 1.816750 0.000000 0.008530 
#    y 0.000000 1.768360 0.000000 
#    z 0.008530 0.000000 1.784870 
# 
# From -- ./inp_files/91598.got.cif
#   From: 2010.06.25/outbox.cif.g09.slc.cpg/sg13_46_cif.got.tgz:91598.got - 2010.06.28 04:50:58.
