data_PCOD8116183
_publ_section_title
;
Structure prediction by ZEFSAII (Michael W. Deem and Ramdas Pophale) SiO2 
 PCOD8116183
Probable space group: C 2/M
;
_chemical_formula_sum "Si O2"
_cell_formula_units_Z 32
_cell_length_a 27.000000
_cell_length_b 9.000000
_cell_length_c 21.000000
_cell_angle_alpha 90.000000
_cell_angle_beta 50.000000
_cell_angle_gamma 90.000000
_cell_volume 3909.124793
_symmetry_space_group_name_H-M "C 2/M"
_symmetry_group_IT_number 12
_symmetry_cell_setting 'monoclinic'
loop_
_space_group_symop_operation_xyz
x,y,z
-x,y,-z
-x,-y,-z
x,-y,z
1/2+x,1/2+y,z
1/2-x,1/2+y,-z
1/2-x,1/2-y,-z
1/2+x,1/2-y,z
loop_
_atom_site_type_symbol
_atom_site_label
_atom_site_fract_x
_atom_site_fract_y
_atom_site_fract_z
Si Si1 0.877325 0.670750 0.235865
Si Si2 0.140849 0.673528 0.986494
Si Si3 0.725326 0.330638 0.081218
Si Si4 0.075330 0.831401 0.925714
Si Si5 0.154420 0.831970 0.545190
Si Si6 0.957736 0.329067 0.297645
Si Si7 0.234596 0.168121 0.608350
Si Si8 0.090334 0.175484 0.156330
O O1 0.870203 0.500000 0.220305
O O2 0.911762 0.768558 0.154529
O O3 0.922869 0.685669 0.259102
O O4 0.805874 0.735593 0.307586
O O5 0.125407 0.500000 0.010225
O O6 0.109118 0.763349 0.071091
O O7 0.218971 0.699987 0.912193
O O8 0.110804 0.727003 0.946137
O O9 0.724702 0.500000 0.061817
O O10 0.650059 0.287122 0.156484
O O11 0.750000 0.250000 0.000000
O O12 0.101093 0.000000 0.909558
O O13 0.000000 0.824784 0.000000
O O14 0.085568 0.752325 0.613097
O O15 0.196080 0.832948 0.574523
O O16 0.194949 0.742701 0.458343
O O17 0.142005 0.000000 0.531829
O O18 0.965865 0.500000 0.310928
O O19 0.027675 0.253810 0.236725
O O20 0.243797 0.000000 0.625875
O O21 0.076579 0.000000 0.161821
#
# Coordination Sequence:
#
# PCOD8116183 Si02
#       8
#     8   8   8   8   8   8   8   8
#     4  10  20  32  45  61  84 116 152 186 218 255
#     4  10  19  32  48  64  84 112 147 184 220 258
#     4   8  16  29  45  64  84 108 139 176 217 261
#     4  11  23  35  46  62  86 116 150 186 222 258
#     4   9  16  26  41  61  85 114 145 176 214 258
#     4  10  19  29  42  63  90 118 148 180 216 258
#     4   9  16  27  43  61  83 111 144 181 217 255
#     4  10  18  29  45  65  89 115 143 176 218 264
#
# _framework density 8.1859760000000001
#
# number of rings (size 3 to 8) (size 9 to 14) (size 15 to 20)
#    0.000    2.375    0.000    3.375    0.000    8.500 
#    0.000    0.000    0.000    0.000    0.000    0.000 
#    0.000    1.000    0.000   10.750    0.000    5.250 
#
# Total GULP energy -396573.779822 kJ/mol
# GULP energy per Si atom -12392.930619 kJ/mol
# Density = 0.816734 g / cm^3
# Si number density = 8.185976 Si / 1000 Ang^3
#
#
#
# Elastic Constant Matrix: (Units=GPa)
#
#
# Indices 1 2 3 4 5 6 
#
# 1 56.9297 38.1910 26.1247 0.0004 -23.7423 0.0045
# 2 38.1910 107.5659 48.4398 0.0080 -25.2780 0.0327
# 3 26.1247 48.4398 96.7995 0.0001 -33.5332 0.0119
# 4 0.0004 0.0080 0.0001 17.5284 -0.0006 -17.5270
# 5 -23.7423 -25.2780 -33.5332 -0.0006 27.8393 -0.0103
# 6 0.0045 0.0327 0.0119 -17.5270 -0.0103 10.2718
#
#
#
# Elastic Compliance Matrix: (Units=1/GPa)
#
#
# Indices 1 2 3 4 5 6 
#
# 1 0.030558 -0.006750 0.003493 -0.000044 0.024139 -0.000048
# 2 -0.006750 0.014169 -0.004815 0.000059 0.001309 0.000065
# 3 0.003493 -0.004815 0.019417 -0.000023 0.021995 -0.000026
# 4 -0.000044 0.000059 -0.000023 -0.080785 -0.000065 -0.137846
# 5 0.024139 0.001309 0.021995 -0.000065 0.084189 -0.000066
# 6 -0.000048 0.000065 -0.000026 -0.137846 -0.000066 -0.137857
#
#
# Mechanical properties :
#
#
# Convention : Reuss Voigt Hill
#
# Bulk Modulus (GPa) = 20.83346 54.08957 37.46152
# Shear Modulus (GPa) = -131.01062 21.03055 -54.99003
#
# Velocity S-wave (km/s) = -8.95517 3.58795 -5.80180
# Velocity P-wave (km/s) = 9.70433 7.09043 4.68508
#
# Compressibility (1/GPa) = 0.04799970
#
# Stress axis : x y z
#
# Youngs Moduli (GPa) = 32.72486 70.57589 51.50120
#
# Poissons Ratio (x) = 0.47636 -0.17988
# Poissons Ratio (y) = 0.22088 0.24800
# Poissons Ratio (z) = -0.11430 0.33985
#
# Static dielectric constant tensor:
#      x y z
#    x 3.337900 -0.000040 -0.413910 
#    y -0.000040 3.364520 0.000030 
#    z -0.413910 0.000030 3.051930 
# 
# 
# High freq. dielectric constant tensor:
#      x y z
#    x 1.594060 0.000000 -0.037280 
#    y 0.000000 1.655070 0.000000 
#    z -0.037280 0.000000 1.615100 
# 
# From -- ./inp_files/326802.got.cif
#   From: 2010.06.25/outbox.ucp.g09.slc.cvg/sg12_164_cif.got.tgz:326802.got - 2010.06.28 13:50:54.
