data_PCOD8116005
_publ_section_title
;
Structure prediction by ZEFSAII (Michael W. Deem and Ramdas Pophale) SiO2 
 PCOD8116005
Probable space group: C 2/M
;
_chemical_formula_sum "Si O2"
_cell_formula_units_Z 56
_cell_length_a 30.049758
_cell_length_b 9.782194
_cell_length_c 18.942965
_cell_angle_alpha 90.000000
_cell_angle_beta 38.153131
_cell_angle_gamma 90.000000
_cell_volume 3439.923209
_symmetry_space_group_name_H-M "C 2/M"
_symmetry_group_IT_number 12
_symmetry_cell_setting 'monoclinic'
loop_
_space_group_symop_operation_xyz
x,y,z
-x,y,-z
-x,-y,-z
x,-y,z
1/2+x,1/2+y,z
1/2-x,1/2+y,-z
1/2-x,1/2-y,-z
1/2+x,1/2-y,z
loop_
_atom_site_type_symbol
_atom_site_label
_atom_site_fract_x
_atom_site_fract_y
_atom_site_fract_z
Si Si1 0.658007 0.837654 0.841986
Si Si2 0.813405 0.837448 0.612861
Si Si3 0.518382 0.651910 0.258165
Si Si4 0.056688 0.341988 0.091231
Si Si5 0.855471 0.847991 0.410024
Si Si6 0.534678 0.662796 0.527868
Si Si7 0.895239 0.342539 0.241913
O O1 0.740664 0.784445 0.741426
O O2 0.619650 0.787053 0.818144
O O3 0.654682 0.000000 0.847610
O O4 0.615437 0.781945 0.963133
O O5 0.810578 0.793943 0.533763
O O6 0.884131 0.777266 0.563941
O O7 0.817822 0.000000 0.609431
O O8 0.553023 0.500000 0.210687
O O9 0.564984 0.756554 0.153135
O O10 0.438047 0.645610 0.329719
O O11 0.515489 0.704315 0.342942
O O12 0.070727 0.500000 0.092296
O O13 0.979249 0.322032 0.152144
O O14 0.845561 0.743100 0.357942
O O15 0.830131 0.000000 0.418440
O O16 0.500000 0.725031 0.500000
O O17 0.538825 0.500000 0.518443
O O18 0.871945 0.500000 0.279171
#
# Coordination Sequence:
#
# PCOD8116005 Si02
#       7
#     8   8   8   8   8   8   8
#     4   9  16  25  37  53  75 104 135 165 193 221
#     4   8  14  24  38  57  79 101 126 158 197 235
#     4   8  14  25  41  60  80 100 123 157 199 233
#     4   9  16  26  40  56  76 105 139 166 185 216
#     4   8  14  25  39  55  77 102 127 159 199 237
#     4   8  13  23  42  65  82  96 121 158 195 233
#     4   9  16  25  38  56  76 101 136 171 194 215
#
# _framework density 16.279433999999998
#
# number of rings (size 3 to 8) (size 9 to 14) (size 15 to 20)
#    0.000    3.571    0.000    2.143    0.000    2.286 
#    0.000    0.714    0.000    5.571    0.000    0.000 
#    0.000    0.000    0.000    0.000    0.000    0.000 
#
# Total GULP energy -346981.135699 kJ/mol
# GULP energy per Si atom -12392.183418 kJ/mol
# Density = 1.624238 g / cm^3
# Si number density = 16.279434 Si / 1000 Ang^3
#
#
#
# Elastic Constant Matrix: (Units=GPa)
#
#
# Indices 1 2 3 4 5 6 
#
# 1 71.5793 26.3838 60.2085 -0.0016 18.9551 0.0019
# 2 26.3838 37.8377 37.9775 -0.0064 9.3264 -0.0003
# 3 60.2085 37.9775 128.7157 -0.0116 16.9822 0.0049
# 4 -0.0016 -0.0064 -0.0116 20.7690 0.0017 5.0658
# 5 18.9551 9.3264 16.9822 0.0017 24.4318 -0.0019
# 6 0.0019 -0.0003 0.0049 5.0658 -0.0019 9.5871
#
#
#
# Elastic Compliance Matrix: (Units=1/GPa)
#
#
# Indices 1 2 3 4 5 6 
#
# 1 0.027529 -0.006914 -0.009212 -0.000004 -0.012316 -0.000001
# 2 -0.006914 0.040506 -0.008131 0.000007 -0.004447 0.000002
# 3 -0.009212 -0.008131 0.014450 0.000007 0.000207 -0.000009
# 4 -0.000004 0.000007 0.000007 0.055273 -0.000011 -0.029206
# 5 -0.012316 -0.004447 0.000207 -0.000011 0.052039 0.000019
# 6 -0.000001 0.000002 -0.000009 -0.029206 0.000019 0.119739
#
#
# Mechanical properties :
#
#
# Convention : Reuss Voigt Hill
#
# Bulk Modulus (GPa) = 29.43618 54.14139 41.78879
# Shear Modulus (GPa) = 13.53643 18.52843 16.03243
#
# Velocity S-wave (km/s) = 2.88671 3.37731 3.14160
# Velocity P-wave (km/s) = 5.40665 6.96692 6.23578
#
# Compressibility (1/GPa) = 0.03397180
#
# Stress axis : x y z
#
# Youngs Moduli (GPa) = 36.32513 24.68749 69.20474
#
# Poissons Ratio (x) = 0.17068 0.63754
# Poissons Ratio (y) = 0.25115 0.56268
# Poissons Ratio (z) = 0.33464 0.20072
#
# Static dielectric constant tensor:
#      x y z
#    x 3.043090 -0.000010 0.113870 
#    y -0.000010 2.848860 0.000010 
#    z 0.113870 0.000010 3.396850 
# 
# 
# High freq. dielectric constant tensor:
#      x y z
#    x 1.597990 0.000000 0.007740 
#    y 0.000000 1.578700 0.000000 
#    z 0.007740 0.000000 1.631860 
# 
# From -- ./inp_files/231820.got.cif
#   From: 2010.06.25/outbox.cif.g09.slc.cpg/sg12_116_cif.got.tgz:231820.got - 2010.06.28 00:19:55.
