data_PCOD8116734
_publ_section_title
;
Structure prediction by ZEFSAII (Michael W. Deem and Ramdas Pophale) SiO2 
 PCOD8116734
Probable space group: P 2/C
;
_chemical_formula_sum "Si O2"
_cell_formula_units_Z 18
_cell_length_a 8.019176
_cell_length_b 21.963874
_cell_length_c 5.229973
_cell_angle_alpha 90.000000
_cell_angle_beta 119.936606
_cell_angle_gamma 90.000000
_cell_volume 798.262707
_symmetry_space_group_name_H-M "P 2/C"
_symmetry_group_IT_number 13
_symmetry_cell_setting 'monoclinic'
loop_
_space_group_symop_operation_xyz
x,y,z
-x,y,1/2-z
-x,-y,-z
x,-y,1/2+z
loop_
_atom_site_type_symbol
_atom_site_label
_atom_site_fract_x
_atom_site_fract_y
_atom_site_fract_z
Si Si1 0.885502 0.843312 0.416737
Si Si2 0.000000 0.541025 0.250000
Si Si3 0.729726 0.648326 0.931747
Si Si4 0.218676 0.025577 0.684624
Si Si5 0.724420 0.715961 0.419789
O O1 0.761893 0.902138 0.242146
O O2 0.765655 0.787588 0.445047
O O3 0.000000 0.821917 0.250000
O O4 0.000000 0.868058 0.750000
O O5 0.000000 0.500000 0.500000
O O6 0.188490 0.581488 0.449794
O O7 0.500000 0.643508 0.750000
O O8 0.810538 0.681859 0.736835
O O9 0.810830 0.687385 0.229690
O O10 0.324897 0.008414 0.501439
O O11 0.000000 0.000000 0.500000
O O12 0.500000 0.705067 0.250000
#
# Coordination Sequence:
#
# PCOD8116734 Si02
#       5
#     4   2   4   4   4
#     4  12  21  31  56  89 108 147 200 258 301 351
#     4  12  26  42  66 102 130 158 210 252 282 352
#     4  10  23  44  66  89 128 170 198 245 309 360
#     4  10  16  30  45  72 111 144 188 247 299 359
#     4  10  23  41  59  86 123 159 199 246 310 371
#
# _framework density 22.548969
#
# number of rings (size 3 to 8) (size 9 to 14) (size 15 to 20)
#    0.000    1.333    4.444    2.667    4.667    0.889 
#    0.000    0.000    0.000    1.333    0.000    0.000 
#    0.000    0.000    0.000    0.000    0.000    0.000 
#
# Total GULP energy -223035.192222 kJ/mol
# GULP energy per Si atom -12390.844012 kJ/mol
# Density = 2.249765 g / cm^3
# Si number density = 22.548969 Si / 1000 Ang^3
#
#
#
# Elastic Constant Matrix: (Units=GPa)
#
#
# Indices 1 2 3 4 5 6 
#
# 1 43.1524 35.5478 52.7619 0.0000 -39.2464 0.0000
# 2 35.5478 186.0328 65.5238 0.0000 -23.2094 0.0000
# 3 52.7619 65.5238 165.7048 0.0000 -51.5852 0.0000
# 4 0.0000 0.0000 0.0000 40.1539 0.0000 -19.7047
# 5 -39.2464 -23.2094 -51.5852 0.0000 41.1613 0.0000
# 6 0.0000 0.0000 0.0000 -19.7047 0.0000 23.4590
#
#
#
# Elastic Compliance Matrix: (Units=1/GPa)
#
#
# Indices 1 2 3 4 5 6 
#
# 1 0.213456 -0.016200 -0.001713 0.000000 0.192243 0.000000
# 2 -0.016200 0.007487 -0.002126 0.000000 -0.013890 0.000000
# 3 -0.001713 -0.002126 0.010723 0.000000 0.010606 0.000000
# 4 0.000000 0.000000 0.000000 0.042368 0.000000 0.035588
# 5 0.192243 -0.013890 0.010606 0.000000 0.213054 0.000000
# 6 0.000000 0.000000 0.000000 0.035588 0.000000 0.072520
#
#
# Mechanical properties :
#
#
# Convention : Reuss Voigt Hill
#
# Bulk Modulus (GPa) = 5.21959 78.06189 41.64074
# Shear Modulus (GPa) = 7.53523 37.02528 22.28026
#
# Velocity S-wave (km/s) = 1.83002 4.05655 3.14679
# Velocity P-wave (km/s) = 2.60482 7.52561 5.63116
#
# Compressibility (1/GPa) = 0.19158602
#
# Stress axis : x y z
#
# Youngs Moduli (GPa) = 4.68481 133.56449 93.25965
#
# Poissons Ratio (x) = 2.16378 0.15980
# Poissons Ratio (y) = 0.07590 0.19829
# Poissons Ratio (z) = 0.00803 0.28398
#
# Static dielectric constant tensor:
#      x y z
#    x 4.386160 0.000000 -1.198210 
#    y 0.000000 4.170280 0.000000 
#    z -1.198210 0.000000 5.478880 
# 
# 
# High freq. dielectric constant tensor:
#      x y z
#    x 1.872070 0.000000 -0.027650 
#    y 0.000000 1.895350 0.000000 
#    z -0.027650 0.000000 1.911790 
# 
# From -- ./inp_files/1682.got.cif
#   From: 2010.06.25/outbox.cif.g09.slc.cpg/sg13_1_cif.got.tgz:1682.got - 2010.06.28 04:50:58.
