data_PCOD8116927
_publ_section_title
;
Structure prediction by ZEFSAII (Michael W. Deem and Ramdas Pophale) SiO2 
 PCOD8116927
Probable space group: P 2/C
;
_chemical_formula_sum "Si O2"
_cell_formula_units_Z 32
_cell_length_a 8.552749
_cell_length_b 15.808531
_cell_length_c 10.699204
_cell_angle_alpha 90.000000
_cell_angle_beta 91.894680
_cell_angle_gamma 90.000000
_cell_volume 1445.809960
_symmetry_space_group_name_H-M "P 2/C"
_symmetry_group_IT_number 13
_symmetry_cell_setting 'monoclinic'
loop_
_space_group_symop_operation_xyz
x,y,z
-x,y,1/2-z
-x,-y,-z
x,-y,1/2+z
loop_
_atom_site_type_symbol
_atom_site_label
_atom_site_fract_x
_atom_site_fract_y
_atom_site_fract_z
Si Si1 0.734291 0.267826 0.285168
Si Si2 0.311858 0.075759 0.237767
Si Si3 0.553855 0.691907 0.550429
Si Si4 0.833400 0.315642 0.711921
Si Si5 0.776942 0.567593 0.438625
Si Si6 0.407596 0.816561 0.358441
Si Si7 0.679156 0.020427 0.520540
Si Si8 0.896045 0.612210 0.948737
O O1 0.755335 0.167397 0.300366
O O2 0.599537 0.311622 0.367840
O O3 0.701244 0.281068 0.138653
O O4 0.887191 0.318200 0.336821
O O5 0.500000 0.082314 0.250000
O O6 0.245841 0.040776 0.370166
O O7 0.251983 0.015569 0.119796
O O8 0.611337 0.602566 0.490207
O O9 0.528973 0.764243 0.446441
O O10 0.801284 0.393067 0.803167
O O11 0.703721 0.244913 0.722549
O O12 0.825140 0.348221 0.571502
O O13 0.000000 0.274274 0.750000
O O14 0.781656 0.467238 0.416583
O O15 0.921925 0.588705 0.534814
O O16 0.500000 0.866071 0.250000
O O17 0.306320 0.882428 0.434795
O O18 0.500000 0.000000 0.500000
#
# Coordination Sequence:
#
# PCOD8116927 Si02
#       8
#     4   4   4   4   4   4   4   4
#     4  11  21  37  59  84 122 157 191 243 299 353
#     4  10  17  33  51  83 119 150 190 238 288 353
#     4  11  21  36  56  85 118 152 189 247 294 344
#     4  10  21  39  59  82 112 153 198 240 293 354
#     4  10  23  39  58  85 114 150 204 249 282 350
#     4  12  20  36  59  87 116 149 191 244 292 348
#     4  10  19  30  53  86 116 148 189 235 292 349
#     4  10  22  40  60  81 113 159 199 238 295 351
#
# _framework density 22.132921
#
# number of rings (size 3 to 8) (size 9 to 14) (size 15 to 20)
#    0.000    1.500    5.000    1.875    1.750    1.000 
#    0.000    0.000    0.000    0.000    6.500    3.500 
#    0.000    0.000    0.000    0.000    0.000    0.000 
#
# Total GULP energy -396455.681162 kJ/mol
# GULP energy per Si atom -12389.240036 kJ/mol
# Density = 2.208255 g / cm^3
# Si number density = 22.132921 Si / 1000 Ang^3
#
#
#
# Elastic Constant Matrix: (Units=GPa)
#
#
# Indices 1 2 3 4 5 6 
#
# 1 28.8399 22.3010 24.9591 0.0000 7.8370 0.0000
# 2 22.3010 118.8140 44.4540 0.0000 19.2850 0.0000
# 3 24.9591 44.4540 124.9458 0.0000 24.1179 0.0000
# 4 0.0000 0.0000 0.0000 24.8079 0.0000 13.1872
# 5 7.8370 19.2850 24.1179 0.0000 27.9844 0.0000
# 6 0.0000 0.0000 0.0000 13.1872 0.0000 11.0002
#
#
#
# Elastic Compliance Matrix: (Units=1/GPa)
#
#
# Indices 1 2 3 4 5 6 
#
# 1 0.045482 -0.005581 -0.006458 0.000000 -0.003326 0.000000
# 2 -0.005581 0.010880 -0.001932 0.000000 -0.004270 0.000000
# 3 -0.006458 -0.001932 0.011246 0.000000 -0.006552 0.000000
# 4 0.000000 0.000000 0.000000 0.111127 0.000000 -0.133221
# 5 -0.003326 -0.004270 -0.006552 0.000000 0.045255 0.000000
# 6 0.000000 0.000000 0.000000 -0.133221 0.000000 0.250617
#
#
# Mechanical properties :
#
#
# Convention : Reuss Voigt Hill
#
# Bulk Modulus (GPa) = 25.21028 50.66976 37.94002
# Shear Modulus (GPa) = 9.69425 24.81752 17.25589
#
# Velocity S-wave (km/s) = 2.09512 3.35221 2.79525
# Velocity P-wave (km/s) = 4.15546 6.15842 5.25328
#
# Compressibility (1/GPa) = 0.03966635
#
# Stress axis : x y z
#
# Youngs Moduli (GPa) = 21.98650 91.91278 88.92406
#
# Poissons Ratio (x) = 0.51295 0.57427
# Poissons Ratio (y) = 0.12270 0.17179
# Poissons Ratio (z) = 0.14199 0.17757
#
# Static dielectric constant tensor:
#      x y z
#    x 3.618340 0.000000 0.193930 
#    y 0.000000 3.839010 0.000000 
#    z 0.193930 0.000000 4.428900 
# 
# 
# High freq. dielectric constant tensor:
#      x y z
#    x 1.821410 0.000000 0.012070 
#    y 0.000000 1.862970 0.000000 
#    z 0.012070 0.000000 1.897640 
# 
# From -- ./inp_files/30402.got.cif
#   From: 2010.06.25/outbox.cif.g09.slc.cpg/sg13_16_cif.got.tgz:30402.got - 2010.06.28 04:50:58.
