data_PCOD8116105
_publ_section_title
;
Structure prediction by ZEFSAII (Michael W. Deem and Ramdas Pophale) SiO2 
 PCOD8116105
Probable space group: C 2/M
;
_chemical_formula_sum "Si O2"
_cell_formula_units_Z 56
_cell_length_a 24.487387
_cell_length_b 9.325128
_cell_length_c 17.578812
_cell_angle_alpha 90.000000
_cell_angle_beta 116.330698
_cell_angle_gamma 90.000000
_cell_volume 3597.621003
_symmetry_space_group_name_H-M "C 2/M"
_symmetry_group_IT_number 12
_symmetry_cell_setting 'monoclinic'
loop_
_space_group_symop_operation_xyz
x,y,z
-x,y,-z
-x,-y,-z
x,-y,z
1/2+x,1/2+y,z
1/2-x,1/2+y,-z
1/2-x,1/2-y,-z
1/2+x,1/2-y,z
loop_
_atom_site_type_symbol
_atom_site_label
_atom_site_fract_x
_atom_site_fract_y
_atom_site_fract_z
Si Si1 0.662364 0.167982 0.982885
Si Si2 0.167218 0.162422 0.396504
Si Si3 0.568361 0.170695 0.048509
Si Si4 0.809452 0.662112 0.448031
Si Si5 0.205781 0.166111 0.874395
Si Si6 0.644406 0.166265 0.238510
Si Si7 0.784205 0.164513 0.290811
O O1 0.659968 0.245002 0.899523
O O2 0.656292 0.000000 0.964574
O O3 0.607177 0.227092 0.000597
O O4 0.724568 0.207411 0.064680
O O5 0.153583 0.248280 0.465831
O O6 0.238669 0.163486 0.424453
O O7 0.132065 0.240979 0.306297
O O8 0.143001 0.000000 0.389546
O O9 0.597899 0.223219 0.145766
O O10 0.569578 0.000000 0.048348
O O11 0.500000 0.231772 0.000000
O O12 0.834660 0.500000 0.461238
O O13 0.819574 0.735370 0.372358
O O14 0.191901 0.204475 0.778288
O O15 0.194462 0.000000 0.883669
O O16 0.712006 0.190216 0.248380
O O17 0.633480 0.000000 0.252038
O O18 0.798761 0.000000 0.320380
#
# Coordination Sequence:
#
# PCOD8116105 Si02
#       7
#     8   8   8   8   8   8   8
#     4   9  16  27  41  59  80 105 139 175 209 243
#     4   9  16  25  36  52  76 106 136 164 198 241
#     4   9  16  27  44  63  82 107 142 180 213 244
#     4   9  16  24  35  54  78 104 134 165 198 237
#     4   9  16  26  40  58  81 109 138 169 206 248
#     4   9  15  25  40  56  76 104 138 172 204 239
#     4   9  15  24  38  55  79 108 136 165 200 243
#
# _framework density 15.565842
#
# number of rings (size 3 to 8) (size 9 to 14) (size 15 to 20)
#    0.000    3.000    1.429    0.857    0.000    4.000 
#    0.000    0.714    0.000    1.714    0.000    0.000 
#    0.000    1.143    0.000   13.143    0.000    3.857 
#
# Total GULP energy -347132.905768 kJ/mol
# GULP energy per Si atom -12397.603777 kJ/mol
# Density = 1.553041 g / cm^3
# Si number density = 15.565842 Si / 1000 Ang^3
#
#
#
# Elastic Constant Matrix: (Units=GPa)
#
#
# Indices 1 2 3 4 5 6 
#
# 1 65.2911 32.6703 51.5453 0.0000 -14.0123 0.0000
# 2 32.6703 81.6505 62.3804 0.0000 -18.0980 0.0000
# 3 51.5453 62.3804 125.4589 0.0000 -28.8615 0.0000
# 4 0.0000 0.0000 0.0000 26.9969 0.0000 -9.8247
# 5 -14.0123 -18.0980 -28.8615 0.0000 20.4990 0.0000
# 6 0.0000 0.0000 0.0000 -9.8247 0.0000 14.0107
#
#
#
# Elastic Compliance Matrix: (Units=1/GPa)
#
#
# Indices 1 2 3 4 5 6 
#
# 1 0.023289 -0.003031 -0.007417 0.000000 0.002801 0.000000
# 2 -0.003031 0.020548 -0.007801 0.000000 0.005085 0.000000
# 3 -0.007417 -0.007801 0.017965 0.000000 0.013336 0.000000
# 4 0.000000 0.000000 0.000000 0.049732 0.000000 0.034874
# 5 0.002801 0.005085 0.013336 0.000000 0.073963 0.000000
# 6 0.000000 0.000000 0.000000 0.034874 0.000000 0.095828
#
#
# Mechanical properties :
#
#
# Convention : Reuss Voigt Hill
#
# Bulk Modulus (GPa) = 39.52199 62.84362 51.18280
# Shear Modulus (GPa) = 15.32522 20.68828 18.00675
#
# Velocity S-wave (km/s) = 3.14114 3.64961 3.40488
# Velocity P-wave (km/s) = 6.21297 7.63020 6.95777
#
# Compressibility (1/GPa) = 0.02530237
#
# Stress axis : x y z
#
# Youngs Moduli (GPa) = 42.93796 48.66770 55.66374
#
# Poissons Ratio (x) = 0.14753 0.41286
# Poissons Ratio (y) = 0.13016 0.43426
# Poissons Ratio (z) = 0.31847 0.37968
#
# Static dielectric constant tensor:
#      x y z
#    x 2.654970 0.000000 -0.243530 
#    y 0.000000 2.932700 0.000000 
#    z -0.243530 0.000000 3.061590 
# 
# 
# High freq. dielectric constant tensor:
#      x y z
#    x 1.541300 0.000000 -0.031980 
#    y 0.000000 1.588870 0.000000 
#    z -0.031980 0.000000 1.597010 
# 
# From -- ./inp_files/287881.got.cif
#   From: 2010.06.25/outbox.cif.g09.slc.cpg/sg12_144_cif.got.tgz:287881.got - 2010.06.28 00:19:55.
