data_PCOD8116204
_publ_section_title
;
Structure prediction by ZEFSAII (Michael W. Deem and Ramdas Pophale) SiO2 
 PCOD8116204
Probable space group: C 2/M
;
_chemical_formula_sum "Si O2"
_cell_formula_units_Z 24
_cell_length_a 21.000000
_cell_length_b 18.000000
_cell_length_c 21.000000
_cell_angle_alpha 90.000000
_cell_angle_beta 20.000000
_cell_angle_gamma 90.000000
_cell_volume 2714.955898
_symmetry_space_group_name_H-M "C 2/M"
_symmetry_group_IT_number 12
_symmetry_cell_setting 'monoclinic'
loop_
_space_group_symop_operation_xyz
x,y,z
-x,y,-z
-x,-y,-z
x,-y,z
1/2+x,1/2+y,z
1/2-x,1/2+y,-z
1/2-x,1/2-y,-z
1/2+x,1/2-y,z
loop_
_atom_site_type_symbol
_atom_site_label
_atom_site_fract_x
_atom_site_fract_y
_atom_site_fract_z
Si Si1 0.663106 0.586217 0.525278
Si Si2 0.309846 0.414233 0.772461
Si Si3 0.285134 0.733192 0.720177
Si Si4 0.078791 0.637415 0.104798
Si Si5 0.090331 0.089319 0.117179
Si Si6 0.049453 0.781334 0.057215
O O1 0.705025 0.500000 0.483026
O O2 0.510453 0.607474 0.614698
O O3 0.574975 0.606901 0.677001
O O4 0.861418 0.625343 0.326832
O O5 0.310961 0.500000 0.745963
O O6 0.271384 0.355650 0.750833
O O7 0.147057 0.409442 0.978888
O O8 0.500000 0.753669 0.500000
O O9 0.147429 0.756282 0.791127
O O10 0.214769 0.778991 0.848732
O O11 0.097810 0.724227 0.068752
O O12 0.210202 0.615439 0.041142
O O13 0.046038 0.136586 0.093847
O O14 0.098099 0.000000 0.094899
#
# Coordination Sequence:
#
# PCOD8116204 Si02
#       6
#     8   8   8   8   8   8
#     4   9  17  30  52  82 110 135 164 200 250 312
#     4   9  18  32  51  78 110 139 167 203 250 306
#     4  10  21  38  54  73 103 138 178 219 254 297
#     4  10  18  33  55  80 110 137 164 203 254 312
#     4  10  21  36  54  78 106 134 169 214 260 305
#     4  10  22  37  54  77 103 136 175 213 256 304
#
# _framework density 8.8399230000000006
#
# number of rings (size 3 to 8) (size 9 to 14) (size 15 to 20)
#    0.000    2.333    0.000    4.000    0.000    2.333 
#    0.000   10.000    0.000    1.000    0.000    0.000 
#    0.000    0.000    0.000    0.000    0.000    0.000 
#
# Total GULP energy -297412.296215 kJ/mol
# GULP energy per Si atom -12392.179009 kJ/mol
# Density = 0.881980 g / cm^3
# Si number density = 8.839923 Si / 1000 Ang^3
#
#
#
# Elastic Constant Matrix: (Units=GPa)
#
#
# Indices 1 2 3 4 5 6 
#
# 1 109.0143 61.8418 40.5133 -0.0263 -7.6407 -0.0034
# 2 61.8418 118.7711 37.4919 -0.1536 -2.3295 0.0172
# 3 40.5133 37.4919 160.1534 -0.1214 -6.2488 -0.0004
# 4 -0.0263 -0.1536 -0.1214 24.6523 0.0461 2.0602
# 5 -7.6407 -2.3295 -6.2488 0.0461 28.1510 0.0044
# 6 -0.0034 0.0172 -0.0004 2.0602 0.0044 41.4465
#
#
#
# Elastic Compliance Matrix: (Units=1/GPa)
#
#
# Indices 1 2 3 4 5 6 
#
# 1 0.013755 -0.006526 -0.001843 -0.000041 0.002784 0.000006
# 2 -0.006526 0.012189 -0.001243 0.000066 -0.001039 -0.000009
# 3 -0.001843 -0.001243 0.007039 0.000023 0.000959 -0.000001
# 4 -0.000041 0.000066 0.000023 0.040734 -0.000067 -0.002025
# 5 0.002784 -0.001039 0.000959 -0.000067 0.036405 0.000000
# 6 0.000006 -0.000009 -0.000001 -0.002025 0.000000 0.024228
#
#
# Mechanical properties :
#
#
# Convention : Reuss Voigt Hill
#
# Bulk Modulus (GPa) = 72.67961 74.18141 73.43051
# Shear Modulus (GPa) = 31.61321 35.38943 33.50132
#
# Velocity S-wave (km/s) = 4.23317 4.47887 4.35775
# Velocity P-wave (km/s) = 8.06790 8.29435 8.18191
#
# Compressibility (1/GPa) = 0.01375902
#
# Stress axis : x y z
#
# Youngs Moduli (GPa) = 72.70014 82.03797 142.06961
#
# Poissons Ratio (x) = 0.53535 0.26188
# Poissons Ratio (y) = 0.47441 0.17663
# Poissons Ratio (z) = 0.13401 0.10200
#
# Static dielectric constant tensor:
#      x y z
#    x 3.374140 -0.000040 -0.018980 
#    y -0.000040 3.380630 0.000290 
#    z -0.018980 0.000290 3.676900 
# 
# 
# High freq. dielectric constant tensor:
#      x y z
#    x 1.685800 0.000000 -0.002970 
#    y 0.000000 1.684410 0.000020 
#    z -0.002970 0.000020 1.715870 
# 
# From -- ./inp_files/317477.got.cif
#   From: 2010.06.25/outbox.ucp.g09.slc.cvg/sg12_159_cif.got.tgz:317477.got - 2010.06.28 13:50:54.
