data_PCOD8116736
_publ_section_title
;
Structure prediction by ZEFSAII (Michael W. Deem and Ramdas Pophale) SiO2 
 PCOD8116736
Probable space group: P 2/C
;
_chemical_formula_sum "Si O2"
_cell_formula_units_Z 32
_cell_length_a 30.686599
_cell_length_b 13.576361
_cell_length_c 5.162610
_cell_angle_alpha 90.000000
_cell_angle_beta 71.383193
_cell_angle_gamma 90.000000
_cell_volume 2038.265667
_symmetry_space_group_name_H-M "P 2/C"
_symmetry_group_IT_number 13
_symmetry_cell_setting 'monoclinic'
loop_
_space_group_symop_operation_xyz
x,y,z
-x,y,1/2-z
-x,-y,-z
x,-y,1/2+z
loop_
_atom_site_type_symbol
_atom_site_label
_atom_site_fract_x
_atom_site_fract_y
_atom_site_fract_z
Si Si1 0.452225 0.564020 0.779931
Si Si2 0.946394 0.438061 0.844701
Si Si3 0.357541 0.437944 0.590493
Si Si4 0.123195 0.735175 0.025929
Si Si5 0.257937 0.565885 0.197004
Si Si6 0.101045 0.040179 0.571375
Si Si7 0.202680 0.953839 0.403013
Si Si8 0.817198 0.268993 0.582894
O O1 0.500000 0.623848 0.750000
O O2 0.452132 0.528576 0.482601
O O3 0.404470 0.624141 0.932565
O O4 0.932233 0.490669 0.605787
O O5 0.919885 0.336166 0.921104
O O6 0.000000 0.412088 0.750000
O O7 0.358914 0.531277 0.389140
O O8 0.308906 0.384138 0.625944
O O9 0.144166 0.723986 0.270612
O O10 0.104872 0.844587 0.012713
O O11 0.160946 0.709542 0.738167
O O12 0.251192 0.483403 0.429877
O O13 0.221366 0.651226 0.293137
O O14 0.074102 0.014470 0.888511
O O15 0.149969 0.987855 0.538761
O O16 0.206728 0.837268 0.363463
O O17 0.227645 0.990821 0.617398
#
# Coordination Sequence:
#
# PCOD8116736 Si02
#       8
#     4   4   4   4   4   4   4   4
#     4   8  12  18  31  50  65  84 128 180 209 238
#     4  10  23  42  57  71  94 121 146 173 208 248
#     4   8  14  25  37  46  69 109 138 163 213 250
#     4  12  21  32  55  75  88 114 146 177 209 248
#     4  10  21  33  40  56  90 123 146 177 208 248
#     4  10  16  30  48  71  93 114 132 167 212 255
#     4  10  16  30  46  66  90 115 137 170 210 252
#     4  12  21  30  49  73  90 116 148 175 208 249
#
# _framework density 15.699619999999999
#
# number of rings (size 3 to 8) (size 9 to 14) (size 15 to 20)
#    0.000    2.000    5.000    1.500    0.000    3.000 
#    0.000    0.000    0.000    0.750    0.000    0.000 
#    0.000    0.000    0.000    0.000    0.000    1.250 
#
# Total GULP energy -396418.027994 kJ/mol
# GULP energy per Si atom -12388.063375 kJ/mol
# Density = 1.566389 g / cm^3
# Si number density = 15.699620 Si / 1000 Ang^3
#
#
#
# Elastic Constant Matrix: (Units=GPa)
#
#
# Indices 1 2 3 4 5 6 
#
# 1 44.3562 31.3070 20.6820 0.0000 -5.1000 0.0000
# 2 31.3070 65.3201 14.4539 0.0000 -16.6480 0.0000
# 3 20.6820 14.4539 83.2126 0.0000 11.2285 0.0000
# 4 0.0000 0.0000 0.0000 15.1957 0.0000 6.8296
# 5 -5.1000 -16.6480 11.2285 0.0000 19.0919 0.0000
# 6 0.0000 0.0000 0.0000 6.8296 0.0000 1.3954
#
#
#
# Elastic Compliance Matrix: (Units=1/GPa)
#
#
# Indices 1 2 3 4 5 6 
#
# 1 0.037066 -0.016643 -0.006191 0.000000 -0.000970 0.000000
# 2 -0.016643 0.030658 -0.004558 0.000000 0.024969 0.000000
# 3 -0.006191 -0.004558 0.016410 0.000000 -0.015279 0.000000
# 4 0.000000 0.000000 0.000000 -0.054850 0.000000 0.268461
# 5 -0.000970 0.024969 -0.015279 0.000000 0.082878 0.000000
# 6 0.000000 0.000000 0.000000 0.268461 0.000000 -0.597320
#
#
# Mechanical properties :
#
#
# Convention : Reuss Voigt Hill
#
# Bulk Modulus (GPa) = 34.07059 36.19720 35.13389
# Shear Modulus (GPa) = -11.88804 15.56632 1.83914
#
# Velocity S-wave (km/s) = -2.75475 3.15224 1.08351
# Velocity P-wave (km/s) = 3.41035 6.02951 4.89824
#
# Compressibility (1/GPa) = 0.02935083
#
# Stress axis : x y z
#
# Youngs Moduli (GPa) = 26.97859 32.61776 60.93973
#
# Poissons Ratio (x) = 0.54285 0.37728
# Poissons Ratio (y) = 0.44899 0.27777
# Poissons Ratio (z) = 0.16702 0.14867
#
# Static dielectric constant tensor:
#      x y z
#    x 3.156990 0.000000 0.196130 
#    y 0.000000 2.664440 0.000000 
#    z 0.196130 0.000000 3.736820 
# 
# 
# High freq. dielectric constant tensor:
#      x y z
#    x 1.584160 0.000000 0.020250 
#    y 0.000000 1.552930 0.000000 
#    z 0.020250 0.000000 1.635910 
# 
# From -- ./inp_files/8158.got.cif
#   From: 2010.06.25/outbox.cif.g09.slc.cpg/sg13_5_cif.got.tgz:8158.got - 2010.06.28 04:50:58.
