data_PCOD8116317
_publ_section_title
;
Structure prediction by ZEFSAII (Michael W. Deem and Ramdas Pophale) SiO2 
 PCOD8116317
Probable space group: C 2/M
;
_chemical_formula_sum "Si O2"
_cell_formula_units_Z 20
_cell_length_a 21.000000
_cell_length_b 15.000000
_cell_length_c 18.000000
_cell_angle_alpha 90.000000
_cell_angle_beta 160.000000
_cell_angle_gamma 90.000000
_cell_volume 1939.254213
_symmetry_space_group_name_H-M "C 2/M"
_symmetry_group_IT_number 12
_symmetry_cell_setting 'monoclinic'
loop_
_space_group_symop_operation_xyz
x,y,z
-x,y,-z
-x,-y,-z
x,-y,z
1/2+x,1/2+y,z
1/2-x,1/2+y,-z
1/2-x,1/2-y,-z
1/2+x,1/2-y,z
loop_
_atom_site_type_symbol
_atom_site_label
_atom_site_fract_x
_atom_site_fract_y
_atom_site_fract_z
Si Si1 0.601142 0.806228 0.997625
Si Si2 0.095266 0.097629 0.747978
Si Si3 0.720967 0.332551 0.023938
Si Si4 0.933081 0.399626 0.510734
Si Si5 0.768248 0.782860 0.338990
O O1 0.692566 0.882266 0.046157
O O2 0.710007 0.810806 0.193706
O O3 0.617168 0.706419 0.981957
O O4 0.381329 0.823285 0.767190
O O5 0.094284 0.099122 0.837113
O O6 0.968314 0.174827 0.574361
O O7 0.030837 0.000000 0.650239
O O8 0.750000 0.250000 0.000000
O O9 0.903864 0.384157 0.251003
O O10 0.853136 0.500000 0.434079
O O11 0.000000 0.386398 0.500000
O O12 0.776746 0.324704 0.355324
#
# Coordination Sequence:
#
# PCOD8116317 Si02
#       5
#     8   8   8   8   8
#     4  10  22  38  64  88 120 154 202 247 292 352
#     4  11  23  40  62  88 122 160 197 242 300 353
#     4  10  19  38  61  84 118 159 194 241 294 350
#     4  11  20  36  63  89 118 157 200 241 291 353
#     4  11  21  40  63  90 120 157 196 247 302 345
#
# _framework density 10.313243
#
# number of rings (size 3 to 8) (size 9 to 14) (size 15 to 20)
#    0.000    1.400    6.000    1.200    0.000    3.200 
#    0.000    6.000    0.000    0.000    0.000    0.000 
#    0.000    0.000    0.000    0.000    0.000    0.000 
#
# Total GULP energy -247817.937564 kJ/mol
# GULP energy per Si atom -12390.896878 kJ/mol
# Density = 1.028977 g / cm^3
# Si number density = 10.313243 Si / 1000 Ang^3
#
#
#
# Elastic Constant Matrix: (Units=GPa)
#
#
# Indices 1 2 3 4 5 6 
#
# 1 52.8888 -0.0530 37.9801 0.0379 -0.3966 0.0171
# 2 -0.0530 103.1179 29.1954 0.0636 1.6724 0.0385
# 3 37.9801 29.1954 64.2174 0.0520 -1.9605 0.0324
# 4 0.0379 0.0636 0.0520 17.4442 0.0489 -1.0373
# 5 -0.3966 1.6724 -1.9605 0.0489 24.2168 0.0245
# 6 0.0171 0.0385 0.0324 -1.0373 0.0245 17.0516
#
#
#
# Elastic Compliance Matrix: (Units=1/GPa)
#
#
# Indices 1 2 3 4 5 6 
#
# 1 0.037007 0.007189 -0.025215 -0.000026 -0.001932 -0.000004
# 2 0.007189 0.012561 -0.010010 -0.000028 -0.001560 -0.000016
# 3 -0.025215 -0.010010 0.035131 -0.000024 0.003123 -0.000025
# 4 -0.000026 -0.000028 -0.000024 0.057534 -0.000120 0.003500
# 5 -0.001932 -0.001560 0.003123 -0.000120 0.041623 -0.000068
# 6 -0.000004 -0.000016 -0.000025 0.003500 -0.000068 0.058859
#
#
# Mechanical properties :
#
#
# Convention : Reuss Voigt Hill
#
# Bulk Modulus (GPa) = 34.93054 39.38544 37.15799
# Shear Modulus (GPa) = 16.21644 21.94930 19.08287
#
# Velocity S-wave (km/s) = 2.80696 3.26564 3.04495
# Velocity P-wave (km/s) = 5.24184 5.77540 5.51508
#
# Compressibility (1/GPa) = 0.02862824
#
# Stress axis : x y z
#
# Youngs Moduli (GPa) = 27.02162 79.61281 28.46473
#
# Poissons Ratio (x) = -0.57236 0.71773
# Poissons Ratio (y) = -0.19427 0.28494
# Poissons Ratio (z) = 0.68134 0.79694
#
# Static dielectric constant tensor:
#      x y z
#    x 3.972770 -0.000020 -0.260310 
#    y -0.000020 3.777030 -0.000020 
#    z -0.260310 -0.000020 3.622540 
# 
# 
# High freq. dielectric constant tensor:
#      x y z
#    x 1.799270 0.000000 -0.027290 
#    y 0.000000 1.797510 0.000000 
#    z -0.027290 0.000000 1.790190 
# 
# From -- ./inp_files/72341.got.cif
#   From: 2010.06.25/outbox.ucp.g09.slc.cvg/sg12_37_cif.got.tgz:72341.got - 2010.06.28 13:50:54.
