data_PCOD8116201
_publ_section_title
;
Structure prediction by ZEFSAII (Michael W. Deem and Ramdas Pophale) SiO2 
 PCOD8116201
Probable space group: C 2/M
;
_chemical_formula_sum "Si O2"
_cell_formula_units_Z 32
_cell_length_a 30.000000
_cell_length_b 9.000000
_cell_length_c 18.000000
_cell_angle_alpha 90.000000
_cell_angle_beta 40.000000
_cell_angle_gamma 90.000000
_cell_volume 3123.947783
_symmetry_space_group_name_H-M "C 2/M"
_symmetry_group_IT_number 12
_symmetry_cell_setting 'monoclinic'
loop_
_space_group_symop_operation_xyz
x,y,z
-x,y,-z
-x,-y,-z
x,-y,z
1/2+x,1/2+y,z
1/2-x,1/2+y,-z
1/2-x,1/2-y,-z
1/2+x,1/2-y,z
loop_
_atom_site_type_symbol
_atom_site_label
_atom_site_fract_x
_atom_site_fract_y
_atom_site_fract_z
Si Si1 0.182812 0.673551 0.121388
Si Si2 0.816058 0.673150 0.706085
Si Si3 0.826494 0.826265 0.175930
Si Si4 0.606582 0.324604 0.511823
Si Si5 0.956989 0.172931 0.927863
Si Si6 0.685575 0.825088 0.540145
Si Si7 0.044298 0.824471 0.238232
Si Si8 0.392761 0.671061 0.242940
O O1 0.184552 0.500000 0.099107
O O2 0.186636 0.701348 0.203703
O O3 0.110537 0.742265 0.187124
O O4 0.250000 0.750000 0.000000
O O5 0.826519 0.500000 0.673462
O O6 0.745086 0.740840 0.761901
O O7 0.878814 0.768493 0.590609
O O8 0.836647 0.797998 0.250485
O O9 0.825638 0.000000 0.159768
O O10 0.891652 0.748558 0.051072
O O11 0.616293 0.500000 0.508302
O O12 0.665932 0.243023 0.485408
O O13 0.527403 0.278015 0.630145
O O14 0.964166 0.231253 0.835166
O O15 0.027975 0.200843 0.883631
O O16 0.940693 0.000000 0.946991
O O17 0.750000 0.750000 0.500000
O O18 0.619664 0.786764 0.675220
O O19 0.698994 0.000000 0.514293
O O20 0.057022 0.000000 0.228452
O O21 0.386179 0.500000 0.279942
#
# Coordination Sequence:
#
# PCOD8116201 Si02
#       8
#     8   8   8   8   8   8   8   8
#     4  11  24  42  66  94 126 162 207 255 307 372
#     4  10  22  40  60  87 123 162 204 254 308 366
#     4   9  17  30  55  85 114 153 199 247 300 358
#     4  11  23  41  64  91 122 159 205 257 314 374
#     4   9  16  31  55  85 119 153 195 248 302 363
#     4  12  24  38  58  83 119 165 212 257 305 364
#     4  10  21  39  63  89 123 162 204 257 313 375
#     4  10  18  32  55  86 117 149 199 251 305 366
#
# _framework density 10.243449
#
# number of rings (size 3 to 8) (size 9 to 14) (size 15 to 20)
#    0.000    1.750    1.250    3.750    0.000    7.000 
#    0.000    2.500    0.000    3.000    0.000    0.000 
#    0.000    0.000    0.000    0.000    0.000    0.000 
#
# Total GULP energy -396666.838968 kJ/mol
# GULP energy per Si atom -12395.838718 kJ/mol
# Density = 1.022013 g / cm^3
# Si number density = 10.243449 Si / 1000 Ang^3
#
#
#
# Elastic Constant Matrix: (Units=GPa)
#
#
# Indices 1 2 3 4 5 6 
#
# 1 98.8831 41.4062 16.5711 0.0089 -23.1742 -0.0116
# 2 41.4062 88.3600 40.1193 0.0452 -2.5707 -0.0163
# 3 16.5711 40.1193 85.6251 0.0425 -8.5758 -0.0195
# 4 0.0089 0.0452 0.0425 28.0992 -0.0317 -1.7818
# 5 -23.1742 -2.5707 -8.5758 -0.0317 26.0018 -0.0012
# 6 -0.0116 -0.0163 -0.0195 -1.7818 -0.0012 32.3535
#
#
#
# Elastic Compliance Matrix: (Units=1/GPa)
#
#
# Indices 1 2 3 4 5 6 
#
# 1 0.016735 -0.008401 0.002180 0.000022 0.014804 0.000005
# 2 -0.008401 0.018611 -0.007921 -0.000025 -0.008260 0.000000
# 3 0.002180 -0.007921 0.015600 -0.000004 0.006305 0.000006
# 4 0.000022 -0.000025 -0.000004 0.035713 0.000059 0.001967
# 5 0.014804 -0.008260 0.006305 0.000059 0.052916 0.000010
# 6 0.000005 0.000000 0.000006 0.001967 0.000010 0.031017
#
#
# Mechanical properties :
#
#
# Convention : Reuss Voigt Hill
#
# Bulk Modulus (GPa) = 44.12934 52.11795 48.12364
# Shear Modulus (GPa) = 24.22138 28.94232 26.58185
#
# Velocity S-wave (km/s) = 3.44217 3.76270 3.60600
# Velocity P-wave (km/s) = 6.11433 6.66124 6.39364
#
# Compressibility (1/GPa) = 0.02266066
#
# Stress axis : x y z
#
# Youngs Moduli (GPa) = 59.75537 53.73274 64.10316
#
# Poissons Ratio (x) = 0.45143 -0.13977
# Poissons Ratio (y) = 0.50203 0.50778
# Poissons Ratio (z) = -0.13029 0.42563
#
# Static dielectric constant tensor:
#      x y z
#    x 3.817430 -0.000010 -0.092570 
#    y -0.000010 3.474370 0.000030 
#    z -0.092570 0.000030 4.023010 
# 
# 
# High freq. dielectric constant tensor:
#      x y z
#    x 1.808440 0.000000 -0.009140 
#    y 0.000000 1.764810 0.000000 
#    z -0.009140 0.000000 1.818890 
# 
# From -- ./inp_files/295470.got.cif
#   From: 2010.06.25/outbox.ucp.g09.slc.cvg/sg12_148_cif.got.tgz:295470.got - 2010.06.28 13:50:54.
