data_PCOD8116358
_publ_section_title
;
Structure prediction by ZEFSAII (Michael W. Deem and Ramdas Pophale) SiO2 
 PCOD8116358
Probable space group: C 2/M
;
_chemical_formula_sum "Si O2"
_cell_formula_units_Z 32
_cell_length_a 30.000000
_cell_length_b 9.000000
_cell_length_c 24.000000
_cell_angle_alpha 90.000000
_cell_angle_beta 30.000000
_cell_angle_gamma 90.000000
_cell_volume 3240.000000
_symmetry_space_group_name_H-M "C 2/M"
_symmetry_group_IT_number 12
_symmetry_cell_setting 'monoclinic'
loop_
_space_group_symop_operation_xyz
x,y,z
-x,y,-z
-x,-y,-z
x,-y,z
1/2+x,1/2+y,z
1/2-x,1/2+y,-z
1/2-x,1/2-y,-z
1/2+x,1/2-y,z
loop_
_atom_site_type_symbol
_atom_site_label
_atom_site_fract_x
_atom_site_fract_y
_atom_site_fract_z
Si Si1 0.008711 0.169525 0.734423
Si Si2 0.183444 0.674761 0.736068
Si Si3 0.356293 0.165855 0.032356
Si Si4 0.626883 0.671653 0.508117
Si Si5 0.238214 0.832748 0.780859
Si Si6 0.436534 0.167516 0.523145
Si Si7 0.836582 0.335735 0.923001
Si Si8 0.030351 0.827964 0.838592
O O1 0.925348 0.262862 0.802092
O O2 0.095915 0.208319 0.604032
O O3 0.034942 0.206445 0.768470
O O4 0.979312 0.000000 0.759508
O O5 0.183139 0.500000 0.746997
O O6 0.272995 0.730555 0.607903
O O7 0.173401 0.758998 0.805341
O O8 0.103175 0.720442 0.784457
O O9 0.268772 0.235426 0.155538
O O10 0.375388 0.000000 0.033701
O O11 0.341168 0.164669 0.983884
O O12 0.435762 0.275689 0.964719
O O13 0.623084 0.500000 0.497969
O O14 0.557074 0.747971 0.541943
O O15 0.338029 0.824341 0.652924
O O16 0.206865 0.000000 0.825920
O O17 0.500000 0.244912 0.500000
O O18 0.468852 0.000000 0.477435
O O19 0.830112 0.500000 0.905134
O O20 0.750000 0.250000 0.000000
O O21 0.047392 0.000000 0.834618
#
# Coordination Sequence:
#
# PCOD8116358 Si02
#       8
#     8   8   8   8   8   8   8   8
#     4   9  19  36  55  77 107 139 173 215 259 306
#     4  10  20  35  54  77 107 139 173 214 258 306
#     4  10  21  37  55  77 105 136 173 216 261 308
#     4   9  19  35  54  77 105 138 174 212 256 305
#     4  10  20  35  55  78 105 137 174 215 260 310
#     4   9  19  35  53  76 106 137 171 213 258 305
#     4  10  21  36  55  79 107 139 175 215 259 309
#     4  10  20  35  55  78 105 137 173 213 259 309
#
# _framework density 9.8765429999999999
#
# number of rings (size 3 to 8) (size 9 to 14) (size 15 to 20)
#    0.000    2.375    0.000    1.875    0.000    5.750 
#    0.000    5.000    0.000    0.000    0.000    0.000 
#    0.000    0.000    0.000    0.000    0.000    0.000 
#
# Total GULP energy -396718.588584 kJ/mol
# GULP energy per Si atom -12397.455893 kJ/mol
# Density = 0.985406 g / cm^3
# Si number density = 9.876543 Si / 1000 Ang^3
#
#
#
# Elastic Constant Matrix: (Units=GPa)
#
#
# Indices 1 2 3 4 5 6 
#
# 1 37.6223 29.9620 16.1261 0.0052 -13.7653 -0.0052
# 2 29.9620 50.7946 24.5502 0.0006 5.1502 -0.0051
# 3 16.1261 24.5502 21.5929 0.0114 8.6351 -0.0092
# 4 0.0052 0.0006 0.0114 21.3547 -0.0053 -0.7942
# 5 -13.7653 5.1502 8.6351 -0.0053 19.6933 -0.0003
# 6 -0.0052 -0.0051 -0.0092 -0.7942 -0.0003 31.4956
#
#
#
# Elastic Compliance Matrix: (Units=1/GPa)
#
#
# Indices 1 2 3 4 5 6 
#
# 1 -0.867318 0.234240 0.786210 -0.000459 -1.012232 0.000104
# 2 0.234240 -0.016838 -0.270453 0.000157 0.286720 -0.000037
# 3 0.786210 -0.270453 -0.583770 0.000339 0.876244 -0.000068
# 4 -0.000459 0.000157 0.000339 0.046872 -0.000498 0.001182
# 5 -1.012232 0.286720 0.876244 -0.000498 -1.115948 0.000113
# 6 0.000104 -0.000037 -0.000068 0.001182 0.000113 0.031780
#
#
# Mechanical properties :
#
#
# Convention : Reuss Voigt Hill
#
# Bulk Modulus (GPa) = 31.18377 27.92073 29.55225
# Shear Modulus (GPa) = -1.25171 17.13349 7.94089
#
# Velocity S-wave (km/s) = -0.79690 2.94833 2.00719
# Velocity P-wave (km/s) = 3.86967 5.07501 4.51276
#
# Compressibility (1/GPa) = 0.03206796
#
# Stress axis : x y z
#
# Youngs Moduli (GPa) = -1.15298 -59.39027 -1.71300
#
# Poissons Ratio (x) = 13.91158 1.34678
# Poissons Ratio (y) = 0.27007 -0.46329
# Poissons Ratio (z) = 0.90648 -16.06230
#
# Static dielectric constant tensor:
#      x y z
#    x 3.516210 -0.000020 0.120360 
#    y -0.000020 3.751900 0.000040 
#    z 0.120360 0.000040 3.814380 
# 
# 
# High freq. dielectric constant tensor:
#      x y z
#    x 1.749190 0.000000 0.003550 
#    y 0.000000 1.769000 0.000000 
#    z 0.003550 0.000000 1.759100 
# 
# From -- ./inp_files/244152.got.cif
#   From: 2010.06.25/outbox.ucp.g09.slc.cvg/sg12_123_cif.got.tgz:244152.got - 2010.06.28 13:50:54.
