data_PCOD8116499
_publ_section_title
;
Structure prediction by ZEFSAII (Michael W. Deem and Ramdas Pophale) SiO2 
 PCOD8116499
Probable space group: C 2/M
;
_chemical_formula_sum "Si O2"
_cell_formula_units_Z 32
_cell_length_a 18.000000
_cell_length_b 9.000000
_cell_length_c 30.000000
_cell_angle_alpha 90.000000
_cell_angle_beta 40.000000
_cell_angle_gamma 90.000000
_cell_volume 3123.947783
_symmetry_space_group_name_H-M "C 2/M"
_symmetry_group_IT_number 12
_symmetry_cell_setting 'monoclinic'
loop_
_space_group_symop_operation_xyz
x,y,z
-x,y,-z
-x,-y,-z
x,-y,z
1/2+x,1/2+y,z
1/2-x,1/2+y,-z
1/2-x,1/2-y,-z
1/2+x,1/2-y,z
loop_
_atom_site_type_symbol
_atom_site_label
_atom_site_fract_x
_atom_site_fract_y
_atom_site_fract_z
Si Si1 0.220875 0.668072 0.705375
Si Si2 0.868496 0.169132 0.073292
Si Si3 0.986410 0.673953 0.790004
Si Si4 0.462089 0.827594 0.702264
Si Si5 0.780815 0.323974 0.939967
Si Si6 0.630786 0.324402 0.565015
Si Si7 0.538184 0.323110 0.434737
Si Si8 0.761451 0.666567 0.203883
O O1 0.237515 0.500000 0.680627
O O2 0.339175 0.748734 0.636595
O O3 0.177178 0.666393 0.776671
O O4 0.113115 0.749193 0.730773
O O5 0.802719 0.232936 0.060719
O O6 0.842961 0.260846 0.129515
O O7 0.830369 0.000000 0.100508
O O8 0.000000 0.183002 0.000000
O O9 0.004278 0.500000 0.789644
O O10 0.906804 0.733347 0.866675
O O11 0.928446 0.702692 0.769146
O O12 0.578361 0.742375 0.634652
O O13 0.352304 0.756912 0.729033
O O14 0.477206 0.000000 0.684140
O O15 0.772315 0.500000 0.949391
O O16 0.750000 0.250000 0.000000
O O17 0.642722 0.500000 0.564074
O O18 0.750000 0.250000 0.500000
O O19 0.551345 0.271070 0.561061
O O20 0.500000 0.257606 0.500000
O O21 0.541519 0.500000 0.434615
O O22 0.729175 0.500000 0.203161
#
# Coordination Sequence:
#
# PCOD8116499 Si02
#       8
#     8   8   8   8   8   8   8   8
#     4   9  18  33  54  83 113 143 184 237 282 326
#     4  10  22  40  59  81 115 156 194 234 285 347
#     4   9  19  35  57  82 111 147 191 233 279 340
#     4  11  21  38  63  86 114 154 193 235 288 343
#     4  10  21  38  56  81 114 150 190 234 283 340
#     4  11  23  39  59  88 118 150 193 240 287 338
#     4   9  18  33  55  82 113 147 188 231 275 332
#     4  11  21  36  60  87 115 146 188 244 290 334
#
# _framework density 10.243449
#
# number of rings (size 3 to 8) (size 9 to 14) (size 15 to 20)
#    0.000    2.000    2.500    1.125    3.500    0.750 
#    0.000    0.000    0.000    6.000    0.000    0.000 
#    0.000    0.000    0.000    0.000    0.000    0.000 
#
# Total GULP energy -396487.213967 kJ/mol
# GULP energy per Si atom -12390.225436 kJ/mol
# Density = 1.022013 g / cm^3
# Si number density = 10.243449 Si / 1000 Ang^3
#
#
#
# Elastic Constant Matrix: (Units=GPa)
#
#
# Indices 1 2 3 4 5 6 
#
# 1 56.6888 15.9912 36.7062 0.0000 -7.0078 0.0013
# 2 15.9912 59.5896 31.1393 0.0006 2.9746 0.0023
# 3 36.7062 31.1393 120.1298 0.0000 10.4316 0.0000
# 4 0.0000 0.0006 0.0000 31.3159 -0.0001 4.4951
# 5 -7.0078 2.9746 10.4316 -0.0001 29.3849 0.0001
# 6 0.0013 0.0023 0.0000 4.4951 0.0001 12.2012
#
#
#
# Elastic Compliance Matrix: (Units=1/GPa)
#
#
# Indices 1 2 3 4 5 6 
#
# 1 0.024399 -0.003113 -0.007409 0.000000 0.008764 -0.000002
# 2 -0.003113 0.019809 -0.004070 0.000000 -0.001303 -0.000003
# 3 -0.007409 -0.004070 0.012135 0.000000 -0.005663 0.000002
# 4 0.000000 0.000000 0.000000 0.033716 0.000000 -0.012421
# 5 0.008764 -0.001303 -0.005663 0.000000 0.038263 -0.000001
# 6 -0.000002 -0.000003 0.000002 -0.012421 -0.000001 0.086535
#
#
# Mechanical properties :
#
#
# Convention : Reuss Voigt Hill
#
# Bulk Modulus (GPa) = 36.82239 44.89798 40.86018
# Shear Modulus (GPa) = 19.75531 24.75184 22.25358
#
# Velocity S-wave (km/s) = 3.10867 3.47966 3.29938
# Velocity P-wave (km/s) = 5.55858 6.17309 5.87388
#
# Compressibility (1/GPa) = 0.02715739
#
# Stress axis : x y z
#
# Youngs Moduli (GPa) = 40.98457 50.48218 82.40533
#
# Poissons Ratio (x) = 0.15717 0.61057
# Poissons Ratio (y) = 0.12760 0.33542
# Poissons Ratio (z) = 0.30367 0.20548
#
# Static dielectric constant tensor:
#      x y z
#    x 3.292800 0.000000 0.089650 
#    y 0.000000 3.341630 -0.000020 
#    z 0.089650 -0.000020 3.442520 
# 
# 
# High freq. dielectric constant tensor:
#      x y z
#    x 1.790050 0.000000 0.001080 
#    y 0.000000 1.752120 0.000000 
#    z 0.001080 0.000000 1.816370 
# 
# From -- ./inp_files/378147.got.cif
#   From: 2010.06.25/outbox.ucp.g09.slc.cvg/sg12_190_cif.got.tgz:378147.got - 2010.06.28 13:50:54.
