data_PCOD8116214
_publ_section_title
;
Structure prediction by ZEFSAII (Michael W. Deem and Ramdas Pophale) SiO2 
 PCOD8116214
Probable space group: C 2/M
;
_chemical_formula_sum "Si O2"
_cell_formula_units_Z 32
_cell_length_a 18.000000
_cell_length_b 9.000000
_cell_length_c 30.000000
_cell_angle_alpha 90.000000
_cell_angle_beta 40.000000
_cell_angle_gamma 90.000000
_cell_volume 3123.947783
_symmetry_space_group_name_H-M "C 2/M"
_symmetry_group_IT_number 12
_symmetry_cell_setting 'monoclinic'
loop_
_space_group_symop_operation_xyz
x,y,z
-x,y,-z
-x,-y,-z
x,-y,z
1/2+x,1/2+y,z
1/2-x,1/2+y,-z
1/2-x,1/2-y,-z
1/2+x,1/2-y,z
loop_
_atom_site_type_symbol
_atom_site_label
_atom_site_fract_x
_atom_site_fract_y
_atom_site_fract_z
Si Si1 0.526955 0.328006 0.797358
Si Si2 0.871313 0.822948 0.435226
Si Si3 0.472088 0.333503 0.298416
Si Si4 0.219420 0.833594 0.212027
Si Si5 0.042975 0.323660 0.933707
Si Si6 0.545745 0.325075 0.431939
Si Si7 0.870756 0.675024 0.935829
Si Si8 0.720149 0.830725 0.297578
O O1 0.487047 0.500000 0.812253
O O2 0.564478 0.261566 0.731732
O O3 0.423688 0.231967 0.865201
O O4 0.642837 0.311269 0.772511
O O5 0.750000 0.750000 0.500000
O O6 0.920066 0.754829 0.366156
O O7 0.956770 0.772901 0.435036
O O8 0.861037 0.000000 0.439242
O O9 0.423090 0.500000 0.323160
O O10 0.610911 0.335211 0.229367
O O11 0.329409 0.761227 0.136500
O O12 0.169781 0.741759 0.276332
O O13 0.251624 0.000000 0.213737
O O14 0.048512 0.500000 0.935397
O O15 0.954967 0.272236 0.936342
O O16 0.000000 0.253381 0.000000
O O17 0.500000 0.264323 0.500000
O O18 0.563434 0.500000 0.425205
O O19 0.669618 0.251615 0.364311
O O20 0.854813 0.500000 0.941234
O O21 0.750000 0.750000 0.000000
O O22 0.682274 0.000000 0.318647
#
# Coordination Sequence:
#
# PCOD8116214 Si02
#       8
#     8   8   8   8   8   8   8   8
#     4  10  22  39  59  85 116 151 190 232 283 340
#     4  10  21  38  58  82 113 148 188 234 284 337
#     4   9  19  36  60  83 108 149 193 232 275 332
#     4  10  18  36  63  83 108 146 193 238 276 329
#     4   9  19  34  58  88 109 141 194 237 272 326
#     4  10  22  40  61  84 112 151 196 237 281 337
#     4  11  23  39  60  85 117 152 188 235 286 339
#     4  11  22  36  58  86 118 149 184 236 292 338
#
# _framework density 10.243449
#
# number of rings (size 3 to 8) (size 9 to 14) (size 15 to 20)
#    0.000    2.000    2.500    0.750    3.500    1.250 
#    0.000    1.250    0.000    1.875    0.000    0.000 
#    0.000    0.000    0.000    0.000    0.000    0.000 
#
# Total GULP energy -396623.055316 kJ/mol
# GULP energy per Si atom -12394.470479 kJ/mol
# Density = 1.022013 g / cm^3
# Si number density = 10.243449 Si / 1000 Ang^3
#
#
#
# Elastic Constant Matrix: (Units=GPa)
#
#
# Indices 1 2 3 4 5 6 
#
# 1 56.8286 20.8435 40.3500 -0.0002 12.6937 -0.0013
# 2 20.8435 37.5727 35.9192 0.0002 -0.8236 -0.0022
# 3 40.3500 35.9192 155.5861 0.0000 9.3077 0.0000
# 4 -0.0002 0.0002 0.0000 31.7083 0.0002 -5.5264
# 5 12.6937 -0.8236 9.3077 0.0002 35.2611 -0.0004
# 6 -0.0013 -0.0022 0.0000 -5.5264 -0.0004 14.9307
#
#
#
# Elastic Compliance Matrix: (Units=1/GPa)
#
#
# Indices 1 2 3 4 5 6 
#
# 1 0.026306 -0.011246 -0.003702 0.000000 -0.008755 0.000001
# 2 -0.011246 0.039260 -0.006548 0.000001 0.006694 0.000005
# 3 -0.003702 -0.006548 0.008970 0.000000 -0.001188 -0.000001
# 4 0.000000 0.000001 0.000000 0.033712 0.000000 0.012478
# 5 -0.008755 0.006694 -0.001188 0.000000 0.031982 0.000001
# 6 0.000001 0.000005 -0.000001 0.012478 0.000001 0.071595
#
#
# Mechanical properties :
#
#
# Convention : Reuss Voigt Hill
#
# Bulk Modulus (GPa) = 31.70116 49.35698 40.52907
# Shear Modulus (GPa) = 18.84443 26.57167 22.70805
#
# Velocity S-wave (km/s) = 3.03616 3.60531 3.33290
# Velocity P-wave (km/s) = 5.27243 6.44013 5.88531
#
# Compressibility (1/GPa) = 0.03154458
#
# Stress axis : x y z
#
# Youngs Moduli (GPa) = 38.01442 25.47131 111.48131
#
# Poissons Ratio (x) = 0.28645 0.41272
# Poissons Ratio (y) = 0.42750 0.72994
# Poissons Ratio (z) = 0.14074 0.16678
#
# Static dielectric constant tensor:
#      x y z
#    x 3.629650 0.000010 0.141730 
#    y 0.000010 3.308470 0.000010 
#    z 0.141730 0.000010 4.072860 
# 
# 
# High freq. dielectric constant tensor:
#      x y z
#    x 1.789550 0.000000 0.002210 
#    y 0.000000 1.756870 0.000000 
#    z 0.002210 0.000000 1.814900 
# 
# From -- ./inp_files/346058.got.cif
#   From: 2010.06.25/outbox.ucp.g09.slc.cvg/sg12_174_cif.got.tgz:346058.got - 2010.06.28 13:50:54.
