data_PCOD8116903
_publ_section_title
;
Structure prediction by ZEFSAII (Michael W. Deem and Ramdas Pophale) SiO2 
 PCOD8116903
Probable space group: P 2/C
;
_chemical_formula_sum "Si O2"
_cell_formula_units_Z 26
_cell_length_a 11.439696
_cell_length_b 20.565231
_cell_length_c 8.036257
_cell_angle_alpha 90.000000
_cell_angle_beta 139.654100
_cell_angle_gamma 90.000000
_cell_volume 1223.981791
_symmetry_space_group_name_H-M "P 2/C"
_symmetry_group_IT_number 13
_symmetry_cell_setting 'monoclinic'
loop_
_space_group_symop_operation_xyz
x,y,z
-x,y,1/2-z
-x,-y,-z
x,-y,1/2+z
loop_
_atom_site_type_symbol
_atom_site_label
_atom_site_fract_x
_atom_site_fract_y
_atom_site_fract_z
Si Si1 0.636096 0.033068 0.022654
Si Si2 0.881761 0.628696 0.963327
Si Si3 0.513506 0.686747 0.580228
Si Si4 0.796084 0.913042 0.002261
Si Si5 0.286845 0.482177 0.020372
Si Si6 0.795446 0.399130 0.884203
Si Si7 0.500000 0.189247 0.250000
O O1 0.765018 0.080071 0.268846
O O2 0.755637 0.980140 0.054403
O O3 0.500000 0.071765 0.750000
O O4 0.500000 0.000000 0.000000
O O5 0.717280 0.676636 0.737074
O O6 0.795849 0.558485 0.914308
O O7 0.000000 0.654603 0.250000
O O8 0.006476 0.631639 0.931644
O O9 0.500000 0.652653 0.750000
O O10 0.363232 0.655016 0.296930
O O11 0.483304 0.764500 0.568091
O O12 0.000000 0.891885 0.250000
O O13 0.675863 0.855233 0.942844
O O14 0.500000 0.482542 0.250000
O O15 0.220327 0.557951 0.964414
O O16 0.217964 0.452421 0.776073
#
# Coordination Sequence:
#
# PCOD8116903 Si02
#       7
#     4   4   4   4   4   4   2
#     4   9  17  34  56  83 131 161 179 230 291 332
#     4  10  17  32  49  72 100 129 167 216 277 327
#     4  10  19  35  51  71 102 141 177 221 265 323
#     4  11  20  33  58  93 121 152 198 234 279 335
#     4  11  19  31  50  73 102 126 165 213 280 345
#     4  11  21  34  50  76 101 130 169 222 281 333
#     4  10  20  34  54  80 108 146 196 234 270 320
#
# _framework density 21.242145000000001
#
# number of rings (size 3 to 8) (size 9 to 14) (size 15 to 20)
#    0.462    1.231    6.923    1.385    0.000    1.846 
#    0.000    0.000    0.000    0.923    0.000    0.000 
#   23.077    0.000    0.000    0.000    0.000    0.000 
#
# Total GULP energy -322188.265048 kJ/mol
# GULP energy per Si atom -12391.856348 kJ/mol
# Density = 2.119380 g / cm^3
# Si number density = 21.242145 Si / 1000 Ang^3
#
#
#
# Elastic Constant Matrix: (Units=GPa)
#
#
# Indices 1 2 3 4 5 6 
#
# 1 70.3198 20.6453 51.0283 0.0000 36.7062 0.0000
# 2 20.6453 99.0144 49.4654 0.0000 18.2193 0.0000
# 3 51.0283 49.4654 108.2584 0.0000 36.3606 0.0000
# 4 0.0000 0.0000 0.0000 16.4970 0.0000 -4.1339
# 5 36.7062 18.2193 36.3606 0.0000 43.0763 0.0000
# 6 0.0000 0.0000 0.0000 -4.1339 0.0000 12.9802
#
#
#
# Elastic Compliance Matrix: (Units=1/GPa)
#
#
# Indices 1 2 3 4 5 6 
#
# 1 0.029688 0.001435 -0.008302 0.000000 -0.018897 0.000000
# 2 0.001435 0.013170 -0.006158 0.000000 -0.001595 0.000000
# 3 -0.008302 -0.006158 0.017744 0.000000 -0.005298 0.000000
# 4 0.000000 0.000000 0.000000 0.065874 0.000000 0.020979
# 5 -0.018897 -0.001595 -0.005298 0.000000 0.044463 0.000000
# 6 0.000000 0.000000 0.000000 0.020979 0.000000 0.083722
#
#
# Mechanical properties :
#
#
# Convention : Reuss Voigt Hill
#
# Bulk Modulus (GPa) = 28.94360 57.76339 43.35350
# Shear Modulus (GPa) = 17.10974 24.94095 21.02535
#
# Velocity S-wave (km/s) = 2.84115 3.43027 3.14951
# Velocity P-wave (km/s) = 4.94145 6.55293 5.80340
#
# Compressibility (1/GPa) = 0.03454995
#
# Stress axis : x y z
#
# Youngs Moduli (GPa) = 33.68356 75.92742 56.35711
#
# Poissons Ratio (x) = -0.10892 0.46790
# Poissons Ratio (y) = -0.04832 0.34707
# Poissons Ratio (z) = 0.27965 0.46760
#
# Static dielectric constant tensor:
#      x y z
#    x 4.048400 0.000000 -0.176450 
#    y 0.000000 3.435120 0.000000 
#    z -0.176450 0.000000 4.211010 
# 
# 
# High freq. dielectric constant tensor:
#      x y z
#    x 1.833800 0.000000 0.017060 
#    y 0.000000 1.782290 0.000000 
#    z 0.017060 0.000000 1.839590 
# 
# From -- ./inp_files/17323.got.cif
#   From: 2010.06.25/outbox.cif.g09.slc.cpg/sg13_9_cif.got.tgz:17323.got - 2010.06.28 04:50:58.
