data_PCOD8116028
_publ_section_title
;
Structure prediction by ZEFSAII (Michael W. Deem and Ramdas Pophale) SiO2 
 PCOD8116028
Probable space group: C 2/M
;
_chemical_formula_sum "Si O2"
_cell_formula_units_Z 56
_cell_length_a 9.303934
_cell_length_b 19.678397
_cell_length_c 25.701550
_cell_angle_alpha 90.000000
_cell_angle_beta 136.386625
_cell_angle_gamma 90.000000
_cell_volume 3245.873951
_symmetry_space_group_name_H-M "C 2/M"
_symmetry_group_IT_number 12
_symmetry_cell_setting 'monoclinic'
loop_
_space_group_symop_operation_xyz
x,y,z
-x,y,-z
-x,-y,-z
x,-y,z
1/2+x,1/2+y,z
1/2-x,1/2+y,-z
1/2-x,1/2-y,-z
1/2+x,1/2-y,z
loop_
_atom_site_type_symbol
_atom_site_label
_atom_site_fract_x
_atom_site_fract_y
_atom_site_fract_z
Si Si1 0.329831 0.423501 0.500000
Si Si2 0.918770 0.181488 0.375462
Si Si3 0.916939 0.681485 0.624541
Si Si4 0.261616 0.682272 0.796662
Si Si5 0.003486 0.075456 0.916448
Si Si6 0.425043 0.817727 0.796660
Si Si7 0.162301 0.575456 0.916443
O O1 0.500000 0.430139 0.500000
O O2 0.262800 0.500000 0.500003
O O3 0.426214 0.381686 0.573765
O O4 0.131142 0.381691 0.426231
O O5 0.776927 0.195861 0.388467
O O6 0.780152 0.161140 0.289321
O O7 0.048412 0.250003 0.399210
O O8 0.122884 0.661136 0.710682
O O9 0.434873 0.624487 0.851681
O O10 0.388654 0.749999 0.819322
O O11 0.118599 0.694411 0.809296
O O12 0.822762 0.073248 0.911379
O O13 0.036386 0.000000 0.901967
O O14 0.217656 0.100848 0.000004
O O15 0.471849 0.875513 0.851674
O O16 0.071475 0.500000 0.901960
#
# Coordination Sequence:
#
# PCOD8116028 Si02
#       7
#     8   8   8   8   8   8   8
#     4   9  17  28  43  65  88 107 134 174 212 241
#     4   9  17  29  45  63  84 111 139 168 204 246
#     4   9  17  29  45  63  84 111 139 168 204 246
#     4   9  17  28  43  64  86 108 137 171 206 244
#     4   8  14  25  41  61  84 109 138 172 207 242
#     4   9  17  28  43  64  86 108 137 171 206 244
#     4   8  14  25  41  61  84 109 138 172 207 242
#
# _framework density 17.252673999999999
#
# number of rings (size 3 to 8) (size 9 to 14) (size 15 to 20)
#    0.000    3.286    0.000    1.286    0.000    1.714 
#    0.000    5.714    0.000    2.571    0.000   10.000 
#    0.000    0.000    0.000    0.000    0.000    0.000 
#
# Total GULP energy -347056.396534 kJ/mol
# GULP energy per Si atom -12394.871305 kJ/mol
# Density = 1.721341 g / cm^3
# Si number density = 17.252674 Si / 1000 Ang^3
#
#
#
# Elastic Constant Matrix: (Units=GPa)
#
#
# Indices 1 2 3 4 5 6 
#
# 1 18.4177 28.4191 22.3121 0.0001 2.1389 0.0000
# 2 28.4191 160.5260 108.8784 0.0000 5.8531 0.0000
# 3 22.3121 108.8784 137.5329 -0.0002 6.5250 -0.0002
# 4 0.0001 0.0000 -0.0002 37.9707 0.0000 1.1489
# 5 2.1389 5.8531 6.5250 0.0000 13.0742 0.0000
# 6 0.0000 0.0000 -0.0002 1.1489 0.0000 22.1839
#
#
#
# Elastic Compliance Matrix: (Units=1/GPa)
#
#
# Indices 1 2 3 4 5 6 
#
# 1 0.075952 -0.010936 -0.003387 0.000000 -0.005839 0.000000
# 2 -0.010936 0.015035 -0.010133 0.000000 0.000116 0.000000
# 3 -0.003387 -0.010133 0.015980 0.000000 -0.002884 0.000000
# 4 0.000000 0.000000 0.000000 0.026377 0.000000 -0.001366
# 5 -0.005839 0.000116 -0.002884 0.000000 0.078829 0.000000
# 6 0.000000 0.000000 0.000000 -0.001366 0.000000 0.045148
#
#
# Mechanical properties :
#
#
# Convention : Reuss Voigt Hill
#
# Bulk Modulus (GPa) = 17.22577 70.63288 43.92933
# Shear Modulus (GPa) = 15.35696 25.10355 20.23025
#
# Velocity S-wave (km/s) = 2.98673 3.81865 3.42802
# Velocity P-wave (km/s) = 4.67976 7.77637 6.41763
#
# Compressibility (1/GPa) = 0.05805255
#
# Stress axis : x y z
#
# Youngs Moduli (GPa) = 13.16623 66.51359 62.58007
#
# Poissons Ratio (x) = 0.72740 0.21197
# Poissons Ratio (y) = 0.14399 0.63415
# Poissons Ratio (z) = 0.04460 0.67401
#
# Static dielectric constant tensor:
#      x y z
#    x 2.779670 0.000000 0.050890 
#    y 0.000000 3.481400 0.000000 
#    z 0.050890 0.000000 3.479070 
# 
# 
# High freq. dielectric constant tensor:
#      x y z
#    x 1.614580 0.000000 0.004740 
#    y 0.000000 1.665230 0.000000 
#    z 0.004740 0.000000 1.679720 
# 
# From -- ./inp_files/263640.got.cif
#   From: 2010.06.25/outbox.cif.g09.slc.cpg/sg12_132_cif.got.tgz:263640.got - 2010.06.28 00:19:55.
