data_PCOD8116360
_publ_section_title
;
Structure prediction by ZEFSAII (Michael W. Deem and Ramdas Pophale) SiO2 
 PCOD8116360
Probable space group: C 2/M
;
_chemical_formula_sum "Si O2"
_cell_formula_units_Z 28
_cell_length_a 30.000000
_cell_length_b 9.000000
_cell_length_c 18.000000
_cell_angle_alpha 90.000000
_cell_angle_beta 40.000000
_cell_angle_gamma 90.000000
_cell_volume 3123.947783
_symmetry_space_group_name_H-M "C 2/M"
_symmetry_group_IT_number 12
_symmetry_cell_setting 'monoclinic'
loop_
_space_group_symop_operation_xyz
x,y,z
-x,y,-z
-x,-y,-z
x,-y,z
1/2+x,1/2+y,z
1/2-x,1/2+y,-z
1/2-x,1/2-y,-z
1/2+x,1/2-y,z
loop_
_atom_site_type_symbol
_atom_site_label
_atom_site_fract_x
_atom_site_fract_y
_atom_site_fract_z
Si Si1 0.910894 0.673365 0.337310
Si Si2 0.050930 0.674880 0.222843
Si Si3 0.207380 0.676049 0.988126
Si Si4 0.806238 0.674259 0.757166
Si Si5 0.056239 0.175118 0.366468
Si Si6 0.700304 0.173421 0.404473
Si Si7 0.202829 0.674667 0.621819
O O1 0.907820 0.500000 0.355654
O O2 0.862467 0.740326 0.465327
O O3 0.877368 0.711012 0.299116
O O4 0.991491 0.722402 0.238773
O O5 0.048629 0.500000 0.244835
O O6 0.028408 0.769811 0.323081
O O7 0.126303 0.719794 0.095798
O O8 0.217902 0.500000 0.977468
O O9 0.237038 0.742747 0.873730
O O10 0.250000 0.750000 0.000000
O O11 0.799548 0.500000 0.782798
O O12 0.872391 0.737357 0.714970
O O13 0.817322 0.710284 0.657263
O O14 0.000000 0.220196 0.500000
O O15 0.070728 0.000000 0.348361
O O16 0.773787 0.253914 0.330012
O O17 0.711796 0.000000 0.403364
O O18 0.216062 0.500000 0.606776
O O19 0.250000 0.750000 0.500000
#
# Coordination Sequence:
#
# PCOD8116360 Si02
#       7
#     8   8   8   8   8   8   8
#     4   8  15  30  51  76 102 129 167 209 248 304
#     4  10  20  35  55  74  97 136 177 211 254 309
#     4  11  22  36  55  76 100 133 178 224 261 306
#     4  11  22  36  55  75 100 139 178 215 259 308
#     4  11  23  35  49  75 108 135 164 210 262 310
#     4   9  18  32  51  76 104 133 169 211 255 309
#     4   9  16  28  49  75 105 136 166 205 251 304
#
# _framework density 8.9630179999999999
#
# number of rings (size 3 to 8) (size 9 to 14) (size 15 to 20)
#    0.000    2.143    1.429    3.429    0.000    4.000 
#    0.000    5.000    0.000    0.857    0.000    6.000 
#    0.000    0.000    0.000    0.000    0.000    0.000 
#
# Total GULP energy -347014.783205 kJ/mol
# GULP energy per Si atom -12393.385114 kJ/mol
# Density = 0.894262 g / cm^3
# Si number density = 8.963018 Si / 1000 Ang^3
#
#
#
# Elastic Constant Matrix: (Units=GPa)
#
#
# Indices 1 2 3 4 5 6 
#
# 1 96.9562 22.3881 23.1667 -0.0007 -33.3463 0.0004
# 2 22.3881 56.0900 21.8949 0.0042 -7.6610 0.0024
# 3 23.1667 21.8949 77.9034 -0.0008 -25.4506 0.0008
# 4 -0.0007 0.0042 -0.0008 24.8116 0.0019 1.8905
# 5 -33.3463 -7.6610 -25.4506 0.0019 25.6911 -0.0013
# 6 0.0004 0.0024 0.0008 1.8905 -0.0013 27.6692
#
#
#
# Elastic Compliance Matrix: (Units=1/GPa)
#
#
# Indices 1 2 3 4 5 6 
#
# 1 0.021167 -0.006412 0.005705 -0.000001 0.031213 0.000002
# 2 -0.006412 0.021974 -0.007167 -0.000003 -0.008870 -0.000002
# 3 0.005705 -0.007167 0.021993 0.000000 0.027054 0.000001
# 4 -0.000001 -0.000003 0.000000 0.040515 -0.000005 -0.002768
# 5 0.031213 -0.008870 0.027054 -0.000005 0.103593 0.000005
# 6 0.000002 -0.000002 0.000001 -0.002768 0.000005 0.036330
#
#
# Mechanical properties :
#
#
# Convention : Reuss Voigt Hill
#
# Bulk Modulus (GPa) = 20.24919 40.64990 30.44954
# Shear Modulus (GPa) = 17.99977 26.53439 22.26708
#
# Velocity S-wave (km/s) = 3.17221 3.85153 3.52826
# Velocity P-wave (km/s) = 4.97370 6.51957 5.79838
#
# Compressibility (1/GPa) = 0.04938468
#
# Stress axis : x y z
#
# Youngs Moduli (GPa) = 47.24443 45.50838 45.46964
#
# Poissons Ratio (x) = 0.29181 -0.25939
# Poissons Ratio (y) = 0.30294 0.32587
# Poissons Ratio (z) = -0.26952 0.32615
#
# Static dielectric constant tensor:
#      x y z
#    x 3.796810 -0.000010 -0.249850 
#    y -0.000010 3.389120 0.000020 
#    z -0.249850 0.000020 3.380200 
# 
# 
# High freq. dielectric constant tensor:
#      x y z
#    x 1.699020 0.000000 -0.014820 
#    y 0.000000 1.690650 0.000000 
#    z -0.014820 0.000000 1.668620 
# 
# From -- ./inp_files/281021.got.cif
#   From: 2010.06.25/outbox.ucp.g09.slc.cvg/sg12_141_cif.got.tgz:281021.got - 2010.06.28 13:50:54.
