data_PCOD8116246
_publ_section_title
;
Structure prediction by ZEFSAII (Michael W. Deem and Ramdas Pophale) SiO2 
 PCOD8116246
Probable space group: C 2/M
;
_chemical_formula_sum "Si O2"
_cell_formula_units_Z 24
_cell_length_a 30.000000
_cell_length_b 9.000000
_cell_length_c 9.000000
_cell_angle_alpha 90.000000
_cell_angle_beta 90.000000
_cell_angle_gamma 90.000000
_cell_volume 2430.000000
_symmetry_space_group_name_H-M "C 2/M"
_symmetry_group_IT_number 12
_symmetry_cell_setting 'monoclinic'
loop_
_space_group_symop_operation_xyz
x,y,z
-x,y,-z
-x,-y,-z
x,-y,z
1/2+x,1/2+y,z
1/2-x,1/2+y,-z
1/2-x,1/2-y,-z
1/2+x,1/2-y,z
loop_
_atom_site_type_symbol
_atom_site_label
_atom_site_fract_x
_atom_site_fract_y
_atom_site_fract_z
Si Si1 0.501868 0.834928 0.177441
Si Si2 0.755565 0.826777 0.345643
Si Si3 0.417644 0.335435 0.177092
Si Si4 0.913671 0.835894 0.824301
Si Si5 0.672813 0.829762 0.157773
Si Si6 0.831730 0.330977 0.188503
O O1 0.464204 0.724966 0.239370
O O2 0.548274 0.771461 0.238848
O O3 0.495238 0.000000 0.241928
O O4 0.500000 0.839906 0.000000
O O5 0.750000 0.750000 0.500000
O O6 0.717530 0.771564 0.233613
O O7 0.802379 0.782795 0.278880
O O8 0.753387 0.000000 0.370343
O O9 0.408630 0.500000 0.242585
O O10 0.381689 0.215157 0.228945
O O11 0.418088 0.343920 0.000412
O O12 0.866510 0.769497 0.775686
O O13 0.918476 0.000000 0.755162
O O14 0.662026 0.000000 0.196054
O O15 0.678784 0.807527 0.983471
O O16 0.823418 0.500000 0.238552
#
# Coordination Sequence:
#
# PCOD8116246 Si02
#       6
#     8   8   8   8   8   8
#     4   9  15  23  37  60  94 132 165 199 242 290
#     4  11  23  38  54  74 100 131 167 208 254 302
#     4   9  16  26  41  65  97 130 164 202 244 291
#     4   9  16  25  41  66  96 129 164 202 245 292
#     4   9  19  34  52  74 101 132 167 207 251 299
#     4  10  19  33  53  76 101 131 167 207 252 300
#
# _framework density 9.8765429999999999
#
# number of rings (size 3 to 8) (size 9 to 14) (size 15 to 20)
#    0.000    2.500    0.000    3.000    0.000    8.000 
#    0.000    0.000    0.000    0.000    0.000    1.167 
#    0.000    9.333    0.000    0.000    0.000    0.000 
#
# Total GULP energy -297528.683148 kJ/mol
# GULP energy per Si atom -12397.028464 kJ/mol
# Density = 0.985406 g / cm^3
# Si number density = 9.876543 Si / 1000 Ang^3
#
#
#
# Elastic Constant Matrix: (Units=GPa)
#
#
# Indices 1 2 3 4 5 6 
#
# 1 88.5804 41.8640 29.8197 0.0000 -18.8504 0.0000
# 2 41.8640 93.9994 30.4187 0.0000 -5.2641 0.0000
# 3 29.8197 30.4187 15.9493 0.0000 -1.2413 0.0000
# 4 0.0000 0.0000 0.0000 16.2801 0.0000 -4.1100
# 5 -18.8504 -5.2641 -1.2413 0.0000 -13.2671 0.0000
# 6 0.0000 0.0000 0.0000 -4.1100 0.0000 36.2599
#
#
#
# Elastic Compliance Matrix: (Units=1/GPa)
#
#
# Indices 1 2 3 4 5 6 
#
# 1 0.020118 0.006278 -0.051629 0.000000 -0.026245 0.000000
# 2 0.006278 0.029273 -0.068665 0.000000 -0.014111 0.000000
# 3 -0.051629 -0.068665 0.295863 0.000000 0.072921 0.000000
# 4 0.000000 0.000000 0.000000 0.063234 0.000000 0.007167
# 5 -0.026245 -0.014111 0.072921 0.000000 -0.039309 0.000000
# 6 0.000000 0.000000 0.000000 0.007167 0.000000 0.028391
#
#
# Mechanical properties :
#
#
# Convention : Reuss Voigt Hill
#
# Bulk Modulus (GPa) = 8.53097 44.74824 26.63960
# Shear Modulus (GPa) = 7.52247 14.28303 10.90275
#
# Velocity S-wave (km/s) = 1.95359 2.69193 2.35191
# Velocity P-wave (km/s) = 3.06869 5.68902 4.57066
#
# Compressibility (1/GPa) = 0.11721998
#
# Stress axis : x y z
#
# Youngs Moduli (GPa) = 49.70769 34.16172 3.37995
#
# Poissons Ratio (x) = -0.21447 0.17450
# Poissons Ratio (y) = -0.31207 0.23208
# Poissons Ratio (z) = 2.56638 2.34572
#
# Static dielectric constant tensor:
#      x y z
#    x 3.565390 0.000000 0.121920 
#    y 0.000000 3.692460 0.000000 
#    z 0.121920 0.000000 2.805470 
# 
# 
# High freq. dielectric constant tensor:
#      x y z
#    x 1.771180 0.000000 0.002110 
#    y 0.000000 1.778960 0.000000 
#    z 0.002110 0.000000 1.692980 
# 
# From -- ./inp_files/108640.got.cif
#   From: 2010.06.25/outbox.ucp.g09.slc.cvg/sg12_55_cif.got.tgz:108640.got - 2010.06.28 13:50:54.
