data_PCOD8116654
_publ_section_title
;
Structure prediction by ZEFSAII (Michael W. Deem and Ramdas Pophale) SiO2 
 PCOD8116654
Probable space group: P 2/C
;
_chemical_formula_sum "Si O2"
_cell_formula_units_Z 26
_cell_length_a 18.449045
_cell_length_b 8.770293
_cell_length_c 24.578168
_cell_angle_alpha 90.000000
_cell_angle_beta 160.302540
_cell_angle_gamma 90.000000
_cell_volume 1340.406021
_symmetry_space_group_name_H-M "P 2/C"
_symmetry_group_IT_number 13
_symmetry_cell_setting 'monoclinic'
loop_
_space_group_symop_operation_xyz
x,y,z
-x,y,1/2-z
-x,-y,-z
x,-y,1/2+z
loop_
_atom_site_type_symbol
_atom_site_label
_atom_site_fract_x
_atom_site_fract_y
_atom_site_fract_z
Si Si1 0.354866 0.405112 0.477052
Si Si2 0.083964 0.338889 0.186663
Si Si3 0.000000 0.649507 0.250000
Si Si4 0.703991 0.813499 0.969806
Si Si5 0.265809 0.572054 0.593329
Si Si6 0.828999 0.135817 0.084411
Si Si7 0.673714 0.371933 0.244836
O O1 0.300467 0.364045 0.375979
O O2 0.198958 0.541777 0.380818
O O3 0.322220 0.262754 0.494553
O O4 0.591211 0.474268 0.655050
O O5 0.158149 0.294616 0.178121
O O6 0.951655 0.200313 0.118531
O O7 0.922736 0.484436 0.072128
O O8 0.062877 0.761239 0.343530
O O9 0.700564 0.743982 0.906562
O O10 0.512517 0.747123 0.871788
O O11 0.686796 0.996405 0.960840
O O12 0.500000 0.489042 0.750000
O O13 0.205167 0.579251 0.614133
O O14 0.000000 0.078899 0.250000
#
# Coordination Sequence:
#
# PCOD8116654 Si02
#       7
#     4   4   2   4   4   4   4
#     4  10  18  35  57  85 108 142 184 228 270 325
#     4  11  19  36  58  85 110 138 185 239 272 315
#     4  10  14  30  58  76 100 136 188 220 248 316
#     4  10  19  34  54  77 109 149 178 216 272 329
#     4  10  20  37  57  80 107 148 189 220 267 333
#     4  10  19  33  57  82 111 142 187 222 269 330
#     4  10  22  35  55  83 114 142 182 233 276 318
#
# _framework density 19.397106999999998
#
# number of rings (size 3 to 8) (size 9 to 14) (size 15 to 20)
#    0.000    1.846    4.615    2.769    0.000    0.000 
#    0.000   12.308    0.000    0.000    0.000    0.000 
#    0.000    0.000    0.000    0.000    0.000    0.000 
#
# Total GULP energy -322128.501196 kJ/mol
# GULP energy per Si atom -12389.557738 kJ/mol
# Density = 1.935296 g / cm^3
# Si number density = 19.397107 Si / 1000 Ang^3
#
#
#
# Elastic Constant Matrix: (Units=GPa)
#
#
# Indices 1 2 3 4 5 6 
#
# 1 134.6716 38.4288 20.0391 0.0000 -5.6705 0.0000
# 2 38.4288 92.3865 27.2779 0.0000 -0.3770 0.0000
# 3 20.0391 27.2779 48.8159 0.0000 -11.6119 0.0000
# 4 0.0000 0.0000 0.0000 38.1179 0.0000 -61.1764
# 5 -5.6705 -0.3770 -11.6119 0.0000 22.4313 0.0000
# 6 0.0000 0.0000 0.0000 -61.1764 0.0000 218.6013
#
#
#
# Elastic Compliance Matrix: (Units=1/GPa)
#
#
# Indices 1 2 3 4 5 6 
#
# 1 0.008595 -0.003143 -0.001446 0.000000 0.001371 0.000000
# 2 -0.003143 0.014439 -0.007880 0.000000 -0.004631 0.000000
# 3 -0.001446 -0.007880 0.028925 0.000000 0.014476 0.000000
# 4 0.000000 0.000000 0.000000 0.047625 0.000000 0.013328
# 5 0.001371 -0.004631 0.014476 0.000000 0.052343 0.000000
# 6 0.000000 0.000000 0.000000 0.013328 0.000000 0.008304
#
#
# Mechanical properties :
#
#
# Convention : Reuss Voigt Hill
#
# Bulk Modulus (GPa) = 37.00649 49.70731 43.35690
# Shear Modulus (GPa) = 25.74980 68.50531 47.12755
#
# Velocity S-wave (km/s) = 3.64745 5.94928 4.93446
# Velocity P-wave (km/s) = 6.07110 8.53661 7.40716
#
# Compressibility (1/GPa) = 0.02702229
#
# Stress axis : x y z
#
# Youngs Moduli (GPa) = 116.34475 69.25687 34.57184
#
# Poissons Ratio (x) = 0.21765 0.04999
# Poissons Ratio (y) = 0.36563 0.27242
# Poissons Ratio (z) = 0.16824 0.54574
#
# Static dielectric constant tensor:
#      x y z
#    x 3.470840 0.000000 -0.330530 
#    y 0.000000 3.324450 0.000000 
#    z -0.330530 0.000000 2.868610 
# 
# 
# High freq. dielectric constant tensor:
#      x y z
#    x 1.752250 0.000000 -0.019220 
#    y 0.000000 1.728220 0.000000 
#    z -0.019220 0.000000 1.750000 
# 
# From -- ./inp_files/63863.got.cif
#   From: 2010.06.25/outbox.cif.g09.slc.cpg/sg13_32_cif.got.tgz:63863.got - 2010.06.28 04:50:58.
