data_PCOD8116205
_publ_section_title
;
Structure prediction by ZEFSAII (Michael W. Deem and Ramdas Pophale) SiO2 
 PCOD8116205
Probable space group: C 2/M
;
_chemical_formula_sum "Si O2"
_cell_formula_units_Z 28
_cell_length_a 27.000000
_cell_length_b 9.000000
_cell_length_c 18.000000
_cell_angle_alpha 90.000000
_cell_angle_beta 40.000000
_cell_angle_gamma 90.000000
_cell_volume 2811.553005
_symmetry_space_group_name_H-M "C 2/M"
_symmetry_group_IT_number 12
_symmetry_cell_setting 'monoclinic'
loop_
_space_group_symop_operation_xyz
x,y,z
-x,y,-z
-x,-y,-z
x,-y,z
1/2+x,1/2+y,z
1/2-x,1/2+y,-z
1/2-x,1/2-y,-z
1/2+x,1/2-y,z
loop_
_atom_site_type_symbol
_atom_site_label
_atom_site_fract_x
_atom_site_fract_y
_atom_site_fract_z
Si Si1 0.916059 0.164011 0.290531
Si Si2 0.593149 0.326022 0.541896
Si Si3 0.565597 0.825186 0.299832
Si Si4 0.904953 0.166358 0.878821
Si Si5 0.655684 0.333885 0.317359
Si Si6 0.081954 0.177610 0.874306
Si Si7 0.831335 0.331247 0.099600
O O1 0.876212 0.231961 0.411517
O O2 0.904635 0.246603 0.224460
O O3 0.005213 0.160090 0.208786
O O4 0.882660 0.000000 0.316333
O O5 0.569344 0.500000 0.577913
O O6 0.521358 0.230083 0.597461
O O7 0.656899 0.303035 0.404970
O O8 0.612380 0.744471 0.179880
O O9 0.603804 0.785272 0.334520
O O10 0.568427 0.000000 0.283539
O O11 0.869868 0.000000 0.918467
O O12 0.868177 0.262278 0.985116
O O13 0.622656 0.500000 0.340633
O O14 0.741233 0.320997 0.189561
O O15 0.148534 0.238893 0.850026
O O16 0.083488 0.000000 0.871287
O O17 0.000000 0.233288 0.000000
O O18 0.859773 0.500000 0.076969
#
# Coordination Sequence:
#
# PCOD8116205 Si02
#       7
#     8   8   8   8   8   8   8
#     4   8  15  30  55  82 102 131 180 228 262 313
#     4   9  18  36  60  80 104 146 192 225 262 322
#     4  11  22  35  56  86 112 136 177 233 282 319
#     4  10  19  36  58  80 108 145 183 219 269 334
#     4  10  22  39  55  74 108 153 191 221 266 331
#     4  10  18  33  56  81 108 141 182 223 272 335
#     4  11  23  36  52  80 114 144 181 231 279 318
#
# _framework density 9.9589090000000002
#
# number of rings (size 3 to 8) (size 9 to 14) (size 15 to 20)
#    0.000    2.143    1.429    3.429    0.000    4.286 
#    0.000    1.429    0.000    0.000    0.000    0.000 
#    0.000    0.000    0.000    0.000    0.000    0.000 
#
# Total GULP energy -346988.536878 kJ/mol
# GULP energy per Si atom -12392.447746 kJ/mol
# Density = 0.993624 g / cm^3
# Si number density = 9.958909 Si / 1000 Ang^3
#
#
#
# Elastic Constant Matrix: (Units=GPa)
#
#
# Indices 1 2 3 4 5 6 
#
# 1 52.2717 16.9117 37.9195 -0.0129 27.8733 0.0091
# 2 16.9117 32.4539 -7.8015 0.0051 -2.1940 0.0066
# 3 37.9195 -7.8015 4.9854 0.0087 30.3995 0.0063
# 4 -0.0129 0.0051 0.0087 13.0668 0.0148 2.1799
# 5 27.8733 -2.1940 30.3995 0.0148 31.4962 -0.0106
# 6 0.0091 0.0066 0.0063 2.1799 -0.0106 26.2028
#
#
#
# Elastic Compliance Matrix: (Units=1/GPa)
#
#
# Indices 1 2 3 4 5 6 
#
# 1 0.040480 -0.019600 0.022884 0.000107 -0.059276 -0.000048
# 2 -0.019600 0.039228 -0.018020 -0.000069 0.037471 0.000022
# 3 0.022884 -0.018020 -0.026502 0.000042 0.004072 0.000001
# 4 0.000107 -0.000069 0.000042 0.077607 -0.000179 -0.006457
# 5 -0.059276 0.037471 0.004072 -0.000179 0.082888 0.000059
# 6 -0.000048 0.000022 0.000001 -0.006457 0.000059 0.038701
#
#
# Mechanical properties :
#
#
# Convention : Reuss Voigt Hill
#
# Bulk Modulus (GPa) = 42.13522 20.41894 31.27708
# Shear Modulus (GPa) = 17.25416 16.99858 17.12637
#
# Velocity S-wave (km/s) = 2.94644 2.92453 2.93550
# Velocity P-wave (km/s) = 5.72501 4.65593 5.21792
#
# Compressibility (1/GPa) = 0.02373311
#
# Stress axis : x y z
#
# Youngs Moduli (GPa) = 24.70384 25.49218 -37.73341
#
# Poissons Ratio (x) = 0.49965 0.86349
# Poissons Ratio (y) = 0.48420 -0.67996
# Poissons Ratio (z) = -0.56532 0.45937
#
# Static dielectric constant tensor:
#      x y z
#    x 3.574800 -0.000010 0.483860 
#    y -0.000010 3.518620 0.000040 
#    z 0.483860 0.000040 3.741260 
# 
# 
# High freq. dielectric constant tensor:
#      x y z
#    x 1.764330 0.000000 0.038720 
#    y 0.000000 1.756730 0.000000 
#    z 0.038720 0.000000 1.772970 
# 
# From -- ./inp_files/292369.got.cif
#   From: 2010.06.25/outbox.ucp.g09.slc.cvg/sg12_147_cif.got.tgz:292369.got - 2010.06.28 13:50:54.
