data_PCOD8116354
_publ_section_title
;
Structure prediction by ZEFSAII (Michael W. Deem and Ramdas Pophale) SiO2 
 PCOD8116354
Probable space group: C 2/M
;
_chemical_formula_sum "Si O2"
_cell_formula_units_Z 32
_cell_length_a 18.000000
_cell_length_b 9.000000
_cell_length_c 30.000000
_cell_angle_alpha 90.000000
_cell_angle_beta 40.000000
_cell_angle_gamma 90.000000
_cell_volume 3123.947783
_symmetry_space_group_name_H-M "C 2/M"
_symmetry_group_IT_number 12
_symmetry_cell_setting 'monoclinic'
loop_
_space_group_symop_operation_xyz
x,y,z
-x,y,-z
-x,-y,-z
x,-y,z
1/2+x,1/2+y,z
1/2-x,1/2+y,-z
1/2-x,1/2-y,-z
1/2+x,1/2-y,z
loop_
_atom_site_type_symbol
_atom_site_label
_atom_site_fract_x
_atom_site_fract_y
_atom_site_fract_z
Si Si1 0.092682 0.663916 0.183711
Si Si2 0.684963 0.834272 0.910279
Si Si3 0.483448 0.834665 0.935033
Si Si4 0.456566 0.671268 0.175696
Si Si5 0.783758 0.823406 0.714569
Si Si6 0.548561 0.834269 0.302839
Si Si7 0.038943 0.834971 0.436998
Si Si8 0.635437 0.335765 0.560142
O O1 0.086933 0.500000 0.163777
O O2 0.223330 0.704354 0.135113
O O3 0.027044 0.660358 0.260362
O O4 0.040979 0.793447 0.177376
O O5 0.589947 0.794835 0.917564
O O6 0.735518 0.000000 0.878282
O O7 0.633835 0.829146 0.983407
O O8 0.475503 0.711278 0.900481
O O9 0.500412 0.000000 0.906835
O O10 0.420320 0.500000 0.192889
O O11 0.347166 0.777593 0.230801
O O12 0.835651 0.754486 0.736081
O O13 0.856193 0.759295 0.638823
O O14 0.797276 0.000000 0.711564
O O15 0.436086 0.752053 0.370847
O O16 0.557161 0.000000 0.318928
O O17 0.000000 0.747550 0.500000
O O18 0.927474 0.843714 0.457821
O O19 0.081298 0.000000 0.431396
O O20 0.660001 0.500000 0.567527
O O21 0.750000 0.250000 0.500000
#
# Coordination Sequence:
#
# PCOD8116354 Si02
#       8
#     8   8   8   8   8   8   8   8
#     4  11  24  39  56  80 111 148 187 230 281 332
#     4   9  19  37  62  88 112 143 182 225 273 328
#     4   9  19  38  62  86 113 145 182 223 272 331
#     4  12  25  38  55  81 113 148 186 230 278 328
#     4  10  20  36  59  83 110 146 184 226 278 332
#     4  10  21  38  59  82 109 145 190 234 277 331
#     4   8  16  32  54  79 105 137 178 219 263 319
#     4  10  20  34  55  82 111 146 185 230 282 330
#
# _framework density 10.243449
#
# number of rings (size 3 to 8) (size 9 to 14) (size 15 to 20)
#    0.000    2.125    0.000    4.875    0.000    6.500 
#    0.000    3.750    0.000   12.750    0.000    0.000 
#    0.000    0.000    0.000    0.000    0.000    0.000 
#
# Total GULP energy -396664.079467 kJ/mol
# GULP energy per Si atom -12395.752483 kJ/mol
# Density = 1.022013 g / cm^3
# Si number density = 10.243449 Si / 1000 Ang^3
#
#
#
# Elastic Constant Matrix: (Units=GPa)
#
#
# Indices 1 2 3 4 5 6 
#
# 1 35.9315 33.5161 30.4033 0.0012 13.1084 0.0052
# 2 33.5161 114.0164 41.3954 0.0020 4.9267 0.0066
# 3 30.4033 41.3954 55.7894 0.0002 6.4457 0.0009
# 4 0.0012 0.0020 0.0002 8.7081 0.0000 -10.5908
# 5 13.1084 4.9267 6.4457 0.0000 26.0732 0.0011
# 6 0.0052 0.0066 0.0009 -10.5908 0.0011 23.7134
#
#
#
# Elastic Compliance Matrix: (Units=1/GPa)
#
#
# Indices 1 2 3 4 5 6 
#
# 1 0.069928 -0.009152 -0.028263 -0.000044 -0.026440 -0.000030
# 2 -0.009152 0.013203 -0.005200 -0.000008 0.003392 -0.000005
# 3 -0.028263 -0.005200 0.036472 0.000025 0.006176 0.000017
# 4 -0.000044 -0.000008 0.000025 0.251377 0.000013 0.112269
# 5 -0.026440 0.003392 0.006176 0.000013 0.049479 0.000008
# 6 -0.000030 -0.000005 0.000017 0.112269 0.000008 0.092312
#
#
# Mechanical properties :
#
#
# Convention : Reuss Voigt Hill
#
# Bulk Modulus (GPa) = 29.09362 46.26298 37.67830
# Shear Modulus (GPa) = 8.20399 18.39377 13.29888
#
# Velocity S-wave (km/s) = 2.00330 2.99963 2.55059
# Velocity P-wave (km/s) = 4.42525 5.88454 5.20628
#
# Compressibility (1/GPa) = 0.03437180
#
# Stress axis : x y z
#
# Youngs Moduli (GPa) = 14.30037 75.74273 27.41822
#
# Poissons Ratio (x) = 0.69322 0.77492
# Poissons Ratio (y) = 0.13088 0.14259
# Poissons Ratio (z) = 0.40417 0.39390
#
# Static dielectric constant tensor:
#      x y z
#    x 3.426180 0.000000 0.167680 
#    y 0.000000 3.660960 0.000000 
#    z 0.167680 0.000000 3.672270 
# 
# 
# High freq. dielectric constant tensor:
#      x y z
#    x 1.778360 0.000000 0.006070 
#    y 0.000000 1.788210 0.000000 
#    z 0.006070 0.000000 1.796340 
# 
# From -- ./inp_files/378032.got.cif
#   From: 2010.06.25/outbox.ucp.g09.slc.cvg/sg12_190_cif.got.tgz:378032.got - 2010.06.28 13:50:54.
