data_PCOD8116483
_publ_section_title
;
Structure prediction by ZEFSAII (Michael W. Deem and Ramdas Pophale) SiO2 
 PCOD8116483
Probable space group: C 2/M
;
_chemical_formula_sum "Si O2"
_cell_formula_units_Z 28
_cell_length_a 24.000000
_cell_length_b 9.000000
_cell_length_c 15.000000
_cell_angle_alpha 90.000000
_cell_angle_beta 120.000000
_cell_angle_gamma 90.000000
_cell_volume 2805.922308
_symmetry_space_group_name_H-M "C 2/M"
_symmetry_group_IT_number 12
_symmetry_cell_setting 'monoclinic'
loop_
_space_group_symop_operation_xyz
x,y,z
-x,y,-z
-x,-y,-z
x,-y,z
1/2+x,1/2+y,z
1/2-x,1/2+y,-z
1/2-x,1/2-y,-z
1/2+x,1/2-y,z
loop_
_atom_site_type_symbol
_atom_site_label
_atom_site_fract_x
_atom_site_fract_y
_atom_site_fract_z
Si Si1 0.098183 0.176265 0.516965
Si Si2 0.457938 0.835266 0.878711
Si Si3 0.812549 0.678052 0.794558
Si Si4 0.564962 0.325500 0.862042
Si Si5 0.539523 0.325681 0.650081
Si Si6 0.728889 0.177884 0.574211
Si Si7 0.703464 0.321719 0.035949
O O1 0.081945 0.236107 0.603142
O O2 0.155137 0.278593 0.528238
O O3 0.035608 0.218769 0.408734
O O4 0.115559 0.000000 0.526019
O O5 0.386987 0.771183 0.842452
O O6 0.497086 0.735243 0.841731
O O7 0.450822 0.000000 0.832376
O O8 0.500000 0.839177 0.000000
O O9 0.805833 0.500000 0.794687
O O10 0.773095 0.745015 0.682538
O O11 0.780021 0.752043 0.855407
O O12 0.558846 0.500000 0.864893
O O13 0.572911 0.271584 0.766940
O O14 0.629467 0.270148 0.961643
O O15 0.541162 0.500000 0.638288
O O16 0.750000 0.250000 0.500000
O O17 0.737518 0.000000 0.581345
O O18 0.711114 0.500000 0.040732
O O19 0.750000 0.250000 0.000000
#
# Coordination Sequence:
#
# PCOD8116483 Si02
#       7
#     8   8   8   8   8   8   8
#     4   9  18  38  65  89 120 160 204 251 305 365
#     4  10  21  39  61  87 119 157 200 249 304 359
#     4  11  24  44  67  90 123 166 209 260 317 370
#     4  10  21  36  59  91 123 160 204 249 304 369
#     4   8  17  35  61  92 121 157 200 247 304 366
#     4  12  27  45  64  91 125 163 210 257 311 375
#     4  11  24  40  61  93 131 171 214 257 307 372
#
# _framework density 9.9788940000000004
#
# number of rings (size 3 to 8) (size 9 to 14) (size 15 to 20)
#    0.000    1.857    1.429    3.000    4.000    2.000 
#    0.000    2.143    0.000    0.000    0.000    0.000 
#    0.000    0.000    0.000    0.000    0.000    0.000 
#
# Total GULP energy -347061.359837 kJ/mol
# GULP energy per Si atom -12395.048566 kJ/mol
# Density = 0.995618 g / cm^3
# Si number density = 9.978894 Si / 1000 Ang^3
#
#
#
# Elastic Constant Matrix: (Units=GPa)
#
#
# Indices 1 2 3 4 5 6 
#
# 1 141.9175 50.5219 52.8575 0.0000 -6.1840 0.0000
# 2 50.5219 88.6750 37.1513 0.0000 -5.8360 0.0000
# 3 52.8575 37.1513 91.8178 0.0000 -13.1207 0.0000
# 4 0.0000 0.0000 0.0000 16.9358 0.0000 -0.4281
# 5 -6.1840 -5.8360 -13.1207 0.0000 23.6433 0.0000
# 6 0.0000 0.0000 0.0000 -0.4281 0.0000 41.6472
#
#
#
# Elastic Compliance Matrix: (Units=1/GPa)
#
#
# Indices 1 2 3 4 5 6 
#
# 1 0.010015 -0.003967 -0.004264 0.000000 -0.000726 0.000000
# 2 -0.003967 0.015153 -0.003759 0.000000 0.000617 0.000000
# 3 -0.004264 -0.003759 0.015830 0.000000 0.006742 0.000000
# 4 0.000000 0.000000 0.000000 0.059062 0.000000 0.000607
# 5 -0.000726 0.000617 0.006742 0.000000 0.045999 0.000000
# 6 0.000000 0.000000 0.000000 0.000607 0.000000 0.024017
#
#
# Mechanical properties :
#
#
# Convention : Reuss Voigt Hill
#
# Bulk Modulus (GPa) = 58.76358 67.05241 62.90800
# Shear Modulus (GPa) = 25.03374 28.57055 26.80215
#
# Velocity S-wave (km/s) = 3.54550 3.78769 3.66859
# Velocity P-wave (km/s) = 6.80210 7.26628 7.03802
#
# Compressibility (1/GPa) = 0.01701734
#
# Stress axis : x y z
#
# Youngs Moduli (GPa) = 99.84775 65.99319 63.17016
#
# Poissons Ratio (x) = 0.26182 0.26936
# Poissons Ratio (y) = 0.39614 0.23747
# Poissons Ratio (z) = 0.42575 0.24808
#
# Static dielectric constant tensor:
#      x y z
#    x 3.715280 0.000000 0.367910 
#    y 0.000000 3.578300 0.000000 
#    z 0.367910 0.000000 3.629320 
# 
# 
# High freq. dielectric constant tensor:
#      x y z
#    x 1.793550 0.000000 0.001940 
#    y 0.000000 1.765200 0.000000 
#    z 0.001940 0.000000 1.782280 
# 
# From -- ./inp_files/238932.got.cif
#   From: 2010.06.25/outbox.ucp.g09.slc.cvg/sg12_120_cif.got.tgz:238932.got - 2010.06.28 13:50:54.
