data_PCOD8116093
_publ_section_title
;
Structure prediction by ZEFSAII (Michael W. Deem and Ramdas Pophale) SiO2 
 PCOD8116093
Probable space group: C 2/M
;
_chemical_formula_sum "Si O2"
_cell_formula_units_Z 48
_cell_length_a 29.624025
_cell_length_b 9.256026
_cell_length_c 29.602359
_cell_angle_alpha 90.000000
_cell_angle_beta 19.400999
_cell_angle_gamma 90.000000
_cell_volume 2696.281714
_symmetry_space_group_name_H-M "C 2/M"
_symmetry_group_IT_number 12
_symmetry_cell_setting 'monoclinic'
loop_
_space_group_symop_operation_xyz
x,y,z
-x,y,-z
-x,-y,-z
x,-y,z
1/2+x,1/2+y,z
1/2-x,1/2+y,-z
1/2-x,1/2-y,-z
1/2+x,1/2-y,z
loop_
_atom_site_type_symbol
_atom_site_label
_atom_site_fract_x
_atom_site_fract_y
_atom_site_fract_z
Si Si1 0.058021 0.828002 0.574193
Si Si2 0.412218 0.168928 0.889803
Si Si3 0.630337 0.172149 0.851307
Si Si4 0.398133 0.669287 0.812043
Si Si5 0.148619 0.328279 0.732275
Si Si6 0.410448 0.671883 0.625336
O O1 0.212980 0.772529 0.422365
O O2 0.992430 0.771028 0.682594
O O3 0.966867 0.765898 0.619202
O O4 0.053297 0.000000 0.577972
O O5 0.445827 0.249903 0.811814
O O6 0.517707 0.225821 0.827890
O O7 0.432204 0.000000 0.861929
O O8 0.259487 0.203342 0.050714
O O9 0.639340 0.234429 0.791876
O O10 0.757226 0.224221 0.761572
O O11 0.624575 0.000000 0.854223
O O12 0.500000 0.235701 0.000000
O O13 0.419426 0.500000 0.799776
O O14 0.151187 0.500000 0.732081
O O15 0.500000 0.734088 0.500000
O O16 0.419735 0.500000 0.617129
#
# Coordination Sequence:
#
# PCOD8116093 Si02
#       6
#     8   8   8   8   8   8
#     4   9  16  25  39  58  82 113 145 175 211 255
#     4   9  18  31  46  63  87 114 142 180 220 255
#     4   9  16  22  32  53  81 112 142 170 206 254
#     4   9  18  31  46  64  85 113 147 179 214 257
#     4   9  16  26  38  57  84 113 143 176 214 253
#     4   9  14  22  34  51  79 112 140 167 204 254
#
# _framework density 17.802292000000001
#
# number of rings (size 3 to 8) (size 9 to 14) (size 15 to 20)
#    0.000    3.000    1.667    0.000    2.333    0.667 
#    0.000    0.000    0.000    0.000    0.000    0.000 
#    0.000    2.667    0.000    0.167    0.000    0.000 
#
# Total GULP energy -297500.787914 kJ/mol
# GULP energy per Si atom -12395.866163 kJ/mol
# Density = 1.776177 g / cm^3
# Si number density = 17.802292 Si / 1000 Ang^3
#
#
#
# Elastic Constant Matrix: (Units=GPa)
#
#
# Indices 1 2 3 4 5 6 
#
# 1 122.7527 14.3117 70.0928 0.0084 -2.4640 0.0009
# 2 14.3117 7.9705 10.8431 -0.0224 1.2525 0.0034
# 3 70.0928 10.8431 148.0028 -0.0034 8.0394 0.0047
# 4 0.0084 -0.0224 -0.0034 8.8363 0.0020 2.2601
# 5 -2.4640 1.2525 8.0394 0.0020 40.0605 0.0028
# 6 0.0009 0.0034 0.0047 2.2601 0.0028 14.9152
#
#
#
# Elastic Compliance Matrix: (Units=1/GPa)
#
#
# Indices 1 2 3 4 5 6 
#
# 1 0.013065 -0.016924 -0.005075 -0.000061 0.002351 0.000014
# 2 -0.016924 0.161492 -0.003524 0.000452 -0.005383 -0.000102
# 3 -0.005075 -0.003524 0.009533 0.000000 -0.002115 -0.000002
# 4 -0.000061 0.000452 0.000000 0.117734 -0.000023 -0.017841
# 5 0.002351 -0.005383 -0.002115 -0.000023 0.025700 0.000000
# 6 0.000014 -0.000102 -0.000002 -0.017841 0.000000 0.069749
#
#
# Mechanical properties :
#
#
# Convention : Reuss Voigt Hill
#
# Bulk Modulus (GPa) = 7.51634 52.13568 29.82601
# Shear Modulus (GPa) = 10.14884 24.99429 17.57157
#
# Velocity S-wave (km/s) = 2.39024 3.75105 3.14513
# Velocity P-wave (km/s) = 3.44223 6.93614 5.47535
#
# Compressibility (1/GPa) = 0.13304342
#
# Stress axis : x y z
#
# Youngs Moduli (GPa) = 76.54152 6.19227 104.89614
#
# Poissons Ratio (x) = 0.10480 0.53237
# Poissons Ratio (y) = 1.29540 0.36963
# Poissons Ratio (z) = 0.38846 0.02182
#
# Static dielectric constant tensor:
#      x y z
#    x 3.500770 -0.000010 -0.012120 
#    y -0.000010 2.551150 0.000030 
#    z -0.012120 0.000030 3.561200 
# 
# 
# High freq. dielectric constant tensor:
#      x y z
#    x 1.699950 0.000000 -0.001710 
#    y 0.000000 1.602390 0.000000 
#    z -0.001710 0.000000 1.703260 
# 
# From -- ./inp_files/101937.got.cif
#   From: 2010.06.25/outbox.cif.g09.slc.cpg/sg12_51_cif.got.tgz:101937.got - 2010.06.28 00:19:55.
