data_PCOD8116247
_publ_section_title
;
Structure prediction by ZEFSAII (Michael W. Deem and Ramdas Pophale) SiO2 
 PCOD8116247
Probable space group: C 2/M
;
_chemical_formula_sum "Si O2"
_cell_formula_units_Z 32
_cell_length_a 12.000000
_cell_length_b 18.000000
_cell_length_c 30.000000
_cell_angle_alpha 90.000000
_cell_angle_beta 30.000000
_cell_angle_gamma 90.000000
_cell_volume 3240.000000
_symmetry_space_group_name_H-M "C 2/M"
_symmetry_group_IT_number 12
_symmetry_cell_setting 'monoclinic'
loop_
_space_group_symop_operation_xyz
x,y,z
-x,y,-z
-x,-y,-z
x,-y,z
1/2+x,1/2+y,z
1/2-x,1/2+y,-z
1/2-x,1/2-y,-z
1/2+x,1/2-y,z
loop_
_atom_site_type_symbol
_atom_site_label
_atom_site_fract_x
_atom_site_fract_y
_atom_site_fract_z
Si Si1 0.246006 0.826722 0.295449
Si Si2 0.146641 0.624479 0.907752
Si Si3 0.492039 0.413830 0.936357
Si Si4 0.711928 0.414354 0.395443
Si Si5 0.293481 0.219085 0.833559
Si Si6 0.565928 0.582380 0.809357
Si Si7 0.486630 0.083268 0.868724
Si Si8 0.079629 0.695225 0.305646
O O1 0.157951 0.883443 0.364217
O O2 0.449765 0.776025 0.241338
O O3 0.341509 0.870489 0.220085
O O4 0.049866 0.767924 0.348378
O O5 0.150182 0.714135 0.903425
O O6 0.388708 0.591060 0.831884
O O7 0.060749 0.584655 0.893933
O O8 0.000000 0.599801 0.000000
O O9 0.554404 0.500000 0.924199
O O10 0.694291 0.361251 0.883001
O O11 0.459026 0.399102 0.894953
O O12 0.272036 0.389621 0.040292
O O13 0.500000 0.418529 0.500000
O O14 0.809373 0.500000 0.357928
O O15 0.863403 0.351491 0.366201
O O16 0.286219 0.227366 0.782968
O O17 0.665976 0.500000 0.775615
O O18 0.764437 0.635190 0.724984
O O19 0.494205 0.000000 0.847793
#
# Coordination Sequence:
#
# PCOD8116247 Si02
#       8
#     8   8   8   8   8   8   8   8
#     4  11  22  38  61  87 117 145 187 236 292 345
#     4  12  22  32  51  75 112 158 205 241 279 326
#     4   9  20  35  50  72 106 152 206 249 282 331
#     4  10  23  44  68  93 119 148 183 229 291 364
#     4  10  22  35  53  79 110 151 193 238 288 332
#     4  10  19  33  53  77 108 153 199 241 280 324
#     4  11  23  36  52  77 111 154 201 246 292 334
#     4  10  20  38  62  87 116 147 188 233 287 351
#
# _framework density 9.8765429999999999
#
# number of rings (size 3 to 8) (size 9 to 14) (size 15 to 20)
#    0.000    1.625    3.750    1.125    1.750    5.000 
#    0.000    1.250    0.000    0.000    0.000    0.000 
#    0.000   10.500    0.000    0.000    0.000    0.000 
#
# Total GULP energy -396484.480222 kJ/mol
# GULP energy per Si atom -12390.140007 kJ/mol
# Density = 0.985406 g / cm^3
# Si number density = 9.876543 Si / 1000 Ang^3
#
#
#
# Elastic Constant Matrix: (Units=GPa)
#
#
# Indices 1 2 3 4 5 6 
#
# 1 51.4716 32.4493 18.9711 -0.0232 5.4241 -0.0070
# 2 32.4493 111.5308 30.6981 0.0094 3.4380 -0.0149
# 3 18.9711 30.6981 59.3740 -0.0437 11.8772 -0.0030
# 4 -0.0232 0.0094 -0.0437 27.4952 0.0668 0.4670
# 5 5.4241 3.4380 11.8772 0.0668 18.3006 0.0161
# 6 -0.0070 -0.0149 -0.0030 0.4670 0.0161 28.2142
#
#
#
# Elastic Compliance Matrix: (Units=1/GPa)
#
#
# Indices 1 2 3 4 5 6 
#
# 1 0.025172 -0.006060 -0.004189 0.000025 -0.003604 0.000004
# 2 -0.006060 0.011963 -0.004779 -0.000023 0.002650 0.000003
# 3 -0.004189 -0.004779 0.023241 0.000066 -0.012945 0.000005
# 4 0.000025 -0.000023 0.000066 0.036381 -0.000179 -0.000602
# 5 -0.003604 0.002650 -0.012945 -0.000179 0.063615 -0.000034
# 6 0.000004 0.000003 0.000005 -0.000602 -0.000034 0.035453
#
#
# Mechanical properties :
#
#
# Convention : Reuss Voigt Hill
#
# Bulk Modulus (GPa) = 32.98090 42.95706 37.96898
# Shear Modulus (GPa) = 21.18752 24.15251 22.67002
#
# Velocity S-wave (km/s) = 3.27864 3.50054 3.39140
# Velocity P-wave (km/s) = 5.57364 6.17516 5.88209
#
# Compressibility (1/GPa) = 0.03032058
#
# Stress axis : x y z
#
# Youngs Moduli (GPa) = 39.72654 83.59183 43.02675
#
# Poissons Ratio (x) = 0.50653 0.18024
# Poissons Ratio (y) = 0.24073 0.20563
# Poissons Ratio (z) = 0.16642 0.39950
#
# Static dielectric constant tensor:
#      x y z
#    x 3.638320 0.000050 0.085940 
#    y 0.000050 3.782210 -0.000020 
#    z 0.085940 -0.000020 3.233780 
# 
# 
# High freq. dielectric constant tensor:
#      x y z
#    x 1.772100 0.000000 0.007500 
#    y 0.000000 1.786720 0.000000 
#    z 0.007500 0.000000 1.724510 
# 
# From -- ./inp_files/306248.got.cif
#   From: 2010.06.25/outbox.ucp.g09.slc.cvg/sg12_154_cif.got.tgz:306248.got - 2010.06.28 13:50:54.
