data_PCOD8116718
_publ_section_title
;
Structure prediction by ZEFSAII (Michael W. Deem and Ramdas Pophale) SiO2 
 PCOD8116718
Probable space group: P 2/C
;
_chemical_formula_sum "Si O2"
_cell_formula_units_Z 26
_cell_length_a 10.491835
_cell_length_b 9.580580
_cell_length_c 18.095888
_cell_angle_alpha 90.000000
_cell_angle_beta 115.878749
_cell_angle_gamma 90.000000
_cell_volume 1636.554212
_symmetry_space_group_name_H-M "P 2/C"
_symmetry_group_IT_number 13
_symmetry_cell_setting 'monoclinic'
loop_
_space_group_symop_operation_xyz
x,y,z
-x,y,1/2-z
-x,-y,-z
x,-y,1/2+z
loop_
_atom_site_type_symbol
_atom_site_label
_atom_site_fract_x
_atom_site_fract_y
_atom_site_fract_z
Si Si1 0.950355 0.628721 0.887989
Si Si2 0.127129 0.342716 0.570619
Si Si3 0.161217 0.084934 0.113582
Si Si4 0.912633 0.874015 0.067276
Si Si5 0.000000 0.486761 0.750000
Si Si6 0.843734 0.780590 0.198043
Si Si7 0.665331 0.844095 0.293938
O O1 0.862071 0.504199 0.904068
O O2 0.845454 0.760627 0.853781
O O3 0.000266 0.587760 0.819927
O O4 0.087194 0.669966 0.973478
O O5 0.271244 0.261776 0.628064
O O6 0.002080 0.270344 0.586224
O O7 0.301380 0.003872 0.175331
O O8 0.175038 0.096722 0.028619
O O9 0.021975 0.001416 0.105438
O O10 0.802867 0.845493 0.107143
O O11 0.859886 0.388480 0.707382
O O12 0.727534 0.822893 0.227969
O O13 0.000000 0.848671 0.250000
O O14 0.500000 0.817255 0.250000
#
# Coordination Sequence:
#
# PCOD8116718 Si02
#       7
#     4   4   4   4   2   4   4
#     4  10  17  26  52  81 107 118 165 229 259 291
#     4   9  16  31  49  80  97 135 168 206 260 307
#     4   9  18  29  47  78 102 130 162 213 267 293
#     4   9  15  30  52  72 102 128 170 213 249 306
#     4  10  16  28  50  86 104 122 164 226 264 288
#     4  10  16  31  54  76  97 131 180 213 240 302
#     4  11  21  36  53  72 106 145 179 201 249 325
#
# _framework density 15.887039
#
# number of rings (size 3 to 8) (size 9 to 14) (size 15 to 20)
#    0.462    1.846    6.154    0.923    0.000    1.231 
#    0.000    1.538    0.000    0.923    0.000    0.000 
#    0.000    0.000    0.000    0.000    0.000    0.000 
#
# Total GULP energy -322154.061194 kJ/mol
# GULP energy per Si atom -12390.540815 kJ/mol
# Density = 1.585088 g / cm^3
# Si number density = 15.887039 Si / 1000 Ang^3
#
#
#
# Elastic Constant Matrix: (Units=GPa)
#
#
# Indices 1 2 3 4 5 6 
#
# 1 84.4018 30.5368 56.4914 0.0000 -5.6390 0.0000
# 2 30.5368 110.3462 45.9336 0.0000 -2.6328 0.0000
# 3 56.4914 45.9336 99.5306 0.0000 -14.1483 0.0000
# 4 0.0000 0.0000 0.0000 26.4137 0.0000 -6.5440
# 5 -5.6390 -2.6328 -14.1483 0.0000 26.0086 0.0000
# 6 0.0000 0.0000 0.0000 -6.5440 0.0000 13.7167
#
#
#
# Elastic Compliance Matrix: (Units=1/GPa)
#
#
# Indices 1 2 3 4 5 6 
#
# 1 0.019263 -0.000887 -0.010776 0.000000 -0.001775 0.000000
# 2 -0.000887 0.011338 -0.004978 0.000000 -0.001753 0.000000
# 3 -0.010776 -0.004978 0.019571 0.000000 0.007806 0.000000
# 4 0.000000 0.000000 0.000000 0.042934 0.000000 0.020483
# 5 -0.001775 -0.001753 0.007806 0.000000 0.042133 0.000000
# 6 0.000000 0.000000 0.000000 0.020483 0.000000 0.082676
#
#
# Mechanical properties :
#
#
# Convention : Reuss Voigt Hill
#
# Bulk Modulus (GPa) = 59.21164 62.24469 60.72817
# Shear Modulus (GPa) = 19.46831 23.98225 21.72528
#
# Velocity S-wave (km/s) = 3.50440 3.88951 3.70196
# Velocity P-wave (km/s) = 7.32978 7.70945 7.52201
#
# Compressibility (1/GPa) = 0.01688857
#
# Stress axis : x y z
#
# Youngs Moduli (GPa) = 51.91236 88.19588 51.09718
#
# Poissons Ratio (x) = 0.07826 0.55064
# Poissons Ratio (y) = 0.04607 0.25437
# Poissons Ratio (z) = 0.55942 0.43906
#
# Static dielectric constant tensor:
#      x y z
#    x 2.505850 0.000000 -0.233940 
#    y 0.000000 3.173850 0.000000 
#    z -0.233940 0.000000 3.149140 
# 
# 
# High freq. dielectric constant tensor:
#      x y z
#    x 1.548870 0.000000 -0.031070 
#    y 0.000000 1.620180 0.000000 
#    z -0.031070 0.000000 1.611360 
# 
# From -- ./inp_files/75358.got.cif
#   From: 2010.06.25/outbox.cif.g09.slc.cpg/sg13_38_cif.got.tgz:75358.got - 2010.06.28 04:50:58.
