data_PCOD8116933
_publ_section_title
;
Structure prediction by ZEFSAII (Michael W. Deem and Ramdas Pophale) SiO2 
 PCOD8116933
Probable space group: P 2/C
;
_chemical_formula_sum "Si O2"
_cell_formula_units_Z 28
_cell_length_a 16.986599
_cell_length_b 16.863008
_cell_length_c 5.127085
_cell_angle_alpha 90.000000
_cell_angle_beta 104.828428
_cell_angle_gamma 90.000000
_cell_volume 1419.718222
_symmetry_space_group_name_H-M "P 2/C"
_symmetry_group_IT_number 13
_symmetry_cell_setting 'monoclinic'
loop_
_space_group_symop_operation_xyz
x,y,z
-x,y,1/2-z
-x,-y,-z
x,-y,1/2+z
loop_
_atom_site_type_symbol
_atom_site_label
_atom_site_fract_x
_atom_site_fract_y
_atom_site_fract_z
Si Si1 0.674268 0.642642 0.864233
Si Si2 0.906670 0.283541 0.631925
Si Si3 0.675726 0.751701 0.366064
Si Si4 0.908462 0.034344 0.959757
Si Si5 0.500000 0.246722 0.750000
Si Si6 0.152919 0.799222 0.932144
Si Si7 0.500000 0.645543 0.750000
Si Si8 0.835241 0.550320 0.038844
O O1 0.683665 0.682933 0.589713
O O2 0.585767 0.597920 0.819011
O O3 0.740749 0.574537 0.948931
O O4 0.684303 0.710770 0.090777
O O5 0.872132 0.225956 0.378908
O O6 0.892710 0.374101 0.538889
O O7 0.000000 0.263534 0.750000
O O8 0.862873 0.270115 0.871881
O O9 0.587966 0.798940 0.316637
O O10 0.749316 0.814636 0.473083
O O11 0.863663 0.016921 0.648166
O O12 0.902132 0.126228 0.028079
O O13 0.000000 0.000000 0.000000
O O14 0.498663 0.300069 0.498117
O O15 0.855881 0.486905 0.834933
#
# Coordination Sequence:
#
# PCOD8116933 Si02
#       8
#     4   4   4   4   2   4   2   4
#     4  10  18  35  53  83 110 147 192 238 298 349
#     4  12  27  41  61  88 109 150 208 252 290 339
#     4  10  17  33  57  84 115 143 194 239 281 341
#     4  10  23  38  57  87 125 157 180 221 285 354
#     4   8  16  26  50  85 112 143 176 242 292 316
#     4  12  22  40  65  87 119 155 195 238 279 347
#     4   8  16  28  52  75 114 143 176 238 292 354
#     4  12  24  40  59  78 112 154 195 254 306 345
#
# _framework density 19.722221999999999
#
# number of rings (size 3 to 8) (size 9 to 14) (size 15 to 20)
#    0.000    1.429    2.857    3.000    6.000    0.571 
#    0.000    0.714    0.000    0.000    0.000    1.000 
#    0.000    0.000    0.000    0.000    0.000    0.000 
#
# Total GULP energy -346866.641596 kJ/mol
# GULP energy per Si atom -12388.094343 kJ/mol
# Density = 1.967733 g / cm^3
# Si number density = 19.722222 Si / 1000 Ang^3
#
#
#
# Elastic Constant Matrix: (Units=GPa)
#
#
# Indices 1 2 3 4 5 6 
#
# 1 106.3250 20.6424 31.3530 0.0000 21.8535 0.0000
# 2 20.6424 62.6183 9.5088 0.0000 2.4234 0.0000
# 3 31.3530 9.5088 110.1276 0.0000 -11.8300 0.0000
# 4 0.0000 0.0000 0.0000 16.1656 0.0000 -2.3293
# 5 21.8535 2.4234 -11.8300 0.0000 39.1463 0.0000
# 6 0.0000 0.0000 0.0000 -2.3293 0.0000 25.3863
#
#
#
# Elastic Compliance Matrix: (Units=1/GPa)
#
#
# Indices 1 2 3 4 5 6 
#
# 1 0.013051 -0.003320 -0.004330 0.000000 -0.008389 0.000000
# 2 -0.003320 0.017109 -0.000462 0.000000 0.000655 0.000000
# 3 -0.004330 -0.000462 0.010972 0.000000 0.005761 0.000000
# 4 0.000000 0.000000 0.000000 0.062689 0.000000 0.005752
# 5 -0.008389 0.000655 0.005761 0.000000 0.031929 0.000000
# 6 0.000000 0.000000 0.000000 0.005752 0.000000 0.039919
#
#
# Mechanical properties :
#
#
# Convention : Reuss Voigt Hill
#
# Bulk Modulus (GPa) = 40.14749 44.67549 42.41149
# Shear Modulus (GPa) = 24.97578 30.64408 27.80993
#
# Velocity S-wave (km/s) = 3.56248 3.94608 3.75918
# Velocity P-wave (km/s) = 6.10920 6.59270 6.35555
#
# Compressibility (1/GPa) = 0.02490816
#
# Stress axis : x y z
#
# Youngs Moduli (GPa) = 76.62468 58.44868 91.14222
#
# Poissons Ratio (x) = 0.19405 0.39464
# Poissons Ratio (y) = 0.25440 0.04208
# Poissons Ratio (z) = 0.33178 0.02699
#
# Static dielectric constant tensor:
#      x y z
#    x 4.088720 0.000000 0.732340 
#    y 0.000000 3.057550 0.000000 
#    z 0.732340 0.000000 2.141860 
# 
# 
# High freq. dielectric constant tensor:
#      x y z
#    x 1.781440 0.000000 -0.007890 
#    y 0.000000 1.703400 0.000000 
#    z -0.007890 0.000000 1.804570 
# 
# From -- ./inp_files/6234.got.cif
#   From: 2010.06.25/outbox.cif.g09.slc.cpg/sg13_4_cif.got.tgz:6234.got - 2010.06.28 04:50:58.
