data_PCOD8116307
_publ_section_title
;
Structure prediction by ZEFSAII (Michael W. Deem and Ramdas Pophale) SiO2 
 PCOD8116307
Probable space group: C 2/M
;
_chemical_formula_sum "Si O2"
_cell_formula_units_Z 32
_cell_length_a 18.000000
_cell_length_b 9.000000
_cell_length_c 30.000000
_cell_angle_alpha 90.000000
_cell_angle_beta 40.000000
_cell_angle_gamma 90.000000
_cell_volume 3123.947783
_symmetry_space_group_name_H-M "C 2/M"
_symmetry_group_IT_number 12
_symmetry_cell_setting 'monoclinic'
loop_
_space_group_symop_operation_xyz
x,y,z
-x,y,-z
-x,-y,-z
x,-y,z
1/2+x,1/2+y,z
1/2-x,1/2+y,-z
1/2-x,1/2-y,-z
1/2+x,1/2-y,z
loop_
_atom_site_type_symbol
_atom_site_label
_atom_site_fract_x
_atom_site_fract_y
_atom_site_fract_z
Si Si1 0.051046 0.175059 0.023679
Si Si2 0.500606 0.171327 0.870487
Si Si3 0.292252 0.328616 0.918509
Si Si4 0.097161 0.667595 0.309150
Si Si5 0.592317 0.662990 0.225187
Si Si6 0.230206 0.331909 0.711407
Si Si7 0.834956 0.331777 0.429137
Si Si8 0.667448 0.664634 0.659556
O O1 0.963797 0.231028 0.102341
O O2 0.071948 0.000000 0.015446
O O3 0.166820 0.261639 0.983541
O O4 0.000000 0.225886 0.000000
O O5 0.382101 0.231548 0.904636
O O6 0.602747 0.191718 0.788770
O O7 0.484661 0.000000 0.891326
O O8 0.298419 0.500000 0.931424
O O9 0.315211 0.313082 0.855641
O O10 0.141057 0.500000 0.297344
O O11 0.107005 0.701895 0.252352
O O12 0.173683 0.789739 0.297494
O O13 0.965959 0.688300 0.385779
O O14 0.610680 0.500000 0.239527
O O15 0.464508 0.667050 0.262789
O O16 0.249432 0.500000 0.687377
O O17 0.249023 0.224630 0.660972
O O18 0.796689 0.500000 0.445738
O O19 0.750000 0.250000 0.500000
O O20 0.816906 0.270971 0.388701
O O21 0.708563 0.500000 0.627559
#
# Coordination Sequence:
#
# PCOD8116307 Si02
#       8
#     8   8   8   8   8   8   8   8
#     4  11  26  44  60  83 115 153 197 248 303 359
#     4  11  24  41  62  86 115 155 198 244 297 357
#     4  11  22  39  63  87 115 151 195 244 296 358
#     4  10  22  37  58  87 122 158 195 240 291 344
#     4   9  19  35  57  86 115 150 192 236 290 348
#     4  11  23  38  59  89 123 156 196 245 298 350
#     4  10  21  39  63  92 123 161 202 241 287 343
#     4  10  19  36  61  89 121 156 195 239 288 346
#
# _framework density 10.243449
#
# number of rings (size 3 to 8) (size 9 to 14) (size 15 to 20)
#    0.000    1.625    1.250    3.000    1.750    5.500 
#    0.000    0.625    0.000    3.750    0.000    0.000 
#    0.000    0.000    0.000    0.000    0.000    0.000 
#
# Total GULP energy -396775.573395 kJ/mol
# GULP energy per Si atom -12399.236669 kJ/mol
# Density = 1.022013 g / cm^3
# Si number density = 10.243449 Si / 1000 Ang^3
#
#
#
# Elastic Constant Matrix: (Units=GPa)
#
#
# Indices 1 2 3 4 5 6 
#
# 1 82.7098 51.0853 11.3457 0.0005 -1.0318 0.0057
# 2 51.0853 99.9555 48.6351 0.0010 1.5977 0.0068
# 3 11.3457 48.6351 40.3470 -0.0003 1.2691 0.0004
# 4 0.0005 0.0010 -0.0003 17.2287 -0.0004 -3.7228
# 5 -1.0318 1.5977 1.2691 -0.0004 5.9270 0.0007
# 6 0.0057 0.0068 0.0004 -3.7228 0.0007 29.7303
#
#
#
# Elastic Compliance Matrix: (Units=1/GPa)
#
#
# Indices 1 2 3 4 5 6 
#
# 1 0.022074 -0.019989 0.017717 0.000001 0.005438 0.000000
# 2 -0.019989 0.042297 -0.045201 -0.000004 -0.005203 -0.000006
# 3 0.017717 -0.045201 0.074309 0.000005 -0.000642 0.000007
# 4 0.000001 -0.000004 0.000005 0.059657 0.000003 0.007470
# 5 0.005438 -0.005203 -0.000642 0.000003 0.171205 -0.000003
# 6 0.000000 -0.000006 0.000007 0.007470 -0.000003 0.034571
#
#
# Mechanical properties :
#
#
# Convention : Reuss Voigt Hill
#
# Bulk Modulus (GPa) = 22.86548 49.46053 36.16300
# Shear Modulus (GPa) = 9.73448 18.04029 13.88739
#
# Velocity S-wave (km/s) = 2.18217 2.97067 2.60641
# Velocity P-wave (km/s) = 4.18741 5.99679 5.17184
#
# Compressibility (1/GPa) = 0.04373405
#
# Stress axis : x y z
#
# Youngs Moduli (GPa) = 45.30200 23.64237 13.45725
#
# Poissons Ratio (x) = 0.47259 -0.23842
# Poissons Ratio (y) = 0.90554 0.60828
# Poissons Ratio (z) = -0.80261 1.06866
#
# Static dielectric constant tensor:
#      x y z
#    x 3.554670 -0.000010 0.106140 
#    y -0.000010 3.795340 -0.000010 
#    z 0.106140 -0.000010 3.592280 
# 
# 
# High freq. dielectric constant tensor:
#      x y z
#    x 1.786560 0.000000 0.005720 
#    y 0.000000 1.811690 0.000000 
#    z 0.005720 0.000000 1.781010 
# 
# From -- ./inp_files/378081.got.cif
#   From: 2010.06.25/outbox.ucp.g09.slc.cvg/sg12_190_cif.got.tgz:378081.got - 2010.06.28 13:50:54.
