data_PCOD8116758
_publ_section_title
;
Structure prediction by ZEFSAII (Michael W. Deem and Ramdas Pophale) SiO2 
 PCOD8116758
Probable space group: P 2/C
;
_chemical_formula_sum "Si O2"
_cell_formula_units_Z 20
_cell_length_a 8.391827
_cell_length_b 23.334239
_cell_length_c 5.182108
_cell_angle_alpha 90.000000
_cell_angle_beta 96.625503
_cell_angle_gamma 90.000000
_cell_volume 1007.967345
_symmetry_space_group_name_H-M "P 2/C"
_symmetry_group_IT_number 13
_symmetry_cell_setting 'monoclinic'
loop_
_space_group_symop_operation_xyz
x,y,z
-x,y,1/2-z
-x,-y,-z
x,-y,1/2+z
loop_
_atom_site_type_symbol
_atom_site_label
_atom_site_fract_x
_atom_site_fract_y
_atom_site_fract_z
Si Si1 0.396848 0.347691 0.977398
Si Si2 0.689226 0.968383 0.815231
Si Si3 0.897308 0.134039 0.481581
Si Si4 0.679451 0.475216 0.558666
Si Si5 0.104132 0.734163 0.515045
O O1 0.500000 0.325505 0.750000
O O2 0.314825 0.407586 0.884950
O O3 0.500000 0.359392 0.250000
O O4 0.266437 0.301426 0.036678
O O5 0.500000 0.968313 0.750000
O O6 0.740920 0.905225 0.917277
O O7 0.755433 0.987577 0.547253
O O8 0.841706 0.199763 0.488656
O O9 0.000000 0.122722 0.250000
O O10 0.000000 0.116241 0.750000
O O11 0.500000 0.500000 0.500000
O O12 0.769758 0.492700 0.311595
O O13 0.000000 0.720766 0.750000
O O14 0.000000 0.716648 0.250000
#
# Coordination Sequence:
#
# PCOD8116758 Si02
#       5
#     4   4   4   4   4
#     4  12  21  34  61  91 107 143 200 238 274 338
#     4  10  21  36  55  84 117 145 174 228 293 329
#     4  10  21  38  59  79 107 151 195 228 269 334
#     4  10  16  30  50  82 110 139 171 236 281 324
#     4  10  23  42  57  79 120 158 184 234 300 338
#
# _framework density 19.841912000000001
#
# number of rings (size 3 to 8) (size 9 to 14) (size 15 to 20)
#    0.000    1.600    4.000    2.400    0.000    3.200 
#    0.000    3.000    0.000    3.600    0.000    0.000 
#    0.000    0.000    0.000    0.000    0.000    0.000 
#
# Total GULP energy -247917.458374 kJ/mol
# GULP energy per Si atom -12395.872919 kJ/mol
# Density = 1.979675 g / cm^3
# Si number density = 19.841912 Si / 1000 Ang^3
#
#
#
# Elastic Constant Matrix: (Units=GPa)
#
#
# Indices 1 2 3 4 5 6 
#
# 1 42.3680 43.9955 36.3463 0.0000 -7.9372 0.0000
# 2 43.9955 109.4124 37.9522 0.0000 4.8476 0.0000
# 3 36.3463 37.9522 164.6507 0.0000 -21.6351 0.0000
# 4 0.0000 0.0000 0.0000 -17.5646 0.0000 -3.9679
# 5 -7.9372 4.8476 -21.6351 0.0000 21.8096 0.0000
# 6 0.0000 0.0000 0.0000 -3.9679 0.0000 18.4355
#
#
#
# Elastic Compliance Matrix: (Units=1/GPa)
#
#
# Indices 1 2 3 4 5 6 
#
# 1 0.051833 -0.020207 -0.004272 0.000000 0.019117 0.000000
# 2 -0.020207 0.018342 -0.001459 0.000000 -0.012879 0.000000
# 3 -0.004272 -0.001459 0.008269 0.000000 0.006973 0.000000
# 4 0.000000 0.000000 0.000000 -0.054293 0.000000 -0.011685
# 5 0.019117 -0.012879 0.006973 0.000000 0.062588 0.000000
# 6 0.000000 0.000000 0.000000 -0.011685 0.000000 0.051728
#
#
# Mechanical properties :
#
#
# Convention : Reuss Voigt Hill
#
# Bulk Modulus (GPa) = 37.64207 61.44660 49.54433
# Shear Modulus (GPa) = 25.10034 17.74524 21.42279
#
# Velocity S-wave (km/s) = 3.56057 2.99378 3.28940
# Velocity P-wave (km/s) = 5.99297 6.55634 6.28097
#
# Compressibility (1/GPa) = 0.02656602
#
# Stress axis : x y z
#
# Youngs Moduli (GPa) = 19.29282 54.51928 120.93189
#
# Poissons Ratio (x) = 1.10170 0.51664
# Poissons Ratio (y) = 0.38986 0.17649
# Poissons Ratio (z) = 0.08242 0.07957
#
# Static dielectric constant tensor:
#      x y z
#    x 3.612860 0.000000 -0.837680 
#    y 0.000000 3.696360 0.000000 
#    z -0.837680 0.000000 3.808620 
# 
# 
# High freq. dielectric constant tensor:
#      x y z
#    x 1.732150 0.000000 -0.016060 
#    y 0.000000 1.776590 0.000000 
#    z -0.016060 0.000000 1.807180 
# 
# From -- ./inp_files/1962.got.cif
#   From: 2010.06.25/outbox.cif.g09.slc.cpg/sg13_1_cif.got.tgz:1962.got - 2010.06.28 04:50:58.
