data_PCOD8116263
_publ_section_title
;
Structure prediction by ZEFSAII (Michael W. Deem and Ramdas Pophale) SiO2 
 PCOD8116263
Probable space group: C 2/M
;
_chemical_formula_sum "Si O2"
_cell_formula_units_Z 24
_cell_length_a 12.000000
_cell_length_b 15.000000
_cell_length_c 27.000000
_cell_angle_alpha 90.000000
_cell_angle_beta 30.000000
_cell_angle_gamma 90.000000
_cell_volume 2430.000000
_symmetry_space_group_name_H-M "C 2/M"
_symmetry_group_IT_number 12
_symmetry_cell_setting 'monoclinic'
loop_
_space_group_symop_operation_xyz
x,y,z
-x,y,-z
-x,-y,-z
x,-y,z
1/2+x,1/2+y,z
1/2-x,1/2+y,-z
1/2-x,1/2-y,-z
1/2+x,1/2-y,z
loop_
_atom_site_type_symbol
_atom_site_label
_atom_site_fract_x
_atom_site_fract_y
_atom_site_fract_z
Si Si1 0.205548 0.097658 0.280864
Si Si2 0.895943 0.729134 0.729264
Si Si3 0.235711 0.725560 0.894447
Si Si4 0.760105 0.902469 0.615659
Si Si5 0.702949 0.900275 0.070270
Si Si6 0.002778 0.895310 0.859908
O O1 0.064857 0.186777 0.322663
O O2 0.245532 0.101273 0.323446
O O3 0.439511 0.104083 0.161118
O O4 0.094745 0.000000 0.310286
O O5 0.777545 0.776102 0.820697
O O6 0.747308 0.644790 0.771242
O O7 0.133066 0.684498 0.645744
O O8 0.243038 0.828793 0.908477
O O9 0.416929 0.659710 0.846525
O O10 0.000000 0.683536 0.000000
O O11 0.000000 0.892198 0.500000
O O12 0.661412 0.000000 0.637742
O O13 0.769184 0.000000 0.063392
O O14 0.841408 0.874751 0.968216
O O15 0.016610 0.000000 0.842992
#
# Coordination Sequence:
#
# PCOD8116263 Si02
#       6
#     8   8   8   8   8   8
#     4  10  21  38  58  83 113 144 182 223 273 330
#     4  12  21  36  61  82 109 148 183 228 273 321
#     4  12  22  34  55  80 117 149 187 224 268 319
#     4  10  22  40  61  85 110 138 178 229 283 334
#     4  10  19  34  54  78 112 147 182 226 266 311
#     4  11  23  36  52  81 114 149 191 228 264 315
#
# _framework density 9.8765429999999999
#
# number of rings (size 3 to 8) (size 9 to 14) (size 15 to 20)
#    0.000    1.167    5.000    2.000    0.000    2.667 
#    0.000    0.000    0.000    0.500    0.000    0.000 
#    0.000    0.000    0.000    0.000    0.000    0.000 
#
# Total GULP energy -297382.093652 kJ/mol
# GULP energy per Si atom -12390.920569 kJ/mol
# Density = 0.985406 g / cm^3
# Si number density = 9.876543 Si / 1000 Ang^3
#
#
#
# Elastic Constant Matrix: (Units=GPa)
#
#
# Indices 1 2 3 4 5 6 
#
# 1 39.3752 41.7011 11.1477 0.0102 -11.1160 0.0028
# 2 41.7011 144.6391 46.5143 0.1628 -6.5981 0.0320
# 3 11.1477 46.5143 44.4743 -0.1529 -11.6608 0.2957
# 4 0.0102 0.1628 -0.1529 12.0669 0.2552 -3.3917
# 5 -11.1160 -6.5981 -11.6608 0.2552 0.2448 -0.0828
# 6 0.0028 0.0320 0.2957 -3.3917 -0.0828 -13.2648
#
#
#
# Elastic Compliance Matrix: (Units=1/GPa)
#
#
# Indices 1 2 3 4 5 6 
#
# 1 0.017050 -0.002193 -0.016124 0.000882 -0.053963 -0.000250
# 2 -0.002193 0.009620 -0.002834 -0.000708 0.025480 -0.000018
# 3 -0.016124 -0.002834 0.015916 0.001433 -0.051782 0.000301
# 4 0.000882 -0.000708 0.001433 0.077306 0.001972 -0.019749
# 5 -0.053963 0.025480 -0.051782 0.001972 -0.147488 -0.000688
# 6 -0.000250 -0.000018 0.000301 -0.019749 -0.000688 -0.070327
#
#
# Mechanical properties :
#
#
# Convention : Reuss Voigt Hill
#
# Bulk Modulus (GPa) = 3506.56756 47.46830 1777.01793
# Shear Modulus (GPa) = -90.04679 8.41776 -40.81452
#
# Velocity S-wave (km/s) = -6.75908 2.06658 -4.55052
# Velocity P-wave (km/s) = 41.45045 5.45686 29.56279
#
# Compressibility (1/GPa) = 0.00028518
#
# Stress axis : x y z
#
# Youngs Moduli (GPa) = 58.65210 103.94579 62.82943
#
# Poissons Ratio (x) = 0.22794 1.01306
# Poissons Ratio (y) = 0.12862 0.17803
# Poissons Ratio (z) = 0.94571 0.29454
#
# Static dielectric constant tensor:
#      x y z
#    x 3.287440 0.000010 0.013100 
#    y 0.000010 3.982980 -0.000120 
#    z 0.013100 -0.000120 3.421670 
# 
# 
# High freq. dielectric constant tensor:
#      x y z
#    x 1.735560 0.000000 0.007440 
#    y 0.000000 1.797560 0.000000 
#    z 0.007440 0.000000 1.748560 
# 
# From -- ./inp_files/183668.got.cif
#   From: 2010.06.25/outbox.ucp.g09.slc.cvg/sg12_92_cif.got.tgz:183668.got - 2010.06.28 13:50:54.
