data_PCOD8116593
_publ_section_title
;
Structure prediction by ZEFSAII (Michael W. Deem and Ramdas Pophale) SiO2 
 PCOD8116593
Probable space group: C 2/M
;
_chemical_formula_sum "Si O2"
_cell_formula_units_Z 32
_cell_length_a 24.000000
_cell_length_b 9.000000
_cell_length_c 30.000000
_cell_angle_alpha 90.000000
_cell_angle_beta 30.000000
_cell_angle_gamma 90.000000
_cell_volume 3240.000000
_symmetry_space_group_name_H-M "C 2/M"
_symmetry_group_IT_number 12
_symmetry_cell_setting 'monoclinic'
loop_
_space_group_symop_operation_xyz
x,y,z
-x,y,-z
-x,-y,-z
x,-y,z
1/2+x,1/2+y,z
1/2-x,1/2+y,-z
1/2-x,1/2-y,-z
1/2+x,1/2-y,z
loop_
_atom_site_type_symbol
_atom_site_label
_atom_site_fract_x
_atom_site_fract_y
_atom_site_fract_z
Si Si1 0.453024 0.824775 0.425370
Si Si2 0.051429 0.323114 0.260758
Si Si3 0.542038 0.322476 0.765410
Si Si4 0.709172 0.821583 0.896395
Si Si5 0.843934 0.172457 0.157419
Si Si6 0.279404 0.325286 0.606267
Si Si7 0.351893 0.325894 0.655310
Si Si8 0.560058 0.330818 0.068410
O O1 0.473628 0.791547 0.358296
O O2 0.342854 0.739795 0.518988
O O3 0.550791 0.767287 0.389443
O O4 0.438724 0.000000 0.442821
O O5 0.069159 0.500000 0.242617
O O6 0.166062 0.240230 0.191690
O O7 0.002177 0.256050 0.249015
O O8 0.544310 0.500000 0.756786
O O9 0.664560 0.262622 0.690535
O O10 0.469051 0.282239 0.860359
O O11 0.643489 0.747024 0.900228
O O12 0.708327 0.000000 0.892804
O O13 0.655194 0.774798 0.981380
O O14 0.760507 0.268515 0.244705
O O15 0.957821 0.181765 0.105384
O O16 0.805374 0.000000 0.178864
O O17 0.256630 0.500000 0.614339
O O18 0.349147 0.300317 0.603698
O O19 0.368394 0.500000 0.654496
O O20 0.604075 0.500000 0.038821
#
# Coordination Sequence:
#
# PCOD8116593 Si02
#       8
#     8   8   8   8   8   8   8   8
#     4  11  24  41  65  93 125 168 212 256 311 376
#     4  11  25  45  66  90 123 165 212 263 316 368
#     4  11  24  44  68  93 122 163 214 262 311 371
#     4  12  25  40  64  96 128 165 208 257 311 373
#     4  11  21  38  64  93 128 168 204 251 311 373
#     4  11  24  41  64  95 131 166 204 257 316 373
#     4  11  22  37  62  95 130 165 203 254 314 374
#     4  10  23  42  65  93 127 166 207 254 311 375
#
# _framework density 9.8765429999999999
#
# number of rings (size 3 to 8) (size 9 to 14) (size 15 to 20)
#    0.000    1.000    2.500    4.125    0.000    9.000 
#    0.000    0.000    0.000    0.000    0.000    0.000 
#    0.000    0.000    0.000    0.000    0.000    0.000 
#
# Total GULP energy -396774.559968 kJ/mol
# GULP energy per Si atom -12399.204999 kJ/mol
# Density = 0.985406 g / cm^3
# Si number density = 9.876543 Si / 1000 Ang^3
#
#
#
# Elastic Constant Matrix: (Units=GPa)
#
#
# Indices 1 2 3 4 5 6 
#
# 1 124.0586 45.8828 29.3368 -0.0099 31.8213 0.0131
# 2 45.8828 130.2490 40.1925 -0.0142 19.8112 0.0078
# 3 29.3368 40.1925 111.8116 -0.0004 36.0494 -0.0036
# 4 -0.0099 -0.0142 -0.0004 39.1824 0.0023 2.0799
# 5 31.8213 19.8112 36.0494 0.0023 40.4767 -0.0065
# 6 0.0131 0.0078 -0.0036 2.0799 -0.0065 41.2481
#
#
#
# Elastic Compliance Matrix: (Units=1/GPa)
#
#
# Indices 1 2 3 4 5 6 
#
# 1 0.010973 -0.002886 0.000679 0.000002 -0.007819 -0.000004
# 2 -0.002886 0.009518 -0.002656 0.000003 -0.000024 -0.000001
# 3 0.000679 -0.002656 0.013289 0.000000 -0.011069 0.000000
# 4 0.000002 0.000003 0.000000 0.025590 -0.000005 -0.001290
# 5 -0.007819 -0.000024 -0.011069 -0.000005 0.040723 0.000008
# 6 -0.000004 -0.000001 0.000000 -0.001290 0.000008 0.024309
#
#
# Mechanical properties :
#
#
# Convention : Reuss Voigt Hill
#
# Bulk Modulus (GPa) = 41.57330 66.32705 53.95017
# Shear Modulus (GPa) = 35.17529 40.89525 38.03527
#
# Velocity S-wave (km/s) = 4.22447 4.55502 4.39285
# Velocity P-wave (km/s) = 6.69978 7.83040 7.28705
#
# Compressibility (1/GPa) = 0.02405390
#
# Stress axis : x y z
#
# Youngs Moduli (GPa) = 91.13283 105.06959 75.24903
#
# Poissons Ratio (x) = 0.30320 -0.05111
# Poissons Ratio (y) = 0.26299 0.19989
# Poissons Ratio (z) = -0.06190 0.27911
#
# Static dielectric constant tensor:
#      x y z
#    x 3.895530 -0.000040 0.315030 
#    y -0.000040 3.952810 -0.000010 
#    z 0.315030 -0.000010 3.934740 
# 
# 
# High freq. dielectric constant tensor:
#      x y z
#    x 1.788610 0.000000 0.020690 
#    y 0.000000 1.798360 0.000000 
#    z 0.020690 0.000000 1.789500 
# 
# From -- ./inp_files/382344.got.cif
#   From: 2010.06.25/outbox.ucp.g09.slc.cvg/sg12_192_cif.got.tgz:382344.got - 2010.06.28 13:50:54.
