data_PCOD8116021
_publ_section_title
;
Structure prediction by ZEFSAII (Michael W. Deem and Ramdas Pophale) SiO2 
 PCOD8116021
Probable space group: C 2/M
;
_chemical_formula_sum "Si O2"
_cell_formula_units_Z 56
_cell_length_a 28.326900
_cell_length_b 9.435781
_cell_length_c 14.247695
_cell_angle_alpha 90.000000
_cell_angle_beta 119.006708
_cell_angle_gamma 90.000000
_cell_volume 3330.524112
_symmetry_space_group_name_H-M "C 2/M"
_symmetry_group_IT_number 12
_symmetry_cell_setting 'monoclinic'
loop_
_space_group_symop_operation_xyz
x,y,z
-x,y,-z
-x,-y,-z
x,-y,z
1/2+x,1/2+y,z
1/2-x,1/2+y,-z
1/2-x,1/2-y,-z
1/2+x,1/2-y,z
loop_
_atom_site_type_symbol
_atom_site_label
_atom_site_fract_x
_atom_site_fract_y
_atom_site_fract_z
Si Si1 0.953947 0.666128 0.072730
Si Si2 0.427185 0.831699 0.846364
Si Si3 0.031779 0.157773 0.434659
Si Si4 0.279318 0.161902 0.402699
Si Si5 0.380855 0.836888 0.389338
Si Si6 0.059062 0.664858 0.736815
Si Si7 0.679691 0.165841 0.354533
O O1 0.960119 0.500000 0.064573
O O2 0.921536 0.701058 0.138058
O O3 0.015485 0.726044 0.137493
O O4 0.922031 0.722737 0.950229
O O5 0.377518 0.770824 0.736803
O O6 0.424283 0.000000 0.837265
O O7 0.087252 0.240286 0.506082
O O8 0.000000 0.146260 0.500000
O O9 0.995537 0.246535 0.328220
O O10 0.043708 0.000000 0.406478
O O11 0.317525 0.186494 0.348676
O O12 0.313626 0.200978 0.529064
O O13 0.227337 0.260214 0.341348
O O14 0.259657 0.000000 0.389542
O O15 0.394636 0.795015 0.294414
O O16 0.397244 0.000000 0.424121
O O17 0.043622 0.500000 0.712453
O O18 0.684145 0.000000 0.338228
#
# Coordination Sequence:
#
# PCOD8116021 Si02
#       7
#     8   8   8   8   8   8   8
#     4   8  14  24  42  67  90 110 139 176 215 254
#     4   8  14  25  42  66  89 110 139 179 218 250
#     4   9  17  27  38  57  87 119 145 170 205 251
#     4   9  18  30  44  63  87 112 142 178 216 256
#     4   9  17  28  42  62  86 113 144 177 212 254
#     4   9  16  26  43  64  86 113 143 175 212 255
#     4   9  17  29  46  64  84 110 143 180 216 253
#
# _framework density 16.814171000000002
#
# number of rings (size 3 to 8) (size 9 to 14) (size 15 to 20)
#    0.000    3.286    0.000    1.286    2.000    2.286 
#    0.000    0.000    0.000    1.714    0.000    2.000 
#    0.000    0.000    0.000    0.000    0.000    0.000 
#
# Total GULP energy -346919.703861 kJ/mol
# GULP energy per Si atom -12389.989424 kJ/mol
# Density = 1.677590 g / cm^3
# Si number density = 16.814171 Si / 1000 Ang^3
#
#
#
# Elastic Constant Matrix: (Units=GPa)
#
#
# Indices 1 2 3 4 5 6 
#
# 1 83.7357 17.8522 38.3106 0.0000 -4.8926 0.0000
# 2 17.8522 34.9061 10.8684 0.0000 -1.0668 0.0000
# 3 38.3106 10.8684 78.3448 0.0000 0.1926 0.0000
# 4 0.0000 0.0000 0.0000 7.6982 0.0000 3.7724
# 5 -4.8926 -1.0668 0.1926 0.0000 27.3982 0.0000
# 6 0.0000 0.0000 0.0000 3.7724 0.0000 20.1913
#
#
#
# Elastic Compliance Matrix: (Units=1/GPa)
#
#
# Indices 1 2 3 4 5 6 
#
# 1 0.016798 -0.006214 -0.007359 0.000000 0.002810 0.000000
# 2 -0.006214 0.032279 -0.001440 0.000000 0.000157 0.000000
# 3 -0.007359 -0.001440 0.016566 0.000000 -0.001487 0.000000
# 4 0.000000 0.000000 0.000000 0.142992 0.000000 -0.026716
# 5 0.002810 0.000157 -0.001487 0.000000 0.037017 0.000000
# 6 0.000000 0.000000 0.000000 -0.026716 0.000000 0.054518
#
#
# Mechanical properties :
#
#
# Convention : Reuss Voigt Hill
#
# Bulk Modulus (GPa) = 28.07570 36.78319 32.42945
# Shear Modulus (GPa) = 14.61696 19.72126 17.16911
#
# Velocity S-wave (km/s) = 2.95163 3.42847 3.19895
# Velocity P-wave (km/s) = 5.32448 6.13159 5.74223
#
# Compressibility (1/GPa) = 0.03561799
#
# Stress axis : x y z
#
# Youngs Moduli (GPa) = 59.52995 30.97950 60.36417
#
# Poissons Ratio (x) = 0.19251 0.44423
# Poissons Ratio (y) = 0.36992 0.08691
# Poissons Ratio (z) = 0.43809 0.04460
#
# Static dielectric constant tensor:
#      x y z
#    x 3.123400 0.000000 -0.111320 
#    y 0.000000 3.029340 0.000000 
#    z -0.111320 0.000000 3.219550 
# 
# 
# High freq. dielectric constant tensor:
#      x y z
#    x 1.637490 0.000000 -0.014550 
#    y 0.000000 1.617610 0.000000 
#    z -0.014550 0.000000 1.628400 
# 
# From -- ./inp_files/248568.got.cif
#   From: 2010.06.25/outbox.cif.g09.slc.cpg/sg12_125_cif.got.tgz:248568.got - 2010.06.28 00:19:55.
