data_PCOD8116164
_publ_section_title
;
Structure prediction by ZEFSAII (Michael W. Deem and Ramdas Pophale) SiO2 
 PCOD8116164
Probable space group: C 2/M
;
_chemical_formula_sum "Si O2"
_cell_formula_units_Z 40
_cell_length_a 14.645295
_cell_length_b 9.509424
_cell_length_c 18.242840
_cell_angle_alpha 90.000000
_cell_angle_beta 65.032329
_cell_angle_gamma 90.000000
_cell_volume 2303.216064
_symmetry_space_group_name_H-M "C 2/M"
_symmetry_group_IT_number 12
_symmetry_cell_setting 'monoclinic'
loop_
_space_group_symop_operation_xyz
x,y,z
-x,y,-z
-x,-y,-z
x,-y,z
1/2+x,1/2+y,z
1/2-x,1/2+y,-z
1/2-x,1/2-y,-z
1/2+x,1/2-y,z
loop_
_atom_site_type_symbol
_atom_site_label
_atom_site_fract_x
_atom_site_fract_y
_atom_site_fract_z
Si Si1 0.099993 0.163709 0.010995
Si Si2 0.821020 0.664292 0.882941
Si Si3 0.718770 0.837544 0.403617
Si Si4 0.608535 0.162586 0.586455
Si Si5 0.109277 0.666861 0.298598
O O1 0.110735 0.252723 0.081673
O O2 0.090387 0.000000 0.035247
O O3 0.201265 0.192484 0.929903
O O4 0.000000 0.211837 0.000000
O O5 0.845154 0.500000 0.884798
O O6 0.853395 0.722153 0.792540
O O7 0.629277 0.815536 0.493018
O O8 0.814228 0.746693 0.390701
O O9 0.683994 0.780528 0.336573
O O10 0.751032 0.000000 0.390053
O O11 0.500504 0.225624 0.644283
O O12 0.617779 0.000000 0.604869
O O13 0.106599 0.500000 0.300832
#
# Coordination Sequence:
#
# PCOD8116164 Si02
#       5
#     8   8   8   8   8
#     4   9  18  33  51  69  92 121 149 183 230 276
#     4   9  18  32  49  70  93 118 153 190 222 268
#     4   9  17  30  48  68  91 122 157 189 224 268
#     4   9  17  30  47  67  92 122 156 191 225 264
#     4   9  17  30  48  68  92 123 155 186 224 271
#
# _framework density 17.367018999999999
#
# number of rings (size 3 to 8) (size 9 to 14) (size 15 to 20)
#    0.000    3.000    0.000    0.600    0.000    4.400 
#    0.000    5.000    0.000    4.800    0.000    0.000 
#    0.000    0.000    0.000    0.000    0.000    0.000 
#
# Total GULP energy -247941.622702 kJ/mol
# GULP energy per Si atom -12397.081135 kJ/mol
# Density = 1.732749 g / cm^3
# Si number density = 17.367019 Si / 1000 Ang^3
#
#
#
# Elastic Constant Matrix: (Units=GPa)
#
#
# Indices 1 2 3 4 5 6 
#
# 1 113.3932 38.8138 60.3312 0.0000 26.7443 0.0000
# 2 38.8138 39.6722 34.4860 0.0000 13.0048 0.0000
# 3 60.3312 34.4860 120.6315 0.0000 29.0834 0.0000
# 4 0.0000 0.0000 0.0000 20.7124 0.0000 3.6833
# 5 26.7443 13.0048 29.0834 0.0000 20.7371 0.0000
# 6 0.0000 0.0000 0.0000 3.6833 0.0000 24.1756
#
#
#
# Elastic Compliance Matrix: (Units=1/GPa)
#
#
# Indices 1 2 3 4 5 6 
#
# 1 0.016221 -0.010004 -0.002601 0.000000 -0.010998 0.000000
# 2 -0.010004 0.041617 -0.005609 0.000000 -0.005331 0.000000
# 3 -0.002601 -0.005609 0.014410 0.000000 -0.013337 0.000000
# 4 0.000000 0.000000 0.000000 0.049625 0.000000 -0.007561
# 5 -0.010998 -0.005331 -0.013337 0.000000 0.084455 0.000000
# 6 0.000000 0.000000 0.000000 -0.007561 0.000000 0.042516
#
#
# Mechanical properties :
#
#
# Convention : Reuss Voigt Hill
#
# Bulk Modulus (GPa) = 27.91727 60.10653 44.01190
# Shear Modulus (GPa) = 16.82305 22.46273 19.64289
#
# Velocity S-wave (km/s) = 3.11574 3.60031 3.36675
# Velocity P-wave (km/s) = 5.39013 7.20886 6.36479
#
# Compressibility (1/GPa) = 0.03582012
#
# Stress axis : x y z
#
# Youngs Moduli (GPa) = 61.64848 24.02861 69.39845
#
# Poissons Ratio (x) = 0.24037 0.18052
# Poissons Ratio (y) = 0.61670 0.38926
# Poissons Ratio (z) = 0.16036 0.13478
#
# Static dielectric constant tensor:
#      x y z
#    x 3.289950 0.000000 -0.017060 
#    y 0.000000 3.007220 0.000000 
#    z -0.017060 0.000000 3.430810 
# 
# 
# High freq. dielectric constant tensor:
#      x y z
#    x 1.674590 0.000000 0.000670 
#    y 0.000000 1.646190 0.000000 
#    z 0.000670 0.000000 1.673530 
# 
# From -- ./inp_files/202867.got.cif
#   From: 2010.06.25/outbox.cif.g09.slc.cpg/sg12_102_cif.got.tgz:202867.got - 2010.06.28 00:19:55.
