data_PCOD8116330
_publ_section_title
;
Structure prediction by ZEFSAII (Michael W. Deem and Ramdas Pophale) SiO2 
 PCOD8116330
Probable space group: C 2/M
;
_chemical_formula_sum "Si O2"
_cell_formula_units_Z 28
_cell_length_a 18.000000
_cell_length_b 18.000000
_cell_length_c 15.000000
_cell_angle_alpha 90.000000
_cell_angle_beta 140.000000
_cell_angle_gamma 90.000000
_cell_volume 3123.947783
_symmetry_space_group_name_H-M "C 2/M"
_symmetry_group_IT_number 12
_symmetry_cell_setting 'monoclinic'
loop_
_space_group_symop_operation_xyz
x,y,z
-x,y,-z
-x,-y,-z
x,-y,z
1/2+x,1/2+y,z
1/2-x,1/2+y,-z
1/2-x,1/2-y,-z
1/2+x,1/2-y,z
loop_
_atom_site_type_symbol
_atom_site_label
_atom_site_fract_x
_atom_site_fract_y
_atom_site_fract_z
Si Si1 0.266430 0.694792 0.886241
Si Si2 0.005033 0.345728 0.227046
Si Si3 0.380325 0.832479 0.937407
Si Si4 0.792802 0.415007 0.698491
Si Si5 0.913108 0.197198 0.186355
Si Si6 0.926236 0.411992 0.342381
Si Si7 0.470230 0.585287 0.571250
O O1 0.346908 0.745211 0.896314
O O2 0.176187 0.755491 0.838252
O O3 0.198766 0.629799 0.770368
O O4 0.345782 0.661651 0.039228
O O5 0.123958 0.371124 0.292325
O O6 0.012417 0.256397 0.248690
O O7 0.987308 0.388450 0.305104
O O8 0.896650 0.357919 0.056985
O O9 0.290722 0.882910 0.798293
O O10 0.500000 0.846052 0.000000
O O11 0.834017 0.500000 0.741489
O O12 0.666547 0.408002 0.539937
O O13 0.966215 0.131629 0.293700
O O14 0.904578 0.500000 0.321807
O O15 0.000000 0.390447 0.500000
O O16 0.500000 0.615912 0.500000
O O17 0.511945 0.500000 0.618212
#
# Coordination Sequence:
#
# PCOD8116330 Si02
#       7
#     8   8   8   8   8   8   8
#     4   9  18  34  52  71  97 129 167 212 252 295
#     4   9  19  34  53  77 104 133 170 217 256 301
#     4   9  18  32  52  79 106 133 165 204 255 313
#     4  10  20  33  52  80 110 138 167 204 258 315
#     4   9  18  33  51  72  98 131 172 207 248 303
#     4  10  21  35  52  75 100 131 174 218 258 298
#     4  10  21  34  49  75 110 141 171 210 254 308
#
# _framework density 8.9630179999999999
#
# number of rings (size 3 to 8) (size 9 to 14) (size 15 to 20)
#    0.000    2.571    0.000    2.143    0.000    8.857 
#    0.000    4.286    0.000    0.429    0.000    0.000 
#    0.000    0.000    0.000    0.000    0.000    0.000 
#
# Total GULP energy -346927.068542 kJ/mol
# GULP energy per Si atom -12390.252448 kJ/mol
# Density = 0.894262 g / cm^3
# Si number density = 8.963018 Si / 1000 Ang^3
#
#
#
# Elastic Constant Matrix: (Units=GPa)
#
#
# Indices 1 2 3 4 5 6 
#
# 1 51.1621 23.3367 30.9354 0.0000 -16.5965 0.0000
# 2 23.3367 100.9250 72.6210 0.0000 -12.5875 0.0000
# 3 30.9354 72.6210 146.5560 0.0000 -25.2534 0.0000
# 4 0.0000 0.0000 0.0000 42.5015 0.0000 -5.3396
# 5 -16.5965 -12.5875 -25.2534 0.0000 30.1416 0.0000
# 6 0.0000 0.0000 0.0000 -5.3396 0.0000 28.9331
#
#
#
# Elastic Compliance Matrix: (Units=1/GPa)
#
#
# Indices 1 2 3 4 5 6 
#
# 1 0.025819 -0.003171 -0.001937 0.000000 0.011269 0.000000
# 2 -0.003171 0.015788 -0.007385 0.000000 -0.001340 0.000000
# 3 -0.001937 -0.007385 0.011893 0.000000 0.005814 0.000000
# 4 0.000000 0.000000 0.000000 0.024087 0.000000 0.004445
# 5 0.011269 -0.001340 0.005814 0.000000 0.043694 0.000000
# 6 0.000000 0.000000 0.000000 0.004445 0.000000 0.035383
#
#
# Mechanical properties :
#
#
# Convention : Reuss Voigt Hill
#
# Bulk Modulus (GPa) = 35.06890 61.38102 48.22496
# Shear Modulus (GPa) = 26.15687 31.76523 28.96105
#
# Velocity S-wave (km/s) = 3.82403 4.21410 4.02380
# Velocity P-wave (km/s) = 6.25326 7.61536 6.96768
#
# Compressibility (1/GPa) = 0.02851530
#
# Stress axis : x y z
#
# Youngs Moduli (GPa) = 38.73139 63.33812 84.08051
#
# Poissons Ratio (x) = 0.20083 0.16285
# Poissons Ratio (y) = 0.12281 0.62093
# Poissons Ratio (z) = 0.07502 0.46775
#
# Static dielectric constant tensor:
#      x y z
#    x 3.430130 0.000000 -0.167590 
#    y 0.000000 3.466170 0.000000 
#    z -0.167590 0.000000 3.708550 
# 
# 
# High freq. dielectric constant tensor:
#      x y z
#    x 1.685370 0.000000 -0.007740 
#    y 0.000000 1.689310 0.000000 
#    z -0.007740 0.000000 1.712560 
# 
# From -- ./inp_files/226552.got.cif
#   From: 2010.06.25/outbox.ucp.g09.slc.cvg/sg12_114_cif.got.tgz:226552.got - 2010.06.28 13:50:54.
