data_PCOD8116136
_publ_section_title
;
Structure prediction by ZEFSAII (Michael W. Deem and Ramdas Pophale) SiO2 
 PCOD8116136
Probable space group: C 2/M
;
_chemical_formula_sum "Si O2"
_cell_formula_units_Z 56
_cell_length_a 33.751396
_cell_length_b 9.527187
_cell_length_c 15.974396
_cell_angle_alpha 90.000000
_cell_angle_beta 143.308389
_cell_angle_gamma 90.000000
_cell_volume 3069.194545
_symmetry_space_group_name_H-M "C 2/M"
_symmetry_group_IT_number 12
_symmetry_cell_setting 'monoclinic'
loop_
_space_group_symop_operation_xyz
x,y,z
-x,y,-z
-x,-y,-z
x,-y,z
1/2+x,1/2+y,z
1/2-x,1/2+y,-z
1/2-x,1/2-y,-z
1/2+x,1/2-y,z
loop_
_atom_site_type_symbol
_atom_site_label
_atom_site_fract_x
_atom_site_fract_y
_atom_site_fract_z
Si Si1 0.400570 0.666218 0.504322
Si Si2 0.040933 0.162795 0.992800
Si Si3 0.307170 0.663242 0.492522
Si Si4 0.175778 0.836471 0.960565
Si Si5 0.537361 0.332334 0.800940
Si Si6 0.316691 0.340297 0.698538
Si Si7 0.803420 0.163374 0.196859
O O1 0.402617 0.500000 0.505841
O O2 0.362572 0.718817 0.522770
O O3 0.476583 0.721637 0.639221
O O4 0.362304 0.720189 0.356850
O O5 0.118477 0.185684 0.137596
O O6 0.020993 0.000000 0.957866
O O7 0.024833 0.226559 0.874001
O O8 0.000000 0.235248 0.000000
O O9 0.293080 0.500000 0.455189
O O10 0.332203 0.697731 0.628302
O O11 0.239149 0.742206 0.357035
O O12 0.107197 0.777609 0.882864
O O13 0.171591 0.810640 0.854433
O O14 0.186850 0.000000 0.000412
O O15 0.236639 0.749943 0.103115
O O16 0.539642 0.500000 0.806803
O O17 0.291959 0.500000 0.663201
O O18 0.787922 0.000000 0.187542
#
# Coordination Sequence:
#
# PCOD8116136 Si02
#       7
#     8   8   8   8   8   8   8
#     4   9  17  29  46  68  94 125 156 191 233 279
#     4   9  16  26  42  65  93 122 152 190 235 275
#     4   9  17  29  44  64  91 120 153 189 229 275
#     4   9  18  32  50  73  97 121 154 197 238 277
#     4   9  17  28  45  70  96 121 156 199 236 272
#     4   9  17  28  44  66  89 118 154 193 231 269
#     4   9  18  32  50  71  96 126 156 189 235 287
#
# _framework density 18.245830000000002
#
# number of rings (size 3 to 8) (size 9 to 14) (size 15 to 20)
#    0.000    3.000    0.000    0.857    2.000    4.000 
#    0.000    2.857    0.000    2.143    0.000    4.000 
#    0.000    0.000    0.000    0.000    0.000    0.000 
#
# Total GULP energy -347076.999749 kJ/mol
# GULP energy per Si atom -12395.607134 kJ/mol
# Density = 1.820430 g / cm^3
# Si number density = 18.245830 Si / 1000 Ang^3
#
#
#
# Elastic Constant Matrix: (Units=GPa)
#
#
# Indices 1 2 3 4 5 6 
#
# 1 107.6793 21.9456 66.9402 0.0000 16.3742 0.0000
# 2 21.9456 23.7912 24.1342 0.0000 4.1440 0.0000
# 3 66.9402 24.1342 136.5484 0.0000 -2.1419 0.0000
# 4 0.0000 0.0000 0.0000 20.0879 0.0000 5.1968
# 5 16.3742 4.1440 -2.1419 0.0000 22.3475 0.0000
# 6 0.0000 0.0000 0.0000 5.1968 0.0000 16.9424
#
#
#
# Elastic Compliance Matrix: (Units=1/GPa)
#
#
# Indices 1 2 3 4 5 6 
#
# 1 0.016970 -0.006003 -0.007447 0.000000 -0.012035 0.000000
# 2 -0.006003 0.055861 -0.007034 0.000000 -0.006634 0.000000
# 3 -0.007447 -0.007034 0.012342 0.000000 0.007944 0.000000
# 4 0.000000 0.000000 0.000000 0.054072 0.000000 -0.016586
# 5 -0.012035 -0.006634 0.007944 0.000000 0.055557 0.000000
# 6 0.000000 0.000000 0.000000 -0.016586 0.000000 0.064111
#
#
# Mechanical properties :
#
#
# Convention : Reuss Voigt Hill
#
# Bulk Modulus (GPa) = 22.62216 54.89543 38.75879
# Shear Modulus (GPa) = 15.89237 22.20880 19.05059
#
# Velocity S-wave (km/s) = 2.95450 3.49262 3.23477
# Velocity P-wave (km/s) = 4.90553 6.81296 5.93635
#
# Compressibility (1/GPa) = 0.04420445
#
# Stress axis : x y z
#
# Youngs Moduli (GPa) = 58.92853 17.90155 81.02415
#
# Poissons Ratio (x) = 0.10746 0.60338
# Poissons Ratio (y) = 0.35374 0.56996
# Poissons Ratio (z) = 0.43883 0.12593
#
# Static dielectric constant tensor:
#      x y z
#    x 3.484980 0.000000 -0.003790 
#    y 0.000000 2.920370 0.000000 
#    z -0.003790 0.000000 3.589730 
# 
# 
# High freq. dielectric constant tensor:
#      x y z
#    x 1.712030 0.000000 -0.001370 
#    y 0.000000 1.644940 0.000000 
#    z -0.001370 0.000000 1.718930 
# 
# From -- ./inp_files/231935.got.cif
#   From: 2010.06.25/outbox.cif.g09.slc.cpg/sg12_116_cif.got.tgz:231935.got - 2010.06.28 00:19:55.
