data_PCOD8116511
_publ_section_title
;
Structure prediction by ZEFSAII (Michael W. Deem and Ramdas Pophale) SiO2 
 PCOD8116511
Probable space group: C 2/M
;
_chemical_formula_sum "Si O2"
_cell_formula_units_Z 32
_cell_length_a 18.000000
_cell_length_b 9.000000
_cell_length_c 30.000000
_cell_angle_alpha 90.000000
_cell_angle_beta 140.000000
_cell_angle_gamma 90.000000
_cell_volume 3123.947783
_symmetry_space_group_name_H-M "C 2/M"
_symmetry_group_IT_number 12
_symmetry_cell_setting 'monoclinic'
loop_
_space_group_symop_operation_xyz
x,y,z
-x,y,-z
-x,-y,-z
x,-y,z
1/2+x,1/2+y,z
1/2-x,1/2+y,-z
1/2-x,1/2-y,-z
1/2+x,1/2-y,z
loop_
_atom_site_type_symbol
_atom_site_label
_atom_site_fract_x
_atom_site_fract_y
_atom_site_fract_z
Si Si1 0.014060 0.830660 0.832373
Si Si2 0.792242 0.332242 0.847352
Si Si3 0.985944 0.677641 0.426191
Si Si4 0.233379 0.331573 0.063876
Si Si5 0.662518 0.323992 0.566224
Si Si6 0.904684 0.675685 0.290705
Si Si7 0.990235 0.169886 0.069772
Si Si8 0.422883 0.826591 0.705395
O O1 0.145905 0.779534 0.901508
O O2 0.963057 0.810402 0.858147
O O3 0.942338 0.738854 0.763379
O O4 0.010585 0.000000 0.814248
O O5 0.803676 0.500000 0.835584
O O6 0.735242 0.319604 0.869455
O O7 0.720634 0.244539 0.776739
O O8 0.918457 0.265263 0.915788
O O9 0.991571 0.500000 0.434004
O O10 0.108742 0.750555 0.496717
O O11 0.890138 0.745692 0.414615
O O12 0.953776 0.725716 0.361204
O O13 0.198608 0.500000 0.035197
O O14 0.137960 0.223574 0.000076
O O15 0.636836 0.500000 0.555286
O O16 0.797274 0.287905 0.628806
O O17 0.892305 0.500000 0.283570
O O18 0.989357 0.737283 0.291121
O O19 0.996215 0.000000 0.057575
O O20 0.441024 0.000000 0.719006
#
# Coordination Sequence:
#
# PCOD8116511 Si02
#       8
#     8   8   8   8   8   8   8   8
#     4  10  22  40  59  84 117 152 194 240 288 344
#     4  11  23  39  60  85 116 153 194 240 291 344
#     4  10  21  38  61  88 118 155 192 233 285 339
#     4  10  21  40  61  83 113 150 194 242 290 345
#     4  10  21  38  60  89 121 152 191 237 282 338
#     4  10  22  40  60  85 118 153 194 240 287 343
#     4  11  24  38  58  87 116 151 194 241 292 347
#     4  10  22  39  60  86 117 154 193 238 290 340
#
# _framework density 10.243449
#
# number of rings (size 3 to 8) (size 9 to 14) (size 15 to 20)
#    0.000    1.750    1.250    3.000    1.750    6.500 
#    0.000    0.000    0.000    0.000    0.000    0.000 
#    0.000    0.000    0.000    0.000    0.000    0.000 
#
# Total GULP energy -396739.197662 kJ/mol
# GULP energy per Si atom -12398.099927 kJ/mol
# Density = 1.022013 g / cm^3
# Si number density = 10.243449 Si / 1000 Ang^3
#
#
#
# Elastic Constant Matrix: (Units=GPa)
#
#
# Indices 1 2 3 4 5 6 
#
# 1 32.2585 21.7013 16.8967 0.0000 3.9378 0.0000
# 2 21.7013 75.1325 45.5023 0.0001 -1.3920 -0.0001
# 3 16.8967 45.5023 120.3937 0.0000 -2.3338 0.0000
# 4 0.0000 0.0001 0.0000 39.4421 0.0000 -1.5042
# 5 3.9378 -1.3920 -2.3338 0.0000 31.9087 0.0000
# 6 0.0000 -0.0001 0.0000 -1.5042 0.0000 22.7471
#
#
#
# Elastic Compliance Matrix: (Units=1/GPa)
#
#
# Indices 1 2 3 4 5 6 
#
# 1 0.039634 -0.010526 -0.001690 0.000000 -0.005474 0.000000
# 2 -0.010526 0.020058 -0.006070 0.000000 0.001730 0.000000
# 3 -0.001690 -0.006070 0.010852 0.000000 0.000738 0.000000
# 4 0.000000 0.000000 0.000000 0.025418 0.000000 0.001681
# 5 -0.005474 0.001730 0.000738 0.000000 0.032144 0.000000
# 6 0.000000 0.000000 0.000000 0.001681 0.000000 0.044073
#
#
# Mechanical properties :
#
#
# Convention : Reuss Voigt Hill
#
# Bulk Modulus (GPa) = 29.43614 43.99836 36.71725
# Shear Modulus (GPa) = 22.71946 28.39855 25.55900
#
# Velocity S-wave (km/s) = 3.33374 3.72718 3.53594
# Velocity P-wave (km/s) = 5.40536 6.32815 5.88487
#
# Compressibility (1/GPa) = 0.03397185
#
# Stress axis : x y z
#
# Youngs Moduli (GPa) = 25.23076 49.85451 92.15017
#
# Poissons Ratio (x) = 0.52475 0.15578
# Poissons Ratio (y) = 0.26557 0.55937
# Poissons Ratio (z) = 0.04265 0.30263
#
# Static dielectric constant tensor:
#      x y z
#    x 3.705450 0.000000 -0.078220 
#    y 0.000000 3.653990 0.000000 
#    z -0.078220 0.000000 3.754160 
# 
# 
# High freq. dielectric constant tensor:
#      x y z
#    x 1.792930 0.000000 -0.004090 
#    y 0.000000 1.798230 0.000000 
#    z -0.004090 0.000000 1.816360 
# 
# From -- ./inp_files/378352.got.cif
#   From: 2010.06.25/outbox.ucp.g09.slc.cvg/sg12_190_cif.got.tgz:378352.got - 2010.06.28 13:50:54.
