data_PCOD8116025
_publ_section_title
;
Structure prediction by ZEFSAII (Michael W. Deem and Ramdas Pophale) SiO2 
 PCOD8116025
Probable space group: C 2/M
;
_chemical_formula_sum "Si O2"
_cell_formula_units_Z 64
_cell_length_a 21.103489
_cell_length_b 21.105366
_cell_length_c 23.341277
_cell_angle_alpha 90.000000
_cell_angle_beta 25.292656
_cell_angle_gamma 90.000000
_cell_volume 4441.663764
_symmetry_space_group_name_H-M "C 2/M"
_symmetry_group_IT_number 12
_symmetry_cell_setting 'monoclinic'
loop_
_space_group_symop_operation_xyz
x,y,z
-x,y,-z
-x,-y,-z
x,-y,z
1/2+x,1/2+y,z
1/2-x,1/2+y,-z
1/2-x,1/2-y,-z
1/2+x,1/2-y,z
loop_
_atom_site_type_symbol
_atom_site_label
_atom_site_fract_x
_atom_site_fract_y
_atom_site_fract_z
Si Si1 0.978261 0.072452 0.346168
Si Si2 0.918611 0.175517 0.653841
Si Si3 0.903782 0.852865 0.849739
Si Si4 0.297381 0.753491 0.849740
Si Si5 0.003145 0.753488 0.849732
Si Si6 0.773733 0.824478 0.653807
Si Si7 0.670611 0.072453 0.653815
Si Si8 0.103260 0.352867 0.150263
O O1 0.804183 0.082595 0.499992
O O2 0.076295 0.113500 0.310175
O O3 0.008551 0.092325 0.255640
O O4 0.026002 0.000000 0.316170
O O5 0.847927 0.235756 0.744378
O O6 0.816184 0.157754 0.683810
O O7 0.082576 0.195774 0.500018
O O8 0.859425 0.798784 0.841799
O O9 0.008377 0.821571 0.813224
O O10 0.755754 0.881603 0.000001
O O11 0.365169 0.821573 0.813227
O O12 0.118375 0.755713 0.000007
O O13 0.163345 0.735762 0.744340
O O14 0.956975 0.701213 0.841800
O O15 0.696658 0.886494 0.689804
O O16 0.519835 0.092323 0.744352
O O17 0.658368 0.000000 0.683805
#
# Coordination Sequence:
#
# PCOD8116025 Si02
#       8
#     8   8   8   8   8   8   8   8
#     4   9  17  27  38  54  77 105 135 163 189 219
#     4   9  17  27  38  54  77 105 135 163 189 219
#     4   8  14  25  40  56  73  94 122 158 199 236
#     4   8  14  25  40  56  73  94 122 158 199 236
#     4   8  14  25  40  56  73  94 122 158 199 236
#     4   9  17  27  38  54  77 105 135 163 189 219
#     4   9  17  27  38  54  77 105 135 163 189 219
#     4   8  14  25  40  56  73  94 122 158 199 236
#
# _framework density 14.409015
#
# number of rings (size 3 to 8) (size 9 to 14) (size 15 to 20)
#    0.000    3.500    0.000    1.500    0.000    2.500 
#    0.000    7.500    0.000    0.000    0.000    7.000 
#    0.000    1.000    0.000   11.000    0.000    9.000 
#
# Total GULP energy -396591.067304 kJ/mol
# GULP energy per Si atom -12393.470853 kJ/mol
# Density = 1.437622 g / cm^3
# Si number density = 14.409015 Si / 1000 Ang^3
#
#
#
# Elastic Constant Matrix: (Units=GPa)
#
#
# Indices 1 2 3 4 5 6 
#
# 1 54.6668 50.0232 52.0638 0.0046 0.4160 -0.0031
# 2 50.0232 54.7269 52.1217 -0.0023 0.0228 -0.0008
# 3 52.0638 52.1217 88.3090 0.0442 -0.0470 -0.0161
# 4 0.0046 -0.0023 0.0442 21.9182 -0.0122 0.0714
# 5 0.4160 0.0228 -0.0470 -0.0122 21.9252 0.0031
# 6 -0.0031 -0.0008 -0.0161 0.0714 0.0031 15.7144
#
#
#
# Elastic Compliance Matrix: (Units=1/GPa)
#
#
# Indices 1 2 3 4 5 6 
#
# 1 0.118624 -0.095505 -0.013569 -0.000009 -0.002180 0.000005
# 2 -0.095505 0.118621 -0.013705 0.000061 0.001659 -0.000027
# 3 -0.013569 -0.013705 0.027413 -0.000054 0.000330 0.000025
# 4 -0.000009 0.000061 -0.000054 0.045625 0.000025 -0.000207
# 5 -0.002180 0.001659 0.000330 0.000025 0.045650 -0.000009
# 6 0.000005 -0.000027 0.000025 -0.000207 -0.000009 0.063637
#
#
# Mechanical properties :
#
#
# Convention : Reuss Voigt Hill
#
# Bulk Modulus (GPa) = 52.35580 56.23557 54.29568
# Shear Modulus (GPa) = 7.44606 14.81115 11.12861
#
# Velocity S-wave (km/s) = 2.27571 3.20958 2.78211
# Velocity P-wave (km/s) = 6.58175 7.26966 6.93424
#
# Compressibility (1/GPa) = 0.01910008
#
# Stress axis : x y z
#
# Youngs Moduli (GPa) = 8.42996 8.43021 36.47877
#
# Poissons Ratio (x) = 0.80512 0.49499
# Poissons Ratio (y) = 0.80510 0.49996
# Poissons Ratio (z) = 0.11439 0.11554
#
# Static dielectric constant tensor:
#      x y z
#    x 2.734750 0.000000 0.002890 
#    y 0.000000 2.734790 0.000050 
#    z 0.002890 0.000050 3.029320 
# 
# 
# High freq. dielectric constant tensor:
#      x y z
#    x 1.520660 0.000000 0.000390 
#    y 0.000000 1.520660 0.000010 
#    z 0.000390 0.000010 1.559710 
# 
# From -- ./inp_files/78786.got.cif
#   From: 2010.06.25/outbox.cif.g09.slc.cpg/sg12_40_cif.got.tgz:78786.got - 2010.06.28 00:19:55.
