data_PCOD8116385
_publ_section_title
;
Structure prediction by ZEFSAII (Michael W. Deem and Ramdas Pophale) SiO2 
 PCOD8116385
Probable space group: C 2/M
;
_chemical_formula_sum "Si O2"
_cell_formula_units_Z 26
_cell_length_a 9.000000
_cell_length_b 27.000000
_cell_length_c 18.000000
_cell_angle_alpha 90.000000
_cell_angle_beta 40.000000
_cell_angle_gamma 90.000000
_cell_volume 2811.553005
_symmetry_space_group_name_H-M "C 2/M"
_symmetry_group_IT_number 12
_symmetry_cell_setting 'monoclinic'
loop_
_space_group_symop_operation_xyz
x,y,z
-x,y,-z
-x,-y,-z
x,-y,z
1/2+x,1/2+y,z
1/2-x,1/2+y,-z
1/2-x,1/2-y,-z
1/2+x,1/2-y,z
loop_
_atom_site_type_symbol
_atom_site_label
_atom_site_fract_x
_atom_site_fract_y
_atom_site_fract_z
Si Si1 0.358635 0.556510 0.718446
Si Si2 0.500000 0.620043 0.000000
Si Si3 0.067017 0.557150 0.227587
Si Si4 0.263289 0.200336 0.544228
Si Si5 0.795093 0.897172 0.523327
Si Si6 0.795190 0.691234 0.989564
Si Si7 0.690966 0.662229 0.196643
O O1 0.378511 0.500000 0.745174
O O2 0.114804 0.560222 0.769732
O O3 0.584306 0.563854 0.579561
O O4 0.351911 0.602394 0.779517
O O5 0.371096 0.657570 0.995407
O O6 0.693892 0.586258 0.883356
O O7 0.133917 0.500000 0.218130
O O8 0.931942 0.579035 0.351318
O O9 0.500000 0.204491 0.500000
O O10 0.250000 0.250000 0.500000
O O11 0.294227 0.152621 0.480647
O O12 0.026188 0.192505 0.683854
O O13 0.000000 0.880962 0.500000
O O14 0.721226 0.675472 0.099858
O O15 0.750000 0.750000 0.000000
O O16 0.061208 0.679042 0.863143
#
# Coordination Sequence:
#
# PCOD8116385 Si02
#       7
#     8   4   8   8   8   8   8
#     4   9  17  37  64  90 121 159 199 253 305 363
#     4  12  23  38  64  88 126 158 209 260 302 352
#     4  10  20  35  60  92 125 160 202 251 307 361
#     4  11  25  40  63  93 127 161 197 254 310 365
#     4   9  19  36  62  90 121 159 205 248 300 369
#     4  11  25  43  64  88 118 168 207 257 299 358
#     4  10  23  44  62  91 124 155 214 245 301 373
#
# _framework density 9.2475579999999997
#
# number of rings (size 3 to 8) (size 9 to 14) (size 15 to 20)
#    0.000    1.846    1.538    2.077    4.308    3.077 
#    0.000    3.077    0.000    2.308    0.000    0.000 
#    0.000    0.000    0.000    0.000    0.000    0.000 
#
# Total GULP energy -322096.333263 kJ/mol
# GULP energy per Si atom -12388.320510 kJ/mol
# Density = 0.922651 g / cm^3
# Si number density = 9.247558 Si / 1000 Ang^3
#
#
#
# Elastic Constant Matrix: (Units=GPa)
#
#
# Indices 1 2 3 4 5 6 
#
# 1 93.3278 60.5892 49.4297 0.0000 -16.8377 0.0000
# 2 60.5892 195.0148 78.7903 0.0000 -7.3081 0.0000
# 3 49.4297 78.7903 182.2614 0.0000 -25.0999 0.0000
# 4 0.0000 0.0000 0.0000 42.9292 0.0000 -0.6882
# 5 -16.8377 -7.3081 -25.0999 0.0000 36.4140 0.0000
# 6 0.0000 0.0000 0.0000 -0.6882 0.0000 35.6684
#
#
#
# Elastic Compliance Matrix: (Units=1/GPa)
#
#
# Indices 1 2 3 4 5 6 
#
# 1 0.014980 -0.003760 -0.001754 0.000000 0.004963 0.000000
# 2 -0.003760 0.007171 -0.002344 0.000000 -0.001915 0.000000
# 3 -0.001754 -0.002344 0.007512 0.000000 0.003897 0.000000
# 4 0.000000 0.000000 0.000000 0.023301 0.000000 0.000450
# 5 0.004963 -0.001915 0.003897 0.000000 0.032059 0.000000
# 6 0.000000 0.000000 0.000000 0.000450 0.000000 0.028045
#
#
# Mechanical properties :
#
#
# Convention : Reuss Voigt Hill
#
# Bulk Modulus (GPa) = 71.69338 94.24694 82.97016
# Shear Modulus (GPa) = 37.47203 41.78864 39.63033
#
# Velocity S-wave (km/s) = 4.50605 4.75852 4.63400
# Velocity P-wave (km/s) = 8.11913 9.01441 8.57846
#
# Compressibility (1/GPa) = 0.01394829
#
# Stress axis : x y z
#
# Youngs Moduli (GPa) = 66.75559 139.44648 133.11524
#
# Poissons Ratio (x) = 0.52426 0.23347
# Poissons Ratio (y) = 0.25097 0.31205
# Poissons Ratio (z) = 0.11708 0.32689
#
# Static dielectric constant tensor:
#      x y z
#    x 3.265790 0.000000 -0.157040 
#    y 0.000000 3.866480 0.000000 
#    z -0.157040 0.000000 3.865210 
# 
# 
# High freq. dielectric constant tensor:
#      x y z
#    x 1.711610 0.000000 -0.019300 
#    y 0.000000 1.754530 0.000000 
#    z -0.019300 0.000000 1.752490 
# 
# From -- ./inp_files/259669.got.cif
#   From: 2010.06.25/outbox.ucp.g09.slc.cvg/sg12_130_cif.got.tgz:259669.got - 2010.06.28 13:50:54.
