data_PCOD8116865
_publ_section_title
;
Structure prediction by ZEFSAII (Michael W. Deem and Ramdas Pophale) SiO2 
 PCOD8116865
Probable space group: P 2/C
;
_chemical_formula_sum "Si O2"
_cell_formula_units_Z 32
_cell_length_a 12.936058
_cell_length_b 19.306054
_cell_length_c 19.576460
_cell_angle_alpha 90.000000
_cell_angle_beta 159.831599
_cell_angle_gamma 90.000000
_cell_volume 1685.669406
_symmetry_space_group_name_H-M "P 2/C"
_symmetry_group_IT_number 13
_symmetry_cell_setting 'monoclinic'
loop_
_space_group_symop_operation_xyz
x,y,z
-x,y,1/2-z
-x,-y,-z
x,-y,1/2+z
loop_
_atom_site_type_symbol
_atom_site_label
_atom_site_fract_x
_atom_site_fract_y
_atom_site_fract_z
Si Si1 0.662294 0.406137 0.922997
Si Si2 0.426927 0.047801 0.556978
Si Si3 0.804316 0.070730 0.233461
Si Si4 0.388272 0.187200 0.780142
Si Si5 0.654708 0.708873 0.525612
Si Si6 0.650502 0.478253 0.522029
Si Si7 0.706301 0.646789 0.696720
Si Si8 0.997512 0.788719 0.917161
O O1 0.500000 0.406887 0.750000
O O2 0.597621 0.334553 0.921570
O O3 0.554503 0.470059 0.901862
O O4 0.018539 0.407013 0.132672
O O5 0.363209 0.078426 0.442410
O O6 0.623758 0.104819 0.718392
O O7 0.127851 0.036339 0.416998
O O8 0.618169 0.977728 0.669991
O O9 0.813832 0.145133 0.276049
O O10 0.086773 0.205480 0.552229
O O11 0.420850 0.226618 0.873445
O O12 0.694274 0.213966 0.933561
O O13 0.577507 0.661682 0.541575
O O14 0.000000 0.735229 0.750000
O O15 0.500000 0.500000 0.500000
O O16 0.557759 0.401142 0.436410
O O17 0.000000 0.481099 0.750000
O O18 0.790981 0.719895 0.784575
#
# Coordination Sequence:
#
# PCOD8116865 Si02
#       8
#     4   4   4   4   4   4   4   4
#     4  11  21  35  59  91 119 147 184 240 294 341
#     4   9  18  31  53  80 108 144 182 228 270 327
#     4   9  18  33  53  79 111 142 185 226 271 328
#     4  10  18  29  52  86 112 139 190 232 280 323
#     4  10  17  29  54  83 112 146 183 235 280 328
#     4  12  23  43  62  86 114 153 198 238 287 353
#     4  11  21  36  61  83 114 151 191 237 291 337
#     4  10  19  31  52  83 113 144 182 236 281 335
#
# _framework density 18.983557000000001
#
# number of rings (size 3 to 8) (size 9 to 14) (size 15 to 20)
#    0.000    1.750    5.000    1.875    1.750    1.000 
#    0.000    0.000    8.250    0.000    0.000    0.000 
#    0.000    0.000    0.000    0.000    0.000    0.000 
#
# Total GULP energy -396448.401448 kJ/mol
# GULP energy per Si atom -12389.012545 kJ/mol
# Density = 1.894035 g / cm^3
# Si number density = 18.983557 Si / 1000 Ang^3
#
#
#
# Elastic Constant Matrix: (Units=GPa)
#
#
# Indices 1 2 3 4 5 6 
#
# 1 53.3118 39.5699 43.2717 0.0000 -9.2128 0.0000
# 2 39.5699 130.4201 63.6128 0.0000 -7.3685 0.0000
# 3 43.2717 63.6128 90.2879 0.0000 -24.0782 0.0000
# 4 0.0000 0.0000 0.0000 40.2579 0.0000 -33.4133
# 5 -9.2128 -7.3685 -24.0782 0.0000 30.1090 0.0000
# 6 0.0000 0.0000 0.0000 -33.4133 0.0000 218.4962
#
#
#
# Elastic Compliance Matrix: (Units=1/GPa)
#
#
# Indices 1 2 3 4 5 6 
#
# 1 0.031712 -0.003159 -0.013462 0.000000 -0.001835 0.000000
# 2 -0.003159 0.012552 -0.008603 0.000000 -0.004775 0.000000
# 3 -0.013462 -0.008603 0.027874 0.000000 0.016066 0.000000
# 4 0.000000 0.000000 0.000000 0.028451 0.000000 0.004351
# 5 -0.001835 -0.004775 0.016066 0.000000 0.044330 0.000000
# 6 0.000000 0.000000 0.000000 0.004351 0.000000 0.005242
#
#
# Mechanical properties :
#
#
# Convention : Reuss Voigt Hill
#
# Bulk Modulus (GPa) = 46.10606 62.99206 54.54906
# Shear Modulus (GPa) = 24.05697 66.27698 45.16698
#
# Velocity S-wave (km/s) = 3.56371 5.91512 4.88307
# Velocity P-wave (km/s) = 6.42444 8.93901 7.78394
#
# Compressibility (1/GPa) = 0.02168913
#
# Stress axis : x y z
#
# Youngs Moduli (GPa) = 31.53383 79.66554 35.87632
#
# Poissons Ratio (x) = 0.25166 0.48297
# Poissons Ratio (y) = 0.09961 0.30865
# Poissons Ratio (z) = 0.42451 0.68538
#
# Static dielectric constant tensor:
#      x y z
#    x 3.262210 0.000000 -0.170410 
#    y 0.000000 3.598060 0.000000 
#    z -0.170410 0.000000 3.566140 
# 
# 
# High freq. dielectric constant tensor:
#      x y z
#    x 1.691410 0.000000 -0.029940 
#    y 0.000000 1.751310 0.000000 
#    z -0.029940 0.000000 1.732200 
# 
# From -- ./inp_files/80430.got.cif
#   From: 2010.06.25/outbox.cif.g09.slc.cpg/sg13_41_cif.got.tgz:80430.got - 2010.06.28 04:50:58.
