data_PCOD8116953
_publ_section_title
;
Structure prediction by ZEFSAII (Michael W. Deem and Ramdas Pophale) SiO2 
 PCOD8116953
Probable space group: P 2/C
;
_chemical_formula_sum "Si O2"
_cell_formula_units_Z 30
_cell_length_a 7.872981
_cell_length_b 11.142524
_cell_length_c 15.868003
_cell_angle_alpha 90.000000
_cell_angle_beta 84.297315
_cell_angle_gamma 90.000000
_cell_volume 1385.129436
_symmetry_space_group_name_H-M "P 2/C"
_symmetry_group_IT_number 13
_symmetry_cell_setting 'monoclinic'
loop_
_space_group_symop_operation_xyz
x,y,z
-x,y,1/2-z
-x,-y,-z
x,-y,1/2+z
loop_
_atom_site_type_symbol
_atom_site_label
_atom_site_fract_x
_atom_site_fract_y
_atom_site_fract_z
Si Si1 0.831433 0.271877 0.447318
Si Si2 0.639332 0.383280 0.906800
Si Si3 0.025000 0.520448 0.654404
Si Si4 0.183166 0.910169 0.695044
Si Si5 0.760190 0.816746 0.305923
Si Si6 0.526389 0.382200 0.086081
Si Si7 0.500000 0.765187 0.750000
Si Si8 0.887691 0.723691 0.135667
O O1 0.977849 0.366494 0.409323
O O2 0.846038 0.149163 0.394242
O O3 0.651857 0.334944 0.441901
O O4 0.852126 0.233648 0.542898
O O5 0.798127 0.450134 0.857345
O O6 0.607661 0.256819 0.859925
O O7 0.479162 0.473083 0.901050
O O8 0.665744 0.356338 0.005868
O O9 0.000000 0.572169 0.750000
O O10 0.879010 0.422581 0.639445
O O11 0.331567 0.840495 0.737436
O O12 0.000000 0.913651 0.750000
O O13 0.259572 0.042405 0.679313
O O14 0.753577 0.783179 0.207008
O O15 0.929986 0.772080 0.344047
O O16 0.569447 0.317403 0.170825
#
# Coordination Sequence:
#
# PCOD8116953 Si02
#       8
#     4   4   4   4   4   4   2   4
#     4  10  22  35  58  94 125 165 222 277 326 395
#     4   9  18  38  62  86 125 165 206 277 333 392
#     4  10  17  34  60  89 125 163 211 275 335 400
#     4  11  23  45  66  95 135 177 231 275 321 408
#     4  10  20  40  61  89 127 170 223 265 327 400
#     4   9  20  42  59  91 129 162 219 269 339 409
#     4  10  24  46  68  94 134 180 216 282 340 388
#     4  10  18  37  59  88 128 160 211 277 325 386
#
# _framework density 21.658625000000001
#
# number of rings (size 3 to 8) (size 9 to 14) (size 15 to 20)
#    0.000    2.133    4.000    0.800    0.000    2.667 
#   12.000    1.333    0.000    0.000    0.000    0.000 
#    0.000    0.000    0.000    0.000    0.000    0.000 
#
# Total GULP energy -371773.682745 kJ/mol
# GULP energy per Si atom -12392.456091 kJ/mol
# Density = 2.160933 g / cm^3
# Si number density = 21.658625 Si / 1000 Ang^3
#
#
#
# Elastic Constant Matrix: (Units=GPa)
#
#
# Indices 1 2 3 4 5 6 
#
# 1 37.0829 15.8485 31.7643 0.0000 -0.7221 0.0000
# 2 15.8485 168.8869 91.7160 0.0000 -7.4457 0.0000
# 3 31.7643 91.7160 193.7779 0.0000 -2.7389 0.0000
# 4 0.0000 0.0000 0.0000 22.1148 0.0000 -5.5901
# 5 -0.7221 -7.4457 -2.7389 0.0000 31.1947 0.0000
# 6 0.0000 0.0000 0.0000 -5.5901 0.0000 10.0597
#
#
#
# Elastic Compliance Matrix: (Units=1/GPa)
#
#
# Indices 1 2 3 4 5 6 
#
# 1 0.031378 -0.000192 -0.005049 0.000000 0.000237 0.000000
# 2 -0.000192 0.008049 -0.003756 0.000000 0.001587 0.000000
# 3 -0.005049 -0.003756 0.007761 0.000000 -0.000332 0.000000
# 4 0.000000 0.000000 0.000000 0.052608 0.000000 0.029234
# 5 0.000237 0.001587 -0.000332 0.000000 0.032412 0.000000
# 6 0.000000 0.000000 0.000000 0.029234 0.000000 0.115652
#
#
# Mechanical properties :
#
#
# Convention : Reuss Voigt Hill
#
# Bulk Modulus (GPa) = 34.25328 75.37835 54.81582
# Shear Modulus (GPa) = 18.14322 30.03511 24.08916
#
# Velocity S-wave (km/s) = 2.89743 3.72795 3.33861
# Velocity P-wave (km/s) = 5.20028 7.30812 6.34238
#
# Compressibility (1/GPa) = 0.02919428
#
# Stress axis : x y z
#
# Youngs Moduli (GPa) = 31.86903 124.24543 128.84831
#
# Poissons Ratio (x) = 0.02386 0.65060
# Poissons Ratio (y) = 0.00612 0.48389
# Poissons Ratio (z) = 0.16092 0.46661
#
# Static dielectric constant tensor:
#      x y z
#    x 3.732580 0.000000 -0.387370 
#    y 0.000000 4.286950 0.000000 
#    z -0.387370 0.000000 4.213550 
# 
# 
# High freq. dielectric constant tensor:
#      x y z
#    x 1.827160 0.000000 -0.015770 
#    y 0.000000 1.846750 0.000000 
#    z -0.015770 0.000000 1.860920 
# 
# From -- ./inp_files/46933.got.cif
#   From: 2010.06.25/outbox.cif.g09.slc.cpg/sg13_24_cif.got.tgz:46933.got - 2010.06.28 04:50:58.
