data_PCOD8116423
_publ_section_title
;
Structure prediction by ZEFSAII (Michael W. Deem and Ramdas Pophale) SiO2 
 PCOD8116423
Probable space group: C 2/M
;
_chemical_formula_sum "Si O2"
_cell_formula_units_Z 20
_cell_length_a 15.000000
_cell_length_b 18.000000
_cell_length_c 15.000000
_cell_angle_alpha 90.000000
_cell_angle_beta 30.000000
_cell_angle_gamma 90.000000
_cell_volume 2025.000000
_symmetry_space_group_name_H-M "C 2/M"
_symmetry_group_IT_number 12
_symmetry_cell_setting 'monoclinic'
loop_
_space_group_symop_operation_xyz
x,y,z
-x,y,-z
-x,-y,-z
x,-y,z
1/2+x,1/2+y,z
1/2-x,1/2+y,-z
1/2-x,1/2-y,-z
1/2+x,1/2-y,z
loop_
_atom_site_type_symbol
_atom_site_label
_atom_site_fract_x
_atom_site_fract_y
_atom_site_fract_z
Si Si1 0.892632 0.765836 0.213548
Si Si2 0.683906 0.583408 0.643758
Si Si3 0.505344 0.164540 0.719455
Si Si4 0.291451 0.415128 0.906092
Si Si5 0.227893 0.227423 0.186285
O O1 0.830619 0.851904 0.270542
O O2 0.748513 0.726349 0.274654
O O3 0.885728 0.719915 0.310615
O O4 0.095197 0.765280 0.005951
O O5 0.714826 0.500000 0.657114
O O6 0.496980 0.583773 0.754776
O O7 0.854278 0.603093 0.435056
O O8 0.435270 0.220327 0.703107
O O9 0.339759 0.119840 0.905866
O O10 0.230848 0.500000 0.934911
O O11 0.284374 0.359427 0.828623
#
# Coordination Sequence:
#
# PCOD8116423 Si02
#       5
#     8   8   8   8   8
#     4  10  20  38  60  87 114 150 196 233 274 345
#     4  11  22  37  59  88 115 149 192 238 286 333
#     4  11  20  39  59  84 115 154 194 226 284 343
#     4  10  20  38  60  86 118 149 184 239 289 330
#     4  10  20  37  62  86 112 155 195 225 283 346
#
# _framework density 9.8765429999999999
#
# number of rings (size 3 to 8) (size 9 to 14) (size 15 to 20)
#    0.000    1.600    4.000    2.400    0.000    0.800 
#    0.000   14.000    0.000    2.400    0.000    0.000 
#    0.000    0.000    0.000    0.000    0.000    0.000 
#
# Total GULP energy -247798.229583 kJ/mol
# GULP energy per Si atom -12389.911479 kJ/mol
# Density = 0.985406 g / cm^3
# Si number density = 9.876543 Si / 1000 Ang^3
#
#
#
# Elastic Constant Matrix: (Units=GPa)
#
#
# Indices 1 2 3 4 5 6 
#
# 1 95.5804 45.0034 29.3975 -0.0057 -7.3888 -0.0023
# 2 45.0034 179.5869 33.9868 -0.0097 -8.3000 -0.0040
# 3 29.3975 33.9868 64.4637 -0.0392 -19.9791 -0.0020
# 4 -0.0057 -0.0097 -0.0392 34.8496 0.0159 -6.3089
# 5 -7.3888 -8.3000 -19.9791 0.0159 11.0876 0.0143
# 6 -0.0023 -0.0040 -0.0020 -6.3089 0.0143 24.7902
#
#
#
# Elastic Compliance Matrix: (Units=1/GPa)
#
#
# Indices 1 2 3 4 5 6 
#
# 1 0.013083 -0.002339 -0.005829 -0.000003 -0.003536 0.000002
# 2 -0.002339 0.006643 -0.003120 -0.000001 -0.002208 0.000002
# 3 -0.005829 -0.003120 0.040514 0.000007 0.066783 -0.000035
# 4 -0.000003 -0.000001 0.000007 0.030081 -0.000043 0.007655
# 5 -0.003536 -0.002208 0.066783 -0.000043 0.206521 -0.000126
# 6 0.000002 0.000002 -0.000035 0.007655 -0.000126 0.042287
#
#
# Mechanical properties :
#
#
# Convention : Reuss Voigt Hill
#
# Bulk Modulus (GPa) = 26.55059 61.82295 44.18677
# Shear Modulus (GPa) = 13.35977 29.56170 21.46074
#
# Velocity S-wave (km/s) = 2.60347 3.87274 3.29971
# Velocity P-wave (km/s) = 4.74424 7.16682 6.07746
#
# Compressibility (1/GPa) = 0.03766395
#
# Stress axis : x y z
#
# Youngs Moduli (GPa) = 76.43439 150.53799 24.68301
#
# Poissons Ratio (x) = 0.35208 0.14388
# Poissons Ratio (y) = 0.17877 0.07701
# Poissons Ratio (z) = 0.44554 0.46967
#
# Static dielectric constant tensor:
#      x y z
#    x 3.710680 -0.000020 -0.168200 
#    y -0.000020 4.138750 0.000060 
#    z -0.168200 0.000060 3.648120 
# 
# 
# High freq. dielectric constant tensor:
#      x y z
#    x 1.747400 0.000000 -0.025200 
#    y 0.000000 1.789250 0.000000 
#    z -0.025200 0.000000 1.778570 
# 
# From -- ./inp_files/72481.got.cif
#   From: 2010.06.25/outbox.ucp.g09.slc.cvg/sg12_37_cif.got.tgz:72481.got - 2010.06.28 13:50:54.
