data_PCOD8116991
_publ_section_title
;
Structure prediction by ZEFSAII (Michael W. Deem and Ramdas Pophale) SiO2 
 PCOD8116991
Probable space group: P 2/C
;
_chemical_formula_sum "Si O2"
_cell_formula_units_Z 26
_cell_length_a 21.307770
_cell_length_b 6.264589
_cell_length_c 15.194541
_cell_angle_alpha 90.000000
_cell_angle_beta 32.590262
_cell_angle_gamma 90.000000
_cell_volume 1092.463077
_symmetry_space_group_name_H-M "P 2/C"
_symmetry_group_IT_number 13
_symmetry_cell_setting 'monoclinic'
loop_
_space_group_symop_operation_xyz
x,y,z
-x,y,1/2-z
-x,-y,-z
x,-y,1/2+z
loop_
_atom_site_type_symbol
_atom_site_label
_atom_site_fract_x
_atom_site_fract_y
_atom_site_fract_z
Si Si1 0.081102 0.261829 0.030578
Si Si2 0.838702 0.042632 0.913028
Si Si3 0.138350 0.971019 0.810997
Si Si4 0.000000 0.416644 0.750000
Si Si5 0.742110 0.596459 0.741047
Si Si6 0.628149 0.208540 0.921326
Si Si7 0.383856 0.065023 0.230844
O O1 0.990156 0.438423 0.172879
O O2 0.103941 0.096567 0.079901
O O3 0.198902 0.389923 0.873135
O O4 0.047910 0.122546 0.979823
O O5 0.881389 0.281501 0.885427
O O6 0.893896 0.963749 0.754816
O O7 0.698061 0.024463 0.086377
O O8 0.160471 0.730755 0.820112
O O9 0.262674 0.086899 0.665587
O O10 0.644675 0.466674 0.913511
O O11 0.678208 0.744649 0.748089
O O12 0.609262 0.140792 0.840924
O O13 0.511742 0.137278 0.111596
#
# Coordination Sequence:
#
# PCOD8116991 Si02
#       7
#     4   4   4   2   4   4   4
#     4  11  22  44  66  93 127 167 218 268 330 393
#     4  12  24  44  68  94 129 173 218 277 331 387
#     4  10  23  40  66  97 135 167 209 270 328 388
#     4  12  26  44  70  92 122 170 226 276 334 396
#     4  10  17  39  63  94 131 170 209 260 319 391
#     4   9  19  35  64  98 131 170 212 260 319 384
#     4  10  18  36  66  94 130 173 215 263 316 384
#
# _framework density 23.799433000000001
#
# number of rings (size 3 to 8) (size 9 to 14) (size 15 to 20)
#    0.000    1.538    6.154    0.923    0.000    3.692 
#    0.000    5.385    0.000    0.000    0.000    0.000 
#    0.000    0.000    0.000    0.000    0.000    0.000 
#
# Total GULP energy -322199.726085 kJ/mol
# GULP energy per Si atom -12392.297157 kJ/mol
# Density = 2.374526 g / cm^3
# Si number density = 23.799433 Si / 1000 Ang^3
#
#
#
# Elastic Constant Matrix: (Units=GPa)
#
#
# Indices 1 2 3 4 5 6 
#
# 1 92.5804 47.2769 36.0875 0.0000 17.2845 0.0000
# 2 47.2769 141.0367 42.0424 0.0000 4.6170 0.0000
# 3 36.0875 42.0424 151.9198 0.0000 8.6256 0.0000
# 4 0.0000 0.0000 0.0000 40.9625 0.0000 -5.4081
# 5 17.2845 4.6170 8.6256 0.0000 25.6352 0.0000
# 6 0.0000 0.0000 0.0000 -5.4081 0.0000 26.3013
#
#
#
# Elastic Compliance Matrix: (Units=1/GPa)
#
#
# Indices 1 2 3 4 5 6 
#
# 1 0.015437 -0.004294 -0.001969 0.000000 -0.008972 0.000000
# 2 -0.004294 0.008934 -0.001555 0.000000 0.001809 0.000000
# 3 -0.001969 -0.001555 0.007533 0.000000 -0.000927 0.000000
# 4 0.000000 0.000000 0.000000 0.025094 0.000000 0.005160
# 5 -0.008972 0.001809 -0.000927 0.000000 0.045044 0.000000
# 6 0.000000 0.000000 0.000000 0.005160 0.000000 0.039082
#
#
# Mechanical properties :
#
#
# Convention : Reuss Voigt Hill
#
# Bulk Modulus (GPa) = 61.47183 70.70564 66.08873
# Shear Modulus (GPa) = 30.82935 35.92182 33.37558
#
# Velocity S-wave (km/s) = 3.60305 3.88926 3.74888
# Velocity P-wave (km/s) = 6.57225 7.06696 6.82409
#
# Compressibility (1/GPa) = 0.01626761
#
# Stress axis : x y z
#
# Youngs Moduli (GPa) = 64.78024 111.93132 132.74576
#
# Poissons Ratio (x) = 0.48062 0.26140
# Poissons Ratio (y) = 0.27816 0.20644
# Poissons Ratio (z) = 0.12757 0.17407
#
# Static dielectric constant tensor:
#      x y z
#    x 3.983010 0.000000 -0.140390 
#    y 0.000000 4.737680 0.000000 
#    z -0.140390 0.000000 5.170390 
# 
# 
# High freq. dielectric constant tensor:
#      x y z
#    x 1.909870 0.000000 -0.018140 
#    y 0.000000 1.960270 0.000000 
#    z -0.018140 0.000000 1.968920 
# 
# From -- ./inp_files/69066.got.cif
#   From: 2010.06.25/outbox.cif.g09.slc.cpg/sg13_35_cif.got.tgz:69066.got - 2010.06.28 04:50:58.
