data_PCOD8116135
_publ_section_title
;
Structure prediction by ZEFSAII (Michael W. Deem and Ramdas Pophale) SiO2 
 PCOD8116135
Probable space group: C 2/M
;
_chemical_formula_sum "Si O2"
_cell_formula_units_Z 64
_cell_length_a 24.239276
_cell_length_b 9.689258
_cell_length_c 15.146761
_cell_angle_alpha 90.000000
_cell_angle_beta 103.676521
_cell_angle_gamma 90.000000
_cell_volume 3456.511807
_symmetry_space_group_name_H-M "C 2/M"
_symmetry_group_IT_number 12
_symmetry_cell_setting 'monoclinic'
loop_
_space_group_symop_operation_xyz
x,y,z
-x,y,-z
-x,-y,-z
x,-y,z
1/2+x,1/2+y,z
1/2-x,1/2+y,-z
1/2-x,1/2-y,-z
1/2+x,1/2-y,z
loop_
_atom_site_type_symbol
_atom_site_label
_atom_site_fract_x
_atom_site_fract_y
_atom_site_fract_z
Si Si1 0.705682 0.847348 0.577893
Si Si2 0.374598 0.845237 0.298626
Si Si3 0.574602 0.163578 0.275474
Si Si4 0.945342 0.664015 0.926806
Si Si5 0.196401 0.339837 0.373804
Si Si6 0.216743 0.339666 0.869716
Si Si7 0.506314 0.165590 0.602677
Si Si8 0.178158 0.659408 0.053527
O O1 0.647896 0.845084 0.610121
O O2 0.750425 0.746100 0.642343
O O3 0.688802 0.801295 0.473616
O O4 0.732878 0.000000 0.587399
O O5 0.329586 0.774321 0.215453
O O6 0.436224 0.774768 0.329769
O O7 0.382519 0.000000 0.264948
O O8 0.549265 0.216367 0.172683
O O9 0.640148 0.209757 0.302284
O O10 0.542656 0.222001 0.350228
O O11 0.570692 0.000000 0.279062
O O12 0.947161 0.500000 0.931235
O O13 0.885319 0.712841 0.946523
O O14 0.000000 0.724948 0.000000
O O15 0.208610 0.500000 0.362520
O O16 0.230883 0.500000 0.853765
O O17 0.274682 0.252803 0.879855
O O18 0.187762 0.323426 0.953465
O O19 0.500000 0.223112 0.500000
O O20 0.508361 0.000000 0.599563
O O21 0.185957 0.500000 0.086383
#
# Coordination Sequence:
#
# PCOD8116135 Si02
#       8
#     8   8   8   8   8   8   8   8
#     4   9  17  29  44  65  93 122 149 182 225 271
#     4   9  17  27  43  65  92 122 153 188 230 277
#     4   9  17  27  42  65  91 119 151 188 231 274
#     4   9  18  29  44  66  94 123 150 187 234 279
#     4   9  17  29  45  66  93 120 149 185 224 271
#     4   9  18  31  48  70  94 123 155 191 231 274
#     4   9  16  26  42  64  91 122 154 191 234 275
#     4   9  18  32  49  69  95 123 154 191 232 275
#
# _framework density 18.515778000000001
#
# number of rings (size 3 to 8) (size 9 to 14) (size 15 to 20)
#    0.000    3.000    0.000    0.750    3.500    3.000 
#    0.000    0.000    0.000    0.375    0.000    1.750 
#    0.000    6.500    0.000    0.000    0.000    0.000 
#
# Total GULP energy -396544.791516 kJ/mol
# GULP energy per Si atom -12392.024735 kJ/mol
# Density = 1.847364 g / cm^3
# Si number density = 18.515778 Si / 1000 Ang^3
#
#
#
# Elastic Constant Matrix: (Units=GPa)
#
#
# Indices 1 2 3 4 5 6 
#
# 1 109.3383 24.1952 40.5696 0.0000 16.7879 0.0000
# 2 24.1952 26.7462 14.7193 0.0000 8.7777 0.0000
# 3 40.5696 14.7193 96.3250 0.0000 20.0397 0.0000
# 4 0.0000 0.0000 0.0000 11.0555 0.0000 2.3970
# 5 16.7879 8.7777 20.0397 0.0000 34.7618 0.0000
# 6 0.0000 0.0000 0.0000 2.3970 0.0000 16.7079
#
#
#
# Elastic Compliance Matrix: (Units=1/GPa)
#
#
# Indices 1 2 3 4 5 6 
#
# 1 0.012748 -0.008943 -0.003626 0.000000 -0.001808 0.000000
# 2 -0.008943 0.048956 -0.002319 0.000000 -0.006706 0.000000
# 3 -0.003626 -0.002319 0.013382 0.000000 -0.005378 0.000000
# 4 0.000000 0.000000 0.000000 0.093357 0.000000 -0.013393
# 5 -0.001808 -0.006706 -0.005378 0.000000 0.034434 0.000000
# 6 0.000000 0.000000 0.000000 -0.013393 0.000000 0.061773
#
#
# Mechanical properties :
#
#
# Convention : Reuss Voigt Hill
#
# Bulk Modulus (GPa) = 22.07100 43.48641 32.77870
# Shear Modulus (GPa) = 16.15352 22.70006 19.42679
#
# Velocity S-wave (km/s) = 2.95688 3.50520 3.24265
# Velocity P-wave (km/s) = 4.85834 6.31815 5.63571
#
# Compressibility (1/GPa) = 0.04530833
#
# Stress axis : x y z
#
# Youngs Moduli (GPa) = 78.44314 20.42660 74.72698
#
# Poissons Ratio (x) = 0.18268 0.27100
# Poissons Ratio (y) = 0.70153 0.17330
# Poissons Ratio (z) = 0.28447 0.04737
#
# Static dielectric constant tensor:
#      x y z
#    x 3.553240 0.000000 0.109270 
#    y 0.000000 2.904910 0.000000 
#    z 0.109270 0.000000 3.583930 
# 
# 
# High freq. dielectric constant tensor:
#      x y z
#    x 1.725770 0.000000 0.002540 
#    y 0.000000 1.643040 0.000000 
#    z 0.002540 0.000000 1.731710 
# 
# From -- ./inp_files/239623.got.cif
#   From: 2010.06.25/outbox.cif.g09.slc.cpg/sg12_120_cif.got.tgz:239623.got - 2010.06.28 00:19:55.
