data_PCOD8116219
_publ_section_title
;
Structure prediction by ZEFSAII (Michael W. Deem and Ramdas Pophale) SiO2 
 PCOD8116219
Probable space group: C 2/M
;
_chemical_formula_sum "Si O2"
_cell_formula_units_Z 32
_cell_length_a 24.000000
_cell_length_b 9.000000
_cell_length_c 30.000000
_cell_angle_alpha 90.000000
_cell_angle_beta 30.000000
_cell_angle_gamma 90.000000
_cell_volume 3240.000000
_symmetry_space_group_name_H-M "C 2/M"
_symmetry_group_IT_number 12
_symmetry_cell_setting 'monoclinic'
loop_
_space_group_symop_operation_xyz
x,y,z
-x,y,-z
-x,-y,-z
x,-y,z
1/2+x,1/2+y,z
1/2-x,1/2+y,-z
1/2-x,1/2-y,-z
1/2+x,1/2-y,z
loop_
_atom_site_type_symbol
_atom_site_label
_atom_site_fract_x
_atom_site_fract_y
_atom_site_fract_z
Si Si1 0.334540 0.166959 0.365354
Si Si2 0.753590 0.833179 0.726897
Si Si3 0.101985 0.823078 0.292830
Si Si4 0.565361 0.829807 0.797311
Si Si5 0.125521 0.334466 0.527736
Si Si6 0.577972 0.168705 0.222215
Si Si7 0.383738 0.837428 0.569352
Si Si8 0.861743 0.825687 0.908731
O O1 0.362224 0.225881 0.295987
O O2 0.244930 0.261232 0.456211
O O3 0.444056 0.172924 0.320855
O O4 0.287991 0.000000 0.393460
O O5 0.805857 0.761904 0.735229
O O6 0.621359 0.821837 0.808299
O O7 0.790650 0.761866 0.655333
O O8 0.796922 0.000000 0.698061
O O9 0.138268 0.739605 0.223017
O O10 0.977931 0.772470 0.391109
O O11 0.105485 0.000000 0.284010
O O12 0.457462 0.726887 0.876523
O O13 0.530481 0.000000 0.810561
O O14 0.111629 0.500000 0.559094
O O15 0.136290 0.352244 0.468050
O O16 0.609725 0.274063 0.160166
O O17 0.619937 0.000000 0.185753
O O18 0.500000 0.757608 0.500000
O O19 0.382012 0.000000 0.593665
O O20 0.848814 0.000000 0.919781
O O21 0.750000 0.750000 0.000000
#
# Coordination Sequence:
#
# PCOD8116219 Si02
#       8
#     8   8   8   8   8   8   8   8
#     4   9  18  33  53  74 101 140 186 235 283 327
#     4  10  20  33  52  76 107 147 188 230 275 323
#     4  11  23  36  52  76 107 150 197 233 273 327
#     4   9  18  34  55  83 116 145 178 224 276 324
#     4  11  21  31  47  72 104 145 191 240 288 326
#     4  10  22  41  60  80 110 145 181 225 277 330
#     4  10  19  30  44  68 102 140 188 241 283 319
#     4  11  22  39  66  96 119 140 170 211 264 325
#
# _framework density 9.8765429999999999
#
# number of rings (size 3 to 8) (size 9 to 14) (size 15 to 20)
#    0.000    1.875    2.500    3.000    0.000    4.750 
#    0.000    0.000    0.000    0.750    0.000    5.250 
#    0.000    0.000    0.000    0.000    0.000    0.000 
#
# Total GULP energy -396419.432719 kJ/mol
# GULP energy per Si atom -12388.107272 kJ/mol
# Density = 0.985406 g / cm^3
# Si number density = 9.876543 Si / 1000 Ang^3
#
#
#
# Elastic Constant Matrix: (Units=GPa)
#
#
# Indices 1 2 3 4 5 6 
#
# 1 90.1019 34.2093 29.7026 0.0040 -6.1181 -0.0033
# 2 34.2093 81.4283 40.6050 0.0046 -13.6853 -0.0221
# 3 29.7026 40.6050 48.4788 -0.0067 -15.6446 -0.0126
# 4 0.0040 0.0046 -0.0067 31.0634 0.0001 0.4870
# 5 -6.1181 -13.6853 -15.6446 0.0001 8.4271 0.0123
# 6 -0.0033 -0.0221 -0.0126 0.4870 0.0123 27.7375
#
#
#
# Elastic Compliance Matrix: (Units=1/GPa)
#
#
# Indices 1 2 3 4 5 6 
#
# 1 0.015092 -0.003166 -0.011769 -0.000004 -0.016034 0.000001
# 2 -0.003166 0.021798 -0.014058 -0.000006 0.007002 0.000008
# 3 -0.011769 -0.014058 0.073555 0.000020 0.105178 -0.000026
# 4 -0.000004 -0.000006 0.000020 0.032201 0.000024 -0.000565
# 5 -0.016034 0.007002 0.105178 0.000024 0.313655 -0.000088
# 6 0.000001 0.000008 -0.000026 -0.000565 -0.000088 0.036062
#
#
# Mechanical properties :
#
#
# Convention : Reuss Voigt Hill
#
# Bulk Modulus (GPa) = 19.06260 47.67141 33.36701
# Shear Modulus (GPa) = 8.80539 21.14510 14.97524
#
# Velocity S-wave (km/s) = 2.11362 3.27535 2.75639
# Velocity P-wave (km/s) = 3.95322 6.20403 5.20182
#
# Compressibility (1/GPa) = 0.05245874
#
# Stress axis : x y z
#
# Youngs Moduli (GPa) = 66.26197 45.87601 13.59531
#
# Poissons Ratio (x) = 0.14526 0.16000
# Poissons Ratio (y) = 0.20981 0.19112
# Poissons Ratio (z) = 0.77981 0.64492
#
# Static dielectric constant tensor:
#      x y z
#    x 3.749430 -0.000220 -0.196560 
#    y -0.000220 3.743870 0.000120 
#    z -0.196560 0.000120 3.048710 
# 
# 
# High freq. dielectric constant tensor:
#      x y z
#    x 1.777300 0.000000 -0.010420 
#    y 0.000000 1.768190 0.000000 
#    z -0.010420 0.000000 1.718330 
# 
# From -- ./inp_files/382278.got.cif
#   From: 2010.06.25/outbox.ucp.g09.slc.cvg/sg12_192_cif.got.tgz:382278.got - 2010.06.28 13:50:54.
