data_PCOD8116941
_publ_section_title
;
Structure prediction by ZEFSAII (Michael W. Deem and Ramdas Pophale) SiO2 
 PCOD8116941
Probable space group: P 2/C
;
_chemical_formula_sum "Si O2"
_cell_formula_units_Z 26
_cell_length_a 15.989346
_cell_length_b 11.494423
_cell_length_c 22.860332
_cell_angle_alpha 90.000000
_cell_angle_beta 18.383277
_cell_angle_gamma 90.000000
_cell_volume 1325.023690
_symmetry_space_group_name_H-M "P 2/C"
_symmetry_group_IT_number 13
_symmetry_cell_setting 'monoclinic'
loop_
_space_group_symop_operation_xyz
x,y,z
-x,y,1/2-z
-x,-y,-z
x,-y,1/2+z
loop_
_atom_site_type_symbol
_atom_site_label
_atom_site_fract_x
_atom_site_fract_y
_atom_site_fract_z
Si Si1 0.000000 0.177286 0.750000
Si Si2 0.500486 0.323018 0.420191
Si Si3 0.009922 0.831810 0.873703
Si Si4 0.439317 0.693904 0.093183
Si Si5 0.500000 0.694277 0.250000
Si Si6 0.000000 0.755537 0.750000
Si Si7 0.241923 0.940283 0.196576
Si Si8 0.713800 0.537280 0.211052
O O1 0.944534 0.096567 0.732223
O O2 0.248838 0.253478 0.563556
O O3 0.433372 0.358125 0.531749
O O4 0.540840 0.428528 0.348489
O O5 0.762514 0.245170 0.248093
O O6 0.011537 0.831039 0.801737
O O7 0.737865 0.783209 0.079607
O O8 0.074556 0.967153 0.847266
O O9 0.340554 0.826909 0.166139
O O10 0.236276 0.618734 0.266010
O O11 0.733617 0.677513 0.925919
O O12 0.555157 0.608600 0.267294
O O13 0.500000 0.000000 0.000000
O O14 0.000000 0.500000 0.000000
#
# Coordination Sequence:
#
# PCOD8116941 Si02
#       8
#     2   4   4   4   2   2   4   4
#     4  10  21  37  62 104 128 157 199 274 326 360
#     4  10  22  41  65  94 129 156 213 265 319 367
#     4  11  21  40  62  98 122 169 207 256 315 380
#     4  10  22  38  64 100 117 164 208 263 318 374
#     4  12  26  42  62  90 130 176 216 242 326 380
#     4  10  17  33  66  90 124 147 215 254 302 372
#     4  11  20  36  66  94 129 159 207 266 316 370
#     4  12  25  43  64  85 130 173 210 265 307 382
#
# _framework density 19.622292000000002
#
# number of rings (size 3 to 8) (size 9 to 14) (size 15 to 20)
#    0.000    1.231    7.692    0.923    0.000    3.077 
#    0.000    2.308    0.000    0.000    0.000    0.000 
#    0.000    0.000    0.000    0.000    0.000    0.000 
#
# Total GULP energy -322247.400512 kJ/mol
# GULP energy per Si atom -12394.130789 kJ/mol
# Density = 1.957763 g / cm^3
# Si number density = 19.622292 Si / 1000 Ang^3
#
#
#
# Elastic Constant Matrix: (Units=GPa)
#
#
# Indices 1 2 3 4 5 6 
#
# 1 75.7870 44.7434 53.6774 0.0000 -9.4034 0.0000
# 2 44.7434 139.9482 82.1387 0.0000 6.6022 0.0000
# 3 53.6774 82.1387 144.9684 0.0000 -4.1125 0.0000
# 4 0.0000 0.0000 0.0000 37.1826 0.0000 5.7486
# 5 -9.4034 6.6022 -4.1125 0.0000 32.0406 0.0000
# 6 0.0000 0.0000 0.0000 5.7486 0.0000 17.1853
#
#
#
# Elastic Compliance Matrix: (Units=1/GPa)
#
#
# Indices 1 2 3 4 5 6 
#
# 1 0.019624 -0.003569 -0.005078 0.000000 0.005843 0.000000
# 2 -0.003569 0.011649 -0.005396 0.000000 -0.004141 0.000000
# 3 -0.005078 -0.005396 0.011868 0.000000 0.001145 0.000000
# 4 0.000000 0.000000 0.000000 0.028361 0.000000 -0.009487
# 5 0.005843 -0.004141 0.001145 0.000000 0.033925 0.000000
# 6 0.000000 0.000000 0.000000 -0.009487 0.000000 0.061362
#
#
# Mechanical properties :
#
#
# Convention : Reuss Voigt Hill
#
# Bulk Modulus (GPa) = 66.42697 80.20252 73.31474
# Shear Modulus (GPa) = 25.01316 29.29131 27.15224
#
# Velocity S-wave (km/s) = 3.57421 3.86781 3.72391
# Velocity P-wave (km/s) = 7.13860 7.80439 7.47891
#
# Compressibility (1/GPa) = 0.01505413
#
# Stress axis : x y z
#
# Youngs Moduli (GPa) = 50.95899 85.84312 84.25839
#
# Poissons Ratio (x) = 0.30639 0.42786
# Poissons Ratio (y) = 0.18188 0.45468
# Poissons Ratio (z) = 0.25877 0.46323
#
# Static dielectric constant tensor:
#      x y z
#    x 3.591770 0.000000 -0.153440 
#    y 0.000000 4.045000 0.000000 
#    z -0.153440 0.000000 3.803920 
# 
# 
# High freq. dielectric constant tensor:
#      x y z
#    x 1.757420 0.000000 -0.015720 
#    y 0.000000 1.769650 0.000000 
#    z -0.015720 0.000000 1.763530 
# 
# From -- ./inp_files/42402.got.cif
#   From: 2010.06.25/outbox.cif.g09.slc.cpg/sg13_22_cif.got.tgz:42402.got - 2010.06.28 04:50:58.
