data_PCOD8116690
_publ_section_title
;
Structure prediction by ZEFSAII (Michael W. Deem and Ramdas Pophale) SiO2 
 PCOD8116690
Probable space group: P 2/C
;
_chemical_formula_sum "Si O2"
_cell_formula_units_Z 18
_cell_length_a 23.184904
_cell_length_b 8.582474
_cell_length_c 5.342572
_cell_angle_alpha 90.000000
_cell_angle_beta 125.175542
_cell_angle_gamma 90.000000
_cell_volume 868.956375
_symmetry_space_group_name_H-M "P 2/C"
_symmetry_group_IT_number 13
_symmetry_cell_setting 'monoclinic'
loop_
_space_group_symop_operation_xyz
x,y,z
-x,y,1/2-z
-x,-y,-z
x,-y,1/2+z
loop_
_atom_site_type_symbol
_atom_site_label
_atom_site_fract_x
_atom_site_fract_y
_atom_site_fract_z
Si Si1 0.500000 0.601592 0.250000
Si Si2 0.288495 0.335840 0.721239
Si Si3 0.123958 0.594226 0.809895
Si Si4 0.921135 0.935110 0.802838
Si Si5 0.653242 0.317194 0.133102
O O1 0.500000 0.500000 0.500000
O O2 0.569225 0.710716 0.423062
O O3 0.205586 0.361368 0.513963
O O4 0.311844 0.241745 0.529428
O O5 0.329942 0.498787 0.824861
O O6 0.311843 0.241745 0.029798
O O7 0.104356 0.499999 0.510891
O O8 0.077015 0.748946 0.692538
O O9 0.881940 0.000000 0.454849
O O10 0.000000 0.000000 0.000000
#
# Coordination Sequence:
#
# PCOD8116690 Si02
#       5
#     2   4   4   4   4
#     4  12  16  20  34  52  88 156 176 186 252 364
#     4  10  16  27  41  66 103 126 171 229 271 297
#     4  12  21  35  62  92 106 142 198 236 278 331
#     4  10  23  45  62  81 120 155 175 222 297 345
#     4  10  16  25  36  61 104 138 174 210 274 318
#
# _framework density 20.714504999999999
#
# number of rings (size 3 to 8) (size 9 to 14) (size 15 to 20)
#    0.000    1.333    8.889    1.333    0.000    0.000 
#    0.000   13.333    0.000    0.000    0.000    0.000 
#    0.000    0.000    0.000   34.000    0.000    0.444 
#
# Total GULP energy -223076.753579 kJ/mol
# GULP energy per Si atom -12393.152977 kJ/mol
# Density = 2.066736 g / cm^3
# Si number density = 20.714505 Si / 1000 Ang^3
#
#
#
# Elastic Constant Matrix: (Units=GPa)
#
#
# Indices 1 2 3 4 5 6 
#
# 1 90.5206 48.3704 83.7562 0.0000 -34.5182 0.0000
# 2 48.3704 85.8866 51.1181 0.0000 -6.9134 0.0000
# 3 83.7562 51.1181 127.6153 0.0000 -58.8641 0.0000
# 4 0.0000 0.0000 0.0000 12.5014 0.0000 -9.3426
# 5 -34.5182 -6.9134 -58.8641 0.0000 71.5282 0.0000
# 6 0.0000 0.0000 0.0000 -9.3426 0.0000 8.7905
#
#
#
# Elastic Compliance Matrix: (Units=1/GPa)
#
#
# Indices 1 2 3 4 5 6 
#
# 1 0.031067 -0.006972 -0.017718 0.000000 -0.000263 0.000000
# 2 -0.006972 0.018470 -0.005724 0.000000 -0.006290 0.000000
# 3 -0.017718 -0.005724 0.028301 0.000000 0.014187 0.000000
# 4 0.000000 0.000000 0.000000 0.388802 0.000000 0.413223
# 5 -0.000263 -0.006290 0.014187 0.000000 0.024921 0.000000
# 6 0.000000 0.000000 0.000000 0.413223 0.000000 0.552937
#
#
# Mechanical properties :
#
#
# Convention : Reuss Voigt Hill
#
# Bulk Modulus (GPa) = 58.78776 74.50133 66.64455
# Shear Modulus (GPa) = 4.50047 26.61588 15.55817
#
# Velocity S-wave (km/s) = 1.47558 3.58843 2.74355
# Velocity P-wave (km/s) = 5.59864 7.29472 6.50222
#
# Compressibility (1/GPa) = 0.01701034
#
# Stress axis : x y z
#
# Youngs Moduli (GPa) = 32.18895 54.14086 35.33396
#
# Poissons Ratio (x) = 0.37748 0.62605
# Poissons Ratio (y) = 0.22442 0.20225
# Poissons Ratio (z) = 0.57032 0.30990
#
# Static dielectric constant tensor:
#      x y z
#    x 5.351090 0.000000 -1.834150 
#    y 0.000000 3.154220 0.000000 
#    z -1.834150 0.000000 6.079600 
# 
# 
# High freq. dielectric constant tensor:
#      x y z
#    x 1.826840 0.000000 -0.029110 
#    y 0.000000 1.723020 0.000000 
#    z -0.029110 0.000000 1.838410 
# 
# From -- ./inp_files/5826.got.cif
#   From: 2010.06.25/outbox.cif.g09.slc.cpg/sg13_3_cif.got.tgz:5826.got - 2010.06.28 04:50:58.
