data_PCOD8116296
_publ_section_title
;
Structure prediction by ZEFSAII (Michael W. Deem and Ramdas Pophale) SiO2 
 PCOD8116296
Probable space group: C 2/M
;
_chemical_formula_sum "Si O2"
_cell_formula_units_Z 32
_cell_length_a 12.000000
_cell_length_b 30.000000
_cell_length_c 18.000000
_cell_angle_alpha 90.000000
_cell_angle_beta 30.000000
_cell_angle_gamma 90.000000
_cell_volume 3240.000000
_symmetry_space_group_name_H-M "C 2/M"
_symmetry_group_IT_number 12
_symmetry_cell_setting 'monoclinic'
loop_
_space_group_symop_operation_xyz
x,y,z
-x,y,-z
-x,-y,-z
x,-y,z
1/2+x,1/2+y,z
1/2-x,1/2+y,-z
1/2-x,1/2-y,-z
1/2+x,1/2-y,z
loop_
_atom_site_type_symbol
_atom_site_label
_atom_site_fract_x
_atom_site_fract_y
_atom_site_fract_z
Si Si1 0.018253 0.393868 0.687282
Si Si2 0.767383 0.301741 0.856279
Si Si3 0.677837 0.290855 0.224150
Si Si4 0.873848 0.689805 0.957731
Si Si5 0.507361 0.908010 0.856613
Si Si6 0.612525 0.550254 0.162874
Si Si7 0.020475 0.115454 0.349095
Si Si8 0.163038 0.449400 0.340500
O O1 0.913318 0.344603 0.751837
O O2 0.880158 0.419259 0.705359
O O3 0.985626 0.420372 0.782840
O O4 0.283458 0.395003 0.521644
O O5 0.882474 0.261977 0.740336
O O6 0.792934 0.287842 0.928035
O O7 0.500000 0.307630 0.000000
O O8 0.513307 0.330181 0.346317
O O9 0.886636 0.292204 0.157966
O O10 0.709485 0.301241 0.119663
O O11 0.876494 0.637116 0.946977
O O12 0.769156 0.902615 0.724805
O O13 0.366305 0.944034 0.985669
O O14 0.600012 0.500000 0.204600
O O15 0.546341 0.588890 0.257909
O O16 0.425106 0.554534 0.207306
O O17 0.096758 0.500000 0.359531
O O18 0.000000 0.432112 0.500000
#
# Coordination Sequence:
#
# PCOD8116296 Si02
#       8
#     8   8   8   8   8   8   8   8
#     4  11  25  40  61  93 127 165 205 256 315 377
#     4  11  23  35  58  91 126 158 206 267 307 362
#     4  10  19  35  61  82 118 166 208 247 313 365
#     4   9  18  35  54  86 114 155 201 246 308 364
#     4  10  22  39  63  90 122 160 201 258 312 361
#     4  11  23  40  66  97 122 156 213 267 301 360
#     4  11  22  41  64  88 126 169 209 251 316 381
#     4  10  22  43  66  88 125 170 204 246 319 383
#
# _framework density 9.8765429999999999
#
# number of rings (size 3 to 8) (size 9 to 14) (size 15 to 20)
#    0.000    1.625    3.750    1.125    3.500    2.000 
#    0.000    1.250    0.000    2.250    0.000    0.000 
#    0.000    0.000    0.000    0.000    0.000    0.000 
#
# Total GULP energy -396424.783575 kJ/mol
# GULP energy per Si atom -12388.274487 kJ/mol
# Density = 0.985406 g / cm^3
# Si number density = 9.876543 Si / 1000 Ang^3
#
#
#
# Elastic Constant Matrix: (Units=GPa)
#
#
# Indices 1 2 3 4 5 6 
#
# 1 111.0111 42.6417 30.8310 -0.0007 4.9915 -0.0002
# 2 42.6417 76.5362 33.6940 -0.0014 -2.5042 0.0006
# 3 30.8310 33.6940 88.5831 0.0046 -7.6724 0.0035
# 4 -0.0007 -0.0014 0.0046 23.3280 -0.0005 -1.4555
# 5 4.9915 -2.5042 -7.6724 -0.0005 29.7863 -0.0012
# 6 -0.0002 0.0006 0.0035 -1.4555 -0.0012 27.1685
#
#
#
# Elastic Compliance Matrix: (Units=1/GPa)
#
#
# Indices 1 2 3 4 5 6 
#
# 1 0.011995 -0.005799 -0.002235 0.000000 -0.003073 0.000000
# 2 -0.005799 0.018499 -0.004909 0.000002 0.001263 0.000000
# 3 -0.002235 -0.004909 0.014248 -0.000003 0.003632 -0.000002
# 4 0.000000 0.000002 -0.000003 0.043011 0.000000 0.002304
# 5 -0.003073 0.001263 0.003632 0.000000 0.035129 0.000001
# 6 0.000000 0.000000 -0.000002 0.002304 0.000001 0.036931
#
#
# Mechanical properties :
#
#
# Convention : Reuss Voigt Hill
#
# Bulk Modulus (GPa) = 53.03314 54.49600 53.76457
# Shear Modulus (GPa) = 26.04381 27.32081 26.68231
#
# Velocity S-wave (km/s) = 3.63501 3.72306 3.67930
# Velocity P-wave (km/s) = 6.67263 6.79191 6.73254
#
# Compressibility (1/GPa) = 0.01885613
#
# Stress axis : x y z
#
# Youngs Moduli (GPa) = 83.37019 54.05671 70.18359
#
# Poissons Ratio (x) = 0.31350 0.15686
# Poissons Ratio (y) = 0.48350 0.34450
# Poissons Ratio (z) = 0.18633 0.26534
#
# Static dielectric constant tensor:
#      x y z
#    x 3.772470 0.000000 -0.006530 
#    y 0.000000 3.821380 0.000000 
#    z -0.006530 0.000000 3.577660 
# 
# 
# High freq. dielectric constant tensor:
#      x y z
#    x 1.780430 0.000000 -0.008920 
#    y 0.000000 1.781050 0.000000 
#    z -0.008920 0.000000 1.753760 
# 
# From -- ./inp_files/266282.got.cif
#   From: 2010.06.25/outbox.ucp.g09.slc.cvg/sg12_134_cif.got.tgz:266282.got - 2010.06.28 13:50:54.
