data_PCOD8116477
_publ_section_title
;
Structure prediction by ZEFSAII (Michael W. Deem and Ramdas Pophale) SiO2 
 PCOD8116477
Probable space group: C 2/M
;
_chemical_formula_sum "Si O2"
_cell_formula_units_Z 28
_cell_length_a 21.000000
_cell_length_b 9.000000
_cell_length_c 30.000000
_cell_angle_alpha 90.000000
_cell_angle_beta 30.000000
_cell_angle_gamma 90.000000
_cell_volume 2835.000000
_symmetry_space_group_name_H-M "C 2/M"
_symmetry_group_IT_number 12
_symmetry_cell_setting 'monoclinic'
loop_
_space_group_symop_operation_xyz
x,y,z
-x,y,-z
-x,-y,-z
x,-y,z
1/2+x,1/2+y,z
1/2-x,1/2+y,-z
1/2-x,1/2-y,-z
1/2+x,1/2-y,z
loop_
_atom_site_type_symbol
_atom_site_label
_atom_site_fract_x
_atom_site_fract_y
_atom_site_fract_z
Si Si1 0.069927 0.671700 0.911183
Si Si2 0.135958 0.830487 0.281691
Si Si3 0.497376 0.824792 0.288541
Si Si4 0.254521 0.176955 0.545831
Si Si5 0.518916 0.671970 0.540013
Si Si6 0.646712 0.669839 0.122991
Si Si7 0.599081 0.670493 0.053415
O O1 0.042504 0.500000 0.916077
O O2 0.220303 0.703302 0.820720
O O3 0.022696 0.779721 0.900817
O O4 0.000000 0.714140 0.000000
O O5 0.045573 0.721526 0.308383
O O6 0.107894 0.806060 0.351881
O O7 0.101107 0.000000 0.290250
O O8 0.370497 0.734423 0.352773
O O9 0.598084 0.781800 0.189815
O O10 0.471721 0.000000 0.303853
O O11 0.250000 0.250000 0.500000
O O12 0.372994 0.227777 0.503506
O O13 0.255232 0.000000 0.540647
O O14 0.500000 0.723808 0.500000
O O15 0.561647 0.500000 0.514491
O O16 0.644293 0.500000 0.142074
O O17 0.566921 0.685593 0.125495
O O18 0.791092 0.715028 0.026145
O O19 0.636533 0.500000 0.019681
#
# Coordination Sequence:
#
# PCOD8116477 Si02
#       7
#     8   8   8   8   8   8   8
#     4  10  21  36  56  83 117 160 202 242 299 366
#     4  10  21  38  60  85 119 161 202 251 307 370
#     4  12  24  38  62  93 121 155 203 256 308 367
#     4  12  24  41  65  92 124 163 206 256 311 370
#     4  10  22  41  64  92 127 167 209 257 317 383
#     4  10  21  38  59  85 119 158 198 248 305 366
#     4  10  21  37  58  85 118 157 201 251 302 355
#
# _framework density 9.8765429999999999
#
# number of rings (size 3 to 8) (size 9 to 14) (size 15 to 20)
#    0.000    1.429    1.429    4.286    0.000    5.143 
#    0.000    1.429    0.000    0.000    0.000    0.000 
#    0.000    0.000    0.000    0.000    0.000    0.000 
#
# Total GULP energy -347210.768534 kJ/mol
# GULP energy per Si atom -12400.384591 kJ/mol
# Density = 0.985406 g / cm^3
# Si number density = 9.876543 Si / 1000 Ang^3
#
#
#
# Elastic Constant Matrix: (Units=GPa)
#
#
# Indices 1 2 3 4 5 6 
#
# 1 119.3465 57.6807 44.3665 -0.0059 8.8857 0.0094
# 2 57.6807 131.1177 32.3957 0.0029 -0.1845 -0.0114
# 3 44.3665 32.3957 107.1363 -0.0031 10.9122 0.0113
# 4 -0.0059 0.0029 -0.0031 27.5112 -0.0008 -3.4312
# 5 8.8857 -0.1845 10.9122 -0.0008 32.7573 0.0019
# 6 0.0094 -0.0114 0.0113 -3.4312 0.0019 37.0546
#
#
#
# Elastic Compliance Matrix: (Units=1/GPa)
#
#
# Indices 1 2 3 4 5 6 
#
# 1 0.011931 -0.004414 -0.003389 0.000002 -0.002132 -0.000003
# 2 -0.004414 0.009902 -0.001339 -0.000002 0.001699 0.000004
# 3 -0.003389 -0.001339 0.011437 0.000000 -0.002898 -0.000003
# 4 0.000002 -0.000002 0.000000 0.036774 0.000000 0.003405
# 5 -0.002132 0.001699 -0.002898 0.000000 0.032081 0.000000
# 6 -0.000003 0.000004 -0.000003 0.003405 0.000000 0.027303
#
#
# Mechanical properties :
#
#
# Convention : Reuss Voigt Hill
#
# Bulk Modulus (GPa) = 66.73027 69.60958 68.16993
# Shear Modulus (GPa) = 32.74240 34.34178 33.54209
#
# Velocity S-wave (km/s) = 4.07576 4.17412 4.12523
# Velocity P-wave (km/s) = 7.48362 7.65163 7.56809
#
# Compressibility (1/GPa) = 0.01498570
#
# Stress axis : x y z
#
# Youngs Moduli (GPa) = 83.81565 100.99034 87.43262
#
# Poissons Ratio (x) = 0.44581 0.29629
# Poissons Ratio (y) = 0.36999 0.11709
# Poissons Ratio (z) = 0.28403 0.13524
#
# Static dielectric constant tensor:
#      x y z
#    x 3.678830 -0.000010 0.155120 
#    y -0.000010 3.628610 0.000010 
#    z 0.155120 0.000010 3.801850 
# 
# 
# High freq. dielectric constant tensor:
#      x y z
#    x 1.770500 0.000000 0.011330 
#    y 0.000000 1.778980 0.000000 
#    z 0.011330 0.000000 1.778670 
# 
# From -- ./inp_files/380669.got.cif
#   From: 2010.06.25/outbox.ucp.g09.slc.cvg/sg12_191_cif.got.tgz:380669.got - 2010.06.28 13:50:54.
