data_PCOD8116982
_publ_section_title
;
Structure prediction by ZEFSAII (Michael W. Deem and Ramdas Pophale) SiO2 
 PCOD8116982
Probable space group: P 2/C
;
_chemical_formula_sum "Si O2"
_cell_formula_units_Z 22
_cell_length_a 10.036637
_cell_length_b 10.606863
_cell_length_c 14.481852
_cell_angle_alpha 90.000000
_cell_angle_beta 49.509066
_cell_angle_gamma 90.000000
_cell_volume 1172.474697
_symmetry_space_group_name_H-M "P 2/C"
_symmetry_group_IT_number 13
_symmetry_cell_setting 'monoclinic'
loop_
_space_group_symop_operation_xyz
x,y,z
-x,y,1/2-z
-x,-y,-z
x,-y,1/2+z
loop_
_atom_site_type_symbol
_atom_site_label
_atom_site_fract_x
_atom_site_fract_y
_atom_site_fract_z
Si Si1 0.359322 0.173595 0.589877
Si Si2 0.059015 0.467741 0.072418
Si Si3 0.614786 0.390578 0.488402
Si Si4 0.566132 0.932999 0.825721
Si Si5 0.862261 0.247425 0.243753
Si Si6 0.000000 0.674411 0.250000
O O1 0.494887 0.273947 0.571735
O O2 0.418903 0.127488 0.460091
O O3 0.167795 0.233938 0.669826
O O4 0.365898 0.062867 0.661638
O O5 0.270376 0.449334 0.980048
O O6 0.975341 0.330740 0.124444
O O7 0.993102 0.582064 0.165890
O O8 0.000000 0.500000 0.000000
O O9 0.500000 0.500000 0.500000
O O10 0.751959 0.349452 0.349620
O O11 0.500000 0.949824 0.750000
O O12 0.738705 0.846477 0.743324
O O13 0.000000 0.174052 0.250000
#
# Coordination Sequence:
#
# PCOD8116982 Si02
#       6
#     4   4   4   4   4   2
#     4  10  23  40  64  86 127 165 202 259 311 361
#     4  11  22  35  61  96 123 156 205 252 316 374
#     4  10  17  37  60  80 121 159 191 247 311 362
#     4  10  23  41  63  90 119 163 218 247 301 368
#     4   9  19  36  57  83 119 157 194 249 301 363
#     4  12  22  42  60  94 128 156 206 260 312 372
#
# _framework density 18.763731
#
# number of rings (size 3 to 8) (size 9 to 14) (size 15 to 20)
#    0.000    1.818    4.545    0.000    3.818    1.455 
#    0.000    2.727    0.000    0.000    0.000    0.000 
#    0.000    0.000    0.000    0.000    0.000    0.000 
#
# Total GULP energy -272610.767570 kJ/mol
# GULP energy per Si atom -12391.398526 kJ/mol
# Density = 1.872102 g / cm^3
# Si number density = 18.763731 Si / 1000 Ang^3
#
#
#
# Elastic Constant Matrix: (Units=GPa)
#
#
# Indices 1 2 3 4 5 6 
#
# 1 166.8170 70.6827 72.8771 0.0000 10.4044 0.0000
# 2 70.6827 117.2386 44.7662 0.0000 0.1359 0.0000
# 3 72.8771 44.7662 76.3199 0.0000 -3.0204 0.0000
# 4 0.0000 0.0000 0.0000 21.5150 0.0000 -9.7831
# 5 10.4044 0.1359 -3.0204 0.0000 37.1424 0.0000
# 6 0.0000 0.0000 0.0000 -9.7831 0.0000 34.2142
#
#
#
# Elastic Compliance Matrix: (Units=1/GPa)
#
#
# Indices 1 2 3 4 5 6 
#
# 1 0.011864 -0.003558 -0.009404 0.000000 -0.004075 0.000000
# 2 -0.003558 0.012070 -0.003657 0.000000 0.000655 0.000000
# 3 -0.009404 -0.003657 0.024410 0.000000 0.004633 0.000000
# 4 0.000000 0.000000 0.000000 0.053425 0.000000 0.015276
# 5 -0.004075 0.000655 0.004633 0.000000 0.028439 0.000000
# 6 0.000000 0.000000 0.000000 0.015276 0.000000 0.033596
#
#
# Mechanical properties :
#
#
# Convention : Reuss Voigt Hill
#
# Bulk Modulus (GPa) = 66.18677 81.89198 74.03938
# Shear Modulus (GPa) = 24.74299 30.04428 27.39364
#
# Velocity S-wave (km/s) = 3.63528 4.00583 3.82504
# Velocity P-wave (km/s) = 7.27809 8.07057 7.68455
#
# Compressibility (1/GPa) = 0.01510876
#
# Stress axis : x y z
#
# Youngs Moduli (GPa) = 84.28637 82.85014 40.96600
#
# Poissons Ratio (x) = 0.29474 0.38523
# Poissons Ratio (y) = 0.29985 0.14980
# Poissons Ratio (z) = 0.79260 0.30297
#
# Static dielectric constant tensor:
#      x y z
#    x 4.136020 0.000000 -0.024250 
#    y 0.000000 3.807200 0.000000 
#    z -0.024250 0.000000 3.481730 
# 
# 
# High freq. dielectric constant tensor:
#      x y z
#    x 1.736870 0.000000 -0.021330 
#    y 0.000000 1.740380 0.000000 
#    z -0.021330 0.000000 1.713630 
# 
# From -- ./inp_files/46476.got.cif
#   From: 2010.06.25/outbox.cif.g09.slc.cpg/sg13_24_cif.got.tgz:46476.got - 2010.06.28 04:50:58.
