data_PCOD8116895
_publ_section_title
;
Structure prediction by ZEFSAII (Michael W. Deem and Ramdas Pophale) SiO2 
 PCOD8116895
Probable space group: P 2/C
;
_chemical_formula_sum "Si O2"
_cell_formula_units_Z 22
_cell_length_a 8.568331
_cell_length_b 8.868192
_cell_length_c 16.583110
_cell_angle_alpha 90.000000
_cell_angle_beta 104.964340
_cell_angle_gamma 90.000000
_cell_volume 1217.344276
_symmetry_space_group_name_H-M "P 2/C"
_symmetry_group_IT_number 13
_symmetry_cell_setting 'monoclinic'
loop_
_space_group_symop_operation_xyz
x,y,z
-x,y,1/2-z
-x,-y,-z
x,-y,1/2+z
loop_
_atom_site_type_symbol
_atom_site_label
_atom_site_fract_x
_atom_site_fract_y
_atom_site_fract_z
Si Si1 0.678984 0.352291 0.997338
Si Si2 0.803004 0.593396 0.889119
Si Si3 0.366552 0.416067 0.882149
Si Si4 0.500000 0.546683 0.750000
Si Si5 0.012052 0.343282 0.843794
Si Si6 0.969154 0.175327 0.996140
O O1 0.769487 0.484198 0.959629
O O2 0.511721 0.307699 0.931391
O O3 0.799832 0.210546 0.019619
O O4 0.627920 0.416075 0.077768
O O5 0.633223 0.638670 0.821198
O O6 0.927463 0.507066 0.845093
O O7 0.886206 0.742572 0.936083
O O8 0.388015 0.438642 0.789660
O O9 0.201509 0.341922 0.886380
O O10 0.000000 0.287762 0.750000
O O11 0.943141 0.225335 0.899541
O O12 0.000000 0.000000 0.000000
#
# Coordination Sequence:
#
# PCOD8116895 Si02
#       6
#     4   4   4   2   4   4
#     4   9  18  33  57  81 107 139 189 234 282 331
#     4  10  18  34  57  82 109 139 191 232 285 334
#     4  10  17  31  56  88 108 133 184 247 285 324
#     4  10  20  28  54  92 106 134 178 258 288 312
#     4  11  19  35  60  86 107 142 189 242 284 328
#     4  11  22  38  56  80 117 159 188 224 282 359
#
# _framework density 18.072125
#
# number of rings (size 3 to 8) (size 9 to 14) (size 15 to 20)
#    0.000    1.818    5.455    1.091    0.000    0.000 
#    0.000    3.636    4.000    0.000    0.000    0.000 
#    0.000    0.000    0.000    0.000    0.000    0.000 
#
# Total GULP energy -272574.845834 kJ/mol
# GULP energy per Si atom -12389.765720 kJ/mol
# Density = 1.803099 g / cm^3
# Si number density = 18.072125 Si / 1000 Ang^3
#
#
#
# Elastic Constant Matrix: (Units=GPa)
#
#
# Indices 1 2 3 4 5 6 
#
# 1 105.8115 29.6770 18.3409 0.0000 15.6184 0.0000
# 2 29.6770 88.3295 28.5055 0.0000 13.1847 0.0000
# 3 18.3409 28.5055 83.8744 0.0000 0.0065 0.0000
# 4 0.0000 0.0000 0.0000 12.9650 0.0000 0.9949
# 5 15.6184 13.1847 0.0065 0.0000 40.4173 0.0000
# 6 0.0000 0.0000 0.0000 0.9949 0.0000 16.8143
#
#
#
# Elastic Compliance Matrix: (Units=1/GPa)
#
#
# Indices 1 2 3 4 5 6 
#
# 1 0.010960 -0.002705 -0.001477 0.000000 -0.003353 0.000000
# 2 -0.002705 0.014119 -0.004207 0.000000 -0.003560 0.000000
# 3 -0.001477 -0.004207 0.013675 0.000000 0.001941 0.000000
# 4 0.000000 0.000000 0.000000 0.077482 0.000000 -0.004585
# 5 -0.003353 -0.003560 0.001941 0.000000 0.027198 0.000000
# 6 0.000000 0.000000 0.000000 -0.004585 0.000000 0.059744
#
#
# Mechanical properties :
#
#
# Convention : Reuss Voigt Hill
#
# Bulk Modulus (GPa) = 45.50310 47.89579 46.69944
# Shear Modulus (GPa) = 21.99895 27.47212 24.73554
#
# Velocity S-wave (km/s) = 3.49275 3.90312 3.70362
# Velocity P-wave (km/s) = 6.44197 6.84636 6.64724
#
# Compressibility (1/GPa) = 0.02197653
#
# Stress axis : x y z
#
# Youngs Moduli (GPa) = 91.23713 70.82597 73.12569
#
# Poissons Ratio (x) = 0.19161 0.10801
# Poissons Ratio (y) = 0.24683 0.30761
# Poissons Ratio (z) = 0.13476 0.29794
#
# Static dielectric constant tensor:
#      x y z
#    x 3.746050 0.000000 0.044840 
#    y 0.000000 2.682140 0.000000 
#    z 0.044840 0.000000 3.601890 
# 
# 
# High freq. dielectric constant tensor:
#      x y z
#    x 1.730850 0.000000 0.001860 
#    y 0.000000 1.614590 0.000000 
#    z 0.001860 0.000000 1.713470 
# 
# From -- ./inp_files/45771.got.cif
#   From: 2010.06.25/outbox.cif.g09.slc.cpg/sg13_23_cif.got.tgz:45771.got - 2010.06.28 04:50:58.
