data_PCOD8116894
_publ_section_title
;
Structure prediction by ZEFSAII (Michael W. Deem and Ramdas Pophale) SiO2 
 PCOD8116894
Probable space group: P 2/C
;
_chemical_formula_sum "Si O2"
_cell_formula_units_Z 26
_cell_length_a 12.964946
_cell_length_b 15.479620
_cell_length_c 8.986883
_cell_angle_alpha 90.000000
_cell_angle_beta 46.477047
_cell_angle_gamma 90.000000
_cell_volume 1307.787356
_symmetry_space_group_name_H-M "P 2/C"
_symmetry_group_IT_number 13
_symmetry_cell_setting 'monoclinic'
loop_
_space_group_symop_operation_xyz
x,y,z
-x,y,1/2-z
-x,-y,-z
x,-y,1/2+z
loop_
_atom_site_type_symbol
_atom_site_label
_atom_site_fract_x
_atom_site_fract_y
_atom_site_fract_z
Si Si1 0.000000 0.496855 0.750000
Si Si2 0.668408 0.790396 0.955613
Si Si3 0.372028 0.266844 0.674813
Si Si4 0.980216 0.217013 0.093919
Si Si5 0.781067 0.105699 0.749974
Si Si6 0.862052 0.389458 0.633300
Si Si7 0.344378 0.975036 0.417855
O O1 0.103157 0.440092 0.750559
O O2 0.105865 0.553717 0.544348
O O3 0.813351 0.780991 0.718789
O O4 0.690031 0.753460 0.099562
O O5 0.543544 0.734953 0.999629
O O6 0.628811 0.891429 0.003176
O O7 0.312492 0.191722 0.626905
O O8 0.304946 0.360104 0.696824
O O9 0.000000 0.207623 0.250000
O O10 0.055451 0.134496 0.940998
O O11 0.042168 0.304539 0.967053
O O12 0.720025 0.052084 0.673560
O O13 0.768391 0.043062 0.903673
O O14 0.500000 0.019358 0.250000
#
# Coordination Sequence:
#
# PCOD8116894 Si02
#       7
#     2   4   4   4   4   4   4
#     4  10  20  34  64  96 114 148 184 238 300 350
#     4  10  17  31  56  82 109 156 207 232 292 342
#     4   9  17  33  56  81 108 156 196 236 278 363
#     4  11  18  36  58  82 110 158 196 243 284 361
#     4  10  21  33  55  76 111 152 205 242 298 342
#     4  10  19  36  62  88 117 147 191 231 292 350
#     4  11  19  33  53  81 111 153 201 259 290 345
#
# _framework density 19.880908999999999
#
# number of rings (size 3 to 8) (size 9 to 14) (size 15 to 20)
#    0.000    1.846    8.462    0.462    0.000    0.615 
#    0.000    3.077    0.000   16.615    0.000    0.000 
#    0.000    0.000    0.000    0.000    0.000    0.000 
#
# Total GULP energy -322292.605763 kJ/mol
# GULP energy per Si atom -12395.869452 kJ/mol
# Density = 1.983566 g / cm^3
# Si number density = 19.880909 Si / 1000 Ang^3
#
#
#
# Elastic Constant Matrix: (Units=GPa)
#
#
# Indices 1 2 3 4 5 6 
#
# 1 66.9979 38.4710 44.8330 0.0000 -20.9386 0.0000
# 2 38.4710 96.5976 42.5186 0.0000 0.4243 0.0000
# 3 44.8330 42.5186 87.9061 0.0000 -26.7701 0.0000
# 4 0.0000 0.0000 0.0000 25.2980 0.0000 -10.6550
# 5 -20.9386 0.4243 -26.7701 0.0000 38.9837 0.0000
# 6 0.0000 0.0000 0.0000 -10.6550 0.0000 21.4188
#
#
#
# Elastic Compliance Matrix: (Units=1/GPa)
#
#
# Indices 1 2 3 4 5 6 
#
# 1 0.027214 -0.007729 -0.007162 0.000000 0.009783 0.000000
# 2 -0.007729 0.016434 -0.006734 0.000000 -0.008954 0.000000
# 3 -0.007162 -0.006734 0.021667 0.000000 0.011105 0.000000
# 4 0.000000 0.000000 0.000000 0.050006 0.000000 0.024876
# 5 0.009783 -0.008954 0.011105 0.000000 0.038630 0.000000
# 6 0.000000 0.000000 0.000000 0.024876 0.000000 0.059063
#
#
# Mechanical properties :
#
#
# Convention : Reuss Voigt Hill
#
# Bulk Modulus (GPa) = 45.31842 55.90518 50.61180
# Shear Modulus (GPa) = 18.96692 25.51871 22.24282
#
# Velocity S-wave (km/s) = 3.09208 3.58659 3.34848
# Velocity P-wave (km/s) = 5.96594 6.73295 6.36101
#
# Compressibility (1/GPa) = 0.02206608
#
# Stress axis : x y z
#
# Youngs Moduli (GPa) = 36.74628 60.85130 46.15265
#
# Poissons Ratio (x) = 0.47030 0.33053
# Poissons Ratio (y) = 0.28400 0.31077
# Poissons Ratio (z) = 0.26317 0.40975
#
# Static dielectric constant tensor:
#      x y z
#    x 3.490230 0.000000 -0.267710 
#    y 0.000000 3.685290 0.000000 
#    z -0.267710 0.000000 3.576670 
# 
# 
# High freq. dielectric constant tensor:
#      x y z
#    x 1.760180 0.000000 -0.018050 
#    y 0.000000 1.763570 0.000000 
#    z -0.018050 0.000000 1.757900 
# 
# From -- ./inp_files/19833.got.cif
#   From: 2010.06.25/outbox.cif.g09.slc.cpg/sg13_10_cif.got.tgz:19833.got - 2010.06.28 04:50:58.
