data_PCOD8116311
_publ_section_title
;
Structure prediction by ZEFSAII (Michael W. Deem and Ramdas Pophale) SiO2 
 PCOD8116311
Probable space group: C 2/M
;
_chemical_formula_sum "Si O2"
_cell_formula_units_Z 32
_cell_length_a 21.000000
_cell_length_b 18.000000
_cell_length_c 27.000000
_cell_angle_alpha 90.000000
_cell_angle_beta 20.000000
_cell_angle_gamma 90.000000
_cell_volume 3490.657583
_symmetry_space_group_name_H-M "C 2/M"
_symmetry_group_IT_number 12
_symmetry_cell_setting 'monoclinic'
loop_
_space_group_symop_operation_xyz
x,y,z
-x,y,-z
-x,-y,-z
x,-y,z
1/2+x,1/2+y,z
1/2-x,1/2+y,-z
1/2-x,1/2-y,-z
1/2+x,1/2-y,z
loop_
_atom_site_type_symbol
_atom_site_label
_atom_site_fract_x
_atom_site_fract_y
_atom_site_fract_z
Si Si1 0.819691 0.686450 0.014100
Si Si2 0.085610 0.779090 0.885103
Si Si3 0.603208 0.165493 0.151985
Si Si4 0.008163 0.720441 0.551096
Si Si5 0.282555 0.690494 0.519806
Si Si6 0.268470 0.584731 0.367923
Si Si7 0.985229 0.913020 0.716316
Si Si8 0.040227 0.085363 0.079449
O O1 0.668906 0.750737 0.114774
O O2 0.713885 0.622381 0.122620
O O3 0.905845 0.653505 0.900545
O O4 0.998513 0.719742 0.911096
O O5 0.307698 0.773882 0.723193
O O6 0.034634 0.864012 0.910080
O O7 0.000000 0.757867 0.000000
O O8 0.410260 0.152148 0.322100
O O9 0.744053 0.103681 0.069577
O O10 0.000000 0.747656 0.500000
O O11 0.143123 0.771915 0.484419
O O12 0.087275 0.636269 0.494536
O O13 0.250000 0.750000 0.500000
O O14 0.428776 0.627974 0.394623
O O15 0.200293 0.500000 0.411456
O O16 0.363743 0.597631 0.350958
O O17 0.422892 0.605591 0.214223
O O18 0.952014 0.000000 0.728780
O O19 0.018319 0.000000 0.080010
#
# Coordination Sequence:
#
# PCOD8116311 Si02
#       8
#     8   8   8   8   8   8   8   8
#     4  10  19  37  58  85 113 155 203 252 291 343
#     4  11  24  36  56  83 120 160 201 240 289 353
#     4  10  20  33  61  86 115 156 202 247 294 345
#     4  12  23  39  60  89 122 166 208 239 295 368
#     4  12  23  38  61  91 126 159 198 258 310 348
#     4  10  20  36  59  90 125 163 202 240 292 367
#     4  11  22  39  64  92 122 155 200 254 314 362
#     4  10  21  37  57  86 125 161 196 240 290 357
#
# _framework density 9.1673270000000002
#
# number of rings (size 3 to 8) (size 9 to 14) (size 15 to 20)
#    0.000    1.250    5.000    1.500    3.500    1.500 
#    0.000    1.250    0.000    3.750    0.000    0.000 
#    0.000    0.000    0.000    0.000    0.000    0.000 
#
# Total GULP energy -396877.411202 kJ/mol
# GULP energy per Si atom -12402.419100 kJ/mol
# Density = 0.914646 g / cm^3
# Si number density = 9.167327 Si / 1000 Ang^3
#
#
#
# Elastic Constant Matrix: (Units=GPa)
#
#
# Indices 1 2 3 4 5 6 
#
# 1 67.2843 12.6209 16.2387 -0.0356 1.8083 0.0324
# 2 12.6209 81.9019 28.1237 -0.1159 -2.0603 0.1708
# 3 16.2387 28.1237 140.5520 -0.2368 7.1106 0.0702
# 4 -0.0356 -0.1159 -0.2368 32.0477 0.0386 5.1727
# 5 1.8083 -2.0603 7.1106 0.0386 31.8674 0.0458
# 6 0.0324 0.1708 0.0702 5.1727 0.0458 17.9534
#
#
#
# Elastic Compliance Matrix: (Units=1/GPa)
#
#
# Indices 1 2 3 4 5 6 
#
# 1 0.015578 -0.001946 -0.001375 0.000001 -0.000703 -0.000003
# 2 -0.001946 0.013421 -0.002539 0.000047 0.001545 -0.000132
# 3 -0.001375 -0.002539 0.007875 0.000052 -0.001843 -0.000014
# 4 0.000001 0.000047 0.000052 0.032726 -0.000035 -0.009430
# 5 -0.000703 0.001545 -0.001843 -0.000035 0.031931 -0.000078
# 6 -0.000003 -0.000132 -0.000014 -0.009430 -0.000078 0.058418
#
#
# Mechanical properties :
#
#
# Convention : Reuss Voigt Hill
#
# Bulk Modulus (GPa) = 39.75428 44.85610 42.30519
# Shear Modulus (GPa) = 27.76964 31.89069 29.83016
#
# Velocity S-wave (km/s) = 3.89601 4.17510 4.03796
# Velocity P-wave (km/s) = 6.47828 6.91088 6.69807
#
# Compressibility (1/GPa) = 0.02515453
#
# Stress axis : x y z
#
# Youngs Moduli (GPa) = 64.19281 74.51277 126.98513
#
# Poissons Ratio (x) = 0.14501 0.17458
# Poissons Ratio (y) = 0.12493 0.32235
# Poissons Ratio (z) = 0.08825 0.18915
#
# Static dielectric constant tensor:
#      x y z
#    x 3.397130 0.000090 0.118050 
#    y 0.000090 3.343810 0.000580 
#    z 0.118050 0.000580 3.486680 
# 
# 
# High freq. dielectric constant tensor:
#      x y z
#    x 1.708740 0.000000 0.010440 
#    y 0.000000 1.699270 0.000040 
#    z 0.010440 0.000040 1.726500 
# 
# From -- ./inp_files/112798.got.cif
#   From: 2010.06.25/outbox.ucp.g09.slc.cvg/sg12_57_cif.got.tgz:112798.got - 2010.06.28 13:50:54.
