data_PCOD8116757
_publ_section_title
;
Structure prediction by ZEFSAII (Michael W. Deem and Ramdas Pophale) SiO2 
 PCOD8116757
Probable space group: P 2/C
;
_chemical_formula_sum "Si O2"
_cell_formula_units_Z 26
_cell_length_a 14.828984
_cell_length_b 8.958651
_cell_length_c 21.602600
_cell_angle_alpha 90.000000
_cell_angle_beta 150.253124
_cell_angle_gamma 90.000000
_cell_volume 1423.933837
_symmetry_space_group_name_H-M "P 2/C"
_symmetry_group_IT_number 13
_symmetry_cell_setting 'monoclinic'
loop_
_space_group_symop_operation_xyz
x,y,z
-x,y,1/2-z
-x,-y,-z
x,-y,1/2+z
loop_
_atom_site_type_symbol
_atom_site_label
_atom_site_fract_x
_atom_site_fract_y
_atom_site_fract_z
Si Si1 0.492838 0.239735 0.507730
Si Si2 0.591962 0.113397 0.370165
Si Si3 0.164693 0.661625 0.894269
Si Si4 0.668014 0.992664 0.683358
Si Si5 0.000000 0.114617 0.750000
Si Si6 0.706621 0.656253 0.030636
Si Si7 0.947585 0.064060 0.100238
O O1 0.354781 0.304631 0.475301
O O2 0.652057 0.156921 0.642297
O O3 0.570369 0.370280 0.507993
O O4 0.386522 0.125836 0.400898
O O5 0.500000 0.139051 0.250000
O O6 0.610491 0.277160 0.412317
O O7 0.470824 0.008471 0.341781
O O8 0.787027 0.034676 0.475877
O O9 0.180863 0.488339 0.924129
O O10 0.126757 0.767805 0.931096
O O11 0.000000 0.680738 0.750000
O O12 0.868216 0.948540 0.831207
O O13 0.171576 0.212974 0.868639
O O14 0.964622 0.003502 0.785166
#
# Coordination Sequence:
#
# PCOD8116757 Si02
#       7
#     4   4   4   4   2   4   4
#     4  10  18  32  52  87 117 140 171 225 288 342
#     4  10  23  40  56  76 108 157 200 227 265 323
#     4  12  20  31  53  90 118 139 171 224 295 346
#     4  10  18  32  58  85 112 140 184 233 278 328
#     4  10  16  30  50  82 106 140 168 216 278 334
#     4  10  21  33  53  79 116 145 176 221 281 336
#     4  11  19  33  58  81 113 142 181 237 278 320
#
# _framework density 18.259276
#
# number of rings (size 3 to 8) (size 9 to 14) (size 15 to 20)
#    0.000    1.538    6.154    0.462    0.000    0.615 
#    0.000    0.769    0.000    0.923    0.000    0.000 
#    0.000    0.000    0.000    0.000    0.000    0.000 
#
# Total GULP energy -322166.049982 kJ/mol
# GULP energy per Si atom -12391.001922 kJ/mol
# Density = 1.821772 g / cm^3
# Si number density = 18.259276 Si / 1000 Ang^3
#
#
#
# Elastic Constant Matrix: (Units=GPa)
#
#
# Indices 1 2 3 4 5 6 
#
# 1 35.0638 10.4353 26.7083 0.0000 9.6683 0.0000
# 2 10.4353 74.5178 15.5777 0.0000 1.2338 0.0000
# 3 26.7083 15.5777 78.5268 0.0000 5.7158 0.0000
# 4 0.0000 0.0000 0.0000 13.8161 0.0000 9.7114
# 5 9.6683 1.2338 5.7158 0.0000 35.5401 0.0000
# 6 0.0000 0.0000 0.0000 9.7114 0.0000 19.7410
#
#
#
# Elastic Compliance Matrix: (Units=1/GPa)
#
#
# Indices 1 2 3 4 5 6 
#
# 1 0.041815 -0.002994 -0.012959 0.000000 -0.009187 0.000000
# 2 -0.002994 0.014215 -0.001846 0.000000 0.000618 0.000000
# 3 -0.012959 -0.001846 0.017451 0.000000 0.000783 0.000000
# 4 0.000000 0.000000 0.000000 0.110636 0.000000 -0.054427
# 5 -0.009187 0.000618 0.000783 0.000000 0.030489 0.000000
# 6 0.000000 0.000000 0.000000 -0.054427 0.000000 0.077431
#
#
# Mechanical properties :
#
#
# Convention : Reuss Voigt Hill
#
# Bulk Modulus (GPa) = 26.39842 32.61676 29.50759
# Shear Modulus (GPa) = 14.69444 22.84525 18.76985
#
# Velocity S-wave (km/s) = 2.83992 3.54101 3.20966
# Velocity P-wave (km/s) = 5.02418 5.88390 5.47095
#
# Compressibility (1/GPa) = 0.03788105
#
# Stress axis : x y z
#
# Youngs Moduli (GPa) = 23.91484 70.34975 57.30184
#
# Poissons Ratio (x) = 0.21066 0.74259
# Poissons Ratio (y) = 0.07161 0.10580
# Poissons Ratio (z) = 0.30992 0.12989
#
# Static dielectric constant tensor:
#      x y z
#    x 3.396430 0.000000 0.312150 
#    y 0.000000 3.365880 0.000000 
#    z 0.312150 0.000000 3.398940 
# 
# 
# High freq. dielectric constant tensor:
#      x y z
#    x 1.692740 0.000000 0.035990 
#    y 0.000000 1.697290 0.000000 
#    z 0.035990 0.000000 1.693580 
# 
# From -- ./inp_files/49729.got.cif
#   From: 2010.06.25/outbox.cif.g09.slc.cpg/sg13_25_cif.got.tgz:49729.got - 2010.06.28 04:50:58.
