data_PCOD8116465
_publ_section_title
;
Structure prediction by ZEFSAII (Michael W. Deem and Ramdas Pophale) SiO2 
 PCOD8116465
Probable space group: C 2/M
;
_chemical_formula_sum "Si O2"
_cell_formula_units_Z 32
_cell_length_a 12.000000
_cell_length_b 30.000000
_cell_length_c 18.000000
_cell_angle_alpha 90.000000
_cell_angle_beta 30.000000
_cell_angle_gamma 90.000000
_cell_volume 3240.000000
_symmetry_space_group_name_H-M "C 2/M"
_symmetry_group_IT_number 12
_symmetry_cell_setting 'monoclinic'
loop_
_space_group_symop_operation_xyz
x,y,z
-x,y,-z
-x,-y,-z
x,-y,z
1/2+x,1/2+y,z
1/2-x,1/2+y,-z
1/2-x,1/2-y,-z
1/2+x,1/2-y,z
loop_
_atom_site_type_symbol
_atom_site_label
_atom_site_fract_x
_atom_site_fract_y
_atom_site_fract_z
Si Si1 0.155379 0.115472 0.090266
Si Si2 0.289493 0.448885 0.069704
Si Si3 0.526040 0.625341 0.650743
Si Si4 0.371221 0.844907 0.213925
Si Si5 0.854531 0.161204 0.152157
Si Si6 0.729155 0.216224 0.447360
Si Si7 0.270809 0.743356 0.271063
Si Si8 0.558868 0.884646 0.669437
O O1 0.074965 0.102146 0.218328
O O2 0.953326 0.142935 0.171534
O O3 0.182824 0.070259 0.028677
O O4 0.384223 0.144283 0.960351
O O5 0.243513 0.500000 0.086178
O O6 0.070255 0.428627 0.232689
O O7 0.500000 0.438613 0.000000
O O8 0.319994 0.625979 0.713209
O O9 0.653781 0.671109 0.594138
O O10 0.724005 0.596762 0.498894
O O11 0.294182 0.794872 0.238205
O O12 0.368409 0.853778 0.303241
O O13 0.887913 0.214764 0.138166
O O14 0.598794 0.146173 0.290987
O O15 0.000000 0.142335 0.000000
O O16 0.750000 0.250000 0.500000
O O17 0.872520 0.234657 0.294272
O O18 0.465842 0.217943 0.583959
#
# Coordination Sequence:
#
# PCOD8116465 Si02
#       8
#     8   8   8   8   8   8   8   8
#     4  11  23  42  61  91 126 157 207 255 322 373
#     4  10  20  42  74  99 123 155 196 248 316 396
#     4  12  23  38  61  87 125 172 208 257 313 365
#     4  11  24  40  58  83 124 176 222 251 300 366
#     4  12  21  39  58  84 119 165 208 261 312 358
#     4  11  21  36  53  79 117 160 214 269 307 349
#     4  11  24  34  55  83 117 163 223 269 303 344
#     4  11  22  40  65  91 123 161 205 256 312 375
#
# _framework density 9.8765429999999999
#
# number of rings (size 3 to 8) (size 9 to 14) (size 15 to 20)
#    0.000    0.875    7.500    1.500    1.750    2.000 
#    0.000    0.625    0.000   13.500    0.000    0.000 
#    0.000    0.000    0.000    0.000    0.000    0.000 
#
# Total GULP energy -396420.818858 kJ/mol
# GULP energy per Si atom -12388.150589 kJ/mol
# Density = 0.985406 g / cm^3
# Si number density = 9.876543 Si / 1000 Ang^3
#
#
#
# Elastic Constant Matrix: (Units=GPa)
#
#
# Indices 1 2 3 4 5 6 
#
# 1 97.9113 38.4411 70.6767 -0.0015 -23.9953 -0.0005
# 2 38.4411 94.5789 39.4484 0.0007 2.0749 -0.0012
# 3 70.6767 39.4484 125.6599 -0.0013 7.8719 -0.0038
# 4 -0.0015 0.0007 -0.0013 10.1131 -0.0001 -2.6109
# 5 -23.9953 2.0749 7.8719 -0.0001 23.0949 0.0016
# 6 -0.0005 -0.0012 -0.0038 -2.6109 0.0016 19.4802
#
#
#
# Elastic Compliance Matrix: (Units=1/GPa)
#
#
# Indices 1 2 3 4 5 6 
#
# 1 0.051556 -0.009883 -0.029945 0.000003 0.064661 -0.000010
# 2 -0.009883 0.014062 0.001907 -0.000002 -0.012182 0.000002
# 3 -0.029945 0.001907 0.026732 0.000000 -0.040396 0.000008
# 4 0.000003 -0.000002 0.000000 0.102425 0.000002 0.013728
# 5 0.064661 -0.012182 -0.040396 0.000002 0.125345 -0.000017
# 6 -0.000010 0.000002 0.000008 0.013728 -0.000017 0.053174
#
#
# Mechanical properties :
#
#
# Convention : Reuss Voigt Hill
#
# Bulk Modulus (GPa) = 60.57687 68.36474 64.47081
# Shear Modulus (GPa) = 10.99773 21.84324 16.42049
#
# Velocity S-wave (km/s) = 2.36214 3.32899 2.88633
# Velocity P-wave (km/s) = 6.17845 7.03285 6.61945
#
# Compressibility (1/GPa) = 0.01650795
#
# Stress axis : x y z
#
# Youngs Moduli (GPa) = 19.39638 71.11463 37.40773
#
# Poissons Ratio (x) = 0.70284 1.12019
# Poissons Ratio (y) = 0.19170 -0.07135
# Poissons Ratio (z) = 0.58083 -0.13565
#
# Static dielectric constant tensor:
#      x y z
#    x 3.608370 -0.000010 -0.155700 
#    y -0.000010 3.089700 -0.000010 
#    z -0.155700 -0.000010 3.588680 
# 
# 
# High freq. dielectric constant tensor:
#      x y z
#    x 1.783290 0.000000 -0.003690 
#    y 0.000000 1.723960 0.000000 
#    z -0.003690 0.000000 1.771010 
# 
# From -- ./inp_files/266275.got.cif
#   From: 2010.06.25/outbox.ucp.g09.slc.cvg/sg12_134_cif.got.tgz:266275.got - 2010.06.28 13:50:54.
