data_PCOD8116001
_publ_section_title
;
Structure prediction by ZEFSAII (Michael W. Deem and Ramdas Pophale) SiO2 
 PCOD8116001
Probable space group: C 2/M
;
_chemical_formula_sum "Si O2"
_cell_formula_units_Z 56
_cell_length_a 23.151192
_cell_length_b 9.226004
_cell_length_c 21.786652
_cell_angle_alpha 90.000000
_cell_angle_beta 131.187991
_cell_angle_gamma 90.000000
_cell_volume 3501.987206
_symmetry_space_group_name_H-M "C 2/M"
_symmetry_group_IT_number 12
_symmetry_cell_setting 'monoclinic'
loop_
_space_group_symop_operation_xyz
x,y,z
-x,y,-z
-x,-y,-z
x,-y,z
1/2+x,1/2+y,z
1/2-x,1/2+y,-z
1/2-x,1/2-y,-z
1/2+x,1/2-y,z
loop_
_atom_site_type_symbol
_atom_site_label
_atom_site_fract_x
_atom_site_fract_y
_atom_site_fract_z
Si Si1 0.013600 0.166791 0.757115
Si Si2 0.646704 0.665929 0.930164
Si Si3 0.261062 0.166459 0.104981
Si Si4 0.584753 0.672515 0.572487
Si Si5 0.865956 0.828301 0.259575
Si Si6 0.799526 0.168594 0.449909
Si Si7 0.846508 0.168998 0.620331
O O1 0.055477 0.188200 0.852850
O O2 0.067945 0.228398 0.740735
O O3 0.928886 0.237104 0.698242
O O4 0.999476 0.000000 0.731071
O O5 0.668226 0.500000 0.924848
O O6 0.689551 0.783292 0.918738
O O7 0.671821 0.687445 0.019414
O O8 0.284086 0.260001 0.180898
O O9 0.278489 0.000000 0.132419
O O10 0.500000 0.735715 0.500000
O O11 0.581409 0.500000 0.569161
O O12 0.613838 0.728749 0.658717
O O13 0.642772 0.729919 0.561179
O O14 0.857105 0.000000 0.251553
O O15 0.837922 0.200186 0.542203
O O16 0.718691 0.249896 0.386607
O O17 0.783343 0.000000 0.428722
O O18 0.838819 0.000000 0.630252
#
# Coordination Sequence:
#
# PCOD8116001 Si02
#       7
#     8   8   8   8   8   8   8
#     4   8  13  23  40  60  79 102 134 165 193 231
#     4   8  14  24  38  56  79 107 137 168 199 234
#     4   9  15  23  36  56  83 110 133 161 201 246
#     4   9  16  27  45  65  81 103 139 175 200 230
#     4   9  16  26  41  60  82 108 137 168 201 238
#     4   9  17  28  42  61  82 103 131 166 200 234
#     4   9  16  27  43  60  80 106 132 161 199 240
#
# _framework density 15.990921
#
# number of rings (size 3 to 8) (size 9 to 14) (size 15 to 20)
#    0.000    3.286    0.000    2.143    0.000    4.000 
#    0.000    3.571    0.000    5.143    0.000    1.000 
#    0.000    8.000    0.000    0.000    0.000    0.000 
#
# Total GULP energy -346872.494342 kJ/mol
# GULP energy per Si atom -12388.303369 kJ/mol
# Density = 1.595452 g / cm^3
# Si number density = 15.990921 Si / 1000 Ang^3
#
#
#
# Elastic Constant Matrix: (Units=GPa)
#
#
# Indices 1 2 3 4 5 6 
#
# 1 94.2148 21.3931 65.0011 0.0000 12.0347 0.0000
# 2 21.3931 31.2907 32.9533 0.0000 4.7450 0.0000
# 3 65.0011 32.9533 153.4274 0.0000 15.7490 0.0000
# 4 0.0000 0.0000 0.0000 21.9169 0.0000 2.2340
# 5 12.0347 4.7450 15.7490 0.0000 22.7312 0.0000
# 6 0.0000 0.0000 0.0000 2.2340 0.0000 15.7257
#
#
#
# Elastic Compliance Matrix: (Units=1/GPa)
#
#
# Indices 1 2 3 4 5 6 
#
# 1 0.015815 -0.004645 -0.005321 0.000000 -0.003717 0.000000
# 2 -0.004645 0.042815 -0.007065 0.000000 -0.001583 0.000000
# 3 -0.005321 -0.007065 0.010603 0.000000 -0.003054 0.000000
# 4 0.000000 0.000000 0.000000 0.046297 0.000000 -0.006577
# 5 -0.003717 -0.001583 -0.003054 0.000000 0.048407 0.000000
# 6 0.000000 0.000000 0.000000 -0.006577 0.000000 0.064524
#
#
# Mechanical properties :
#
#
# Convention : Reuss Voigt Hill
#
# Bulk Modulus (GPa) = 28.43343 57.51420 42.97381
# Shear Modulus (GPa) = 18.23176 22.71379 20.47277
#
# Velocity S-wave (km/s) = 3.38025 3.77293 3.58197
# Velocity P-wave (km/s) = 5.74929 7.41788 6.63623
#
# Compressibility (1/GPa) = 0.03516987
#
# Stress axis : x y z
#
# Youngs Moduli (GPa) = 63.23308 23.35633 94.31309
#
# Poissons Ratio (x) = 0.10849 0.50182
# Poissons Ratio (y) = 0.29372 0.66636
# Poissons Ratio (z) = 0.33645 0.16502
#
# Static dielectric constant tensor:
#      x y z
#    x 2.815190 0.000000 0.211410 
#    y 0.000000 2.806070 0.000000 
#    z 0.211410 0.000000 3.512650 
# 
# 
# High freq. dielectric constant tensor:
#      x y z
#    x 1.564690 0.000000 0.017260 
#    y 0.000000 1.587550 0.000000 
#    z 0.017260 0.000000 1.632470 
# 
# From -- ./inp_files/323798.got.cif
#   From: 2010.06.25/outbox.cif.g09.slc.cpg/sg12_162_cif.got.tgz:323798.got - 2010.06.28 00:19:55.
