data_PCOD8116909
_publ_section_title
;
Structure prediction by ZEFSAII (Michael W. Deem and Ramdas Pophale) SiO2 
 PCOD8116909
Probable space group: P 2/C
;
_chemical_formula_sum "Si O2"
_cell_formula_units_Z 24
_cell_length_a 12.531246
_cell_length_b 15.948639
_cell_length_c 18.751606
_cell_angle_alpha 90.000000
_cell_angle_beta 163.066189
_cell_angle_gamma 90.000000
_cell_volume 1091.559200
_symmetry_space_group_name_H-M "P 2/C"
_symmetry_group_IT_number 13
_symmetry_cell_setting 'monoclinic'
loop_
_space_group_symop_operation_xyz
x,y,z
-x,y,1/2-z
-x,-y,-z
x,-y,1/2+z
loop_
_atom_site_type_symbol
_atom_site_label
_atom_site_fract_x
_atom_site_fract_y
_atom_site_fract_z
Si Si1 0.182185 0.198145 0.258633
Si Si2 0.760848 0.500120 0.032062
Si Si3 0.122647 0.088767 0.550067
Si Si4 0.078428 0.643964 0.966935
Si Si5 0.074878 0.600653 0.117111
Si Si6 0.412143 0.784334 0.344789
O O1 0.514483 0.184535 0.526687
O O2 0.217317 0.282442 0.234165
O O3 0.172722 0.120614 0.197391
O O4 0.799335 0.215744 0.053344
O O5 0.931387 0.415887 0.107239
O O6 0.000000 0.534224 0.250000
O O7 0.753452 0.573992 0.966943
O O8 0.370800 0.474168 0.814803
O O9 0.500000 0.079144 0.750000
O O10 0.145120 0.152140 0.631855
O O11 0.000000 0.000000 0.500000
O O12 0.500000 0.676801 0.250000
O O13 0.936445 0.596651 0.947003
O O14 0.232640 0.692892 0.234525
#
# Coordination Sequence:
#
# PCOD8116909 Si02
#       6
#     4   4   4   4   4   4
#     4  10  17  33  61  88 112 151 205 238 278 348
#     4  11  22  34  53  82 117 157 200 255 293 342
#     4  10  21  39  65  92 120 147 190 244 297 359
#     4  10  17  32  54  80 112 152 201 246 286 338
#     4  11  21  36  56  80 120 155 206 247 294 343
#     4  10  19  34  62  88 112 161 204 237 281 361
#
# _framework density 21.986896000000002
#
# number of rings (size 3 to 8) (size 9 to 14) (size 15 to 20)
#    0.000    1.667    5.000    2.500    0.000    0.667 
#    0.000    0.000    7.333    0.000    0.000    0.000 
#    0.000    0.000    0.000    0.000    0.000    0.000 
#
# Total GULP energy -297414.894014 kJ/mol
# GULP energy per Si atom -12392.287251 kJ/mol
# Density = 2.193685 g / cm^3
# Si number density = 21.986896 Si / 1000 Ang^3
#
#
#
# Elastic Constant Matrix: (Units=GPa)
#
#
# Indices 1 2 3 4 5 6 
#
# 1 76.4718 29.6894 36.3667 0.0000 -25.8462 0.0000
# 2 29.6894 106.8704 26.7401 0.0000 -1.3642 0.0000
# 3 36.3667 26.7401 47.4060 0.0000 -19.7556 0.0000
# 4 0.0000 0.0000 0.0000 19.3079 0.0000 -5.6842
# 5 -25.8462 -1.3642 -19.7556 0.0000 35.6428 0.0000
# 6 0.0000 0.0000 0.0000 -5.6842 0.0000 29.7087
#
#
#
# Elastic Compliance Matrix: (Units=1/GPa)
#
#
# Indices 1 2 3 4 5 6 
#
# 1 0.023533 -0.003462 -0.011760 0.000000 0.010414 0.000000
# 2 -0.003462 0.011835 -0.006342 0.000000 -0.005573 0.000000
# 3 -0.011760 -0.006342 0.039061 0.000000 0.012879 0.000000
# 4 0.000000 0.000000 0.000000 0.054884 0.000000 0.010501
# 5 0.010414 -0.005573 0.012879 0.000000 0.042533 0.000000
# 6 0.000000 0.000000 0.000000 0.010501 0.000000 0.035669
#
#
# Mechanical properties :
#
#
# Convention : Reuss Voigt Hill
#
# Bulk Modulus (GPa) = 31.94918 46.26007 39.10462
# Shear Modulus (GPa) = 19.15142 26.12869 22.64005
#
# Velocity S-wave (km/s) = 2.95454 3.45102 3.21239
# Velocity P-wave (km/s) = 5.11875 6.07988 5.61990
#
# Compressibility (1/GPa) = 0.03129971
#
# Stress axis : x y z
#
# Youngs Moduli (GPa) = 42.49264 84.49784 25.60128
#
# Poissons Ratio (x) = 0.29255 0.30108
# Poissons Ratio (y) = 0.14712 0.16236
# Poissons Ratio (z) = 0.49973 0.53587
#
# Static dielectric constant tensor:
#      x y z
#    x 4.251930 0.000000 -0.438170 
#    y 0.000000 3.818770 0.000000 
#    z -0.438170 0.000000 3.872970 
# 
# 
# High freq. dielectric constant tensor:
#      x y z
#    x 1.869850 0.000000 -0.030780 
#    y 0.000000 1.850160 0.000000 
#    z -0.030780 0.000000 1.837350 
# 
# From -- ./inp_files/66995.got.cif
#   From: 2010.06.25/outbox.cif.g09.slc.cpg/sg13_34_cif.got.tgz:66995.got - 2010.06.28 04:50:58.
