data_PCOD8116811
_publ_section_title
;
Structure prediction by ZEFSAII (Michael W. Deem and Ramdas Pophale) SiO2 
 PCOD8116811
Probable space group: P 2/C
;
_chemical_formula_sum "Si O2"
_cell_formula_units_Z 30
_cell_length_a 11.213319
_cell_length_b 23.781859
_cell_length_c 8.779025
_cell_angle_alpha 90.000000
_cell_angle_beta 140.287706
_cell_angle_gamma 90.000000
_cell_volume 1495.827489
_symmetry_space_group_name_H-M "P 2/C"
_symmetry_group_IT_number 13
_symmetry_cell_setting 'monoclinic'
loop_
_space_group_symop_operation_xyz
x,y,z
-x,y,1/2-z
-x,-y,-z
x,-y,1/2+z
loop_
_atom_site_type_symbol
_atom_site_label
_atom_site_fract_x
_atom_site_fract_y
_atom_site_fract_z
Si Si1 0.229566 0.449276 0.324196
Si Si2 0.039503 0.940123 0.611816
Si Si3 0.000000 0.766053 0.250000
Si Si4 0.191189 0.433852 0.632242
Si Si5 0.493337 0.365914 0.062146
Si Si6 0.351958 0.869482 0.802258
Si Si7 0.231611 0.135461 0.848674
Si Si8 0.354699 0.747109 0.742383
O O1 0.273387 0.445797 0.545907
O O2 0.240855 0.514243 0.290110
O O3 0.378918 0.414920 0.376602
O O4 0.028605 0.423143 0.088188
O O5 0.250810 0.914801 0.811611
O O6 0.000000 0.942967 0.750000
O O7 0.910535 0.899324 0.389750
O O8 0.000000 0.000000 0.500000
O O9 0.132507 0.803738 0.268683
O O10 0.150967 0.726011 0.482281
O O11 0.285443 0.377981 0.795915
O O12 0.500000 0.365260 0.250000
O O13 0.558949 0.303650 0.072000
O O14 0.276834 0.887921 0.561548
O O15 0.303698 0.803487 0.786866
O O16 0.573288 0.869255 0.048876
O O17 0.500000 0.765115 0.750000
#
# Coordination Sequence:
#
# PCOD8116811 Si02
#       8
#     4   4   2   4   4   4   4   4
#     4  10  21  39  62  85 116 163 203 252 320 368
#     4  12  25  40  63  94 131 163 203 253 309 368
#     4  10  16  34  66  90 114 156 208 252 304 360
#     4  10  21  39  62  84 119 159 205 256 310 378
#     4  11  23  34  56  90 126 152 204 251 303 359
#     4  10  19  39  66  91 121 158 210 248 308 360
#     4  10  18  36  68  90 118 158 201 254 299 362
#     4  10  19  34  60  94 115 159 204 254 299 363
#
# _framework density 20.055789999999998
#
# number of rings (size 3 to 8) (size 9 to 14) (size 15 to 20)
#    0.000    1.600    5.333    2.400    0.000    4.800 
#    0.000    0.000    8.800    0.000    0.000    0.000 
#    0.000    0.000    0.000    0.000    0.000    0.000 
#
# Total GULP energy -371685.118693 kJ/mol
# GULP energy per Si atom -12389.503956 kJ/mol
# Density = 2.001014 g / cm^3
# Si number density = 20.055790 Si / 1000 Ang^3
#
#
#
# Elastic Constant Matrix: (Units=GPa)
#
#
# Indices 1 2 3 4 5 6 
#
# 1 77.0248 17.8135 35.5036 0.0000 13.6221 0.0000
# 2 17.8135 86.0707 42.0982 0.0000 6.3676 0.0000
# 3 35.5036 42.0982 85.5874 0.0000 13.5063 0.0000
# 4 0.0000 0.0000 0.0000 22.6456 0.0000 13.2743
# 5 13.6221 6.3676 13.5063 0.0000 37.7600 0.0000
# 6 0.0000 0.0000 0.0000 13.2743 0.0000 19.8942
#
#
#
# Elastic Compliance Matrix: (Units=1/GPa)
#
#
# Indices 1 2 3 4 5 6 
#
# 1 0.016532 -0.000104 -0.006219 0.000000 -0.003722 0.000000
# 2 -0.000104 0.015300 -0.007505 0.000000 0.000142 0.000000
# 3 -0.006219 -0.007505 0.018443 0.000000 -0.003087 0.000000
# 4 0.000000 0.000000 0.000000 0.072524 0.000000 -0.048391
# 5 -0.003722 0.000142 -0.003087 0.000000 0.028906 0.000000
# 6 0.000000 0.000000 0.000000 -0.048391 0.000000 0.082555
#
#
# Mechanical properties :
#
#
# Convention : Reuss Voigt Hill
#
# Bulk Modulus (GPa) = 44.21288 48.83483 46.52385
# Shear Modulus (GPa) = 18.55594 26.27779 22.41686
#
# Velocity S-wave (km/s) = 3.04504 3.62364 3.34687
# Velocity P-wave (km/s) = 5.86991 6.47380 6.17923
#
# Compressibility (1/GPa) = 0.02261784
#
# Stress axis : x y z
#
# Youngs Moduli (GPa) = 60.48940 65.35874 54.22258
#
# Poissons Ratio (x) = 0.00682 0.33722
# Poissons Ratio (y) = 0.00631 0.40693
# Poissons Ratio (z) = 0.37619 0.49051
#
# Static dielectric constant tensor:
#      x y z
#    x 3.879660 0.000000 0.100540 
#    y 0.000000 3.998960 0.000000 
#    z 0.100540 0.000000 3.714110 
# 
# 
# High freq. dielectric constant tensor:
#      x y z
#    x 1.770060 0.000000 0.030730 
#    y 0.000000 1.771620 0.000000 
#    z 0.030730 0.000000 1.788310 
# 
# From -- ./inp_files/17348.got.cif
#   From: 2010.06.25/outbox.cif.g09.slc.cpg/sg13_9_cif.got.tgz:17348.got - 2010.06.28 04:50:58.
