data_PCOD8116161
_publ_section_title
;
Structure prediction by ZEFSAII (Michael W. Deem and Ramdas Pophale) SiO2 
 PCOD8116161
Probable space group: C 2/M
;
_chemical_formula_sum "Si O2"
_cell_formula_units_Z 40
_cell_length_a 9.274609
_cell_length_b 22.164043
_cell_length_c 13.861533
_cell_angle_alpha 90.000000
_cell_angle_beta 51.537178
_cell_angle_gamma 90.000000
_cell_volume 2231.126708
_symmetry_space_group_name_H-M "C 2/M"
_symmetry_group_IT_number 12
_symmetry_cell_setting 'monoclinic'
loop_
_space_group_symop_operation_xyz
x,y,z
-x,y,-z
-x,-y,-z
x,-y,z
1/2+x,1/2+y,z
1/2-x,1/2+y,-z
1/2-x,1/2-y,-z
1/2+x,1/2-y,z
loop_
_atom_site_type_symbol
_atom_site_label
_atom_site_fract_x
_atom_site_fract_y
_atom_site_fract_z
Si Si1 0.474844 0.862984 0.620708
Si Si2 0.158029 0.930979 0.504824
Si Si3 0.897650 0.821195 0.905979
Si Si4 0.893385 0.068405 0.251662
Si Si5 0.736556 0.779268 0.161300
O O1 0.500000 0.841427 0.500000
O O2 0.658634 0.892309 0.586672
O O3 0.310476 0.911650 0.695567
O O4 0.430122 0.805144 0.705146
O O5 0.083213 0.925435 0.643990
O O6 0.000000 0.905700 0.500000
O O7 0.206111 0.000000 0.459346
O O8 0.804789 0.789892 0.851314
O O9 0.951195 0.890160 0.862478
O O10 0.077318 0.780661 0.854067
O O11 0.760589 0.820080 0.054465
O O12 0.925452 0.000000 0.203638
#
# Coordination Sequence:
#
# PCOD8116161 Si02
#       5
#     8   8   8   8   8
#     4   9  17  31  49  71  96 124 158 195 238 282
#     4   9  17  29  46  69  97 128 159 193 237 285
#     4   9  18  33  51  71  95 127 161 194 236 280
#     4   9  17  31  50  71  97 126 158 196 236 280
#     4   9  18  33  50  70  96 125 160 195 234 284
#
# _framework density 17.928160999999999
#
# number of rings (size 3 to 8) (size 9 to 14) (size 15 to 20)
#    0.000    3.000    0.000    0.600    0.000    4.000 
#    0.000   19.000    0.000    0.000    0.000   15.400 
#    0.000    0.000    0.000    0.000    0.000    0.000 
#
# Total GULP energy -247979.584564 kJ/mol
# GULP energy per Si atom -12398.979228 kJ/mol
# Density = 1.788736 g / cm^3
# Si number density = 17.928161 Si / 1000 Ang^3
#
#
#
# Elastic Constant Matrix: (Units=GPa)
#
#
# Indices 1 2 3 4 5 6 
#
# 1 84.3855 23.2417 19.1810 0.0000 0.0029 0.0000
# 2 23.2417 88.3938 47.9033 0.0000 0.0590 0.0000
# 3 19.1810 47.9033 91.3155 0.0000 -5.3063 0.0000
# 4 0.0000 0.0000 0.0000 28.3643 0.0000 -0.9280
# 5 0.0029 0.0590 -5.3063 0.0000 15.4001 0.0000
# 6 0.0000 0.0000 0.0000 -0.9280 0.0000 23.2412
#
#
#
# Elastic Compliance Matrix: (Units=1/GPa)
#
#
# Indices 1 2 3 4 5 6 
#
# 1 0.012888 -0.002665 -0.001336 0.000000 -0.000452 0.000000
# 2 -0.002665 0.016493 -0.008261 0.000000 -0.002909 0.000000
# 3 -0.001336 -0.008261 0.015885 0.000000 0.005505 0.000000
# 4 0.000000 0.000000 0.000000 0.035302 0.000000 0.001410
# 5 -0.000452 -0.002909 0.005505 0.000000 0.066843 0.000000
# 6 0.000000 0.000000 0.000000 0.001410 0.000000 0.043083
#
#
# Mechanical properties :
#
#
# Convention : Reuss Voigt Hill
#
# Bulk Modulus (GPa) = 48.20917 49.41632 48.81275
# Shear Modulus (GPa) = 22.52956 24.98570 23.75763
#
# Velocity S-wave (km/s) = 3.54878 3.73722 3.64422
# Velocity P-wave (km/s) = 6.61365 6.80043 6.70769
#
# Compressibility (1/GPa) = 0.02074294
#
# Stress axis : x y z
#
# Youngs Moduli (GPa) = 77.59245 60.63347 62.95141
#
# Poissons Ratio (x) = 0.16156 0.08408
# Poissons Ratio (y) = 0.20675 0.52005
# Poissons Ratio (z) = 0.10363 0.50091
#
# Static dielectric constant tensor:
#      x y z
#    x 3.331990 0.000000 0.035890 
#    y 0.000000 3.158520 0.000000 
#    z 0.035890 0.000000 3.300900 
# 
# 
# High freq. dielectric constant tensor:
#      x y z
#    x 1.692780 0.000000 0.003450 
#    y 0.000000 1.673360 0.000000 
#    z 0.003450 0.000000 1.687710 
# 
# From -- ./inp_files/120168.got.cif
#   From: 2010.06.25/outbox.cif.g09.slc.cpg/sg12_61_cif.got.tgz:120168.got - 2010.06.28 00:19:55.
