data_PCOD8116973
_publ_section_title
;
Structure prediction by ZEFSAII (Michael W. Deem and Ramdas Pophale) SiO2 
 PCOD8116973
Probable space group: P 2/C
;
_chemical_formula_sum "Si O2"
_cell_formula_units_Z 28
_cell_length_a 10.085139
_cell_length_b 13.641478
_cell_length_c 14.453012
_cell_angle_alpha 90.000000
_cell_angle_beta 45.191741
_cell_angle_gamma 90.000000
_cell_volume 1410.701731
_symmetry_space_group_name_H-M "P 2/C"
_symmetry_group_IT_number 13
_symmetry_cell_setting 'monoclinic'
loop_
_space_group_symop_operation_xyz
x,y,z
-x,y,1/2-z
-x,-y,-z
x,-y,1/2+z
loop_
_atom_site_type_symbol
_atom_site_label
_atom_site_fract_x
_atom_site_fract_y
_atom_site_fract_z
Si Si1 0.284388 0.526401 0.844713
Si Si2 0.235887 0.973004 0.053262
Si Si3 0.996293 0.422554 0.858715
Si Si4 0.696470 0.255032 0.200491
Si Si5 0.660437 0.080582 0.329331
Si Si6 0.015321 0.798767 0.092627
Si Si7 0.292023 0.922585 0.342799
O O1 0.500000 0.492150 0.750000
O O2 0.276275 0.630084 0.795484
O O3 0.179556 0.451867 0.827759
O O4 0.184780 0.536228 0.995229
O O5 0.444017 0.931018 0.960007
O O6 0.201554 0.046856 0.984874
O O7 0.097782 0.880302 0.121508
O O8 0.200650 0.038937 0.161068
O O9 0.997251 0.305091 0.849869
O O10 0.000000 0.462695 0.750000
O O11 0.500000 0.232455 0.250000
O O12 0.702343 0.196324 0.294538
O O13 0.857050 0.210683 0.059148
O O14 0.707356 0.024195 0.212399
O O15 0.814940 0.835201 0.155709
O O16 0.500000 0.880085 0.250000
#
# Coordination Sequence:
#
# PCOD8116973 Si02
#       7
#     4   4   4   4   4   4   4
#     4   9  21  42  68  91 119 162 209 258 321 377
#     4  10  20  33  53  82 116 154 196 243 287 351
#     4  10  23  41  63  95 126 154 205 269 313 377
#     4  10  17  36  61  83 111 155 201 244 294 363
#     4  10  19  33  54  80 117 147 196 244 283 350
#     4  11  21  35  58  81 115 159 198 234 306 364
#     4  10  21  37  49  75 117 155 194 244 286 346
#
# _framework density 19.848277
#
# number of rings (size 3 to 8) (size 9 to 14) (size 15 to 20)
#    0.000    2.000    2.857    0.857    2.000    1.143 
#    0.000    4.286    0.000    0.000    0.000    0.000 
#    0.000    0.000    0.000    0.000    0.000    0.000 
#
# Total GULP energy -347110.217298 kJ/mol
# GULP energy per Si atom -12396.793475 kJ/mol
# Density = 1.980310 g / cm^3
# Si number density = 19.848277 Si / 1000 Ang^3
#
#
#
# Elastic Constant Matrix: (Units=GPa)
#
#
# Indices 1 2 3 4 5 6 
#
# 1 116.9698 47.0752 52.8408 0.0000 2.0371 0.0000
# 2 47.0752 72.8197 34.6604 0.0000 3.8304 0.0000
# 3 52.8408 34.6604 71.6826 0.0000 0.4344 0.0000
# 4 0.0000 0.0000 0.0000 140.0096 0.0000 -76.2829
# 5 2.0371 3.8304 0.4344 0.0000 36.9904 0.0000
# 6 0.0000 0.0000 0.0000 -76.2829 0.0000 80.5187
#
#
#
# Elastic Compliance Matrix: (Units=1/GPa)
#
#
# Indices 1 2 3 4 5 6 
#
# 1 0.014337 -0.005497 -0.007910 0.000000 -0.000127 0.000000
# 2 -0.005497 0.020059 -0.005637 0.000000 -0.001708 0.000000
# 3 -0.007910 -0.005637 0.022502 0.000000 0.000755 0.000000
# 4 0.000000 0.000000 0.000000 0.014762 0.000000 0.013986
# 5 -0.000127 -0.001708 0.000755 0.000000 0.027209 0.000000
# 6 0.000000 0.000000 0.000000 0.013986 0.000000 0.025670
#
#
# Mechanical properties :
#
#
# Convention : Reuss Voigt Hill
#
# Bulk Modulus (GPa) = 53.15982 58.95831 56.05906
# Shear Modulus (GPa) = 29.60411 59.96345 44.78378
#
# Velocity S-wave (km/s) = 3.86621 5.50241 4.75521
# Velocity P-wave (km/s) = 6.83896 8.37482 7.64555
#
# Compressibility (1/GPa) = 0.01881120
#
# Stress axis : x y z
#
# Youngs Moduli (GPa) = 69.75034 49.85369 44.44033
#
# Poissons Ratio (x) = 0.27403 0.35152
# Poissons Ratio (y) = 0.38339 0.25050
# Poissons Ratio (z) = 0.55172 0.28101
#
# Static dielectric constant tensor:
#      x y z
#    x 3.615720 0.000000 -0.037180 
#    y 0.000000 3.537990 0.000000 
#    z -0.037180 0.000000 3.366570 
# 
# 
# High freq. dielectric constant tensor:
#      x y z
#    x 1.766460 0.000000 -0.007480 
#    y 0.000000 1.759370 0.000000 
#    z -0.007480 0.000000 1.780280 
# 
# From -- ./inp_files/47626.got.cif
#   From: 2010.06.25/outbox.cif.g09.slc.cpg/sg13_24_cif.got.tgz:47626.got - 2010.06.28 04:50:58.
