data_PCOD8116516
_publ_section_title
;
Structure prediction by ZEFSAII (Michael W. Deem and Ramdas Pophale) SiO2 
 PCOD8116516
Probable space group: C 2/M
;
_chemical_formula_sum "Si O2"
_cell_formula_units_Z 32
_cell_length_a 24.000000
_cell_length_b 9.000000
_cell_length_c 30.000000
_cell_angle_alpha 90.000000
_cell_angle_beta 30.000000
_cell_angle_gamma 90.000000
_cell_volume 3240.000000
_symmetry_space_group_name_H-M "C 2/M"
_symmetry_group_IT_number 12
_symmetry_cell_setting 'monoclinic'
loop_
_space_group_symop_operation_xyz
x,y,z
-x,y,-z
-x,-y,-z
x,-y,z
1/2+x,1/2+y,z
1/2-x,1/2+y,-z
1/2-x,1/2-y,-z
1/2+x,1/2-y,z
loop_
_atom_site_type_symbol
_atom_site_label
_atom_site_fract_x
_atom_site_fract_y
_atom_site_fract_z
Si Si1 0.460445 0.674101 0.414385
Si Si2 0.046009 0.322425 0.268305
Si Si3 0.532251 0.174684 0.777721
Si Si4 0.713811 0.821616 0.894488
Si Si5 0.858168 0.170460 0.143997
Si Si6 0.289586 0.327654 0.607416
Si Si7 0.361290 0.172573 0.646705
Si Si8 0.557917 0.323098 0.071215
O O1 0.481047 0.500000 0.390627
O O2 0.463502 0.761332 0.364683
O O3 0.342813 0.700349 0.521447
O O4 0.550215 0.732735 0.387356
O O5 0.056572 0.500000 0.266464
O O6 0.163124 0.243944 0.196520
O O7 0.005307 0.280011 0.246532
O O8 0.660954 0.220528 0.693396
O O9 0.462633 0.260344 0.864469
O O10 0.513823 0.000000 0.797838
O O11 0.643569 0.770314 0.899529
O O12 0.715808 0.000000 0.895479
O O13 0.665434 0.754819 0.974294
O O14 0.752089 0.194711 0.248199
O O15 0.958975 0.219123 0.106021
O O16 0.870201 0.000000 0.119923
O O17 0.301349 0.500000 0.612626
O O18 0.350330 0.231953 0.603692
O O19 0.396672 0.000000 0.620056
O O20 0.575993 0.500000 0.062500
#
# Coordination Sequence:
#
# PCOD8116516 Si02
#       8
#     8   8   8   8   8   8   8   8
#     4  11  23  39  61  91 124 162 201 246 303 359
#     4  11  24  43  64  87 118 159 205 255 303 351
#     4  10  23  43  65  88 118 158 205 253 301 355
#     4  12  25  40  63  93 123 160 201 244 300 361
#     4  10  21  38  61  91 126 160 195 242 300 357
#     4  10  22  40  62  90 126 160 198 249 303 358
#     4  11  21  36  61  92 125 161 199 243 299 360
#     4  11  23  41  65  92 124 159 197 246 301 357
#
# _framework density 9.8765429999999999
#
# number of rings (size 3 to 8) (size 9 to 14) (size 15 to 20)
#    0.000    1.250    2.500    3.375    0.000    7.500 
#    0.000    0.000    0.000    0.000    0.000    0.000 
#    0.000    0.000    0.000    0.000    0.000    0.000 
#
# Total GULP energy -396822.855185 kJ/mol
# GULP energy per Si atom -12400.714225 kJ/mol
# Density = 0.985406 g / cm^3
# Si number density = 9.876543 Si / 1000 Ang^3
#
#
#
# Elastic Constant Matrix: (Units=GPa)
#
#
# Indices 1 2 3 4 5 6 
#
# 1 128.9356 46.1360 28.7161 0.0175 35.4326 -0.0374
# 2 46.1360 128.2486 38.6141 0.0074 20.9070 -0.0248
# 3 28.7161 38.6141 103.6493 -0.0008 35.2656 -0.0104
# 4 0.0175 0.0074 -0.0008 36.6974 -0.0044 11.8690
# 5 35.4326 20.9070 35.2656 -0.0044 42.8189 0.0146
# 6 -0.0374 -0.0248 -0.0104 11.8690 0.0146 39.0050
#
#
#
# Elastic Compliance Matrix: (Units=1/GPa)
#
#
# Indices 1 2 3 4 5 6 
#
# 1 0.010856 -0.002810 0.000874 -0.000010 -0.008331 0.000015
# 2 -0.002810 0.009664 -0.002789 -0.000002 -0.000096 0.000003
# 3 0.000874 -0.002789 0.014209 -0.000003 -0.011064 0.000008
# 4 -0.000010 -0.000002 -0.000003 0.030225 0.000019 -0.009197
# 5 -0.008331 -0.000096 -0.011064 0.000019 0.039407 -0.000031
# 6 0.000015 0.000003 0.000008 -0.009197 -0.000031 0.028436
#
#
# Mechanical properties :
#
#
# Convention : Reuss Voigt Hill
#
# Bulk Modulus (GPa) = 39.55977 65.30731 52.43354
# Shear Modulus (GPa) = 33.18408 40.19539 36.68974
#
# Velocity S-wave (km/s) = 4.10316 4.51587 4.31445
# Velocity P-wave (km/s) = 6.52062 7.76688 7.17087
#
# Compressibility (1/GPa) = 0.02527821
#
# Stress axis : x y z
#
# Youngs Moduli (GPa) = 92.11281 103.47998 70.37658
#
# Poissons Ratio (x) = 0.29082 -0.06149
# Poissons Ratio (y) = 0.25887 0.19627
# Poissons Ratio (z) = -0.08049 0.28860
#
# Static dielectric constant tensor:
#      x y z
#    x 3.790020 -0.000020 0.207060 
#    y -0.000020 3.770080 0.000020 
#    z 0.207060 0.000020 4.006110 
# 
# 
# High freq. dielectric constant tensor:
#      x y z
#    x 1.782980 0.000000 0.020650 
#    y 0.000000 1.785430 0.000000 
#    z 0.020650 0.000000 1.795250 
# 
# From -- ./inp_files/382341.got.cif
#   From: 2010.06.25/outbox.ucp.g09.slc.cvg/sg12_192_cif.got.tgz:382341.got - 2010.06.28 13:50:54.
