data_PCOD8116168
_publ_section_title
;
Structure prediction by ZEFSAII (Michael W. Deem and Ramdas Pophale) SiO2 
 PCOD8116168
Probable space group: C 2/M
;
_chemical_formula_sum "Si O2"
_cell_formula_units_Z 40
_cell_length_a 19.574558
_cell_length_b 7.594952
_cell_length_c 24.132543
_cell_angle_alpha 90.000000
_cell_angle_beta 142.704929
_cell_angle_gamma 90.000000
_cell_volume 2173.878912
_symmetry_space_group_name_H-M "C 2/M"
_symmetry_group_IT_number 12
_symmetry_cell_setting 'monoclinic'
loop_
_space_group_symop_operation_xyz
x,y,z
-x,y,-z
-x,-y,-z
x,-y,z
1/2+x,1/2+y,z
1/2-x,1/2+y,-z
1/2-x,1/2-y,-z
1/2+x,1/2-y,z
loop_
_atom_site_type_symbol
_atom_site_label
_atom_site_fract_x
_atom_site_fract_y
_atom_site_fract_z
Si Si1 0.821691 0.500000 0.404849
Si Si2 0.319223 0.795530 0.733390
Si Si3 0.570172 0.799812 0.894553
Si Si4 0.471111 0.000000 0.392893
Si Si5 0.228612 0.207306 0.903781
Si Si6 0.669889 0.701641 0.743337
O O1 0.747154 0.677793 0.354440
O O2 0.905903 0.500000 0.408124
O O3 0.894575 0.500000 0.508645
O O4 0.445769 0.716133 0.817506
O O5 0.266306 0.770262 0.759963
O O6 0.313785 0.000000 0.710820
O O7 0.618970 0.784673 0.863869
O O8 0.553116 0.000000 0.901095
O O9 0.657828 0.711512 0.994891
O O10 0.438178 0.175670 0.337733
O O11 0.224948 0.258643 0.837129
O O12 0.227579 0.000000 0.912423
O O13 0.627175 0.500000 0.716992
#
# Coordination Sequence:
#
# PCOD8116168 Si02
#       6
#     4   8   8   4   8   8
#     4   9  18  32  51  75  99 125 161 204 250 296
#     4   9  18  32  50  74 100 128 163 202 245 288
#     4   9  18  31  48  72  99 131 166 197 238 291
#     4   9  18  32  51  75  99 125 161 204 250 296
#     4   9  18  31  48  72  99 131 166 197 238 291
#     4   9  18  32  50  74 100 128 163 202 245 288
#
# _framework density 18.400289000000001
#
# number of rings (size 3 to 8) (size 9 to 14) (size 15 to 20)
#    0.000    3.000    0.000    0.000    2.800    1.600 
#    0.000    8.000    0.000    4.800    0.000    0.000 
#    0.000    0.000    0.000    0.000    0.000    0.000 
#
# Total GULP energy -247900.848455 kJ/mol
# GULP energy per Si atom -12395.042423 kJ/mol
# Density = 1.835841 g / cm^3
# Si number density = 18.400289 Si / 1000 Ang^3
#
#
#
# Elastic Constant Matrix: (Units=GPa)
#
#
# Indices 1 2 3 4 5 6 
#
# 1 58.6457 27.6000 61.1243 0.0002 11.9727 0.0004
# 2 27.6000 79.2384 60.9284 0.0005 5.2125 0.0011
# 3 61.1243 60.9284 157.5713 0.0000 20.1863 0.0000
# 4 0.0002 0.0005 0.0000 17.7087 0.0000 -1.3896
# 5 11.9727 5.2125 20.1863 0.0000 14.2502 0.0000
# 6 0.0004 0.0011 0.0000 -1.3896 0.0000 19.2209
#
#
#
# Elastic Compliance Matrix: (Units=1/GPa)
#
#
# Indices 1 2 3 4 5 6 
#
# 1 0.030275 -0.002684 -0.009252 0.000000 -0.011348 0.000000
# 2 -0.002684 0.018386 -0.006714 -0.000001 0.005040 -0.000001
# 3 -0.009252 -0.006714 0.013709 0.000000 -0.009190 0.000001
# 4 0.000000 -0.000001 0.000000 0.056792 0.000000 0.004106
# 5 -0.011348 0.005040 -0.009190 0.000000 0.090883 0.000000
# 6 0.000000 -0.000001 0.000001 0.004106 0.000000 0.052323
#
#
# Mechanical properties :
#
#
# Convention : Reuss Voigt Hill
#
# Bulk Modulus (GPa) = 39.89033 66.08454 52.98744
# Shear Modulus (GPa) = 16.23242 19.95613 18.09428
#
# Velocity S-wave (km/s) = 2.97338 3.29683 3.13927
# Velocity P-wave (km/s) = 5.78915 7.10528 6.48071
#
# Compressibility (1/GPa) = 0.02506873
#
# Stress axis : x y z
#
# Youngs Moduli (GPa) = 33.03052 54.38929 72.94584
#
# Poissons Ratio (x) = 0.14600 0.67492
# Poissons Ratio (y) = 0.08867 0.48974
# Poissons Ratio (z) = 0.30561 0.36516
#
# Static dielectric constant tensor:
#      x y z
#    x 3.138770 0.000000 0.076310 
#    y 0.000000 3.422520 0.000000 
#    z 0.076310 0.000000 3.701170 
# 
# 
# High freq. dielectric constant tensor:
#      x y z
#    x 1.683880 0.000000 0.004140 
#    y 0.000000 1.717270 0.000000 
#    z 0.004140 0.000000 1.707790 
# 
# From -- ./inp_files/120243.got.cif
#   From: 2010.06.25/outbox.cif.g09.slc.cpg/sg12_61_cif.got.tgz:120243.got - 2010.06.28 00:19:55.
