data_PCOD8116120
_publ_section_title
;
Structure prediction by ZEFSAII (Michael W. Deem and Ramdas Pophale) SiO2 
 PCOD8116120
Probable space group: C 2/M
;
_chemical_formula_sum "Si O2"
_cell_formula_units_Z 64
_cell_length_a 25.100631
_cell_length_b 9.669214
_cell_length_c 14.926693
_cell_angle_alpha 90.000000
_cell_angle_beta 67.783776
_cell_angle_gamma 90.000000
_cell_volume 3353.818013
_symmetry_space_group_name_H-M "C 2/M"
_symmetry_group_IT_number 12
_symmetry_cell_setting 'monoclinic'
loop_
_space_group_symop_operation_xyz
x,y,z
-x,y,-z
-x,-y,-z
x,-y,z
1/2+x,1/2+y,z
1/2-x,1/2+y,-z
1/2-x,1/2-y,-z
1/2+x,1/2-y,z
loop_
_atom_site_type_symbol
_atom_site_label
_atom_site_fract_x
_atom_site_fract_y
_atom_site_fract_z
Si Si1 0.992174 0.165519 0.605138
Si Si2 0.590255 0.664124 0.191375
Si Si3 0.286225 0.660089 0.840204
Si Si4 0.612258 0.341009 0.578958
Si Si5 0.201654 0.159013 0.660144
Si Si6 0.197188 0.155218 0.375590
Si Si7 0.679136 0.340528 0.881593
Si Si8 0.554437 0.664088 0.022287
O O1 0.048237 0.219474 0.623507
O O2 0.000000 0.227047 0.500000
O O3 0.938452 0.222865 0.698274
O O4 0.989732 0.000000 0.600348
O O5 0.589211 0.500000 0.198869
O O6 0.657751 0.708087 0.137638
O O7 0.553343 0.711217 0.127533
O O8 0.269968 0.500000 0.867827
O O9 0.308417 0.685534 0.725407
O O10 0.230067 0.752944 0.897723
O O11 0.608762 0.500000 0.608472
O O12 0.652946 0.272181 0.627934
O O13 0.635688 0.323452 0.462311
O O14 0.259509 0.241426 0.603273
O O15 0.182765 0.178222 0.773739
O O16 0.213607 0.000000 0.628125
O O17 0.219989 0.000000 0.377164
O O18 0.686968 0.500000 0.906702
O O19 0.615947 0.283148 0.946061
O O20 0.552096 0.500000 0.015195
O O21 0.500000 0.726090 0.000000
#
# Coordination Sequence:
#
# PCOD8116120 Si02
#       8
#     8   8   8   8   8   8   8   8
#     4   9  16  25  39  62  91 120 150 187 233 278
#     4   9  17  28  44  67  93 122 156 192 234 280
#     4   9  17  30  48  69  94 122 154 191 231 277
#     4   9  16  24  38  59  87 120 150 185 230 276
#     4   9  17  27  41  63  90 118 150 188 227 270
#     4   9  16  27  42  62  90 121 150 184 227 273
#     4   9  18  31  47  69  95 122 154 191 232 275
#     4   9  18  30  46  67  94 124 153 191 236 279
#
# _framework density 19.082729
#
# number of rings (size 3 to 8) (size 9 to 14) (size 15 to 20)
#    0.000    3.000    0.000    1.125    1.750    3.500 
#    0.000    0.000    0.000    0.375    0.000    1.750 
#    0.000    6.500    0.000    0.000    0.000    0.000 
#
# Total GULP energy -396449.067758 kJ/mol
# GULP energy per Si atom -12389.033367 kJ/mol
# Density = 1.903930 g / cm^3
# Si number density = 19.082729 Si / 1000 Ang^3
#
#
#
# Elastic Constant Matrix: (Units=GPa)
#
#
# Indices 1 2 3 4 5 6 
#
# 1 146.2299 28.8806 44.1482 0.0000 -7.0679 0.0000
# 2 28.8806 28.4222 13.8684 0.0000 -5.8539 0.0000
# 3 44.1482 13.8684 64.8298 0.0000 -8.4418 0.0000
# 4 0.0000 0.0000 0.0000 10.8993 0.0000 -3.6565
# 5 -7.0679 -5.8539 -8.4418 0.0000 32.1785 0.0000
# 6 0.0000 0.0000 0.0000 -3.6565 0.0000 15.8904
#
#
#
# Elastic Compliance Matrix: (Units=1/GPa)
#
#
# Indices 1 2 3 4 5 6 
#
# 1 0.009879 -0.007635 -0.005169 0.000000 -0.000575 0.000000
# 2 -0.007635 0.046015 -0.003906 0.000000 0.005669 0.000000
# 3 -0.005169 -0.003906 0.020232 0.000000 0.003462 0.000000
# 4 0.000000 0.000000 0.000000 0.099424 0.000000 0.022878
# 5 -0.000575 0.005669 0.003462 0.000000 0.032890 0.000000
# 6 0.000000 0.000000 0.000000 0.022878 0.000000 0.068195
#
#
# Mechanical properties :
#
#
# Convention : Reuss Voigt Hill
#
# Bulk Modulus (GPa) = 23.41612 45.91960 34.66786
# Shear Modulus (GPa) = 15.41825 21.96597 18.69211
#
# Velocity S-wave (km/s) = 2.84556 3.39645 3.13314
# Velocity P-wave (km/s) = 4.80560 6.28465 5.59422
#
# Compressibility (1/GPa) = 0.04270562
#
# Stress axis : x y z
#
# Youngs Moduli (GPa) = 101.22186 21.73192 49.42765
#
# Poissons Ratio (x) = 0.16592 0.25551
# Poissons Ratio (y) = 0.77280 0.19307
# Poissons Ratio (z) = 0.52325 0.08489
#
# Static dielectric constant tensor:
#      x y z
#    x 3.892390 0.000000 0.033100 
#    y 0.000000 2.964910 0.000000 
#    z 0.033100 0.000000 3.573550 
# 
# 
# High freq. dielectric constant tensor:
#      x y z
#    x 1.755890 0.000000 0.003050 
#    y 0.000000 1.660710 0.000000 
#    z 0.003050 0.000000 1.750640 
# 
# From -- ./inp_files/232435.got.cif
#   From: 2010.06.25/outbox.cif.g09.slc.cpg/sg12_117_cif.got.tgz:232435.got - 2010.06.28 00:19:55.
