data_PCOD8116189
_publ_section_title
;
Structure prediction by ZEFSAII (Michael W. Deem and Ramdas Pophale) SiO2 
 PCOD8116189
Probable space group: C 2/M
;
_chemical_formula_sum "Si O2"
_cell_formula_units_Z 32
_cell_length_a 18.000000
_cell_length_b 9.000000
_cell_length_c 30.000000
_cell_angle_alpha 90.000000
_cell_angle_beta 40.000000
_cell_angle_gamma 90.000000
_cell_volume 3123.947783
_symmetry_space_group_name_H-M "C 2/M"
_symmetry_group_IT_number 12
_symmetry_cell_setting 'monoclinic'
loop_
_space_group_symop_operation_xyz
x,y,z
-x,y,-z
-x,-y,-z
x,-y,z
1/2+x,1/2+y,z
1/2-x,1/2+y,-z
1/2-x,1/2-y,-z
1/2+x,1/2-y,z
loop_
_atom_site_type_symbol
_atom_site_label
_atom_site_fract_x
_atom_site_fract_y
_atom_site_fract_z
Si Si1 0.864369 0.334608 0.569156
Si Si2 0.296749 0.326426 0.888235
Si Si3 0.996045 0.324367 0.179016
Si Si4 0.390797 0.169656 0.962830
Si Si5 0.096616 0.827223 0.362146
Si Si6 0.167717 0.825915 0.503316
Si Si7 0.208057 0.172526 0.765487
Si Si8 0.127959 0.667995 0.885993
O O1 0.811184 0.500000 0.598507
O O2 0.840602 0.236038 0.622949
O O3 0.803594 0.249342 0.556744
O O4 0.000000 0.346032 0.500000
O O5 0.326307 0.500000 0.877933
O O6 0.415780 0.236680 0.823659
O O7 0.203214 0.293694 0.893751
O O8 0.230254 0.263069 0.963243
O O9 0.980958 0.500000 0.189055
O O10 0.058698 0.260292 0.105544
O O11 0.870077 0.249087 0.237748
O O12 0.489232 0.180560 0.956763
O O13 0.364313 0.000000 0.964139
O O14 0.162890 0.742600 0.292331
O O15 0.961969 0.790458 0.421698
O O16 0.120180 0.000000 0.348676
O O17 0.250000 0.750000 0.500000
O O18 0.191476 0.000000 0.488819
O O19 0.157350 0.207088 0.836605
O O20 0.214767 0.000000 0.752481
O O21 0.155640 0.500000 0.855630
#
# Coordination Sequence:
#
# PCOD8116189 Si02
#       8
#     8   8   8   8   8   8   8   8
#     4   9  17  31  53  81 111 141 174 210 248 295
#     4  10  18  30  51  77 103 131 168 213 262 316
#     4  10  20  34  51  72 102 135 169 213 263 312
#     4   8  15  29  50  74  99 132 170 208 257 317
#     4  10  20  36  58  81 106 139 177 214 255 305
#     4  10  20  34  55  84 117 147 174 211 259 305
#     4  11  22  37  56  75  98 133 178 220 258 307
#     4   9  18  33  52  74 103 137 170 210 261 315
#
# _framework density 10.243449
#
# number of rings (size 3 to 8) (size 9 to 14) (size 15 to 20)
#    0.000    2.375    0.000    4.125    0.000    5.000 
#    0.000    3.750    0.000    8.250    0.000    0.000 
#    0.000    0.000    0.000    0.000    0.000    0.000 
#
# Total GULP energy -396429.056354 kJ/mol
# GULP energy per Si atom -12388.408011 kJ/mol
# Density = 1.022013 g / cm^3
# Si number density = 10.243449 Si / 1000 Ang^3
#
#
#
# Elastic Constant Matrix: (Units=GPa)
#
#
# Indices 1 2 3 4 5 6 
#
# 1 64.3459 45.2842 11.8303 0.0005 -11.3230 0.0042
# 2 45.2842 102.2152 33.2264 0.0006 -20.3746 0.0028
# 3 11.8303 33.2264 44.2071 0.0002 -12.8803 0.0006
# 4 0.0005 0.0006 0.0002 23.3063 0.0000 -2.1821
# 5 -11.3230 -20.3746 -12.8803 0.0000 11.1563 0.0007
# 6 0.0042 0.0028 0.0006 -2.1821 0.0007 30.3390
#
#
#
# Elastic Compliance Matrix: (Units=1/GPa)
#
#
# Indices 1 2 3 4 5 6 
#
# 1 0.023433 -0.009486 0.004130 -0.000001 0.011227 -0.000003
# 2 -0.009486 0.020023 -0.007024 0.000000 0.018829 -0.000001
# 3 0.004130 -0.007024 0.036586 0.000000 0.033602 -0.000001
# 4 -0.000001 0.000000 0.000000 0.043198 -0.000002 0.003107
# 5 0.011227 0.018829 0.033602 -0.000002 0.174212 -0.000008
# 6 -0.000003 -0.000001 -0.000001 0.003107 -0.000008 0.033184
#
#
# Mechanical properties :
#
#
# Convention : Reuss Voigt Hill
#
# Bulk Modulus (GPa) = 18.08960 43.49445 30.79203
# Shear Modulus (GPa) = 13.37531 20.98882 17.18206
#
# Velocity S-wave (km/s) = 2.55791 3.20425 2.89915
# Velocity P-wave (km/s) = 4.19200 5.91322 5.12538
#
# Compressibility (1/GPa) = 0.05528039
#
# Stress axis : x y z
#
# Youngs Moduli (GPa) = 42.67413 49.94379 27.33310
#
# Poissons Ratio (x) = 0.47378 -0.11289
# Poissons Ratio (y) = 0.40482 0.19200
# Poissons Ratio (z) = -0.17625 0.35083
#
# Static dielectric constant tensor:
#      x y z
#    x 3.799580 0.000000 -0.128250 
#    y 0.000000 3.543370 0.000000 
#    z -0.128250 0.000000 3.885440 
# 
# 
# High freq. dielectric constant tensor:
#      x y z
#    x 1.791230 0.000000 -0.018390 
#    y 0.000000 1.788570 0.000000 
#    z -0.018390 0.000000 1.774440 
# 
# From -- ./inp_files/377998.got.cif
#   From: 2010.06.25/outbox.ucp.g09.slc.cvg/sg12_189_cif.got.tgz:377998.got - 2010.06.28 13:50:54.
