data_PCOD8116210
_publ_section_title
;
Structure prediction by ZEFSAII (Michael W. Deem and Ramdas Pophale) SiO2 
 PCOD8116210
Probable space group: C 2/M
;
_chemical_formula_sum "Si O2"
_cell_formula_units_Z 32
_cell_length_a 30.000000
_cell_length_b 9.000000
_cell_length_c 18.000000
_cell_angle_alpha 90.000000
_cell_angle_beta 40.000000
_cell_angle_gamma 90.000000
_cell_volume 3123.947783
_symmetry_space_group_name_H-M "C 2/M"
_symmetry_group_IT_number 12
_symmetry_cell_setting 'monoclinic'
loop_
_space_group_symop_operation_xyz
x,y,z
-x,y,-z
-x,-y,-z
x,-y,z
1/2+x,1/2+y,z
1/2-x,1/2+y,-z
1/2-x,1/2-y,-z
1/2+x,1/2-y,z
loop_
_atom_site_type_symbol
_atom_site_label
_atom_site_fract_x
_atom_site_fract_y
_atom_site_fract_z
Si Si1 0.049897 0.170169 0.006014
Si Si2 0.208161 0.676401 0.987380
Si Si3 0.828160 0.326056 0.221267
Si Si4 0.214660 0.826028 0.255230
Si Si5 0.962245 0.827809 0.253596
Si Si6 0.819329 0.174624 0.385552
Si Si7 0.420013 0.327479 0.793610
Si Si8 0.072717 0.823459 0.382826
O O1 0.115473 0.278012 0.911418
O O2 0.074670 0.000000 0.988212
O O3 0.000000 0.178810 0.000000
O O4 0.009019 0.240256 0.128112
O O5 0.211891 0.500000 0.989436
O O6 0.128917 0.730835 0.091006
O O7 0.250000 0.750000 0.000000
O O8 0.240310 0.738682 0.869982
O O9 0.836006 0.500000 0.231010
O O10 0.751456 0.292084 0.286393
O O11 0.838592 0.221789 0.278175
O O12 0.135653 0.763407 0.354330
O O13 0.209903 0.000000 0.247247
O O14 0.883243 0.767400 0.355555
O O15 0.999922 0.800291 0.284126
O O16 0.955436 0.000000 0.242031
O O17 0.750000 0.250000 0.500000
O O18 0.807933 0.000000 0.404891
O O19 0.400194 0.500000 0.827963
O O20 0.410787 0.272749 0.721676
O O21 0.000000 0.749961 0.500000
O O22 0.065888 0.000000 0.395701
#
# Coordination Sequence:
#
# PCOD8116210 Si02
#       8
#     8   8   8   8   8   8   8   8
#     4  10  18  34  57  80 111 148 181 226 285 340
#     4  11  20  34  56  83 116 150 182 228 284 338
#     4  11  22  36  57  85 115 150 189 233 286 341
#     4   9  19  34  52  80 115 144 181 232 279 327
#     4   9  19  35  58  84 111 145 185 233 285 341
#     4  11  23  42  61  83 115 151 193 239 285 335
#     4  10  19  34  57  84 108 140 187 229 277 340
#     4   9  17  31  53  78 104 138 182 231 272 315
#
# _framework density 10.243449
#
# number of rings (size 3 to 8) (size 9 to 14) (size 15 to 20)
#    0.000    2.000    2.500    1.875    0.000    1.250 
#    0.000    6.875    0.000    0.375    0.000    0.000 
#    0.000    0.000    0.000    0.000    0.000    0.000 
#
# Total GULP energy -396640.170936 kJ/mol
# GULP energy per Si atom -12395.005342 kJ/mol
# Density = 1.022013 g / cm^3
# Si number density = 10.243449 Si / 1000 Ang^3
#
#
#
# Elastic Constant Matrix: (Units=GPa)
#
#
# Indices 1 2 3 4 5 6 
#
# 1 97.4701 22.8105 20.9718 0.0056 -33.6000 0.0018
# 2 22.8105 48.8406 18.5611 0.0138 -9.4085 -0.0031
# 3 20.9718 18.5611 77.0516 0.0072 -37.9185 -0.0027
# 4 0.0056 0.0138 0.0072 27.0204 -0.0028 -2.0701
# 5 -33.6000 -9.4085 -37.9185 -0.0028 31.4823 0.0005
# 6 0.0018 -0.0031 -0.0027 -2.0701 0.0005 18.5504
#
#
#
# Elastic Compliance Matrix: (Units=1/GPa)
#
#
# Indices 1 2 3 4 5 6 
#
# 1 0.023375 -0.009095 0.016618 0.000000 0.042246 -0.000002
# 2 -0.009095 0.026080 -0.011658 -0.000010 -0.015954 0.000003
# 3 0.016618 -0.011658 0.044877 -0.000002 0.068304 0.000001
# 4 0.000000 -0.000010 -0.000002 0.037328 -0.000003 0.004165
# 5 0.042246 -0.015954 0.068304 -0.000003 0.154352 -0.000001
# 6 -0.000002 0.000003 0.000001 0.004165 -0.000001 0.054372
#
#
# Mechanical properties :
#
#
# Convention : Reuss Voigt Hill
#
# Bulk Modulus (GPa) = 11.61941 38.67211 25.14576
# Shear Modulus (GPa) = 13.25061 26.14520 19.69790
#
# Velocity S-wave (km/s) = 2.54595 3.57626 3.10415
# Velocity P-wave (km/s) = 3.78503 5.99753 5.01482
#
# Compressibility (1/GPa) = 0.08606291
#
# Stress axis : x y z
#
# Youngs Moduli (GPa) = 42.78021 38.34423 22.28296
#
# Poissons Ratio (x) = 0.34873 -0.37031
# Poissons Ratio (y) = 0.38907 0.25978
# Poissons Ratio (z) = -0.71094 0.44703
#
# Static dielectric constant tensor:
#      x y z
#    x 3.942080 0.000020 -0.289960 
#    y 0.000020 3.357000 0.000020 
#    z -0.289960 0.000020 3.908240 
# 
# 
# High freq. dielectric constant tensor:
#      x y z
#    x 1.812510 0.000000 -0.015110 
#    y 0.000000 1.752050 0.000000 
#    z -0.015110 0.000000 1.792180 
# 
# From -- ./inp_files/295496.got.cif
#   From: 2010.06.25/outbox.ucp.g09.slc.cvg/sg12_148_cif.got.tgz:295496.got - 2010.06.28 13:50:54.
