data_PCOD8116764
_publ_section_title
;
Structure prediction by ZEFSAII (Michael W. Deem and Ramdas Pophale) SiO2 
 PCOD8116764
Probable space group: P 2/C
;
_chemical_formula_sum "Si O2"
_cell_formula_units_Z 28
_cell_length_a 13.013608
_cell_length_b 12.447699
_cell_length_c 14.552132
_cell_angle_alpha 90.000000
_cell_angle_beta 40.661650
_cell_angle_gamma 90.000000
_cell_volume 1535.989958
_symmetry_space_group_name_H-M "P 2/C"
_symmetry_group_IT_number 13
_symmetry_cell_setting 'monoclinic'
loop_
_space_group_symop_operation_xyz
x,y,z
-x,y,1/2-z
-x,-y,-z
x,-y,1/2+z
loop_
_atom_site_type_symbol
_atom_site_label
_atom_site_fract_x
_atom_site_fract_y
_atom_site_fract_z
Si Si1 0.185802 0.937973 0.955402
Si Si2 0.833278 0.121045 0.668900
Si Si3 0.179281 0.630408 0.130427
Si Si4 0.683599 0.146795 0.954833
Si Si5 0.149166 0.630833 0.350140
Si Si6 0.392243 0.765783 0.735074
Si Si7 0.784865 0.568579 0.586669
O O1 0.246900 0.847158 0.843456
O O2 0.214427 0.053179 0.888328
O O3 0.281022 0.939352 0.987897
O O4 0.001765 0.914956 0.094699
O O5 0.711556 0.097214 0.835054
O O6 0.824319 0.244988 0.643549
O O7 0.191546 0.758369 0.108878
O O8 0.237538 0.600727 0.193674
O O9 0.000000 0.593429 0.250000
O O10 0.271364 0.574118 0.982655
O O11 0.505904 0.197779 0.074203
O O12 0.229213 0.554601 0.371901
O O13 0.962719 0.611128 0.471967
O O14 0.500000 0.777850 0.750000
O O15 0.324785 0.644244 0.774372
#
# Coordination Sequence:
#
# PCOD8116764 Si02
#       7
#     4   4   4   4   4   4   4
#     4  10  18  31  53  73  99 130 175 208 241 295
#     4  10  19  32  51  74 102 132 169 209 252 291
#     4   9  15  28  49  72  94 126 171 201 236 287
#     4  10  18  31  52  75  98 128 171 211 244 292
#     4   9  18  29  51  77  96 130 163 210 249 295
#     4  10  18  30  51  78  95 130 167 209 244 290
#     4  10  16  30  52  72 104 124 167 207 250 292
#
# _framework density 18.229285999999998
#
# number of rings (size 3 to 8) (size 9 to 14) (size 15 to 20)
#    0.000    2.286    4.286    2.143    0.000    0.571 
#    0.000    2.857    3.143    6.000    0.000    0.000 
#    0.000    0.000    0.000    0.000    0.000    0.000 
#
# Total GULP energy -346923.640478 kJ/mol
# GULP energy per Si atom -12390.130017 kJ/mol
# Density = 1.818780 g / cm^3
# Si number density = 18.229286 Si / 1000 Ang^3
#
#
#
# Elastic Constant Matrix: (Units=GPa)
#
#
# Indices 1 2 3 4 5 6 
#
# 1 35.7608 33.5879 26.9621 0.0000 15.4047 0.0000
# 2 33.5879 111.7939 47.4926 0.0000 23.2798 0.0000
# 3 26.9621 47.4926 121.0990 0.0000 10.1034 0.0000
# 4 0.0000 0.0000 0.0000 23.9854 0.0000 5.6370
# 5 15.4047 23.2798 10.1034 0.0000 25.6982 0.0000
# 6 0.0000 0.0000 0.0000 5.6370 0.0000 27.5605
#
#
#
# Elastic Compliance Matrix: (Units=1/GPa)
#
#
# Indices 1 2 3 4 5 6 
#
# 1 0.048304 -0.007905 -0.006034 0.000000 -0.019422 0.000000
# 2 -0.007905 0.014089 -0.003201 0.000000 -0.006766 0.000000
# 3 -0.006034 -0.003201 0.010663 0.000000 0.002325 0.000000
# 4 0.000000 0.000000 0.000000 0.043797 0.000000 -0.008958
# 5 -0.019422 -0.006766 0.002325 0.000000 0.055771 0.000000
# 6 0.000000 0.000000 0.000000 -0.008958 0.000000 0.038116
#
#
# Mechanical properties :
#
#
# Convention : Reuss Voigt Hill
#
# Bulk Modulus (GPa) = 25.78929 53.85988 39.82459
# Shear Modulus (GPa) = 19.38401 26.15624 22.77013
#
# Velocity S-wave (km/s) = 3.26443 3.79205 3.53809
# Velocity P-wave (km/s) = 5.32791 6.98447 6.21166
#
# Compressibility (1/GPa) = 0.03877579
#
# Stress axis : x y z
#
# Youngs Moduli (GPa) = 20.70217 70.97890 93.78625
#
# Poissons Ratio (x) = 0.56107 0.56592
# Poissons Ratio (y) = 0.16365 0.30020
# Poissons Ratio (z) = 0.12492 0.22719
#
# Static dielectric constant tensor:
#      x y z
#    x 3.040150 0.000000 0.028760 
#    y 0.000000 3.256820 0.000000 
#    z 0.028760 0.000000 4.046240 
# 
# 
# High freq. dielectric constant tensor:
#      x y z
#    x 1.659410 0.000000 0.000600 
#    y 0.000000 1.686160 0.000000 
#    z 0.000600 0.000000 1.722130 
# 
# From -- ./inp_files/53516.got.cif
#   From: 2010.06.25/outbox.cif.g09.slc.cpg/sg13_27_cif.got.tgz:53516.got - 2010.06.28 04:50:58.
