data_PCOD8116538
_publ_section_title
;
Structure prediction by ZEFSAII (Michael W. Deem and Ramdas Pophale) SiO2 
 PCOD8116538
Probable space group: C 2/M
;
_chemical_formula_sum "Si O2"
_cell_formula_units_Z 32
_cell_length_a 24.000000
_cell_length_b 9.000000
_cell_length_c 30.000000
_cell_angle_alpha 90.000000
_cell_angle_beta 30.000000
_cell_angle_gamma 90.000000
_cell_volume 3240.000000
_symmetry_space_group_name_H-M "C 2/M"
_symmetry_group_IT_number 12
_symmetry_cell_setting 'monoclinic'
loop_
_space_group_symop_operation_xyz
x,y,z
-x,y,-z
-x,-y,-z
x,-y,z
1/2+x,1/2+y,z
1/2-x,1/2+y,-z
1/2-x,1/2-y,-z
1/2+x,1/2-y,z
loop_
_atom_site_type_symbol
_atom_site_label
_atom_site_fract_x
_atom_site_fract_y
_atom_site_fract_z
Si Si1 0.781519 0.173066 0.271176
Si Si2 0.413838 0.172266 0.834410
Si Si3 0.204395 0.327204 0.419579
Si Si4 0.540651 0.328111 0.106618
Si Si5 0.970939 0.324677 0.387144
Si Si6 0.290475 0.677554 0.771207
Si Si7 0.297056 0.669954 0.081406
Si Si8 0.896551 0.177099 0.351407
O O1 0.712563 0.234014 0.362788
O O2 0.752445 0.264262 0.246847
O O3 0.909358 0.198980 0.195018
O O4 0.754727 0.000000 0.280215
O O5 0.407248 0.228024 0.890072
O O6 0.296704 0.191302 0.891110
O O7 0.493541 0.278991 0.751274
O O8 0.452726 0.000000 0.806751
O O9 0.230788 0.500000 0.396970
O O10 0.084554 0.297027 0.525625
O O11 0.295471 0.262156 0.390849
O O12 0.568590 0.500000 0.097898
O O13 0.590905 0.284686 0.023203
O O14 0.989712 0.500000 0.365902
O O15 0.892896 0.260520 0.401747
O O16 0.086560 0.239034 0.305561
O O17 0.291507 0.500000 0.769592
O O18 0.215444 0.730829 0.865234
O O19 0.301553 0.500000 0.095071
O O20 0.891920 0.000000 0.362531
#
# Coordination Sequence:
#
# PCOD8116538 Si02
#       8
#     8   8   8   8   8   8   8   8
#     4  10  21  42  65  85 114 156 202 248 296 354
#     4  11  21  34  58  91 127 162 196 237 292 351
#     4   9  20  38  63  91 120 156 197 240 296 356
#     4  10  21  39  65  91 120 157 199 244 295 353
#     4  11  22  39  62  90 121 156 198 244 296 357
#     4  12  26  42  60  85 117 158 201 251 302 349
#     4  10  22  40  62  90 121 159 200 241 293 356
#     4  11  20  36  61  91 124 158 197 240 292 354
#
# _framework density 9.8765429999999999
#
# number of rings (size 3 to 8) (size 9 to 14) (size 15 to 20)
#    0.000    1.500    2.500    3.000    0.000    2.500 
#    0.000    8.125    0.000    0.000    0.000    0.000 
#    0.000    0.000    0.000    0.000    0.000    0.000 
#
# Total GULP energy -396734.459466 kJ/mol
# GULP energy per Si atom -12397.951858 kJ/mol
# Density = 0.985406 g / cm^3
# Si number density = 9.876543 Si / 1000 Ang^3
#
#
#
# Elastic Constant Matrix: (Units=GPa)
#
#
# Indices 1 2 3 4 5 6 
#
# 1 126.5688 48.3853 31.4321 -0.0062 39.4919 0.0039
# 2 48.3853 112.0399 31.4916 -0.0144 18.9252 0.0447
# 3 31.4321 31.4916 104.0868 -0.0018 37.3491 0.0052
# 4 -0.0062 -0.0144 -0.0018 22.8959 0.0014 6.5645
# 5 39.4919 18.9252 37.3491 0.0014 39.6469 -0.0013
# 6 0.0039 0.0447 0.0052 6.5645 -0.0013 40.1292
#
#
#
# Elastic Compliance Matrix: (Units=1/GPa)
#
#
# Indices 1 2 3 4 5 6 
#
# 1 0.012926 -0.003954 0.001867 0.000001 -0.012747 0.000002
# 2 -0.003954 0.011180 -0.002548 0.000009 0.001002 -0.000013
# 3 0.001867 -0.002548 0.015175 0.000001 -0.014938 0.000000
# 4 0.000001 0.000009 0.000001 0.045825 -0.000009 -0.007496
# 5 -0.012747 0.001002 -0.014938 -0.000009 0.051514 0.000005
# 6 0.000002 -0.000013 0.000000 -0.007496 0.000005 0.026146
#
#
# Mechanical properties :
#
#
# Convention : Reuss Voigt Hill
#
# Bulk Modulus (GPa) = 33.32196 62.81261 48.06729
# Shear Modulus (GPa) = 27.46663 35.96016 31.71340
#
# Velocity S-wave (km/s) = 3.73298 4.27134 4.01120
# Velocity P-wave (km/s) = 5.95702 7.49625 6.77052
#
# Compressibility (1/GPa) = 0.03001024
#
# Stress axis : x y z
#
# Youngs Moduli (GPa) = 77.36412 89.44717 65.89825
#
# Poissons Ratio (x) = 0.35365 -0.12301
# Poissons Ratio (y) = 0.30588 0.16791
# Poissons Ratio (z) = -0.14441 0.22792
#
# Static dielectric constant tensor:
#      x y z
#    x 3.837130 -0.000010 0.244760 
#    y -0.000010 3.628880 0.000010 
#    z 0.244760 0.000010 3.824950 
# 
# 
# High freq. dielectric constant tensor:
#      x y z
#    x 1.784490 0.000000 0.020610 
#    y 0.000000 1.763030 0.000000 
#    z 0.020610 0.000000 1.787590 
# 
# From -- ./inp_files/382301.got.cif
#   From: 2010.06.25/outbox.ucp.g09.slc.cvg/sg12_192_cif.got.tgz:382301.got - 2010.06.28 13:50:54.
