data_PCOD8116507
_publ_section_title
;
Structure prediction by ZEFSAII (Michael W. Deem and Ramdas Pophale) SiO2 
 PCOD8116507
Probable space group: C 2/M
;
_chemical_formula_sum "Si O2"
_cell_formula_units_Z 32
_cell_length_a 18.000000
_cell_length_b 9.000000
_cell_length_c 30.000000
_cell_angle_alpha 90.000000
_cell_angle_beta 40.000000
_cell_angle_gamma 90.000000
_cell_volume 3123.947783
_symmetry_space_group_name_H-M "C 2/M"
_symmetry_group_IT_number 12
_symmetry_cell_setting 'monoclinic'
loop_
_space_group_symop_operation_xyz
x,y,z
-x,y,-z
-x,-y,-z
x,-y,z
1/2+x,1/2+y,z
1/2-x,1/2+y,-z
1/2-x,1/2-y,-z
1/2+x,1/2-y,z
loop_
_atom_site_type_symbol
_atom_site_label
_atom_site_fract_x
_atom_site_fract_y
_atom_site_fract_z
Si Si1 0.451352 0.663316 0.711277
Si Si2 0.775679 0.326052 0.297834
Si Si3 0.237692 0.829256 0.785130
Si Si4 0.629078 0.329382 0.558395
Si Si5 0.129958 0.824371 0.065406
Si Si6 0.494446 0.332912 0.214289
Si Si7 0.958503 0.326732 0.568925
Si Si8 0.466845 0.673667 0.062522
O O1 0.408059 0.500000 0.714239
O O2 0.371801 0.794895 0.729834
O O3 0.578679 0.688853 0.631857
O O4 0.440250 0.664895 0.769142
O O5 0.750874 0.500000 0.312280
O O6 0.808323 0.274653 0.233008
O O7 0.889731 0.280005 0.272249
O O8 0.669157 0.237253 0.367201
O O9 0.166341 0.793701 0.863126
O O10 0.221101 0.000000 0.778768
O O11 0.647550 0.500000 0.537107
O O12 0.750000 0.250000 0.500000
O O13 0.541860 0.258554 0.563707
O O14 0.080946 0.774571 0.136154
O O15 0.044425 0.762841 0.066739
O O16 0.145017 0.000000 0.056784
O O17 0.250000 0.750000 0.000000
O O18 0.450649 0.500000 0.222168
O O19 0.958227 0.500000 0.581170
O O20 0.000000 0.298020 0.500000
O O21 0.490933 0.500000 0.047332
O O22 0.500000 0.750416 0.000000
#
# Coordination Sequence:
#
# PCOD8116507 Si02
#       8
#     8   8   8   8   8   8   8   8
#     4  10  23  41  62  89 122 159 201 253 306 354
#     4  12  24  40  64  93 124 156 203 260 306 354
#     4  11  21  38  65  89 118 162 207 248 306 368
#     4  11  24  42  63  91 127 164 203 251 304 358
#     4  10  21  38  59  84 120 160 200 248 305 364
#     4  10  22  42  63  86 122 165 206 249 305 367
#     4  11  25  44  67  93 123 162 204 247 304 367
#     4   9  19  36  58  86 119 156 201 252 300 355
#
# _framework density 10.243449
#
# number of rings (size 3 to 8) (size 9 to 14) (size 15 to 20)
#    0.000    1.500    2.500    2.250    3.500    2.500 
#    0.000    0.000    0.000    1.875    0.000    0.000 
#    0.000    0.000    0.000    0.000    0.000    0.000 
#
# Total GULP energy -396705.190649 kJ/mol
# GULP energy per Si atom -12397.037208 kJ/mol
# Density = 1.022013 g / cm^3
# Si number density = 10.243449 Si / 1000 Ang^3
#
#
#
# Elastic Constant Matrix: (Units=GPa)
#
#
# Indices 1 2 3 4 5 6 
#
# 1 55.8338 29.5983 37.4771 0.0008 1.5311 0.0036
# 2 29.5983 82.6759 50.2358 0.0037 -0.1706 0.0025
# 3 37.4771 50.2358 129.1968 0.0002 -1.1860 -0.0014
# 4 0.0008 0.0037 0.0002 29.2300 -0.0001 -3.7058
# 5 1.5311 -0.1706 -1.1860 -0.0001 37.6401 0.0005
# 6 0.0036 0.0025 -0.0014 -3.7058 0.0005 26.1476
#
#
#
# Elastic Compliance Matrix: (Units=1/GPa)
#
#
# Indices 1 2 3 4 5 6 
#
# 1 0.024213 -0.005757 -0.004796 0.000000 -0.001162 -0.000003
# 2 -0.005757 0.017206 -0.005019 -0.000002 0.000154 -0.000001
# 3 -0.004796 -0.005019 0.011088 0.000001 0.000522 0.000002
# 4 0.000000 -0.000002 0.000001 0.034837 0.000000 0.004937
# 5 -0.001162 0.000154 0.000522 0.000000 0.026632 0.000000
# 6 -0.000003 -0.000001 0.000002 0.004937 0.000000 0.038944
#
#
# Mechanical properties :
#
#
# Convention : Reuss Voigt Hill
#
# Bulk Modulus (GPa) = 46.80835 55.81432 51.31134
# Shear Modulus (GPa) = 26.15268 28.62989 27.39129
#
# Velocity S-wave (km/s) = 3.57677 3.74233 3.66049
# Velocity P-wave (km/s) = 6.32102 6.78060 6.55484
#
# Compressibility (1/GPa) = 0.02136371
#
# Stress axis : x y z
#
# Youngs Moduli (GPa) = 41.30015 58.11807 90.18999
#
# Poissons Ratio (x) = 0.33456 0.43255
# Poissons Ratio (y) = 0.23775 0.45267
# Poissons Ratio (z) = 0.19807 0.29170
#
# Static dielectric constant tensor:
#      x y z
#    x 3.660990 0.000000 0.219340 
#    y 0.000000 3.738760 -0.000010 
#    z 0.219340 -0.000010 3.909780 
# 
# 
# High freq. dielectric constant tensor:
#      x y z
#    x 1.785210 0.000000 0.008000 
#    y 0.000000 1.786820 0.000000 
#    z 0.008000 0.000000 1.818910 
# 
# From -- ./inp_files/377956.got.cif
#   From: 2010.06.25/outbox.ucp.g09.slc.cvg/sg12_189_cif.got.tgz:377956.got - 2010.06.28 13:50:54.
