data_PCOD8116003
_publ_section_title
;
Structure prediction by ZEFSAII (Michael W. Deem and Ramdas Pophale) SiO2 
 PCOD8116003
Probable space group: C 2/M
;
_chemical_formula_sum "Si O2"
_cell_formula_units_Z 48
_cell_length_a 32.902351
_cell_length_b 9.787734
_cell_length_c 18.270247
_cell_angle_alpha 90.000000
_cell_angle_beta 29.885662
_cell_angle_gamma 90.000000
_cell_volume 2931.695996
_symmetry_space_group_name_H-M "C 2/M"
_symmetry_group_IT_number 12
_symmetry_cell_setting 'monoclinic'
loop_
_space_group_symop_operation_xyz
x,y,z
-x,y,-z
-x,-y,-z
x,-y,z
1/2+x,1/2+y,z
1/2-x,1/2+y,-z
1/2-x,1/2-y,-z
1/2+x,1/2-y,z
loop_
_atom_site_type_symbol
_atom_site_label
_atom_site_fract_x
_atom_site_fract_y
_atom_site_fract_z
Si Si1 0.159167 0.658539 0.425704
Si Si2 0.016602 0.162414 0.054302
Si Si3 0.502556 0.157570 0.412327
Si Si4 0.169854 0.162401 0.902690
Si Si5 0.416698 0.348095 0.345177
Si Si6 0.081172 0.847710 0.180605
O O1 0.166711 0.500000 0.435345
O O2 0.241130 0.714706 0.259573
O O3 0.146697 0.742142 0.520280
O O4 0.086141 0.684175 0.483226
O O5 0.941139 0.202100 0.225434
O O6 0.023205 0.000000 0.039739
O O7 0.101834 0.222009 0.952935
O O8 0.000000 0.225632 0.000000
O O9 0.500000 0.205366 0.500000
O O10 0.572127 0.245390 0.262955
O O11 0.528390 0.000000 0.365134
O O12 0.165324 0.000000 0.908092
O O13 0.150911 0.208265 0.016065
O O14 0.377394 0.500000 0.404297
O O15 0.498197 0.353404 0.265094
O O16 0.102405 0.000000 0.176702
#
# Coordination Sequence:
#
# PCOD8116003 Si02
#       6
#     8   8   8   8   8   8
#     4   9  16  27  43  59  78 106 134 160 194 236
#     4   8  13  23  41  62  81 103 132 164 195 228
#     4   9  17  28  41  58  80 105 132 161 195 236
#     4   8  14  25  41  60  79 102 134 165 192 228
#     4   8  14  25  41  60  80 102 131 164 194 229
#     4   8  14  26  43  59  76 101 133 165 194 229
#
# _framework density 16.372775000000001
#
# number of rings (size 3 to 8) (size 9 to 14) (size 15 to 20)
#    0.000    3.667    0.000    2.000    0.000    0.333 
#    0.000    2.500    0.000    1.500    0.000    0.000 
#    0.000    0.000    0.000    0.000    0.000    0.000 
#
# Total GULP energy -297422.920757 kJ/mol
# GULP energy per Si atom -12392.621698 kJ/mol
# Density = 1.633551 g / cm^3
# Si number density = 16.372775 Si / 1000 Ang^3
#
#
#
# Elastic Constant Matrix: (Units=GPa)
#
#
# Indices 1 2 3 4 5 6 
#
# 1 62.2861 28.8504 51.8808 0.0000 26.1766 0.0000
# 2 28.8504 49.8655 57.6791 0.0002 14.5357 -0.0001
# 3 51.8808 57.6791 157.8140 0.0001 25.1584 0.0000
# 4 0.0000 0.0002 0.0001 25.8988 0.0000 5.5982
# 5 26.1766 14.5357 25.1584 0.0000 29.6230 0.0000
# 6 0.0000 -0.0001 0.0000 5.5982 0.0000 11.4644
#
#
#
# Elastic Compliance Matrix: (Units=1/GPa)
#
#
# Indices 1 2 3 4 5 6 
#
# 1 0.031905 -0.007097 -0.004575 0.000000 -0.020825 0.000000
# 2 -0.007097 0.037718 -0.010989 0.000000 -0.002903 0.000001
# 3 -0.004575 -0.010989 0.011974 0.000000 -0.000734 0.000000
# 4 0.000000 0.000000 0.000000 0.043168 0.000000 -0.021080
# 5 -0.020825 -0.002903 -0.000734 0.000000 0.054208 0.000000
# 6 0.000000 0.000001 0.000000 -0.021080 0.000000 0.097520
#
#
# Mechanical properties :
#
#
# Convention : Reuss Voigt Hill
#
# Bulk Modulus (GPa) = 27.56762 60.75403 44.16082
# Shear Modulus (GPa) = 14.97420 22.16756 18.57088
#
# Velocity S-wave (km/s) = 3.02748 3.68357 3.37152
# Velocity P-wave (km/s) = 5.39397 7.43498 6.49514
#
# Compressibility (1/GPa) = 0.03627444
#
# Stress axis : x y z
#
# Youngs Moduli (GPa) = 31.34315 26.51279 83.51316
#
# Poissons Ratio (x) = 0.18815 0.38207
# Poissons Ratio (y) = 0.22243 0.91777
# Poissons Ratio (z) = 0.14339 0.29136
#
# Static dielectric constant tensor:
#      x y z
#    x 2.997160 0.000000 0.223870 
#    y 0.000000 2.932500 0.000000 
#    z 0.223870 0.000000 3.466110 
# 
# 
# High freq. dielectric constant tensor:
#      x y z
#    x 1.601660 0.000000 0.018350 
#    y 0.000000 1.594260 0.000000 
#    z 0.018350 0.000000 1.636240 
# 
# From -- ./inp_files/212760.got.cif
#   From: 2010.06.25/outbox.cif.g09.slc.cpg/sg12_107_cif.got.tgz:212760.got - 2010.06.28 00:19:55.
