data_PCOD8116284
_publ_section_title
;
Structure prediction by ZEFSAII (Michael W. Deem and Ramdas Pophale) SiO2 
 PCOD8116284
Probable space group: C 2/M
;
_chemical_formula_sum "Si O2"
_cell_formula_units_Z 28
_cell_length_a 27.000000
_cell_length_b 9.000000
_cell_length_c 18.000000
_cell_angle_alpha 90.000000
_cell_angle_beta 40.000000
_cell_angle_gamma 90.000000
_cell_volume 2811.553005
_symmetry_space_group_name_H-M "C 2/M"
_symmetry_group_IT_number 12
_symmetry_cell_setting 'monoclinic'
loop_
_space_group_symop_operation_xyz
x,y,z
-x,y,-z
-x,-y,-z
x,-y,z
1/2+x,1/2+y,z
1/2-x,1/2+y,-z
1/2-x,1/2-y,-z
1/2+x,1/2-y,z
loop_
_atom_site_type_symbol
_atom_site_label
_atom_site_fract_x
_atom_site_fract_y
_atom_site_fract_z
Si Si1 0.844442 0.829240 0.773259
Si Si2 0.544095 0.663330 0.873835
Si Si3 0.458242 0.826923 0.851398
Si Si4 0.850044 0.830319 0.593428
Si Si5 0.299879 0.325477 0.236850
Si Si6 0.502795 0.675611 0.662424
Si Si7 0.306887 0.324835 0.060064
O O1 0.856363 0.804299 0.672947
O O2 0.921774 0.771318 0.722212
O O3 0.772940 0.731300 0.883986
O O4 0.827461 0.000000 0.812343
O O5 0.545668 0.500000 0.831994
O O6 0.498618 0.788400 0.882110
O O7 0.630298 0.722524 0.790148
O O8 0.500000 0.638710 0.000000
O O9 0.516008 0.764007 0.723155
O O10 0.444815 0.000000 0.860149
O O11 0.376686 0.745397 0.934127
O O12 0.778305 0.742630 0.640507
O O13 0.929469 0.770333 0.469003
O O14 0.836970 0.000000 0.587077
O O15 0.291034 0.500000 0.244115
O O16 0.314255 0.267526 0.136488
O O17 0.504581 0.500000 0.673121
O O18 0.312536 0.500000 0.046174
#
# Coordination Sequence:
#
# PCOD8116284 Si02
#       7
#     8   8   8   8   8   8   8
#     4   9  18  34  58  86 110 138 184 234 274 318
#     4  10  19  37  61  83 109 143 181 219 272 337
#     4  12  25  37  53  81 114 145 184 231 274 319
#     4   9  18  34  58  85 111 141 182 229 272 320
#     4   9  18  33  57  85 110 139 176 222 272 326
#     4  10  21  38  57  77 110 154 187 219 273 332
#     4  10  19  35  56  81 112 146 181 220 276 335
#
# _framework density 9.9589090000000002
#
# number of rings (size 3 to 8) (size 9 to 14) (size 15 to 20)
#    0.000    2.143    1.429    2.143    0.000    4.857 
#    0.000    0.714    0.000    4.286    0.000    0.000 
#    0.000    0.000    0.000    0.000    0.000    0.000 
#
# Total GULP energy -347169.356218 kJ/mol
# GULP energy per Si atom -12398.905579 kJ/mol
# Density = 0.993624 g / cm^3
# Si number density = 9.958909 Si / 1000 Ang^3
#
#
#
# Elastic Constant Matrix: (Units=GPa)
#
#
# Indices 1 2 3 4 5 6 
#
# 1 49.5437 20.4486 38.7467 0.0319 -36.2933 0.0122
# 2 20.4486 43.2401 32.1469 0.0355 -16.3659 -0.0149
# 3 38.7467 32.1469 62.8289 0.0258 -19.5377 -0.0182
# 4 0.0319 0.0355 0.0258 34.8904 -0.0014 -17.3765
# 5 -36.2933 -16.3659 -19.5377 -0.0014 11.0033 0.0216
# 6 0.0122 -0.0149 -0.0182 -17.3765 0.0216 36.5156
#
#
#
# Elastic Compliance Matrix: (Units=1/GPa)
#
#
# Indices 1 2 3 4 5 6 
#
# 1 -0.006922 -0.011455 -0.005065 0.000042 -0.048864 0.000044
# 2 -0.011455 0.034924 -0.014294 -0.000008 -0.011221 0.000014
# 3 -0.005065 -0.014294 0.032483 -0.000005 0.019711 -0.000002
# 4 0.000042 -0.000008 -0.000005 0.037564 0.000086 0.017875
# 5 -0.048864 -0.011221 0.019711 0.000086 -0.051983 0.000093
# 6 0.000044 0.000014 -0.000002 0.017875 0.000093 0.035892
#
#
# Mechanical properties :
#
#
# Convention : Reuss Voigt Hill
#
# Bulk Modulus (GPa) = -874.07088 37.58857 -418.24115
# Shear Modulus (GPa) = 34.91533 20.76655 27.84094
#
# Velocity S-wave (km/s) = 4.19139 3.23245 3.74276
# Velocity P-wave (km/s) = 20.40509 5.73101 13.84780
#
# Compressibility (1/GPa) = -0.00114407
#
# Stress axis : x y z
#
# Youngs Moduli (GPa) = -144.46188 28.63381 30.78555
#
# Poissons Ratio (x) = 0.32801 0.15593
# Poissons Ratio (y) = -1.65488 0.44004
# Poissons Ratio (z) = -0.73170 0.40928
#
# Static dielectric constant tensor:
#      x y z
#    x 3.663980 -0.000020 -0.290970 
#    y -0.000020 3.440490 -0.000030 
#    z -0.290970 -0.000030 3.773320 
# 
# 
# High freq. dielectric constant tensor:
#      x y z
#    x 1.764510 0.000000 -0.016500 
#    y 0.000000 1.756820 0.000000 
#    z -0.016500 0.000000 1.765440 
# 
# From -- ./inp_files/280871.got.cif
#   From: 2010.06.25/outbox.ucp.g09.slc.cvg/sg12_141_cif.got.tgz:280871.got - 2010.06.28 13:50:54.
