data_PCOD8116412
_publ_section_title
;
Structure prediction by ZEFSAII (Michael W. Deem and Ramdas Pophale) SiO2 
 PCOD8116412
Probable space group: C 2/M
;
_chemical_formula_sum "Si O2"
_cell_formula_units_Z 32
_cell_length_a 18.000000
_cell_length_b 9.000000
_cell_length_c 30.000000
_cell_angle_alpha 90.000000
_cell_angle_beta 40.000000
_cell_angle_gamma 90.000000
_cell_volume 3123.947783
_symmetry_space_group_name_H-M "C 2/M"
_symmetry_group_IT_number 12
_symmetry_cell_setting 'monoclinic'
loop_
_space_group_symop_operation_xyz
x,y,z
-x,y,-z
-x,-y,-z
x,-y,z
1/2+x,1/2+y,z
1/2-x,1/2+y,-z
1/2-x,1/2-y,-z
1/2+x,1/2-y,z
loop_
_atom_site_type_symbol
_atom_site_label
_atom_site_fract_x
_atom_site_fract_y
_atom_site_fract_z
Si Si1 0.323287 0.827840 0.708309
Si Si2 0.765005 0.674185 0.164855
Si Si3 0.058289 0.834116 0.143227
Si Si4 0.239048 0.172507 0.922025
Si Si5 0.505230 0.333295 0.926287
Si Si6 0.224536 0.825696 0.581321
Si Si7 0.084061 0.329938 0.572736
Si Si8 0.336971 0.324617 0.294633
O O1 0.308514 0.743584 0.761491
O O2 0.448915 0.804707 0.629126
O O3 0.238556 0.756228 0.710682
O O4 0.296777 0.000000 0.730188
O O5 0.752664 0.500000 0.174004
O O6 0.715779 0.733515 0.140987
O O7 0.898718 0.721028 0.101028
O O8 0.161294 0.715948 0.088702
O O9 0.987151 0.833116 0.130251
O O10 0.971148 0.787921 0.223189
O O11 0.108157 0.000000 0.128403
O O12 0.240380 0.000000 0.910393
O O13 0.116461 0.222424 0.998160
O O14 0.531641 0.500000 0.932004
O O15 0.124878 0.768689 0.594916
O O16 0.350382 0.783195 0.503262
O O17 0.204675 0.753899 0.639326
O O18 0.208533 0.000000 0.593076
O O19 0.114784 0.500000 0.569811
O O20 0.315251 0.500000 0.304765
#
# Coordination Sequence:
#
# PCOD8116412 Si02
#       8
#     8   8   8   8   8   8   8   8
#     4  10  20  38  59  80 112 152 192 233 282 336
#     4  12  25  39  58  85 115 149 192 241 288 336
#     4  10  20  37  59  85 117 151 188 231 284 338
#     4  11  24  39  59  86 114 150 191 234 286 341
#     4  10  21  41  64  83 113 152 187 230 288 347
#     4   9  18  34  56  85 117 147 183 227 278 333
#     4   9  19  34  56  85 114 148 187 229 274 328
#     4   9  18  34  58  82 111 150 185 228 281 331
#
# _framework density 10.243449
#
# number of rings (size 3 to 8) (size 9 to 14) (size 15 to 20)
#    0.000    2.000    1.250    2.250    1.750    4.000 
#    0.000    3.125    0.000    0.000    0.000    4.375 
#    0.000    0.000    0.000    0.000    0.000    0.000 
#
# Total GULP energy -396702.733189 kJ/mol
# GULP energy per Si atom -12396.960412 kJ/mol
# Density = 1.022013 g / cm^3
# Si number density = 10.243449 Si / 1000 Ang^3
#
#
#
# Elastic Constant Matrix: (Units=GPa)
#
#
# Indices 1 2 3 4 5 6 
#
# 1 36.6474 19.8996 26.6080 0.0014 1.7907 0.0086
# 2 19.8996 52.4404 32.1606 0.0029 -0.9959 0.0077
# 3 26.6080 32.1606 110.4196 -0.0002 13.2534 -0.0001
# 4 0.0014 0.0029 -0.0002 23.5866 -0.0002 -4.0721
# 5 1.7907 -0.9959 13.2534 -0.0002 35.2108 0.0011
# 6 0.0086 0.0077 -0.0001 -4.0721 0.0011 21.1630
#
#
#
# Elastic Compliance Matrix: (Units=1/GPa)
#
#
# Indices 1 2 3 4 5 6 
#
# 1 0.037302 -0.010517 -0.005930 -0.000003 0.000037 -0.000012
# 2 -0.010517 0.026566 -0.005611 -0.000004 0.003398 -0.000006
# 3 -0.005930 -0.005611 0.012675 0.000002 -0.004628 0.000005
# 4 -0.000003 -0.000004 0.000002 0.043854 -0.000001 0.008438
# 5 0.000037 0.003398 -0.004628 -0.000001 0.030237 -0.000003
# 6 -0.000012 -0.000006 0.000005 0.008438 -0.000003 0.048876
#
#
# Mechanical properties :
#
#
# Convention : Reuss Voigt Hill
#
# Bulk Modulus (GPa) = 30.83950 39.64931 35.24441
# Shear Modulus (GPa) = 19.65144 24.04802 21.84973
#
# Velocity S-wave (km/s) = 3.10049 3.42983 3.26931
# Velocity P-wave (km/s) = 5.28236 5.92288 5.61176
#
# Compressibility (1/GPa) = 0.03242594
#
# Stress axis : x y z
#
# Youngs Moduli (GPa) = 26.80847 37.64207 78.89512
#
# Poissons Ratio (x) = 0.39590 0.46784
# Poissons Ratio (y) = 0.28196 0.44268
# Poissons Ratio (z) = 0.15897 0.21121
#
# Static dielectric constant tensor:
#      x y z
#    x 3.645970 0.000000 0.184920 
#    y 0.000000 3.398750 0.000000 
#    z 0.184920 0.000000 3.892400 
# 
# 
# High freq. dielectric constant tensor:
#      x y z
#    x 1.788480 0.000000 0.005290 
#    y 0.000000 1.766600 0.000000 
#    z 0.005290 0.000000 1.818260 
# 
# From -- ./inp_files/378161.got.cif
#   From: 2010.06.25/outbox.ucp.g09.slc.cvg/sg12_190_cif.got.tgz:378161.got - 2010.06.28 13:50:54.
