data_PCOD8116335
_publ_section_title
;
Structure prediction by ZEFSAII (Michael W. Deem and Ramdas Pophale) SiO2 
 PCOD8116335
Probable space group: C 2/M
;
_chemical_formula_sum "Si O2"
_cell_formula_units_Z 32
_cell_length_a 18.000000
_cell_length_b 9.000000
_cell_length_c 30.000000
_cell_angle_alpha 90.000000
_cell_angle_beta 40.000000
_cell_angle_gamma 90.000000
_cell_volume 3123.947783
_symmetry_space_group_name_H-M "C 2/M"
_symmetry_group_IT_number 12
_symmetry_cell_setting 'monoclinic'
loop_
_space_group_symop_operation_xyz
x,y,z
-x,y,-z
-x,-y,-z
x,-y,z
1/2+x,1/2+y,z
1/2-x,1/2+y,-z
1/2-x,1/2-y,-z
1/2+x,1/2-y,z
loop_
_atom_site_type_symbol
_atom_site_label
_atom_site_fract_x
_atom_site_fract_y
_atom_site_fract_z
Si Si1 0.267820 0.174204 0.660205
Si Si2 0.007572 0.333124 0.569969
Si Si3 0.173741 0.175816 0.795968
Si Si4 0.584613 0.673839 0.065536
Si Si5 0.254674 0.324949 0.927654
Si Si6 0.250937 0.673736 0.430112
Si Si7 0.834640 0.176196 0.794263
Si Si8 0.469744 0.165871 0.340969
O O1 0.397216 0.245232 0.597774
O O2 0.192935 0.234014 0.736314
O O3 0.211691 0.206424 0.638419
O O4 0.284642 0.000000 0.660316
O O5 0.023988 0.500000 0.544126
O O6 0.127770 0.254770 0.500935
O O7 0.968136 0.335011 0.639818
O O8 0.256687 0.259963 0.791204
O O9 0.046346 0.223131 0.868700
O O10 0.193474 0.000000 0.791442
O O11 0.599012 0.500000 0.051607
O O12 0.649116 0.725171 0.080906
O O13 0.633719 0.753776 0.998821
O O14 0.239143 0.500000 0.933286
O O15 0.290718 0.265243 0.862398
O O16 0.259073 0.500000 0.438299
O O17 0.346870 0.765597 0.412083
O O18 0.963959 0.235118 0.726028
O O19 0.836457 0.000000 0.791976
O O20 0.457153 0.000000 0.327403
#
# Coordination Sequence:
#
# PCOD8116335 Si02
#       8
#     8   8   8   8   8   8   8   8
#     4   9  17  32  56  82 109 143 184 229 272 320
#     4   9  17  33  56  81 107 143 187 228 273 328
#     4  10  20  36  58  82 112 148 183 225 276 326
#     4   9  19  36  60  86 111 143 182 221 268 327
#     4   9  20  38  59  83 113 145 180 224 271 318
#     4  10  20  33  57  85 107 140 189 234 273 326
#     4  11  23  38  58  82 110 146 188 230 271 323
#     4  11  22  37  55  78 114 149 181 227 281 332
#
# _framework density 10.243449
#
# number of rings (size 3 to 8) (size 9 to 14) (size 15 to 20)
#    0.000    2.250    1.250    1.500    1.750    3.500 
#    0.000    3.750    0.000    0.750    0.000    0.000 
#    0.000    0.000    0.000    0.000    0.000    0.000 
#
# Total GULP energy -396579.161435 kJ/mol
# GULP energy per Si atom -12393.098795 kJ/mol
# Density = 1.022013 g / cm^3
# Si number density = 10.243449 Si / 1000 Ang^3
#
#
#
# Elastic Constant Matrix: (Units=GPa)
#
#
# Indices 1 2 3 4 5 6 
#
# 1 28.2298 15.1121 16.8394 0.0012 2.0844 0.0068
# 2 15.1121 30.2888 29.2177 0.0019 -2.6517 0.0037
# 3 16.8394 29.2177 124.7430 -0.0004 3.7075 -0.0011
# 4 0.0012 0.0019 -0.0004 22.6936 0.0001 -1.9209
# 5 2.0844 -2.6517 3.7075 0.0001 35.1626 0.0016
# 6 0.0068 0.0037 -0.0011 -1.9209 0.0016 20.4012
#
#
#
# Elastic Compliance Matrix: (Units=1/GPa)
#
#
# Indices 1 2 3 4 5 6 
#
# 1 0.049191 -0.024129 -0.000851 -0.000002 -0.004646 -0.000012
# 2 -0.024129 0.055141 -0.009855 -0.000004 0.006628 -0.000003
# 3 -0.000851 -0.009855 0.010493 0.000001 -0.001799 0.000003
# 4 -0.000002 -0.000004 0.000001 0.044419 -0.000001 0.004182
# 5 -0.004646 0.006628 -0.001799 -0.000001 0.029404 -0.000002
# 6 -0.000012 -0.000003 0.000003 0.004182 -0.000002 0.049410
#
#
# Mechanical properties :
#
#
# Convention : Reuss Voigt Hill
#
# Bulk Modulus (GPa) = 22.14574 33.95555 28.05064
# Shear Modulus (GPa) = 15.49041 23.79098 19.64070
#
# Velocity S-wave (km/s) = 2.75273 3.41145 3.09964
# Velocity P-wave (km/s) = 4.57565 5.66812 5.15093
#
# Compressibility (1/GPa) = 0.04515541
#
# Stress axis : x y z
#
# Youngs Moduli (GPa) = 20.32893 18.13533 95.30094
#
# Poissons Ratio (x) = 0.43759 0.08108
# Poissons Ratio (y) = 0.49052 0.93920
# Poissons Ratio (z) = 0.01729 0.17872
#
# Static dielectric constant tensor:
#      x y z
#    x 3.569910 0.000000 0.034690 
#    y 0.000000 3.313720 0.000000 
#    z 0.034690 0.000000 4.021400 
# 
# 
# High freq. dielectric constant tensor:
#      x y z
#    x 1.790750 0.000000 0.003480 
#    y 0.000000 1.755040 0.000000 
#    z 0.003480 0.000000 1.820280 
# 
# From -- ./inp_files/378175.got.cif
#   From: 2010.06.25/outbox.ucp.g09.slc.cvg/sg12_190_cif.got.tgz:378175.got - 2010.06.28 13:50:54.
