data_PCOD8116863
_publ_section_title
;
Structure prediction by ZEFSAII (Michael W. Deem and Ramdas Pophale) SiO2 
 PCOD8116863
Probable space group: P 2/C
;
_chemical_formula_sum "Si O2"
_cell_formula_units_Z 24
_cell_length_a 15.866063
_cell_length_b 8.926805
_cell_length_c 16.966240
_cell_angle_alpha 90.000000
_cell_angle_beta 35.169210
_cell_angle_gamma 90.000000
_cell_volume 1384.102066
_symmetry_space_group_name_H-M "P 2/C"
_symmetry_group_IT_number 13
_symmetry_cell_setting 'monoclinic'
loop_
_space_group_symop_operation_xyz
x,y,z
-x,y,1/2-z
-x,-y,-z
x,-y,1/2+z
loop_
_atom_site_type_symbol
_atom_site_label
_atom_site_fract_x
_atom_site_fract_y
_atom_site_fract_z
Si Si1 0.035237 0.843467 0.633016
Si Si2 0.583474 0.094723 0.000068
Si Si3 0.695899 0.841189 0.709976
Si Si4 0.348072 0.050472 0.893998
Si Si5 0.965005 0.671316 0.538862
Si Si6 0.152138 0.093556 0.800035
O O1 0.209883 0.842724 0.485564
O O2 0.000000 0.803998 0.750000
O O3 0.970431 0.712513 0.627330
O O4 0.967488 0.004958 0.660941
O O5 0.461408 0.205389 0.131184
O O6 0.646198 0.983345 0.018043
O O7 0.724585 0.170629 0.850677
O O8 0.500000 0.000000 0.000000
O O9 0.800661 0.697389 0.632003
O O10 0.668262 0.894970 0.642048
O O11 0.773916 0.978321 0.696055
O O12 0.500000 0.130501 0.750000
O O13 0.000000 0.500000 0.500000
O O14 0.077388 0.774007 0.404891
#
# Coordination Sequence:
#
# PCOD8116863 Si02
#       6
#     4   4   4   4   4   4
#     4  11  19  34  56  84 105 133 186 234 264 311
#     4   9  18  28  50  87 106 126 169 233 281 306
#     4   9  17  33  52  78 105 134 180 223 265 313
#     4  10  17  29  53  83 106 131 168 230 277 311
#     4  11  22  36  53  76 114 155 178 211 268 328
#     4  10  17  32  55  78 105 135 179 225 267 312
#
# _framework density 17.339760999999999
#
# number of rings (size 3 to 8) (size 9 to 14) (size 15 to 20)
#    0.000    2.000    5.000    1.000    0.000    0.000 
#    0.000    3.333    0.000    3.000    0.000    0.000 
#    0.000    0.000    0.000    0.000    0.000    0.000 
#
# Total GULP energy -297419.875026 kJ/mol
# GULP energy per Si atom -12392.494793 kJ/mol
# Density = 1.730030 g / cm^3
# Si number density = 17.339761 Si / 1000 Ang^3
#
#
#
# Elastic Constant Matrix: (Units=GPa)
#
#
# Indices 1 2 3 4 5 6 
#
# 1 89.0004 16.5222 29.9632 0.0000 5.3347 0.0000
# 2 16.5222 74.0997 30.5805 0.0000 -0.8906 0.0000
# 3 29.9632 30.5805 119.8886 0.0000 -7.7256 0.0000
# 4 0.0000 0.0000 0.0000 14.5531 0.0000 -2.5398
# 5 5.3347 -0.8906 -7.7256 0.0000 42.6442 0.0000
# 6 0.0000 0.0000 0.0000 -2.5398 0.0000 12.7910
#
#
#
# Elastic Compliance Matrix: (Units=1/GPa)
#
#
# Indices 1 2 3 4 5 6 
#
# 1 0.012639 -0.001658 -0.002874 0.000000 -0.002136 0.000000
# 2 -0.001658 0.015307 -0.003497 0.000000 -0.000106 0.000000
# 3 -0.002874 -0.003497 0.010087 0.000000 0.002114 0.000000
# 4 0.000000 0.000000 0.000000 0.071180 0.000000 0.014134
# 5 -0.002136 -0.000106 0.002114 0.000000 0.024098 0.000000
# 6 0.000000 0.000000 0.000000 0.014134 0.000000 0.080987
#
#
# Mechanical properties :
#
#
# Convention : Reuss Voigt Hill
#
# Bulk Modulus (GPa) = 45.50294 48.56896 47.03595
# Shear Modulus (GPa) = 21.03661 27.72584 24.38122
#
# Velocity S-wave (km/s) = 3.48688 4.00306 3.75385
# Velocity P-wave (km/s) = 6.51997 7.03114 6.78038
#
# Compressibility (1/GPa) = 0.02197660
#
# Stress axis : x y z
#
# Youngs Moduli (GPa) = 79.11895 65.33019 99.13309
#
# Poissons Ratio (x) = 0.10831 0.28487
# Poissons Ratio (y) = 0.13118 0.34666
# Poissons Ratio (z) = 0.22736 0.22845
#
# Static dielectric constant tensor:
#      x y z
#    x 3.589770 0.000000 -0.172590 
#    y 0.000000 2.565190 0.000000 
#    z -0.172590 0.000000 3.915150 
# 
# 
# High freq. dielectric constant tensor:
#      x y z
#    x 1.694150 0.000000 -0.004780 
#    y 0.000000 1.581740 0.000000 
#    z -0.004780 0.000000 1.699270 
# 
# From -- ./inp_files/52881.got.cif
#   From: 2010.06.25/outbox.cif.g09.slc.cpg/sg13_27_cif.got.tgz:52881.got - 2010.06.28 04:50:58.
