data_PCOD8116052
_publ_section_title
;
Structure prediction by ZEFSAII (Michael W. Deem and Ramdas Pophale) SiO2 
 PCOD8116052
Probable space group: C 2/M
;
_chemical_formula_sum "Si O2"
_cell_formula_units_Z 56
_cell_length_a 20.625712
_cell_length_b 13.180805
_cell_length_c 20.990185
_cell_angle_alpha 90.000000
_cell_angle_beta 39.451169
_cell_angle_gamma 90.000000
_cell_volume 3626.004003
_symmetry_space_group_name_H-M "C 2/M"
_symmetry_group_IT_number 12
_symmetry_cell_setting 'monoclinic'
loop_
_space_group_symop_operation_xyz
x,y,z
-x,y,-z
-x,-y,-z
x,-y,z
1/2+x,1/2+y,z
1/2-x,1/2+y,-z
1/2-x,1/2-y,-z
1/2+x,1/2-y,z
loop_
_atom_site_type_symbol
_atom_site_label
_atom_site_fract_x
_atom_site_fract_y
_atom_site_fract_z
Si Si1 0.287058 0.382816 0.234147
Si Si2 0.513740 0.618938 0.840205
Si Si3 0.600279 0.279728 0.962541
Si Si4 0.153769 0.802537 0.353497
Si Si5 0.029437 0.118821 0.265952
Si Si6 0.446986 0.619112 0.457342
Si Si7 0.759671 0.883275 0.833691
O O1 0.253694 0.500000 0.261209
O O2 0.372635 0.357419 0.221905
O O3 0.331437 0.357585 0.130582
O O4 0.188395 0.314996 0.325852
O O5 0.493073 0.500000 0.857115
O O6 0.501731 0.666569 0.778333
O O7 0.428217 0.668192 0.949603
O O8 0.663135 0.179016 0.932222
O O9 0.500000 0.247377 0.000000
O O10 0.153671 0.845413 0.426880
O O11 0.229974 0.867237 0.250713
O O12 0.040370 0.814537 0.412795
O O13 0.138948 0.158965 0.207772
O O14 0.940962 0.141877 0.385992
O O15 0.039988 0.000000 0.248663
O O16 0.469513 0.500000 0.451881
O O17 0.739322 0.000000 0.864383
#
# Coordination Sequence:
#
# PCOD8116052 Si02
#       7
#     8   8   8   8   8   8   8
#     4   9  17  28  41  58  81 104 131 168 199 229
#     4   9  16  28  43  57  77 105 135 167 198 228
#     4   9  17  27  41  60  79 105 137 163 196 238
#     4   9  15  25  42  62  81 103 130 158 198 237
#     4   8  15  26  41  60  79 102 132 163 197 233
#     4   9  15  26  44  64  84 103 127 162 197 233
#     4   9  16  26  40  61  86 104 126 164 200 236
#
# _framework density 15.443999
#
# number of rings (size 3 to 8) (size 9 to 14) (size 15 to 20)
#    0.000    3.143    0.000    3.000    0.000    2.571 
#    0.000    2.143    0.000    0.000    0.000    1.000 
#    0.000    0.000    0.000    0.000    0.000    0.000 
#
# Total GULP energy -346948.771887 kJ/mol
# GULP energy per Si atom -12391.027567 kJ/mol
# Density = 1.540885 g / cm^3
# Si number density = 15.443999 Si / 1000 Ang^3
#
#
#
# Elastic Constant Matrix: (Units=GPa)
#
#
# Indices 1 2 3 4 5 6 
#
# 1 63.2835 35.6165 45.4784 0.0000 21.8276 0.0000
# 2 35.6165 79.6619 42.9795 0.0000 -0.9353 0.0000
# 3 45.4784 42.9795 92.7955 0.0000 20.0552 0.0000
# 4 0.0000 0.0000 0.0000 27.7375 0.0000 -3.5461
# 5 21.8276 -0.9353 20.0552 0.0000 26.0759 0.0000
# 6 0.0000 0.0000 0.0000 -3.5461 0.0000 13.5134
#
#
#
# Elastic Compliance Matrix: (Units=1/GPa)
#
#
# Indices 1 2 3 4 5 6 
#
# 1 0.037105 -0.013637 -0.006057 0.000000 -0.026891 0.000000
# 2 -0.013637 0.023211 -0.008053 0.000000 0.018442 0.000000
# 3 -0.006057 -0.008053 0.019719 0.000000 -0.010385 0.000000
# 4 0.000000 0.000000 0.000000 0.037304 0.000000 0.009789
# 5 -0.026891 0.018442 -0.010385 0.000000 0.069508 0.000000
# 6 0.000000 0.000000 0.000000 0.009789 0.000000 0.076569
#
#
# Mechanical properties :
#
#
# Convention : Reuss Voigt Hill
#
# Bulk Modulus (GPa) = 40.74761 53.76551 47.25656
# Shear Modulus (GPa) = 15.28631 20.90980 18.09805
#
# Velocity S-wave (km/s) = 3.14950 3.68354 3.42694
# Velocity P-wave (km/s) = 6.29819 7.27874 6.80615
#
# Compressibility (1/GPa) = 0.02454132
#
# Stress axis : x y z
#
# Youngs Moduli (GPa) = 26.95067 43.08226 50.71278
#
# Poissons Ratio (x) = 0.58753 0.30716
# Poissons Ratio (y) = 0.36753 0.40838
# Poissons Ratio (z) = 0.16324 0.34693
#
# Static dielectric constant tensor:
#      x y z
#    x 3.030390 0.000000 0.301510 
#    y 0.000000 2.777260 0.000000 
#    z 0.301510 0.000000 3.235440 
# 
# 
# High freq. dielectric constant tensor:
#      x y z
#    x 1.569120 0.000000 0.017350 
#    y 0.000000 1.570250 0.000000 
#    z 0.017350 0.000000 1.594810 
# 
# From -- ./inp_files/320933.got.cif
#   From: 2010.06.25/outbox.cif.g09.slc.cpg/sg12_161_cif.got.tgz:320933.got - 2010.06.28 00:19:55.
