data_PCOD8116676
_publ_section_title
;
Structure prediction by ZEFSAII (Michael W. Deem and Ramdas Pophale) SiO2 
 PCOD8116676
Probable space group: P 2/C
;
_chemical_formula_sum "Si O2"
_cell_formula_units_Z 28
_cell_length_a 20.112892
_cell_length_b 20.849830
_cell_length_c 5.367095
_cell_angle_alpha 90.000000
_cell_angle_beta 57.744374
_cell_angle_gamma 90.000000
_cell_volume 1903.356023
_symmetry_space_group_name_H-M "P 2/C"
_symmetry_group_IT_number 13
_symmetry_cell_setting 'monoclinic'
loop_
_space_group_symop_operation_xyz
x,y,z
-x,y,1/2-z
-x,-y,-z
x,-y,1/2+z
loop_
_atom_site_type_symbol
_atom_site_label
_atom_site_fract_x
_atom_site_fract_y
_atom_site_fract_z
Si Si1 0.587321 0.731880 0.325358
Si Si2 0.715888 0.071735 0.568226
Si Si3 0.032641 0.071776 0.934718
Si Si4 0.218891 0.928112 0.062215
Si Si5 0.411376 0.678512 0.677249
Si Si6 0.549528 0.878722 0.400945
Si Si7 0.411805 0.473400 0.176390
O O1 0.499859 0.703992 0.500283
O O2 0.630929 0.705879 0.488136
O O3 0.586561 0.808202 0.326876
O O4 0.630929 0.705878 0.988146
O O5 0.749013 0.106965 0.751713
O O6 0.621408 0.071446 0.757184
O O7 0.747194 0.999659 0.505619
O O8 0.749015 0.106965 0.252238
O O9 0.125764 0.071145 0.748474
O O10 0.000000 0.106874 0.750000
O O11 0.000000 0.106874 0.250000
O O12 0.000000 0.000000 0.000000
O O13 0.410564 0.602558 0.678874
O O14 0.500000 0.890613 0.250000
O O15 0.500000 0.890613 0.750000
O O16 0.368941 0.500000 0.512118
O O17 0.500000 0.500000 0.000000
#
# Coordination Sequence:
#
# PCOD8116676 Si02
#       7
#     4   4   4   4   4   4   4
#     4  10  16  27  38  50  63  81 111 156 193 218
#     4  10  20  32  48  56  77 105 116 152 199 233
#     4  10  16  25  46  69  84 102 120 138 152 197
#     4  10  19  35  44  63  87 102 120 134 183 247
#     4  10  16  25  38  50  65  88 104 138 200 214
#     4  12  21  34  44  59  68  87 133 177 200 226
#     4  10  16  22  31  49  70  86 104 122 156 238
#
# _framework density 14.710857000000001
#
# number of rings (size 3 to 8) (size 9 to 14) (size 15 to 20)
#    0.000    1.714    2.857    9.429    0.000    0.000 
#    0.000    8.571    0.000    0.000    0.000    0.000 
#    0.000    0.000    0.000    0.000    0.000    0.000 
#
# Total GULP energy -346908.926992 kJ/mol
# GULP energy per Si atom -12389.604535 kJ/mol
# Density = 1.467737 g / cm^3
# Si number density = 14.710857 Si / 1000 Ang^3
#
#
#
# Elastic Constant Matrix: (Units=GPa)
#
#
# Indices 1 2 3 4 5 6 
#
# 1 91.0995 19.3503 70.8800 0.0000 18.5304 0.0000
# 2 19.3503 27.3937 17.2423 0.0000 -2.8816 0.0000
# 3 70.8800 17.2423 131.6135 0.0000 36.8555 0.0000
# 4 0.0000 0.0000 0.0000 7.2316 0.0000 4.3395
# 5 18.5304 -2.8816 36.8555 0.0000 41.9384 0.0000
# 6 0.0000 0.0000 0.0000 4.3395 0.0000 4.0574
#
#
#
# Elastic Compliance Matrix: (Units=1/GPa)
#
#
# Indices 1 2 3 4 5 6 
#
# 1 0.020496 -0.008587 -0.009566 0.000000 -0.001240 0.000000
# 2 -0.008587 0.046600 -0.004562 0.000000 0.011005 0.000000
# 3 -0.009566 -0.004562 0.016251 0.000000 -0.010368 0.000000
# 4 0.000000 0.000000 0.000000 0.386038 0.000000 -0.412877
# 5 -0.001240 0.011005 -0.010368 0.000000 0.034260 0.000000
# 6 0.000000 0.000000 0.000000 -0.412877 0.000000 0.688043
#
#
# Mechanical properties :
#
#
# Convention : Reuss Voigt Hill
#
# Bulk Modulus (GPa) = 26.37413 51.67245 39.02329
# Shear Modulus (GPa) = 4.00078 20.15442 12.07760
#
# Velocity S-wave (km/s) = 1.65091 3.70542 2.86842
# Velocity P-wave (km/s) = 4.64772 7.31495 6.12820
#
# Compressibility (1/GPa) = 0.03791594
#
# Stress axis : x y z
#
# Youngs Moduli (GPa) = 48.79022 21.45933 61.53596
#
# Poissons Ratio (x) = 0.18428 0.58865
# Poissons Ratio (y) = 0.41897 0.28073
# Poissons Ratio (z) = 0.46672 0.09790
#
# Static dielectric constant tensor:
#      x y z
#    x 9.659500 0.000000 10.381810 
#    y 0.000000 2.566030 0.000000 
#    z 10.381810 0.000000 17.253910 
# 
# 
# High freq. dielectric constant tensor:
#      x y z
#    x 1.535640 0.000000 0.056290 
#    y 0.000000 1.516560 0.000000 
#    z 0.056290 0.000000 1.576820 
# 
# From -- ./inp_files/6461.got.cif
#   From: 2010.06.25/outbox.cif.g09.slc.cpg/sg13_4_cif.got.tgz:6461.got - 2010.06.28 04:50:58.
