data_PCOD8116659
_publ_section_title
;
Structure prediction by ZEFSAII (Michael W. Deem and Ramdas Pophale) SiO2 
 PCOD8116659
Probable space group: P 2/C
;
_chemical_formula_sum "Si O2"
_cell_formula_units_Z 20
_cell_length_a 9.754498
_cell_length_b 22.646858
_cell_length_c 5.167949
_cell_angle_alpha 90.000000
_cell_angle_beta 118.781266
_cell_angle_gamma 90.000000
_cell_volume 1000.610966
_symmetry_space_group_name_H-M "P 2/C"
_symmetry_group_IT_number 13
_symmetry_cell_setting 'monoclinic'
loop_
_space_group_symop_operation_xyz
x,y,z
-x,y,1/2-z
-x,-y,-z
x,-y,1/2+z
loop_
_atom_site_type_symbol
_atom_site_label
_atom_site_fract_x
_atom_site_fract_y
_atom_site_fract_z
Si Si1 0.900562 0.845243 0.409711
Si Si2 0.176559 0.025506 0.680473
Si Si3 0.685106 0.531887 0.892055
Si Si4 0.316610 0.666178 0.620626
Si Si5 0.820863 0.277081 0.006695
O O1 0.808736 0.904542 0.250750
O O2 0.789220 0.790933 0.393255
O O3 0.000000 0.824118 0.250000
O O4 0.000000 0.863606 0.750000
O O5 0.264059 0.007491 0.496105
O O6 0.000000 0.000000 0.500000
O O7 0.500000 0.525513 0.750000
O O8 0.755465 0.490892 0.727836
O O9 0.732720 0.598822 0.869980
O O10 0.500000 0.672629 0.750000
O O11 0.279971 0.706844 0.834021
O O12 0.223348 0.683226 0.277820
O O13 0.000000 0.286165 0.250000
#
# Coordination Sequence:
#
# PCOD8116659 Si02
#       5
#     4   4   4   4   4
#     4  11  18  29  46  70 107 147 177 214 276 336
#     4  10  15  24  40  66  98 139 165 220 273 328
#     4   9  17  31  55  84 106 131 178 240 285 314
#     4  11  22  39  61  84 112 148 193 232 273 338
#     4  11  23  37  55  82 117 158 183 227 283 340
#
# _framework density 19.98779
#
# number of rings (size 3 to 8) (size 9 to 14) (size 15 to 20)
#    0.000    1.600    4.000    4.800    0.000    3.200 
#    0.000    0.000    0.000   12.000    0.000    0.000 
#    0.000   16.000    0.000    0.000    0.000    0.000 
#
# Total GULP energy -247865.372919 kJ/mol
# GULP energy per Si atom -12393.268646 kJ/mol
# Density = 1.994230 g / cm^3
# Si number density = 19.987790 Si / 1000 Ang^3
#
#
#
# Elastic Constant Matrix: (Units=GPa)
#
#
# Indices 1 2 3 4 5 6 
#
# 1 65.5059 62.2655 40.4710 0.0000 -32.9858 0.0000
# 2 62.2655 150.7204 45.1130 0.0000 -14.8910 0.0000
# 3 40.4710 45.1130 104.1155 0.0000 -44.9277 0.0000
# 4 0.0000 0.0000 0.0000 25.1202 0.0000 -18.7967
# 5 -32.9858 -14.8910 -44.9277 0.0000 39.3245 0.0000
# 6 0.0000 0.0000 0.0000 -18.7967 0.0000 26.6452
#
#
#
# Elastic Compliance Matrix: (Units=1/GPa)
#
#
# Indices 1 2 3 4 5 6 
#
# 1 0.050588 -0.018774 0.007325 0.000000 0.043693 0.000000
# 2 -0.018774 0.014653 -0.006810 0.000000 -0.017980 0.000000
# 3 0.007325 -0.006810 0.022183 0.000000 0.028909 0.000000
# 4 0.000000 0.000000 0.000000 0.084316 0.000000 0.059480
# 5 0.043693 -0.017980 0.028909 0.000000 0.088300 0.000000
# 6 0.000000 0.000000 0.000000 0.059480 0.000000 0.079490
#
#
# Mechanical properties :
#
#
# Convention : Reuss Voigt Hill
#
# Bulk Modulus (GPa) = 19.64421 68.44901 44.04661
# Shear Modulus (GPa) = 12.72213 29.71746 21.21979
#
# Velocity S-wave (km/s) = 2.52562 3.86006 3.26181
# Velocity P-wave (km/s) = 4.28421 7.36115 6.02250
#
# Compressibility (1/GPa) = 0.05090560
#
# Stress axis : x y z
#
# Youngs Moduli (GPa) = 19.76760 68.24649 45.07988
#
# Poissons Ratio (x) = 1.28129 -0.33022
# Poissons Ratio (y) = 0.37113 0.30698
# Poissons Ratio (z) = -0.14480 0.46473
#
# Static dielectric constant tensor:
#      x y z
#    x 3.812220 0.000000 -1.336560 
#    y 0.000000 3.834230 0.000000 
#    z -1.336560 0.000000 5.171000 
# 
# 
# High freq. dielectric constant tensor:
#      x y z
#    x 1.734200 0.000000 -0.055150 
#    y 0.000000 1.796990 0.000000 
#    z -0.055150 0.000000 1.781070 
# 
# From -- ./inp_files/1878.got.cif
#   From: 2010.06.25/outbox.cif.g09.slc.cpg/sg13_1_cif.got.tgz:1878.got - 2010.06.28 04:50:58.
