data_PCOD8116712
_publ_section_title
;
Structure prediction by ZEFSAII (Michael W. Deem and Ramdas Pophale) SiO2 
 PCOD8116712
Probable space group: P 2/C
;
_chemical_formula_sum "Si O2"
_cell_formula_units_Z 28
_cell_length_a 30.940091
_cell_length_b 8.971301
_cell_length_c 30.685892
_cell_angle_alpha 90.000000
_cell_angle_beta 9.201907
_cell_angle_gamma 90.000000
_cell_volume 1362.079229
_symmetry_space_group_name_H-M "P 2/C"
_symmetry_group_IT_number 13
_symmetry_cell_setting 'monoclinic'
loop_
_space_group_symop_operation_xyz
x,y,z
-x,y,1/2-z
-x,-y,-z
x,-y,1/2+z
loop_
_atom_site_type_symbol
_atom_site_label
_atom_site_fract_x
_atom_site_fract_y
_atom_site_fract_z
Si Si1 0.873118 0.868963 0.716223
Si Si2 0.946438 0.644002 0.352888
Si Si3 0.762966 0.675890 0.015810
Si Si4 0.416960 0.115697 0.727984
Si Si5 0.624931 0.180997 0.934044
Si Si6 0.911515 0.170490 0.084918
Si Si7 0.544813 0.780709 0.608749
O O1 0.916614 0.766212 0.629742
O O2 0.160275 0.908392 0.451937
O O3 0.660090 0.791846 0.961919
O O4 0.716733 0.017866 0.857534
O O5 0.891728 0.467723 0.411225
O O6 0.697751 0.729938 0.620193
O O7 0.000000 0.692855 0.250000
O O8 0.195329 0.694468 0.133743
O O9 0.500000 0.626653 0.250000
O O10 0.676506 0.798498 0.136428
O O11 0.000000 0.747353 0.750000
O O12 0.551497 0.959178 0.608272
O O13 0.386507 0.180658 0.136865
O O14 0.526727 0.265869 0.075534
O O15 0.878012 0.257688 0.656409
O O16 0.000000 0.000000 0.000000
#
# Coordination Sequence:
#
# PCOD8116712 Si02
#       7
#     4   4   4   4   4   4   4
#     4  10  18  31  50  80 116 150 183 229 283 341
#     4  11  23  40  59  80 109 149 194 235 280 347
#     4  11  24  43  62  84 113 154 201 242 286 356
#     4  11  22  36  56  86 118 145 184 241 295 340
#     4  10  18  29  47  78 114 147 182 228 280 337
#     4  10  16  27  47  74 112 153 182 219 277 339
#     4  11  21  36  57  86 116 144 184 240 292 336
#
# _framework density 20.556805000000001
#
# number of rings (size 3 to 8) (size 9 to 14) (size 15 to 20)
#    0.000    1.429    0.000   11.571    0.000    1.714 
#    0.000    0.000    0.000    0.000    0.000   20.000 
#    0.000    0.000    0.000    0.000    0.000    0.000 
#
# Total GULP energy -347015.028659 kJ/mol
# GULP energy per Si atom -12393.393881 kJ/mol
# Density = 2.051002 g / cm^3
# Si number density = 20.556805 Si / 1000 Ang^3
#
#
#
# Elastic Constant Matrix: (Units=GPa)
#
#
# Indices 1 2 3 4 5 6 
#
# 1 109.3012 47.6586 45.6466 0.0000 18.1484 0.0000
# 2 47.6586 57.7704 32.0858 0.0000 4.6408 0.0000
# 3 45.6466 32.0858 144.1582 0.0000 12.1119 0.0000
# 4 0.0000 0.0000 0.0000 16.5069 0.0000 -6.8325
# 5 18.1484 4.6408 12.1119 0.0000 68.7997 0.0000
# 6 0.0000 0.0000 0.0000 -6.8325 0.0000 2.0372
#
#
#
# Elastic Compliance Matrix: (Units=1/GPa)
#
#
# Indices 1 2 3 4 5 6 
#
# 1 0.015474 -0.011348 -0.002127 0.000000 -0.002942 0.000000
# 2 -0.011348 0.028095 -0.002794 0.000000 0.001590 0.000000
# 3 -0.002127 -0.002794 0.008292 0.000000 -0.000710 0.000000
# 4 0.000000 0.000000 0.000000 -0.156036 0.000000 -0.523331
# 5 -0.002942 0.001590 -0.000710 0.000000 0.015329 0.000000
# 6 0.000000 0.000000 0.000000 -0.523331 0.000000 -1.264333
#
#
# Mechanical properties :
#
#
# Convention : Reuss Voigt Hill
#
# Bulk Modulus (GPa) = 51.74820 62.44576 57.09698
# Shear Modulus (GPa) = -3.80459 29.85800 13.02670
#
# Velocity S-wave (km/s) = -1.36191 3.81525 2.52006
# Velocity P-wave (km/s) = 4.77021 7.06055 6.02521
#
# Compressibility (1/GPa) = 0.01932434
#
# Stress axis : x y z
#
# Youngs Moduli (GPa) = 64.62630 35.59327 120.60219
#
# Poissons Ratio (x) = 0.40390 0.25649
# Poissons Ratio (y) = 0.73336 0.33693
# Poissons Ratio (z) = 0.13744 0.09944
#
# Static dielectric constant tensor:
#      x y z
#    x 4.545100 0.000000 0.797170 
#    y 0.000000 3.028940 0.000000 
#    z 0.797170 0.000000 4.545370 
# 
# 
# High freq. dielectric constant tensor:
#      x y z
#    x 1.828240 0.000000 0.016830 
#    y 0.000000 1.733980 0.000000 
#    z 0.016830 0.000000 1.840620 
# 
# From -- ./inp_files/98038.got.cif
#   From: 2010.06.25/outbox.cif.g09.slc.cpg/sg13_50_cif.got.tgz:98038.got - 2010.06.28 04:50:58.
