data_PCOD8116578
_publ_section_title
;
Structure prediction by ZEFSAII (Michael W. Deem and Ramdas Pophale) SiO2 
 PCOD8116578
Probable space group: C 2/M
;
_chemical_formula_sum "Si O2"
_cell_formula_units_Z 32
_cell_length_a 24.000000
_cell_length_b 18.000000
_cell_length_c 15.000000
_cell_angle_alpha 90.000000
_cell_angle_beta 150.000000
_cell_angle_gamma 90.000000
_cell_volume 3240.000000
_symmetry_space_group_name_H-M "C 2/M"
_symmetry_group_IT_number 12
_symmetry_cell_setting 'monoclinic'
loop_
_space_group_symop_operation_xyz
x,y,z
-x,y,-z
-x,-y,-z
x,-y,z
1/2+x,1/2+y,z
1/2-x,1/2+y,-z
1/2-x,1/2-y,-z
1/2+x,1/2-y,z
loop_
_atom_site_type_symbol
_atom_site_label
_atom_site_fract_x
_atom_site_fract_y
_atom_site_fract_z
Si Si1 0.390126 0.588438 0.671289
Si Si2 0.229113 0.357027 0.943022
Si Si3 0.714735 0.682895 0.625104
Si Si4 0.731525 0.150077 0.608896
Si Si5 0.867553 0.214265 0.291106
Si Si6 0.148157 0.084714 0.055400
Si Si7 0.015420 0.412971 0.755663
Si Si8 0.907055 0.418834 0.943199
O O1 0.375139 0.500000 0.635368
O O2 0.369389 0.632377 0.549925
O O3 0.302351 0.614238 0.626034
O O4 0.517531 0.607897 0.874107
O O5 0.181988 0.290236 0.816922
O O6 0.294868 0.408041 0.963245
O O7 0.117663 0.392717 0.831283
O O8 0.321955 0.341779 0.150000
O O9 0.730752 0.761019 0.597154
O O10 0.682136 0.692290 0.682899
O O11 0.829977 0.639994 0.787814
O O12 0.788600 0.132547 0.782569
O O13 0.601885 0.125143 0.432781
O O14 0.000000 0.215875 0.500000
O O15 0.158399 0.000000 0.100062
O O16 0.993842 0.500000 0.720491
O O17 0.046652 0.387164 0.898895
O O18 0.849607 0.500000 0.881747
O O19 0.000000 0.432725 0.000000
#
# Coordination Sequence:
#
# PCOD8116578 Si02
#       8
#     8   8   8   8   8   8   8   8
#     4  11  25  45  68  95 132 175 221 275 334 401
#     4  11  23  42  65  97 135 175 229 274 328 397
#     4  12  23  42  66  98 128 168 221 268 334 400
#     4  12  25  42  66 100 133 174 222 278 337 399
#     4  11  23  42  65  96 138 177 216 276 336 389
#     4  11  24  43  65  93 132 178 223 273 330 394
#     4  11  23  41  67  96 133 177 224 276 331 396
#     4  10  22  41  65  95 132 170 214 271 332 396
#
# _framework density 9.8765429999999999
#
# number of rings (size 3 to 8) (size 9 to 14) (size 15 to 20)
#    0.000    0.875    2.500    4.875    0.000    5.000 
#    0.000    1.250    0.000    3.000    0.000    0.000 
#    0.000    0.000    0.000    0.000    0.000    0.000 
#
# Total GULP energy -396508.940812 kJ/mol
# GULP energy per Si atom -12390.904400 kJ/mol
# Density = 0.985406 g / cm^3
# Si number density = 9.876543 Si / 1000 Ang^3
#
#
#
# Elastic Constant Matrix: (Units=GPa)
#
#
# Indices 1 2 3 4 5 6 
#
# 1 126.9358 20.4427 39.0016 0.0000 -3.8302 0.0000
# 2 20.4427 112.3754 56.2739 0.0000 -2.8047 0.0000
# 3 39.0016 56.2739 171.6593 0.0000 -1.6696 0.0000
# 4 0.0000 0.0000 0.0000 52.4516 0.0000 -1.4633
# 5 -3.8302 -2.8047 -1.6696 0.0000 45.7153 0.0000
# 6 0.0000 0.0000 0.0000 -1.4633 0.0000 35.6393
#
#
#
# Elastic Compliance Matrix: (Units=1/GPa)
#
#
# Indices 1 2 3 4 5 6 
#
# 1 0.008531 -0.000681 -0.001709 0.000000 0.000611 0.000000
# 2 -0.000681 0.010713 -0.003353 0.000000 0.000478 0.000000
# 3 -0.001709 -0.003353 0.007312 0.000000 -0.000082 0.000000
# 4 0.000000 0.000000 0.000000 0.019087 0.000000 0.000784
# 5 0.000611 0.000478 -0.000082 0.000000 0.021952 0.000000
# 6 0.000000 0.000000 0.000000 0.000784 0.000000 0.028091
#
#
# Mechanical properties :
#
#
# Convention : Reuss Voigt Hill
#
# Bulk Modulus (GPa) = 66.35145 71.37855 68.86500
# Shear Modulus (GPa) = 44.56471 46.44472 45.50472
#
# Velocity S-wave (km/s) = 4.75498 4.85424 4.80487
# Velocity P-wave (km/s) = 7.98811 8.22387 8.10685
#
# Compressibility (1/GPa) = 0.01507126
#
# Stress axis : x y z
#
# Youngs Moduli (GPa) = 117.21650 93.34021 136.75848
#
# Poissons Ratio (x) = 0.06355 0.23375
# Poissons Ratio (y) = 0.07980 0.45852
# Poissons Ratio (z) = 0.20035 0.31295
#
# Static dielectric constant tensor:
#      x y z
#    x 3.929780 0.000000 -0.076090 
#    y 0.000000 3.779540 0.000000 
#    z -0.076090 0.000000 4.075770 
# 
# 
# High freq. dielectric constant tensor:
#      x y z
#    x 1.798920 0.000000 -0.007790 
#    y 0.000000 1.782320 0.000000 
#    z -0.007790 0.000000 1.804590 
# 
# From -- ./inp_files/241542.got.cif
#   From: 2010.06.25/outbox.ucp.g09.slc.cvg/sg12_121_cif.got.tgz:241542.got - 2010.06.28 13:50:54.
