data_PCOD8116121
_publ_section_title
;
Structure prediction by ZEFSAII (Michael W. Deem and Ramdas Pophale) SiO2 
 PCOD8116121
Probable space group: C 2/M
;
_chemical_formula_sum "Si O2"
_cell_formula_units_Z 64
_cell_length_a 32.635759
_cell_length_b 9.233673
_cell_length_c 13.883726
_cell_angle_alpha 90.000000
_cell_angle_beta 95.121261
_cell_angle_gamma 90.000000
_cell_volume 4167.130231
_symmetry_space_group_name_H-M "C 2/M"
_symmetry_group_IT_number 12
_symmetry_cell_setting 'monoclinic'
loop_
_space_group_symop_operation_xyz
x,y,z
-x,y,-z
-x,-y,-z
x,-y,z
1/2+x,1/2+y,z
1/2-x,1/2+y,-z
1/2-x,1/2-y,-z
1/2+x,1/2-y,z
loop_
_atom_site_type_symbol
_atom_site_label
_atom_site_fract_x
_atom_site_fract_y
_atom_site_fract_z
Si Si1 0.545777 0.336447 0.469169
Si Si2 0.034768 0.672129 0.078142
Si Si3 0.016762 0.330580 0.288754
Si Si4 0.222038 0.163507 0.862640
Si Si5 0.856424 0.667952 0.189917
Si Si6 0.072247 0.331724 0.650177
Si Si7 0.122857 0.330939 0.023658
Si Si8 0.298747 0.336310 0.917566
O O1 0.500000 0.331117 0.500000
O O2 0.561215 0.500000 0.457144
O O3 0.547023 0.253072 0.367925
O O4 0.575470 0.257946 0.551940
O O5 0.032734 0.500000 0.074135
O O6 0.026349 0.727612 0.184137
O O7 0.079220 0.726549 0.052636
O O8 0.000000 0.737185 0.000000
O O9 0.026148 0.500000 0.301355
O O10 0.969262 0.295683 0.300468
O O11 0.184524 0.239671 0.799004
O O12 0.263892 0.251308 0.850036
O O13 0.227041 0.000000 0.825353
O O14 0.213066 0.164641 0.973549
O O15 0.844570 0.500000 0.196092
O O16 0.889791 0.715001 0.275517
O O17 0.875504 0.700945 0.089548
O O18 0.073779 0.500000 0.623422
O O19 0.129440 0.500000 0.046732
O O20 0.157887 0.243747 0.088260
O O21 0.301867 0.500000 0.879015
#
# Coordination Sequence:
#
# PCOD8116121 Si02
#       8
#     8   8   8   8   8   8   8   8
#     4   9  17  28  41  57  77 102 133 170 211 249
#     4   9  16  26  42  63  84 108 141 176 204 232
#     4   9  16  27  43  60  79 106 140 174 204 236
#     4   9  16  25  38  56  77 103 134 166 201 241
#     4   9  16  25  38  58  84 110 134 163 201 243
#     4   9  16  26  41  60  81 106 136 168 203 244
#     4   9  16  26  40  58  81 109 140 171 201 235
#     4   9  16  26  39  54  75 104 137 170 202 237
#
# _framework density 15.358290999999999
#
# number of rings (size 3 to 8) (size 9 to 14) (size 15 to 20)
#    0.000    3.000    0.000    1.875    0.000    8.000 
#    0.000    0.625    0.000    3.000    0.000    0.000 
#    0.000    1.000    0.000    3.000    0.000    4.000 
#
# Total GULP energy -396771.788185 kJ/mol
# GULP energy per Si atom -12399.118381 kJ/mol
# Density = 1.532334 g / cm^3
# Si number density = 15.358291 Si / 1000 Ang^3
#
#
#
# Elastic Constant Matrix: (Units=GPa)
#
#
# Indices 1 2 3 4 5 6 
#
# 1 108.9895 53.5596 53.7821 0.0000 22.3131 0.0000
# 2 53.5596 82.7702 48.0126 0.0000 16.4748 0.0000
# 3 53.7821 48.0126 99.9875 0.0000 16.7014 0.0000
# 4 0.0000 0.0000 0.0000 13.8071 0.0000 6.2669
# 5 22.3131 16.4748 16.7014 0.0000 20.9083 0.0000
# 6 0.0000 0.0000 0.0000 6.2669 0.0000 20.9990
#
#
#
# Elastic Compliance Matrix: (Units=1/GPa)
#
#
# Indices 1 2 3 4 5 6 
#
# 1 0.016141 -0.006227 -0.004194 0.000000 -0.008969 0.000000
# 2 -0.006227 0.020333 -0.005595 0.000000 -0.004908 0.000000
# 3 -0.004194 -0.005595 0.015532 0.000000 -0.003523 0.000000
# 4 0.000000 0.000000 0.000000 0.083775 0.000000 -0.025001
# 5 -0.008969 -0.004908 -0.003523 0.000000 0.064080 0.000000
# 6 0.000000 0.000000 0.000000 -0.025001 0.000000 0.055083
#
#
# Mechanical properties :
#
#
# Convention : Reuss Voigt Hill
#
# Bulk Modulus (GPa) = 50.06137 66.93951 58.50044
# Shear Modulus (GPa) = 17.02811 20.23572 18.63192
#
# Velocity S-wave (km/s) = 3.33336 3.63378 3.48681
# Velocity P-wave (km/s) = 6.89068 7.82852 7.37452
#
# Compressibility (1/GPa) = 0.01997548
#
# Stress axis : x y z
#
# Youngs Moduli (GPa) = 61.95498 49.18147 64.38319
#
# Poissons Ratio (x) = 0.30623 0.27002
# Poissons Ratio (y) = 0.38576 0.36020
# Poissons Ratio (z) = 0.25983 0.27515
#
# Static dielectric constant tensor:
#      x y z
#    x 2.876370 0.000000 0.181420 
#    y 0.000000 2.936000 0.000000 
#    z 0.181420 0.000000 2.794130 
# 
# 
# High freq. dielectric constant tensor:
#      x y z
#    x 1.570890 0.000000 0.024010 
#    y 0.000000 1.583490 0.000000 
#    z 0.024010 0.000000 1.558390 
# 
# From -- ./inp_files/248516.got.cif
#   From: 2010.06.25/outbox.cif.g09.slc.cpg/sg12_125_cif.got.tgz:248516.got - 2010.06.28 00:19:55.
