data_PCOD8116134
_publ_section_title
;
Structure prediction by ZEFSAII (Michael W. Deem and Ramdas Pophale) SiO2 
 PCOD8116134
Probable space group: C 2/M
;
_chemical_formula_sum "Si O2"
_cell_formula_units_Z 56
_cell_length_a 29.514125
_cell_length_b 9.480686
_cell_length_c 16.386564
_cell_angle_alpha 90.000000
_cell_angle_beta 42.741259
_cell_angle_gamma 90.000000
_cell_volume 3111.918386
_symmetry_space_group_name_H-M "C 2/M"
_symmetry_group_IT_number 12
_symmetry_cell_setting 'monoclinic'
loop_
_space_group_symop_operation_xyz
x,y,z
-x,y,-z
-x,-y,-z
x,-y,z
1/2+x,1/2+y,z
1/2-x,1/2+y,-z
1/2-x,1/2-y,-z
1/2+x,1/2-y,z
loop_
_atom_site_type_symbol
_atom_site_label
_atom_site_fract_x
_atom_site_fract_y
_atom_site_fract_z
Si Si1 0.674160 0.834575 0.423951
Si Si2 0.804130 0.662772 0.243829
Si Si3 0.086213 0.665483 0.203526
Si Si4 0.832278 0.336854 0.753330
Si Si5 0.704005 0.837189 0.934651
Si Si6 0.048870 0.668120 0.691831
Si Si7 0.942419 0.332142 0.135372
O O1 0.741611 0.753270 0.357854
O O2 0.650884 0.799598 0.362357
O O3 0.616214 0.777241 0.559685
O O4 0.687545 0.000000 0.417814
O O5 0.789908 0.500000 0.284052
O O6 0.816533 0.683821 0.131770
O O7 0.869974 0.720256 0.201776
O O8 0.081764 0.500000 0.193696
O O9 0.103540 0.699706 0.275142
O O10 0.014691 0.731163 0.273370
O O11 0.144086 0.725545 0.068232
O O12 0.812771 0.500000 0.788671
O O13 0.770206 0.248513 0.868861
O O14 0.718242 0.000000 0.936318
O O15 0.048766 0.500000 0.689441
O O16 0.045619 0.723747 0.788850
O O17 0.944813 0.500000 0.129226
O O18 0.000000 0.270242 0.000000
#
# Coordination Sequence:
#
# PCOD8116134 Si02
#       7
#     8   8   8   8   8   8   8
#     4   9  18  31  45  64  90 118 147 177 212 256
#     4   9  17  29  47  68  89 114 143 179 219 256
#     4   9  16  26  42  64  88 114 145 182 220 254
#     4   9  17  28  43  64  89 116 145 177 214 258
#     4   9  16  27  44  66  89 112 142 180 220 259
#     4   9  17  28  43  64  89 115 145 182 218 253
#     4   9  16  27  45  69  92 112 140 180 222 259
#
# _framework density 17.995332000000001
#
# number of rings (size 3 to 8) (size 9 to 14) (size 15 to 20)
#    0.000    3.000    0.000    1.286    0.000    4.571 
#    0.000    2.857    0.000    2.143    0.000    4.000 
#    0.000    0.000    0.000    0.000    0.000    0.000 
#
# Total GULP energy -347137.458700 kJ/mol
# GULP energy per Si atom -12397.766382 kJ/mol
# Density = 1.795437 g / cm^3
# Si number density = 17.995332 Si / 1000 Ang^3
#
#
#
# Elastic Constant Matrix: (Units=GPa)
#
#
# Indices 1 2 3 4 5 6 
#
# 1 152.1214 26.9569 75.4678 0.0000 -17.9443 0.0001
# 2 26.9569 25.2109 27.6394 0.0008 -6.5469 -0.0001
# 3 75.4678 27.6394 151.2387 0.0001 -10.8583 0.0000
# 4 0.0000 0.0008 0.0001 18.2908 0.0000 -4.7568
# 5 -17.9443 -6.5469 -10.8583 0.0000 23.7687 0.0000
# 6 0.0001 -0.0001 0.0000 -4.7568 0.0000 17.0034
#
#
#
# Elastic Compliance Matrix: (Units=1/GPa)
#
#
# Indices 1 2 3 4 5 6 
#
# 1 0.009831 -0.005453 -0.003602 0.000000 0.004275 0.000000
# 2 -0.005453 0.054961 -0.006754 -0.000003 0.007937 0.000000
# 3 -0.003602 -0.006754 0.009631 0.000000 -0.000180 0.000000
# 4 0.000000 -0.000003 0.000000 0.058962 0.000000 0.016495
# 5 0.004275 0.007937 -0.000180 0.000000 0.047403 0.000000
# 6 0.000000 0.000000 0.000000 0.016495 0.000000 0.063426
#
#
# Mechanical properties :
#
#
# Convention : Reuss Voigt Hill
#
# Bulk Modulus (GPa) = 23.36129 65.41101 44.38615
# Shear Modulus (GPa) = 17.23539 25.04637 21.14088
#
# Velocity S-wave (km/s) = 3.09814 3.73477 3.43125
# Velocity P-wave (km/s) = 5.08016 7.41793 6.35743
#
# Compressibility (1/GPa) = 0.04280586
#
# Stress axis : x y z
#
# Youngs Moduli (GPa) = 101.71525 18.19472 103.83175
#
# Poissons Ratio (x) = 0.09921 0.37405
# Poissons Ratio (y) = 0.55463 0.70123
# Poissons Ratio (z) = 0.36642 0.12288
#
# Static dielectric constant tensor:
#      x y z
#    x 3.521320 0.000000 -0.019590 
#    y 0.000000 2.875210 0.000000 
#    z -0.019590 0.000000 3.430470 
# 
# 
# High freq. dielectric constant tensor:
#      x y z
#    x 1.708740 0.000000 0.001620 
#    y 0.000000 1.638480 0.000000 
#    z 0.001620 0.000000 1.698790 
# 
# From -- ./inp_files/245618.got.cif
#   From: 2010.06.25/outbox.cif.g09.slc.cpg/sg12_123_cif.got.tgz:245618.got - 2010.06.28 00:19:55.
