data_PCOD8116039
_publ_section_title
;
Structure prediction by ZEFSAII (Michael W. Deem and Ramdas Pophale) SiO2 
 PCOD8116039
Probable space group: C 2/M
;
_chemical_formula_sum "Si O2"
_cell_formula_units_Z 56
_cell_length_a 18.082629
_cell_length_b 20.169166
_cell_length_c 16.867470
_cell_angle_alpha 90.000000
_cell_angle_beta 145.089903
_cell_angle_gamma 90.000000
_cell_volume 3520.593777
_symmetry_space_group_name_H-M "C 2/M"
_symmetry_group_IT_number 12
_symmetry_cell_setting 'monoclinic'
loop_
_space_group_symop_operation_xyz
x,y,z
-x,y,-z
-x,-y,-z
x,-y,z
1/2+x,1/2+y,z
1/2-x,1/2+y,-z
1/2-x,1/2-y,-z
1/2+x,1/2-y,z
loop_
_atom_site_type_symbol
_atom_site_label
_atom_site_fract_x
_atom_site_fract_y
_atom_site_fract_z
Si Si1 0.490629 0.421774 0.580014
Si Si2 0.668079 0.426730 0.872272
Si Si3 0.530438 0.307844 0.938740
Si Si4 0.716822 0.183870 0.926282
Si Si5 0.052767 0.726309 0.285349
Si Si6 0.585589 0.425735 0.244194
Si Si7 0.695569 0.649470 0.474957
O O1 0.500000 0.393002 0.500000
O O2 0.472211 0.500000 0.564595
O O3 0.621525 0.403063 0.743881
O O4 0.360864 0.391785 0.502247
O O5 0.731429 0.500000 0.925220
O O6 0.538156 0.428334 0.808699
O O7 0.770187 0.376924 0.000444
O O8 0.486532 0.252394 0.836659
O O9 0.447500 0.376039 0.857004
O O10 0.500000 0.280855 0.000000
O O11 0.684251 0.323721 0.061135
O O12 0.565871 0.191129 0.771281
O O13 0.750000 0.250000 0.000000
O O14 0.161820 0.670573 0.373974
O O15 0.102419 0.787325 0.381035
O O16 0.621505 0.500000 0.245017
O O17 0.701175 0.394821 0.399238
#
# Coordination Sequence:
#
# PCOD8116039 Si02
#       7
#     8   8   8   8   8   8   8
#     4   9  16  27  44  67  90 113 147 191 229 264
#     4   8  14  26  43  63  87 113 146 185 217 259
#     4   9  17  29  44  68  94 112 139 186 231 269
#     4   9  16  29  47  64  85 119 153 181 222 271
#     4   9  18  31  45  62  88 123 150 187 216 268
#     4   8  14  26  47  66  82 112 147 180 220 262
#     4   9  16  30  46  62  88 114 155 187 220 260
#
# _framework density 15.906408000000001
#
# number of rings (size 3 to 8) (size 9 to 14) (size 15 to 20)
#    0.000    3.286    0.000    3.857    0.000    0.286 
#    7.714    1.429    0.000    0.000    0.000    4.000 
#    0.000    0.000    0.000    0.000    0.000    0.000 
#
# Total GULP energy -346931.004557 kJ/mol
# GULP energy per Si atom -12390.393020 kJ/mol
# Density = 1.587020 g / cm^3
# Si number density = 15.906408 Si / 1000 Ang^3
#
#
#
# Elastic Constant Matrix: (Units=GPa)
#
#
# Indices 1 2 3 4 5 6 
#
# 1 74.0294 13.2597 41.6046 -0.0001 -0.7059 -0.0001
# 2 13.2597 60.3686 26.1982 0.0000 11.5307 0.0000
# 3 41.6046 26.1982 76.4677 -0.0005 14.6840 -0.0003
# 4 -0.0001 0.0000 -0.0005 21.5468 -0.0004 2.8119
# 5 -0.7059 11.5307 14.6840 -0.0004 21.4937 -0.0003
# 6 -0.0001 0.0000 -0.0003 2.8119 -0.0003 17.9144
#
#
#
# Elastic Compliance Matrix: (Units=1/GPa)
#
#
# Indices 1 2 3 4 5 6 
#
# 1 0.021159 -0.000875 -0.013163 0.000000 0.010157 0.000000
# 2 -0.000875 0.020390 -0.005068 0.000000 -0.007505 0.000000
# 3 -0.013163 -0.005068 0.024789 0.000000 -0.014648 0.000000
# 4 0.000000 0.000000 0.000000 0.047381 0.000001 -0.007437
# 5 0.010157 -0.007505 -0.014648 0.000001 0.060892 0.000001
# 6 0.000000 0.000000 0.000000 -0.007437 0.000001 0.056988
#
#
# Mechanical properties :
#
#
# Convention : Reuss Voigt Hill
#
# Bulk Modulus (GPa) = 35.55597 41.44340 38.49969
# Shear Modulus (GPa) = 17.90908 20.84453 19.37680
#
# Velocity S-wave (km/s) = 3.35909 3.62394 3.49402
# Velocity P-wave (km/s) = 6.11935 6.60467 6.36663
#
# Compressibility (1/GPa) = 0.02812467
#
# Stress axis : x y z
#
# Youngs Moduli (GPa) = 47.26035 49.04322 40.34127
#
# Poissons Ratio (x) = 0.04293 0.53101
# Poissons Ratio (y) = 0.04137 0.20447
# Poissons Ratio (z) = 0.62209 0.24857
#
# Static dielectric constant tensor:
#      x y z
#    x 3.113580 0.000000 0.223250 
#    y 0.000000 3.157020 0.000000 
#    z 0.223250 0.000000 3.297420 
# 
# 
# High freq. dielectric constant tensor:
#      x y z
#    x 1.575740 0.000000 -0.003860 
#    y 0.000000 1.615710 0.000000 
#    z -0.003860 0.000000 1.594990 
# 
# From -- ./inp_files/285656.got.cif
#   From: 2010.06.25/outbox.cif.g09.slc.cpg/sg12_143_cif.got.tgz:285656.got - 2010.06.28 00:19:55.
