data_PCOD8116092
_publ_section_title
;
Structure prediction by ZEFSAII (Michael W. Deem and Ramdas Pophale) SiO2 
 PCOD8116092
Probable space group: C 2/M
;
_chemical_formula_sum "Si O2"
_cell_formula_units_Z 56
_cell_length_a 34.734887
_cell_length_b 9.660580
_cell_length_c 10.408506
_cell_angle_alpha 90.000000
_cell_angle_beta 105.241561
_cell_angle_gamma 90.000000
_cell_volume 3369.818510
_symmetry_space_group_name_H-M "C 2/M"
_symmetry_group_IT_number 12
_symmetry_cell_setting 'monoclinic'
loop_
_space_group_symop_operation_xyz
x,y,z
-x,y,-z
-x,-y,-z
x,-y,z
1/2+x,1/2+y,z
1/2-x,1/2+y,-z
1/2-x,1/2-y,-z
1/2+x,1/2-y,z
loop_
_atom_site_type_symbol
_atom_site_label
_atom_site_fract_x
_atom_site_fract_y
_atom_site_fract_z
Si Si1 0.910821 0.665142 0.153652
Si Si2 0.122479 0.664799 0.607768
Si Si3 0.503790 0.835326 0.858786
Si Si4 0.717165 0.159045 0.311441
Si Si5 0.290850 0.840913 0.395439
Si Si6 0.420635 0.834991 0.681962
Si Si7 0.633790 0.164426 0.135761
O O1 0.910436 0.500000 0.155537
O O2 0.894613 0.725103 0.273966
O O3 0.955709 0.720823 0.170715
O O4 0.882351 0.720397 0.014499
O O5 0.120743 0.500000 0.604364
O O6 0.168188 0.712855 0.631730
O O7 0.095581 0.723723 0.467531
O O8 0.466131 0.784281 0.741676
O O9 0.504966 0.000000 0.865754
O O10 0.500000 0.776668 0.000000
O O11 0.705353 0.179487 0.449072
O O12 0.755050 0.250752 0.305479
O O13 0.679625 0.210879 0.194253
O O14 0.727758 0.000000 0.291756
O O15 0.282400 0.000000 0.352941
O O16 0.393569 0.775092 0.773789
O O17 0.418428 0.000000 0.680834
O O18 0.631063 0.000000 0.138843
#
# Coordination Sequence:
#
# PCOD8116092 Si02
#       7
#     8   8   8   8   8   8   8
#     4   9  16  23  33  50  74 103 134 166 199 240
#     4   9  16  25  35  51  75 104 134 162 202 250
#     4   9  14  20  31  48  70  99 135 169 197 229
#     4   9  16  26  43  63  79 104 143 176 202 242
#     4   9  16  27  42  60  83 109 135 171 213 246
#     4   9  14  21  34  48  69 101 134 164 195 239
#     4   9  14  23  37  53  72 100 135 165 196 240
#
# _framework density 16.618106999999998
#
# number of rings (size 3 to 8) (size 9 to 14) (size 15 to 20)
#    0.000    3.000    2.857    0.000    0.000    0.571 
#    0.000    3.571    0.000    0.000    0.000    0.000 
#    0.000    0.000    0.000    7.714    0.000    9.000 
#
# Total GULP energy -347077.080416 kJ/mol
# GULP energy per Si atom -12395.610015 kJ/mol
# Density = 1.658028 g / cm^3
# Si number density = 16.618107 Si / 1000 Ang^3
#
#
#
# Elastic Constant Matrix: (Units=GPa)
#
#
# Indices 1 2 3 4 5 6 
#
# 1 168.9837 25.7351 95.0486 0.0000 14.6849 0.0000
# 2 25.7351 15.3594 16.1791 0.0000 6.0962 0.0000
# 3 95.0486 16.1791 143.5420 0.0000 11.0274 0.0000
# 4 0.0000 0.0000 0.0000 6.4721 0.0000 4.0443
# 5 14.6849 6.0962 11.0274 0.0000 34.6030 0.0000
# 6 0.0000 0.0000 0.0000 4.0443 0.0000 13.6055
#
#
#
# Elastic Compliance Matrix: (Units=1/GPa)
#
#
# Indices 1 2 3 4 5 6 
#
# 1 0.011204 -0.012184 -0.005992 0.000000 -0.000699 0.000000
# 2 -0.012184 0.091143 -0.001403 0.000000 -0.010439 0.000000
# 3 -0.005992 -0.001403 0.011151 0.000000 -0.000764 0.000000
# 4 0.000000 0.000000 0.000000 0.189757 0.000000 -0.056407
# 5 -0.000699 -0.010439 -0.000764 0.000000 0.031278 0.000000
# 6 0.000000 0.000000 0.000000 -0.056407 0.000000 0.090267
#
#
# Mechanical properties :
#
#
# Convention : Reuss Voigt Hill
#
# Bulk Modulus (GPa) = 13.45177 66.86784 40.15981
# Shear Modulus (GPa) = 10.23039 23.66426 16.94733
#
# Velocity S-wave (km/s) = 2.48385 3.77769 3.19691
# Velocity P-wave (km/s) = 4.04206 7.70411 6.15189
#
# Compressibility (1/GPa) = 0.07433967
#
# Stress axis : x y z
#
# Youngs Moduli (GPa) = 89.25012 10.97180 89.67601
#
# Poissons Ratio (x) = 0.13368 0.53736
# Poissons Ratio (y) = 1.08743 0.12583
# Poissons Ratio (z) = 0.53481 0.01540
#
# Static dielectric constant tensor:
#      x y z
#    x 3.323500 0.000000 0.096150 
#    y 0.000000 2.396630 0.000000 
#    z 0.096150 0.000000 3.309860 
# 
# 
# High freq. dielectric constant tensor:
#      x y z
#    x 1.651470 0.000000 0.012930 
#    y 0.000000 1.549980 0.000000 
#    z 0.012930 0.000000 1.641170 
# 
# From -- ./inp_files/181642.got.cif
#   From: 2010.06.25/outbox.cif.g09.slc.cpg/sg12_91_cif.got.tgz:181642.got - 2010.06.28 00:19:55.
