data_PCOD8116446
_publ_section_title
;
Structure prediction by ZEFSAII (Michael W. Deem and Ramdas Pophale) SiO2 
 PCOD8116446
Probable space group: C 2/M
;
_chemical_formula_sum "Si O2"
_cell_formula_units_Z 32
_cell_length_a 18.000000
_cell_length_b 9.000000
_cell_length_c 30.000000
_cell_angle_alpha 90.000000
_cell_angle_beta 40.000000
_cell_angle_gamma 90.000000
_cell_volume 3123.947783
_symmetry_space_group_name_H-M "C 2/M"
_symmetry_group_IT_number 12
_symmetry_cell_setting 'monoclinic'
loop_
_space_group_symop_operation_xyz
x,y,z
-x,y,-z
-x,-y,-z
x,-y,z
1/2+x,1/2+y,z
1/2-x,1/2+y,-z
1/2-x,1/2-y,-z
1/2+x,1/2-y,z
loop_
_atom_site_type_symbol
_atom_site_label
_atom_site_fract_x
_atom_site_fract_y
_atom_site_fract_z
Si Si1 0.303223 0.161144 0.664794
Si Si2 0.057168 0.337391 0.561271
Si Si3 0.177301 0.173538 0.808990
Si Si4 0.584318 0.674072 0.058609
Si Si5 0.272801 0.325138 0.921854
Si Si6 0.176312 0.829190 0.430720
Si Si7 0.858125 0.175249 0.787582
Si Si8 0.419851 0.175506 0.353944
O O1 0.422703 0.147264 0.636507
O O2 0.201750 0.206434 0.745506
O O3 0.335334 0.286509 0.614942
O O4 0.273134 0.000000 0.656617
O O5 0.110941 0.500000 0.527739
O O6 0.081071 0.244961 0.505945
O O7 0.106730 0.265082 0.583724
O O8 0.258112 0.277578 0.800449
O O9 0.048227 0.222654 0.879740
O O10 0.200148 0.000000 0.808778
O O11 0.598059 0.500000 0.045755
O O12 0.640251 0.726513 0.079362
O O13 0.647207 0.753120 0.988240
O O14 0.255767 0.500000 0.928343
O O15 0.325078 0.265548 0.851753
O O16 0.305148 0.778626 0.381552
O O17 0.153334 0.000000 0.447910
O O18 0.978736 0.244162 0.718371
O O19 0.871517 0.000000 0.780677
O O20 0.444314 0.000000 0.343361
#
# Coordination Sequence:
#
# PCOD8116446 Si02
#       8
#     8   8   8   8   8   8   8   8
#     4  10  21  38  60  82 111 154 193 231 281 339
#     4  10  20  39  62  80 107 152 196 230 280 345
#     4  10  21  39  61  83 114 154 194 236 278 335
#     4   9  19  37  62  87 112 151 195 229 272 333
#     4   9  20  38  58  86 120 149 184 232 284 332
#     4  11  24  37  56  87 117 145 185 242 292 333
#     4  11  23  37  59  87 116 151 189 236 288 336
#     4  10  22  41  59  81 115 152 191 234 284 340
#
# _framework density 10.243449
#
# number of rings (size 3 to 8) (size 9 to 14) (size 15 to 20)
#    0.000    2.000    1.250    1.500    1.750    6.000 
#    0.000    2.500    0.000    0.000    0.000    0.000 
#    0.000    0.000    0.000    0.000    0.000    0.000 
#
# Total GULP energy -396653.406056 kJ/mol
# GULP energy per Si atom -12395.418939 kJ/mol
# Density = 1.022013 g / cm^3
# Si number density = 10.243449 Si / 1000 Ang^3
#
#
#
# Elastic Constant Matrix: (Units=GPa)
#
#
# Indices 1 2 3 4 5 6 
#
# 1 42.0542 22.8913 47.8835 0.0038 4.2920 0.0163
# 2 22.8913 36.4371 75.0576 0.0046 -1.5432 0.0160
# 3 47.8835 75.0576 176.7001 -0.0036 5.5799 -0.0103
# 4 0.0038 0.0046 -0.0036 32.3295 0.0012 12.5494
# 5 4.2920 -1.5432 5.5799 0.0012 29.8808 0.0058
# 6 0.0163 0.0160 -0.0103 12.5494 0.0058 58.4901
#
#
#
# Elastic Compliance Matrix: (Units=1/GPa)
#
#
# Indices 1 2 3 4 5 6 
#
# 1 0.037439 -0.027046 0.001566 0.000001 -0.007067 -0.000002
# 2 -0.027046 0.267122 -0.107328 -0.000015 0.037723 -0.000085
# 3 0.001566 -0.107328 0.051310 0.000007 -0.015350 0.000038
# 4 0.000001 -0.000015 0.000007 0.033742 -0.000002 -0.007239
# 5 -0.007067 0.037723 -0.015350 -0.000002 0.039296 -0.000015
# 6 -0.000002 -0.000085 0.000038 -0.007239 -0.000015 0.018650
#
#
# Mechanical properties :
#
#
# Convention : Reuss Voigt Hill
#
# Bulk Modulus (GPa) = 11.07988 60.76179 35.92083
# Shear Modulus (GPa) = 6.72713 31.43068 19.07891
#
# Velocity S-wave (km/s) = 1.81404 3.92112 3.05499
# Velocity P-wave (km/s) = 3.13172 7.08685 5.47865
#
# Compressibility (1/GPa) = 0.09025371
#
# Stress axis : x y z
#
# Youngs Moduli (GPa) = 26.71029 3.74361 19.48944
#
# Poissons Ratio (x) = 0.10125 -0.03052
# Poissons Ratio (y) = 0.72241 2.09177
# Poissons Ratio (z) = -0.04183 0.40180
#
# Static dielectric constant tensor:
#      x y z
#    x 3.684380 0.000000 -0.060430 
#    y 0.000000 3.485210 0.000000 
#    z -0.060430 0.000000 3.817990 
# 
# 
# High freq. dielectric constant tensor:
#      x y z
#    x 1.785420 0.000000 -0.000950 
#    y 0.000000 1.782260 0.000000 
#    z -0.000950 0.000000 1.811850 
# 
# From -- ./inp_files/378176.got.cif
#   From: 2010.06.25/outbox.ucp.g09.slc.cvg/sg12_190_cif.got.tgz:378176.got - 2010.06.28 13:50:54.
