data_PCOD8116200
_publ_section_title
;
Structure prediction by ZEFSAII (Michael W. Deem and Ramdas Pophale) SiO2 
 PCOD8116200
Probable space group: C 2/M
;
_chemical_formula_sum "Si O2"
_cell_formula_units_Z 24
_cell_length_a 21.000000
_cell_length_b 9.000000
_cell_length_c 27.000000
_cell_angle_alpha 90.000000
_cell_angle_beta 30.000000
_cell_angle_gamma 90.000000
_cell_volume 2551.500000
_symmetry_space_group_name_H-M "C 2/M"
_symmetry_group_IT_number 12
_symmetry_cell_setting 'monoclinic'
loop_
_space_group_symop_operation_xyz
x,y,z
-x,y,-z
-x,-y,-z
x,-y,z
1/2+x,1/2+y,z
1/2-x,1/2+y,-z
1/2-x,1/2-y,-z
1/2+x,1/2-y,z
loop_
_atom_site_type_symbol
_atom_site_label
_atom_site_fract_x
_atom_site_fract_y
_atom_site_fract_z
Si Si1 0.258937 0.822593 0.546517
Si Si2 0.498895 0.173853 0.057588
Si Si3 0.653625 0.329509 0.763420
Si Si4 0.985970 0.830801 0.237149
Si Si5 0.371694 0.327184 0.557843
Si Si6 0.257054 0.823959 0.047892
O O1 0.250000 0.750000 0.500000
O O2 0.131541 0.752657 0.657016
O O3 0.372940 0.760160 0.504269
O O4 0.270140 0.000000 0.536243
O O5 0.381681 0.264006 0.159475
O O6 0.478198 0.000000 0.080972
O O7 0.500000 0.215288 0.000000
O O8 0.630382 0.231548 0.992886
O O9 0.697711 0.500000 0.738028
O O10 0.528678 0.312348 0.812524
O O11 0.765123 0.232365 0.666262
O O12 0.123229 0.774390 0.163509
O O13 0.970496 0.000000 0.263179
O O14 0.500000 0.293728 0.500000
O O15 0.351151 0.500000 0.560809
O O16 0.262789 0.000000 0.036188
O O17 0.250000 0.750000 0.000000
#
# Coordination Sequence:
#
# PCOD8116200 Si02
#       6
#     8   8   8   8   8   8
#     4  10  20  36  57  82 115 148 182 228 278 330
#     4  10  21  35  51  77 112 146 179 220 271 324
#     4  10  19  34  57  80 107 141 180 226 272 328
#     4   8  16  31  52  77 102 136 178 218 266 313
#     4  10  21  38  60  84 109 142 185 230 278 336
#     4  10  18  32  54  77 103 136 178 225 262 313
#
# _framework density 9.4062319999999993
#
# number of rings (size 3 to 8) (size 9 to 14) (size 15 to 20)
#    0.000    2.333    1.667    2.500    0.000    1.667 
#    3.000    0.833    0.000    0.000    0.000    0.000 
#    0.000    0.000    0.000    0.000    0.000    0.000 
#
# Total GULP energy -297334.044942 kJ/mol
# GULP energy per Si atom -12388.918539 kJ/mol
# Density = 0.938482 g / cm^3
# Si number density = 9.406232 Si / 1000 Ang^3
#
#
#
# Elastic Constant Matrix: (Units=GPa)
#
#
# Indices 1 2 3 4 5 6 
#
# 1 136.7328 70.0618 64.3652 0.0028 4.6951 -0.0026
# 2 70.0618 48.1353 32.2138 0.0019 -3.5200 -0.0017
# 3 64.3652 32.2138 62.0990 0.0034 1.7565 -0.0045
# 4 0.0028 0.0019 0.0034 22.3314 -0.0046 4.0463
# 5 4.6951 -3.5200 1.7565 -0.0046 23.4674 0.0052
# 6 -0.0026 -0.0017 -0.0045 4.0463 0.0052 28.5235
#
#
#
# Elastic Compliance Matrix: (Units=1/GPa)
#
#
# Indices 1 2 3 4 5 6 
#
# 1 0.041014 -0.049905 -0.016213 -0.000001 -0.014478 0.000001
# 2 -0.049905 0.093419 0.002593 0.000003 0.023803 -0.000003
# 3 -0.016213 0.002593 0.031527 -0.000004 0.001273 0.000004
# 4 -0.000001 0.000003 -0.000004 0.045961 0.000012 -0.006520
# 5 -0.014478 0.023803 0.001273 0.000012 0.048984 -0.000010
# 6 0.000001 -0.000003 0.000004 -0.006520 -0.000010 0.035984
#
#
# Mechanical properties :
#
#
# Convention : Reuss Voigt Hill
#
# Bulk Modulus (GPa) = 25.70159 64.47209 45.08684
# Shear Modulus (GPa) = 11.44399 20.21955 15.83177
#
# Velocity S-wave (km/s) = 2.46909 3.28196 2.90411
# Velocity P-wave (km/s) = 4.67121 6.97904 5.93832
#
# Compressibility (1/GPa) = 0.03890810
#
# Stress axis : x y z
#
# Youngs Moduli (GPa) = 24.38174 10.70452 31.71850
#
# Poissons Ratio (x) = 0.53421 0.51426
# Poissons Ratio (y) = 1.21678 -0.08223
# Poissons Ratio (z) = 0.39531 -0.02775
#
# Static dielectric constant tensor:
#      x y z
#    x 3.590130 -0.000010 0.128010 
#    y -0.000010 3.346350 -0.000050 
#    z 0.128010 -0.000050 3.404380 
# 
# 
# High freq. dielectric constant tensor:
#      x y z
#    x 1.719540 0.000000 -0.006300 
#    y 0.000000 1.719320 0.000000 
#    z -0.006300 0.000000 1.717540 
# 
# From -- ./inp_files/345384.got.cif
#   From: 2010.06.25/outbox.ucp.g09.slc.cvg/sg12_173_cif.got.tgz:345384.got - 2010.06.28 13:50:54.
