data_PCOD8116492
_publ_section_title
;
Structure prediction by ZEFSAII (Michael W. Deem and Ramdas Pophale) SiO2 
 PCOD8116492
Probable space group: C 2/M
;
_chemical_formula_sum "Si O2"
_cell_formula_units_Z 20
_cell_length_a 21.000000
_cell_length_b 9.000000
_cell_length_c 30.000000
_cell_angle_alpha 90.000000
_cell_angle_beta 20.000000
_cell_angle_gamma 90.000000
_cell_volume 1939.254213
_symmetry_space_group_name_H-M "C 2/M"
_symmetry_group_IT_number 12
_symmetry_cell_setting 'monoclinic'
loop_
_space_group_symop_operation_xyz
x,y,z
-x,y,-z
-x,-y,-z
x,-y,z
1/2+x,1/2+y,z
1/2-x,1/2+y,-z
1/2-x,1/2-y,-z
1/2+x,1/2-y,z
loop_
_atom_site_type_symbol
_atom_site_label
_atom_site_fract_x
_atom_site_fract_y
_atom_site_fract_z
Si Si1 0.969554 0.163550 0.189257
Si Si2 0.329794 0.164148 0.010717
Si Si3 0.930390 0.824818 0.404900
Si Si4 0.642539 0.328332 0.444785
Si Si5 0.288594 0.675412 0.126196
O O1 0.988046 0.265271 0.132868
O O2 0.829694 0.235084 0.316366
O O3 0.898390 0.000000 0.221732
O O4 0.168363 0.147635 0.081176
O O5 0.382505 0.000000 0.994747
O O6 0.258795 0.274983 0.095243
O O7 0.750000 0.750000 0.500000
O O8 0.931328 0.795773 0.457207
O O9 0.127847 0.756909 0.259945
O O10 0.924808 0.000000 0.397344
O O11 0.500000 0.276193 0.500000
O O12 0.692190 0.500000 0.405803
O O13 0.259521 0.500000 0.150280
O O14 0.500000 0.722957 0.000000
#
# Coordination Sequence:
#
# PCOD8116492 Si02
#       5
#     8   8   8   8   8
#     4  10  21  37  60  91 122 157 201 252 309 366
#     4  10  21  38  62  89 121 161 204 250 305 374
#     4  11  24  43  68  95 128 171 218 266 317 384
#     4  10  23  41  61  89 123 162 207 256 311 370
#     4  11  25  42  62  92 130 166 208 264 320 376
#
# _framework density 10.313243
#
# number of rings (size 3 to 8) (size 9 to 14) (size 15 to 20)
#    0.000    1.600    0.000    3.600    2.800    9.200 
#    0.000    0.000    0.000    0.000    0.000    0.000 
#    0.000    0.000    0.000    0.000    0.000    0.000 
#
# Total GULP energy -247983.976827 kJ/mol
# GULP energy per Si atom -12399.198841 kJ/mol
# Density = 1.028977 g / cm^3
# Si number density = 10.313243 Si / 1000 Ang^3
#
#
#
# Elastic Constant Matrix: (Units=GPa)
#
#
# Indices 1 2 3 4 5 6 
#
# 1 99.1051 48.3628 44.4546 0.0710 12.6360 0.0944
# 2 48.3628 132.2483 81.8110 -0.0482 9.1881 -0.0348
# 3 44.4546 81.8110 157.9086 -0.0585 18.0512 -0.0012
# 4 0.0710 -0.0482 -0.0585 39.6448 0.0445 0.8182
# 5 12.6360 9.1881 18.0512 0.0445 35.9091 0.0358
# 6 0.0944 -0.0348 -0.0012 0.8182 0.0358 22.9983
#
#
#
# Elastic Compliance Matrix: (Units=1/GPa)
#
#
# Indices 1 2 3 4 5 6 
#
# 1 0.012863 -0.003631 -0.001410 -0.000025 -0.002888 -0.000053
# 2 -0.003631 0.012153 -0.005374 0.000012 0.000869 0.000031
# 3 -0.001410 -0.005374 0.009867 0.000014 -0.003089 0.000002
# 4 -0.000025 0.000012 0.000014 0.025243 -0.000032 -0.000898
# 5 -0.002888 0.000869 -0.003089 -0.000032 0.030195 -0.000033
# 6 -0.000053 0.000031 0.000002 -0.000898 -0.000033 0.043514
#
#
# Mechanical properties :
#
#
# Convention : Reuss Voigt Hill
#
# Bulk Modulus (GPa) = 71.15436 82.05767 76.60602
# Shear Modulus (GPa) = 31.37783 34.01934 32.69858
#
# Velocity S-wave (km/s) = 3.90454 4.06557 3.98587
# Velocity P-wave (km/s) = 7.40937 7.86813 7.64219
#
# Compressibility (1/GPa) = 0.01405395
#
# Stress axis : x y z
#
# Youngs Moduli (GPa) = 77.74223 82.28223 101.35018
#
# Poissons Ratio (x) = 0.29879 0.14287
# Poissons Ratio (y) = 0.28230 0.54462
# Poissons Ratio (z) = 0.10959 0.44215
#
# Static dielectric constant tensor:
#      x y z
#    x 3.713530 0.000180 0.055300 
#    y 0.000180 4.115640 0.000990 
#    z 0.055300 0.000990 3.809280 
# 
# 
# High freq. dielectric constant tensor:
#      x y z
#    x 1.804040 0.000000 0.009020 
#    y 0.000000 1.824760 0.000020 
#    z 0.009020 0.000020 1.818530 
# 
# From -- ./inp_files/172578.got.cif
#   From: 2010.06.25/outbox.ucp.g09.slc.cvg/sg12_87_cif.got.tgz:172578.got - 2010.06.28 13:50:54.
