data_PCOD8116592
_publ_section_title
;
Structure prediction by ZEFSAII (Michael W. Deem and Ramdas Pophale) SiO2 
 PCOD8116592
Probable space group: C 2/M
;
_chemical_formula_sum "Si O2"
_cell_formula_units_Z 32
_cell_length_a 30.000000
_cell_length_b 9.000000
_cell_length_c 15.000000
_cell_angle_alpha 90.000000
_cell_angle_beta 50.000000
_cell_angle_gamma 90.000000
_cell_volume 3102.479995
_symmetry_space_group_name_H-M "C 2/M"
_symmetry_group_IT_number 12
_symmetry_cell_setting 'monoclinic'
loop_
_space_group_symop_operation_xyz
x,y,z
-x,y,-z
-x,-y,-z
x,-y,z
1/2+x,1/2+y,z
1/2-x,1/2+y,-z
1/2-x,1/2-y,-z
1/2+x,1/2-y,z
loop_
_atom_site_type_symbol
_atom_site_label
_atom_site_fract_x
_atom_site_fract_y
_atom_site_fract_z
Si Si1 0.901217 0.830731 0.399449
Si Si2 0.444318 0.826520 0.518174
Si Si3 0.339384 0.175478 0.784919
Si Si4 0.733116 0.331238 0.429830
Si Si5 0.357637 0.323054 0.954452
Si Si6 0.070015 0.334311 0.815578
Si Si7 0.237408 0.322794 0.804560
Si Si8 0.433061 0.167193 0.982508
O O1 0.937942 0.748206 0.429269
O O2 0.833965 0.814504 0.509688
O O3 0.906738 0.770150 0.292298
O O4 0.922346 0.000000 0.372762
O O5 0.500000 0.764259 0.500000
O O6 0.392016 0.790131 0.651551
O O7 0.450905 0.000000 0.489973
O O8 0.348215 0.259479 0.867639
O O9 0.284204 0.238671 0.805090
O O10 0.331773 0.000000 0.813709
O O11 0.750971 0.500000 0.424720
O O12 0.750000 0.250000 0.500000
O O13 0.763661 0.273265 0.298867
O O14 0.346099 0.500000 0.968535
O O15 0.420216 0.281250 0.916457
O O16 0.321725 0.232406 0.075420
O O17 0.095406 0.500000 0.767365
O O18 0.001537 0.339140 0.898798
O O19 0.089810 0.279543 0.889497
O O20 0.246688 0.500000 0.800365
O O21 0.409107 0.000000 0.993613
#
# Coordination Sequence:
#
# PCOD8116592 Si02
#       8
#     8   8   8   8   8   8   8   8
#     4  11  23  40  62  95 130 162 201 253 313 367
#     4  10  23  42  65  93 123 163 211 254 300 364
#     4  11  23  42  66  91 121 159 203 253 306 362
#     4  10  24  42  63  91 126 164 205 253 305 366
#     4  12  26  40  61  92 124 158 200 251 308 364
#     4   9  20  39  64  88 119 162 205 247 299 359
#     4  11  23  44  66  88 121 160 205 253 304 363
#     4   9  20  41  63  88 120 159 206 253 297 354
#
# _framework density 10.314329000000001
#
# number of rings (size 3 to 8) (size 9 to 14) (size 15 to 20)
#    0.000    1.625    1.250    3.375    3.500    3.750 
#    0.000    1.250    0.000    0.000    0.000    0.000 
#    0.000    0.000    0.000    0.000    0.000    0.000 
#
# Total GULP energy -396570.699745 kJ/mol
# GULP energy per Si atom -12392.834367 kJ/mol
# Density = 1.029085 g / cm^3
# Si number density = 10.314329 Si / 1000 Ang^3
#
#
#
# Elastic Constant Matrix: (Units=GPa)
#
#
# Indices 1 2 3 4 5 6 
#
# 1 93.1816 28.3575 10.2323 0.0000 37.7265 0.0000
# 2 28.3575 99.7731 35.4476 0.0000 23.5455 0.0000
# 3 10.2323 35.4476 81.2387 0.0000 35.7158 0.0000
# 4 0.0000 0.0000 0.0000 31.7825 0.0000 11.7978
# 5 37.7265 23.5455 35.7158 0.0000 46.1454 0.0000
# 6 0.0000 0.0000 0.0000 11.7978 0.0000 35.8703
#
#
#
# Elastic Compliance Matrix: (Units=1/GPa)
#
#
# Indices 1 2 3 4 5 6 
#
# 1 0.018934 -0.003501 0.007826 0.000000 -0.019751 0.000000
# 2 -0.003501 0.012809 -0.005355 0.000000 0.000471 0.000000
# 3 0.007826 -0.005355 0.023149 0.000000 -0.021583 0.000000
# 4 0.000000 0.000000 0.000000 0.035840 0.000000 -0.011788
# 5 -0.019751 0.000471 -0.021583 0.000000 0.054282 0.000000
# 6 0.000000 0.000000 0.000000 -0.011788 0.000000 0.031755
#
#
# Mechanical properties :
#
#
# Convention : Reuss Voigt Hill
#
# Bulk Modulus (GPa) = 18.92808 46.91870 32.92339
# Shear Modulus (GPa) = 25.45298 36.10337 30.77817
#
# Velocity S-wave (km/s) = 3.51645 4.18803 3.86685
# Velocity P-wave (km/s) = 5.06782 6.79558 5.99427
#
# Compressibility (1/GPa) = 0.05283156
#
# Stress axis : x y z
#
# Youngs Moduli (GPa) = 52.81435 78.06869 43.19831
#
# Poissons Ratio (x) = 0.27331 -0.33807
# Poissons Ratio (y) = 0.18490 0.23135
# Poissons Ratio (z) = -0.41332 0.41809
#
# Static dielectric constant tensor:
#      x y z
#    x 4.431340 0.000000 0.184180 
#    y 0.000000 3.878320 0.000000 
#    z 0.184180 0.000000 4.210140 
# 
# 
# High freq. dielectric constant tensor:
#      x y z
#    x 1.832440 0.000000 0.018200 
#    y 0.000000 1.804360 0.000000 
#    z 0.018200 0.000000 1.821720 
# 
# From -- ./inp_files/249652.got.cif
#   From: 2010.06.25/outbox.ucp.g09.slc.cvg/sg12_125_cif.got.tgz:249652.got - 2010.06.28 13:50:54.
