data_PCOD8116243
_publ_section_title
;
Structure prediction by ZEFSAII (Michael W. Deem and Ramdas Pophale) SiO2 
 PCOD8116243
Probable space group: C 2/M
;
_chemical_formula_sum "Si O2"
_cell_formula_units_Z 32
_cell_length_a 30.000000
_cell_length_b 9.000000
_cell_length_c 18.000000
_cell_angle_alpha 90.000000
_cell_angle_beta 40.000000
_cell_angle_gamma 90.000000
_cell_volume 3123.947783
_symmetry_space_group_name_H-M "C 2/M"
_symmetry_group_IT_number 12
_symmetry_cell_setting 'monoclinic'
loop_
_space_group_symop_operation_xyz
x,y,z
-x,y,-z
-x,-y,-z
x,-y,z
1/2+x,1/2+y,z
1/2-x,1/2+y,-z
1/2-x,1/2-y,-z
1/2+x,1/2-y,z
loop_
_atom_site_type_symbol
_atom_site_label
_atom_site_fract_x
_atom_site_fract_y
_atom_site_fract_z
Si Si1 0.157350 0.836657 0.431494
Si Si2 0.135086 0.325443 0.175035
Si Si3 0.507408 0.321890 0.653409
Si Si4 0.444309 0.329467 0.007204
Si Si5 0.707708 0.663691 0.792966
Si Si6 0.677249 0.332360 0.580243
Si Si7 0.719928 0.664865 0.948917
Si Si8 0.962693 0.677046 0.228487
O O1 0.222035 0.745849 0.318376
O O2 0.162291 0.839959 0.513048
O O3 0.077704 0.781008 0.515365
O O4 0.166257 0.000000 0.385950
O O5 0.117601 0.500000 0.196402
O O6 0.064898 0.237879 0.290263
O O7 0.199115 0.284705 0.148384
O O8 0.164346 0.274564 0.057551
O O9 0.503917 0.500000 0.668774
O O10 0.513738 0.237853 0.722642
O O11 0.435854 0.500000 0.989312
O O12 0.474348 0.223555 0.905228
O O13 0.500000 0.321171 0.000000
O O14 0.368201 0.271814 0.134784
O O15 0.716873 0.500000 0.747100
O O16 0.699538 0.660885 0.890664
O O17 0.681482 0.500000 0.607977
O O18 0.750000 0.250000 0.500000
O O19 0.612096 0.246329 0.701033
O O20 0.712916 0.500000 0.993788
O O21 0.954978 0.500000 0.240028
#
# Coordination Sequence:
#
# PCOD8116243 Si02
#       8
#     8   8   8   8   8   8   8   8
#     4   9  21  38  55  78 107 142 184 229 278 330
#     4  10  19  32  56  87 114 142 185 236 277 326
#     4  10  20  37  58  80 110 147 182 229 285 335
#     4  10  22  38  55  80 112 149 187 227 280 340
#     4  10  21  37  57  78 108 151 188 223 276 338
#     4  10  21  37  57  81 109 143 183 233 285 333
#     4   9  19  35  54  82 117 151 185 224 278 338
#     4  11  22  36  56  83 110 142 184 230 278 332
#
# _framework density 10.243449
#
# number of rings (size 3 to 8) (size 9 to 14) (size 15 to 20)
#    0.000    2.125    0.000    3.750    1.750    5.750 
#    0.000    0.625    0.000    3.750    0.000    0.000 
#    0.000    0.000    0.000    0.000    0.000    0.000 
#
# Total GULP energy -396433.675286 kJ/mol
# GULP energy per Si atom -12388.552353 kJ/mol
# Density = 1.022013 g / cm^3
# Si number density = 10.243449 Si / 1000 Ang^3
#
#
#
# Elastic Constant Matrix: (Units=GPa)
#
#
# Indices 1 2 3 4 5 6 
#
# 1 66.5420 21.2500 31.9506 0.0043 -36.0248 -0.0014
# 2 21.2500 118.6885 49.8625 -0.0109 -22.4471 -0.0011
# 3 31.9506 49.8625 124.6339 -0.0074 -53.3354 0.0032
# 4 0.0043 -0.0109 -0.0074 39.3301 -0.0010 -12.6151
# 5 -36.0248 -22.4471 -53.3354 -0.0010 50.5494 0.0042
# 6 -0.0014 -0.0011 0.0032 -12.6151 0.0042 27.1139
#
#
#
# Elastic Compliance Matrix: (Units=1/GPa)
#
#
# Indices 1 2 3 4 5 6 
#
# 1 0.025157 -0.001930 0.002969 -0.000003 0.020204 -0.000004
# 2 -0.001930 0.010280 -0.004108 0.000003 -0.001145 0.000002
# 3 0.002969 -0.004108 0.016465 0.000001 0.017664 -0.000004
# 4 -0.000003 0.000003 0.000001 0.029886 -0.000001 0.013905
# 5 0.020204 -0.001145 0.017664 -0.000001 0.052311 -0.000010
# 6 -0.000004 0.000002 -0.000004 0.013905 -0.000010 0.043351
#
#
# Mechanical properties :
#
#
# Convention : Reuss Voigt Hill
#
# Bulk Modulus (GPa) = 21.85101 57.33229 39.59165
# Shear Modulus (GPa) = 25.14541 37.18541 31.16541
#
# Velocity S-wave (km/s) = 3.50721 4.26500 3.90453
# Velocity P-wave (km/s) = 5.20478 7.23182 6.30036
#
# Compressibility (1/GPa) = 0.04576447
#
# Stress axis : x y z
#
# Youngs Moduli (GPa) = 39.75000 97.27340 60.73466
#
# Poissons Ratio (x) = 0.18778 -0.18034
# Poissons Ratio (y) = 0.07673 0.24950
# Poissons Ratio (z) = -0.11803 0.39960
#
# Static dielectric constant tensor:
#      x y z
#    x 3.885930 -0.000030 -0.617130 
#    y -0.000030 4.129080 0.000030 
#    z -0.617130 0.000030 4.057980 
# 
# 
# High freq. dielectric constant tensor:
#      x y z
#    x 1.798970 0.000000 -0.042620 
#    y 0.000000 1.800240 0.000000 
#    z -0.042620 0.000000 1.810440 
# 
# From -- ./inp_files/295460.got.cif
#   From: 2010.06.25/outbox.ucp.g09.slc.cvg/sg12_148_cif.got.tgz:295460.got - 2010.06.28 13:50:54.
