data_PCOD8116540
_publ_section_title
;
Structure prediction by ZEFSAII (Michael W. Deem and Ramdas Pophale) SiO2 
 PCOD8116540
Probable space group: C 2/M
;
_chemical_formula_sum "Si O2"
_cell_formula_units_Z 28
_cell_length_a 21.000000
_cell_length_b 18.000000
_cell_length_c 21.000000
_cell_angle_alpha 90.000000
_cell_angle_beta 20.000000
_cell_angle_gamma 90.000000
_cell_volume 2714.955898
_symmetry_space_group_name_H-M "C 2/M"
_symmetry_group_IT_number 12
_symmetry_cell_setting 'monoclinic'
loop_
_space_group_symop_operation_xyz
x,y,z
-x,y,-z
-x,-y,-z
x,-y,z
1/2+x,1/2+y,z
1/2-x,1/2+y,-z
1/2-x,1/2-y,-z
1/2+x,1/2-y,z
loop_
_atom_site_type_symbol
_atom_site_label
_atom_site_fract_x
_atom_site_fract_y
_atom_site_fract_z
Si Si1 0.686730 0.163214 0.185639
Si Si2 0.822227 0.827926 0.834448
Si Si3 0.284671 0.200084 0.700382
Si Si4 0.437470 0.155017 0.127562
Si Si5 0.692666 0.914232 0.428820
Si Si6 0.571498 0.583949 0.503527
Si Si7 0.934126 0.085492 0.854174
O O1 0.645291 0.240153 0.188029
O O2 0.776209 0.181060 0.170560
O O3 0.496972 0.117767 0.365610
O O4 0.833241 0.111738 0.012664
O O5 0.863161 0.865596 0.862815
O O6 0.964389 0.858942 0.648794
O O7 0.610619 0.842102 0.012447
O O8 0.500000 0.226428 0.500000
O O9 0.157390 0.264886 0.791932
O O10 0.254352 0.127749 0.685894
O O11 0.292066 0.099302 0.297224
O O12 0.500000 0.123403 0.000000
O O13 0.846208 0.903683 0.339853
O O14 0.669446 0.000000 0.432104
O O15 0.500000 0.596579 0.500000
O O16 0.535217 0.500000 0.561558
O O17 0.886219 0.000000 0.884922
#
# Coordination Sequence:
#
# PCOD8116540 Si02
#       7
#     8   8   8   8   8   8   8
#     4  11  22  40  68  95 125 165 214 260 317 373
#     4  12  25  42  65  94 127 167 214 262 309 375
#     4  10  21  39  67  99 130 161 206 264 318 373
#     4  12  22  39  66  95 126 162 206 260 318 373
#     4  10  23  41  64  94 131 169 209 258 316 376
#     4  11  23  39  60  89 125 164 207 260 318 371
#     4  11  26  44  61  89 130 172 214 262 310 372
#
# _framework density 10.313243
#
# number of rings (size 3 to 8) (size 9 to 14) (size 15 to 20)
#    0.000    1.000    2.857    4.286    0.000    6.286 
#    0.000    1.429    0.000    0.000    0.000    0.000 
#    0.000    0.000    0.000    0.000    0.000    0.000 
#
# Total GULP energy -347352.384602 kJ/mol
# GULP energy per Si atom -12405.442307 kJ/mol
# Density = 1.028977 g / cm^3
# Si number density = 10.313243 Si / 1000 Ang^3
#
#
#
# Elastic Constant Matrix: (Units=GPa)
#
#
# Indices 1 2 3 4 5 6 
#
# 1 95.5931 33.5097 24.8662 -0.0274 -10.3516 0.0638
# 2 33.5097 86.8852 23.7063 0.1441 -8.5113 0.0373
# 3 24.8662 23.7063 86.3804 0.0732 -7.9497 0.0775
# 4 -0.0274 0.1441 0.0732 36.3120 0.0403 -1.0046
# 5 -10.3516 -8.5113 -7.9497 0.0403 26.4030 -0.0220
# 6 0.0638 0.0373 0.0775 -1.0046 -0.0220 30.1825
#
#
#
# Elastic Compliance Matrix: (Units=1/GPa)
#
#
# Indices 1 2 3 4 5 6 
#
# 1 0.012794 -0.004009 -0.002304 0.000026 0.003030 -0.000013
# 2 -0.004009 0.013944 -0.002472 -0.000056 0.002179 -0.000003
# 3 -0.002304 -0.002472 0.013126 -0.000022 0.002252 -0.000025
# 4 0.000026 -0.000056 -0.000022 0.027565 -0.000055 0.000918
# 5 0.003030 0.002179 0.002252 -0.000055 0.040443 0.000013
# 6 -0.000013 -0.000003 -0.000025 0.000918 0.000013 0.033162
#
#
# Mechanical properties :
#
#
# Convention : Reuss Voigt Hill
#
# Bulk Modulus (GPa) = 44.85657 48.11368 46.48512
# Shear Modulus (GPa) = 30.11434 31.03127 30.57281
#
# Velocity S-wave (km/s) = 3.82512 3.88292 3.85413
# Velocity P-wave (km/s) = 6.42674 6.59390 6.51086
#
# Compressibility (1/GPa) = 0.02229328
#
# Stress axis : x y z
#
# Youngs Moduli (GPa) = 78.16338 71.71738 76.18679
#
# Poissons Ratio (x) = 0.28751 0.17552
# Poissons Ratio (y) = 0.31335 0.18834
# Poissons Ratio (z) = 0.18008 0.17729
#
# Static dielectric constant tensor:
#      x y z
#    x 4.200040 -0.000030 0.372610 
#    y -0.000030 3.898650 0.000390 
#    z 0.372610 0.000390 4.340710 
# 
# 
# High freq. dielectric constant tensor:
#      x y z
#    x 1.801180 -0.000010 -0.008540 
#    y -0.000010 1.818880 0.000040 
#    z -0.008540 0.000040 1.819560 
# 
# From -- ./inp_files/322650.got.cif
#   From: 2010.06.25/outbox.ucp.g09.slc.cvg/sg12_162_cif.got.tgz:322650.got - 2010.06.28 13:50:54.
