data_PCOD8116923
_publ_section_title
;
Structure prediction by ZEFSAII (Michael W. Deem and Ramdas Pophale) SiO2 
 PCOD8116923
Probable space group: P 2/C
;
_chemical_formula_sum "Si O2"
_cell_formula_units_Z 30
_cell_length_a 9.522792
_cell_length_b 8.517658
_cell_length_c 23.710122
_cell_angle_alpha 90.000000
_cell_angle_beta 58.879857
_cell_angle_gamma 90.000000
_cell_volume 1646.400144
_symmetry_space_group_name_H-M "P 2/C"
_symmetry_group_IT_number 13
_symmetry_cell_setting 'monoclinic'
loop_
_space_group_symop_operation_xyz
x,y,z
-x,y,1/2-z
-x,-y,-z
x,-y,1/2+z
loop_
_atom_site_type_symbol
_atom_site_label
_atom_site_fract_x
_atom_site_fract_y
_atom_site_fract_z
Si Si1 0.500000 0.935094 0.250000
Si Si2 0.232823 0.903345 0.443528
Si Si3 0.542224 0.271076 0.846236
Si Si4 0.705776 0.886120 0.412789
Si Si5 0.534562 0.631920 0.828615
Si Si6 0.721208 0.216795 0.192857
Si Si7 0.011209 0.042780 0.090853
Si Si8 0.459345 0.843181 0.942095
O O1 0.425857 0.830418 0.215869
O O2 0.644533 0.044888 0.196745
O O3 0.356427 0.757419 0.407403
O O4 0.140884 0.873841 0.521949
O O5 0.338118 0.062975 0.425544
O O6 0.103204 0.922578 0.420226
O O7 0.679587 0.221740 0.863543
O O8 0.572587 0.449317 0.823206
O O9 0.637053 0.790806 0.481475
O O10 0.896129 0.933709 0.382295
O O11 0.612343 0.050589 0.427210
O O12 0.360637 0.658441 0.832976
O O13 0.681063 0.722818 0.764601
O O14 0.525237 0.692772 0.894645
O O15 0.913881 0.186896 0.141530
#
# Coordination Sequence:
#
# PCOD8116923 Si02
#       8
#     2   4   4   4   4   4   4   4
#     4  10  18  34  58  76 100 136 198 236 252 314
#     4   9  17  32  59  81 109 140 183 233 267 320
#     4  11  20  36  54  86 107 146 185 228 275 335
#     4   9  19  31  58  79 107 138 185 231 275 314
#     4  10  20  32  56  78 113 143 189 223 275 334
#     4  10  18  34  56  84  98 146 189 234 265 321
#     4  10  17  32  59  85 107 134 185 234 278 314
#     4   9  16  35  53  81 103 146 190 224 257 331
#
# _framework density 18.221571999999998
#
# number of rings (size 3 to 8) (size 9 to 14) (size 15 to 20)
#    0.000    2.400    2.667    4.000    0.000    0.533 
#    0.000    3.333    2.933    1.600    0.000    0.000 
#    0.000    0.000    0.000    0.000    0.000    0.000 
#
# Total GULP energy -371890.017617 kJ/mol
# GULP energy per Si atom -12396.333921 kJ/mol
# Density = 1.818010 g / cm^3
# Si number density = 18.221572 Si / 1000 Ang^3
#
#
#
# Elastic Constant Matrix: (Units=GPa)
#
#
# Indices 1 2 3 4 5 6 
#
# 1 110.4611 31.7041 37.6621 0.0000 9.2451 0.0000
# 2 31.7041 89.7295 33.5223 0.0000 10.7325 0.0000
# 3 37.6621 33.5223 85.1368 0.0000 11.1951 0.0000
# 4 0.0000 0.0000 0.0000 16.7200 0.0000 3.1730
# 5 9.2451 10.7325 11.1951 0.0000 34.0751 0.0000
# 6 0.0000 0.0000 0.0000 3.1730 0.0000 19.2751
#
#
#
# Elastic Compliance Matrix: (Units=1/GPa)
#
#
# Indices 1 2 3 4 5 6 
#
# 1 0.011134 -0.002372 -0.003859 0.000000 -0.001006 0.000000
# 2 -0.002372 0.013785 -0.004068 0.000000 -0.002362 0.000000
# 3 -0.003859 -0.004068 0.015414 0.000000 -0.002736 0.000000
# 4 0.000000 0.000000 0.000000 0.061737 0.000000 -0.010163
# 5 -0.001006 -0.002362 -0.002736 0.000000 0.031263 0.000000
# 6 0.000000 0.000000 0.000000 -0.010163 0.000000 0.053553
#
#
# Mechanical properties :
#
#
# Convention : Reuss Voigt Hill
#
# Bulk Modulus (GPa) = 50.67060 54.56717 52.61888
# Shear Modulus (GPa) = 23.35769 26.17665 24.76717
#
# Velocity S-wave (km/s) = 3.58421 3.79433 3.69076
# Velocity P-wave (km/s) = 6.70799 7.01480 6.86311
#
# Compressibility (1/GPa) = 0.01973531
#
# Stress axis : x y z
#
# Youngs Moduli (GPa) = 89.81773 72.54318 64.87421
#
# Poissons Ratio (x) = 0.17206 0.25035
# Poissons Ratio (y) = 0.21303 0.26391
# Poissons Ratio (z) = 0.34661 0.29510
#
# Static dielectric constant tensor:
#      x y z
#    x 3.401320 0.000000 0.014950 
#    y 0.000000 2.955880 0.000000 
#    z 0.014950 0.000000 3.532700 
# 
# 
# High freq. dielectric constant tensor:
#      x y z
#    x 1.693020 0.000000 0.011370 
#    y 0.000000 1.665580 0.000000 
#    z 0.011370 0.000000 1.717910 
# 
# From -- ./inp_files/84764.got.cif
#   From: 2010.06.25/outbox.cif.g09.slc.cpg/sg13_43_cif.got.tgz:84764.got - 2010.06.28 04:50:58.
