data_PCOD8116978
_publ_section_title
;
Structure prediction by ZEFSAII (Michael W. Deem and Ramdas Pophale) SiO2 
 PCOD8116978
Probable space group: P 2/C
;
_chemical_formula_sum "Si O2"
_cell_formula_units_Z 20
_cell_length_a 9.018655
_cell_length_b 7.519882
_cell_length_c 14.811864
_cell_angle_alpha 90.000000
_cell_angle_beta 75.709219
_cell_angle_gamma 90.000000
_cell_volume 973.444395
_symmetry_space_group_name_H-M "P 2/C"
_symmetry_group_IT_number 13
_symmetry_cell_setting 'monoclinic'
loop_
_space_group_symop_operation_xyz
x,y,z
-x,y,1/2-z
-x,-y,-z
x,-y,1/2+z
loop_
_atom_site_type_symbol
_atom_site_label
_atom_site_fract_x
_atom_site_fract_y
_atom_site_fract_z
Si Si1 0.225221 0.750246 0.812209
Si Si2 0.340155 0.163469 0.109707
Si Si3 0.000000 0.482238 0.250000
Si Si4 0.682351 0.880404 0.524251
Si Si5 0.303410 0.576950 0.120726
Si Si6 0.500000 0.490110 0.750000
O O1 0.261850 0.871794 0.718760
O O2 0.205185 0.865602 0.906189
O O3 0.365172 0.614431 0.808550
O O4 0.069021 0.642590 0.818705
O O5 0.512380 0.088942 0.088234
O O6 0.328299 0.371925 0.087627
O O7 0.257110 0.045583 0.044965
O O8 0.133269 0.603137 0.187249
O O9 0.678623 0.699113 0.467893
O O10 0.430441 0.627721 0.178361
#
# Coordination Sequence:
#
# PCOD8116978 Si02
#       6
#     4   4   2   4   4   2
#     4  10  17  37  56  77 114 151 167 236 275 320
#     4   9  20  35  52  87 111 138 178 234 275 323
#     4   8  20  36  56  76 116 152 182 214 290 316
#     4  11  19  33  60  83 108 140 192 224 272 325
#     4  10  19  37  54  82 108 148 183 227 267 336
#     4   8  16  32  54  74 110 140 176 222 282 298
#
# _framework density 20.545601000000001
#
# number of rings (size 3 to 8) (size 9 to 14) (size 15 to 20)
#    0.000    2.800    4.000    0.600    0.000    0.800 
#    7.200    8.000    0.000    0.000    0.000    0.000 
#    0.000    0.000    0.000    0.000    0.000    0.000 
#
# Total GULP energy -247858.123480 kJ/mol
# GULP energy per Si atom -12392.906174 kJ/mol
# Density = 2.049884 g / cm^3
# Si number density = 20.545601 Si / 1000 Ang^3
#
#
#
# Elastic Constant Matrix: (Units=GPa)
#
#
# Indices 1 2 3 4 5 6 
#
# 1 93.8013 3.0865 27.9360 0.0000 8.6871 0.0000
# 2 3.0865 67.9242 43.2959 0.0000 15.8598 0.0000
# 3 27.9360 43.2959 135.2098 0.0000 27.4344 0.0000
# 4 0.0000 0.0000 0.0000 34.6300 0.0000 4.1898
# 5 8.6871 15.8598 27.4344 0.0000 28.0604 0.0000
# 6 0.0000 0.0000 0.0000 4.1898 0.0000 11.9102
#
#
#
# Elastic Compliance Matrix: (Units=1/GPa)
#
#
# Indices 1 2 3 4 5 6 
#
# 1 0.011530 0.001514 -0.002457 0.000000 -0.002024 0.000000
# 2 0.001514 0.019491 -0.005269 0.000000 -0.006334 0.000000
# 3 -0.002457 -0.005269 0.011018 0.000000 -0.007033 0.000000
# 4 0.000000 0.000000 0.000000 0.030160 0.000000 -0.010610
# 5 -0.002024 -0.006334 -0.007033 0.000000 0.046720 0.000000
# 6 0.000000 0.000000 0.000000 -0.010610 0.000000 0.087694
#
#
# Mechanical properties :
#
#
# Convention : Reuss Voigt Hill
#
# Bulk Modulus (GPa) = 33.76505 49.50802 41.63654
# Shear Modulus (GPa) = 21.84287 29.76125 25.80206
#
# Velocity S-wave (km/s) = 3.26412 3.81011 3.54763
# Velocity P-wave (km/s) = 5.53858 6.59582 6.09018
#
# Compressibility (1/GPa) = 0.02961642
#
# Stress axis : x y z
#
# Youngs Moduli (GPa) = 86.72990 51.30599 90.76238
#
# Poissons Ratio (x) = -0.07770 0.22296
# Poissons Ratio (y) = -0.13135 0.47823
# Poissons Ratio (z) = 0.21306 0.27033
#
# Static dielectric constant tensor:
#      x y z
#    x 3.826980 0.000000 0.218640 
#    y 0.000000 3.371010 0.000000 
#    z 0.218640 0.000000 3.883190 
# 
# 
# High freq. dielectric constant tensor:
#      x y z
#    x 1.792540 0.000000 0.007840 
#    y 0.000000 1.765570 0.000000 
#    z 0.007840 0.000000 1.807690 
# 
# From -- ./inp_files/45719.got.cif
#   From: 2010.06.25/outbox.cif.g09.slc.cpg/sg13_23_cif.got.tgz:45719.got - 2010.06.28 04:50:58.
