data_PCOD8116063
_publ_section_title
;
Structure prediction by ZEFSAII (Michael W. Deem and Ramdas Pophale) SiO2 
 PCOD8116063
Probable space group: C 2/M
;
_chemical_formula_sum "Si O2"
_cell_formula_units_Z 56
_cell_length_a 18.949963
_cell_length_b 9.405716
_cell_length_c 29.805761
_cell_angle_alpha 90.000000
_cell_angle_beta 37.789161
_cell_angle_gamma 90.000000
_cell_volume 3255.285798
_symmetry_space_group_name_H-M "C 2/M"
_symmetry_group_IT_number 12
_symmetry_cell_setting 'monoclinic'
loop_
_space_group_symop_operation_xyz
x,y,z
-x,y,-z
-x,-y,-z
x,-y,z
1/2+x,1/2+y,z
1/2-x,1/2+y,-z
1/2-x,1/2-y,-z
1/2+x,1/2-y,z
loop_
_atom_site_type_symbol
_atom_site_label
_atom_site_fract_x
_atom_site_fract_y
_atom_site_fract_z
Si Si1 0.190761 0.664320 0.206031
Si Si2 0.987232 0.665176 0.368183
Si Si3 0.777754 0.839919 0.943013
Si Si4 0.578141 0.831356 0.500469
Si Si5 0.629790 0.833902 0.930143
Si Si6 0.164049 0.836373 0.626000
Si Si7 0.043328 0.160557 0.213961
O O1 0.220139 0.500000 0.183436
O O2 0.309491 0.753086 0.142313
O O3 0.103379 0.717477 0.212185
O O4 0.121983 0.688850 0.287316
O O5 0.953683 0.500000 0.379577
O O6 0.974005 0.717526 0.425816
O O7 0.899848 0.753212 0.381382
O O8 0.696258 0.795789 0.942531
O O9 0.912217 0.820120 0.859778
O O10 0.752053 0.000000 0.970249
O O11 0.750000 0.750000 0.000000
O O12 0.500000 0.765129 0.500000
O O13 0.708754 0.773311 0.430063
O O14 0.578246 0.000000 0.496161
O O15 0.632498 0.000000 0.917724
O O16 0.500000 0.777724 0.000000
O O17 0.093736 0.823387 0.708783
O O18 0.171534 0.000000 0.606742
O O19 0.082542 0.000000 0.209675
#
# Coordination Sequence:
#
# PCOD8116063 Si02
#       7
#     8   8   8   8   8   8   8
#     4   9  16  26  43  68  93 115 143 184 230 265
#     4   9  17  29  46  69  93 115 145 187 228 262
#     4   9  17  29  45  65  89 115 144 181 222 263
#     4   9  17  29  45  66  93 123 151 180 219 268
#     4   9  18  33  50  66  88 120 154 185 218 261
#     4   9  16  28  49  70  85 112 155 192 220 258
#     4   8  15  28  44  64  88 115 151 188 220 259
#
# _framework density 17.20279
#
# number of rings (size 3 to 8) (size 9 to 14) (size 15 to 20)
#    0.000    3.143    0.000    1.714    0.000    3.143 
#    0.000    1.429    0.000    5.143    0.000    0.000 
#    0.000    0.000    0.000    0.000    0.000    0.000 
#
# Total GULP energy -346893.490313 kJ/mol
# GULP energy per Si atom -12389.053225 kJ/mol
# Density = 1.716364 g / cm^3
# Si number density = 17.202790 Si / 1000 Ang^3
#
#
#
# Elastic Constant Matrix: (Units=GPa)
#
#
# Indices 1 2 3 4 5 6 
#
# 1 74.8189 30.2131 70.2440 0.0000 1.0815 -0.0015
# 2 30.2131 49.3602 52.0824 -0.0001 0.4916 -0.0023
# 3 70.2440 52.0824 186.4768 0.0000 -2.7074 0.0000
# 4 0.0000 -0.0001 0.0000 22.5046 0.0001 1.9549
# 5 1.0815 0.4916 -2.7074 0.0001 26.4901 0.0000
# 6 -0.0015 -0.0023 0.0000 1.9549 0.0000 15.5686
#
#
#
# Elastic Compliance Matrix: (Units=1/GPa)
#
#
# Indices 1 2 3 4 5 6 
#
# 1 0.022211 -0.006707 -0.006514 0.000000 -0.001448 0.000001
# 2 -0.006707 0.030798 -0.006089 0.000000 -0.000920 0.000004
# 3 -0.006514 -0.006089 0.009537 0.000000 0.001354 -0.000002
# 4 0.000000 0.000000 0.000000 0.044925 0.000000 -0.005641
# 5 -0.001448 -0.000920 0.001354 0.000000 0.037965 0.000000
# 6 0.000001 0.000004 -0.000002 -0.005641 0.000000 0.064940
#
#
# Mechanical properties :
#
#
# Convention : Reuss Voigt Hill
#
# Bulk Modulus (GPa) = 41.79636 68.41500 55.10568
# Shear Modulus (GPa) = 19.45736 23.45374 21.45555
#
# Velocity S-wave (km/s) = 3.36677 3.69639 3.53542
# Velocity P-wave (km/s) = 6.28192 7.62061 6.98342
#
# Compressibility (1/GPa) = 0.02392553
#
# Stress axis : x y z
#
# Youngs Moduli (GPa) = 45.02243 32.46929 104.85758
#
# Poissons Ratio (x) = 0.21778 0.68309
# Poissons Ratio (y) = 0.30197 0.63845
# Poissons Ratio (z) = 0.29330 0.19770
#
# Static dielectric constant tensor:
#      x y z
#    x 2.899610 0.000000 -0.077590 
#    y 0.000000 3.101360 0.000000 
#    z -0.077590 0.000000 3.799730 
# 
# 
# High freq. dielectric constant tensor:
#      x y z
#    x 1.611430 0.000000 -0.002860 
#    y 0.000000 1.649960 0.000000 
#    z -0.002860 0.000000 1.692840 
# 
# From -- ./inp_files/280246.got.cif
#   From: 2010.06.25/outbox.cif.g09.slc.cpg/sg12_141_cif.got.tgz:280246.got - 2010.06.28 00:19:55.
