data_PCOD8116488
_publ_section_title
;
Structure prediction by ZEFSAII (Michael W. Deem and Ramdas Pophale) SiO2 
 PCOD8116488
Probable space group: C 2/M
;
_chemical_formula_sum "Si O2"
_cell_formula_units_Z 32
_cell_length_a 21.000000
_cell_length_b 18.000000
_cell_length_c 24.000000
_cell_angle_alpha 90.000000
_cell_angle_beta 20.000000
_cell_angle_gamma 90.000000
_cell_volume 3102.806740
_symmetry_space_group_name_H-M "C 2/M"
_symmetry_group_IT_number 12
_symmetry_cell_setting 'monoclinic'
loop_
_space_group_symop_operation_xyz
x,y,z
-x,y,-z
-x,-y,-z
x,-y,z
1/2+x,1/2+y,z
1/2-x,1/2+y,-z
1/2-x,1/2-y,-z
1/2+x,1/2-y,z
loop_
_atom_site_type_symbol
_atom_site_label
_atom_site_fract_x
_atom_site_fract_y
_atom_site_fract_z
Si Si1 0.496424 0.698917 0.839369
Si Si2 0.328481 0.084862 0.174917
Si Si3 0.181621 0.583152 0.095262
Si Si4 0.590665 0.690947 0.642029
Si Si5 0.114614 0.417419 0.566031
Si Si6 0.927227 0.639329 0.211373
Si Si7 0.479102 0.327310 0.420670
Si Si8 0.586974 0.831778 0.484776
O O1 0.472191 0.717323 0.792921
O O2 0.494846 0.779189 0.870544
O O3 0.689978 0.660225 0.697354
O O4 0.333898 0.642904 0.990162
O O5 0.379097 0.090946 0.197556
O O6 0.128940 0.120858 0.326788
O O7 0.306441 0.000000 0.175124
O O8 0.500000 0.121881 0.000000
O O9 0.268512 0.500000 0.023503
O O10 0.015152 0.589527 0.274646
O O11 0.092650 0.598683 0.108168
O O12 0.750000 0.750000 0.500000
O O13 0.683069 0.613543 0.584063
O O14 0.463527 0.683011 0.691585
O O15 0.150341 0.500000 0.516567
O O16 0.011284 0.375927 0.600299
O O17 0.733545 0.642747 0.405429
O O18 0.484427 0.252032 0.451199
O O19 0.500000 0.865833 0.500000
#
# Coordination Sequence:
#
# PCOD8116488 Si02
#       8
#     8   8   8   8   8   8   8   8
#     4  10  22  36  62  93 121 152 203 254 306 360
#     4  11  27  44  57  88 130 164 201 245 294 359
#     4  11  23  38  58  89 127 160 198 255 309 360
#     4  11  18  38  63  93 118 155 196 256 303 355
#     4  10  21  37  58  88 123 155 198 247 298 359
#     4  11  21  40  64  86 117 162 209 245 299 358
#     4  11  21  38  68  89 118 160 206 248 296 358
#     4  10  21  40  65  90 118 155 203 251 302 364
#
# _framework density 10.313243
#
# number of rings (size 3 to 8) (size 9 to 14) (size 15 to 20)
#    0.000    1.375    5.000    2.625    1.750    5.250 
#    0.000    0.625    0.000    1.500    0.000    0.000 
#    0.000    0.000    0.000    0.000    0.000    0.000 
#
# Total GULP energy -396704.337421 kJ/mol
# GULP energy per Si atom -12397.010544 kJ/mol
# Density = 1.028977 g / cm^3
# Si number density = 10.313243 Si / 1000 Ang^3
#
#
#
# Elastic Constant Matrix: (Units=GPa)
#
#
# Indices 1 2 3 4 5 6 
#
# 1 113.5568 12.2343 2.3284 -0.0573 -15.1915 -0.0232
# 2 12.2343 81.3052 31.5792 -0.1270 -12.7453 -0.0186
# 3 2.3284 31.5792 31.4060 -0.3871 -17.5118 -0.0256
# 4 -0.0573 -0.1270 -0.3871 28.5235 0.0500 -4.5515
# 5 -15.1915 -12.7453 -17.5118 0.0500 28.5390 -0.0007
# 6 -0.0232 -0.0186 -0.0256 -4.5515 -0.0007 22.1057
#
#
#
# Elastic Compliance Matrix: (Units=1/GPa)
#
#
# Indices 1 2 3 4 5 6 
#
# 1 0.010067 -0.002813 0.006644 0.000089 0.008179 0.000034
# 2 -0.002813 0.021495 -0.025675 -0.000256 -0.007652 -0.000068
# 3 0.006644 -0.025675 0.080192 0.000959 0.041275 0.000277
# 4 0.000089 -0.000256 0.000959 0.036262 0.000458 0.007467
# 5 0.008179 -0.007652 0.041275 0.000458 0.061302 0.000146
# 6 0.000034 -0.000068 0.000277 0.007467 0.000146 0.046775
#
#
# Mechanical properties :
#
#
# Convention : Reuss Voigt Hill
#
# Bulk Modulus (GPa) = 14.69152 35.39464 25.04308
# Shear Modulus (GPa) = 15.50538 27.84205 21.67371
#
# Velocity S-wave (km/s) = 2.74473 3.67798 3.24508
# Velocity P-wave (km/s) = 4.14522 5.93580 5.11940
#
# Compressibility (1/GPa) = 0.06806647
#
# Stress axis : x y z
#
# Youngs Moduli (GPa) = 99.33161 46.52278 12.47015
#
# Poissons Ratio (x) = 0.13088 -0.08285
# Poissons Ratio (y) = 0.27943 0.32017
# Poissons Ratio (z) = -0.65997 1.19445
#
# Static dielectric constant tensor:
#      x y z
#    x 3.889940 0.000230 0.025410 
#    y 0.000230 3.871560 0.000430 
#    z 0.025410 0.000430 3.624120 
# 
# 
# High freq. dielectric constant tensor:
#      x y z
#    x 1.805640 -0.000010 -0.002220 
#    y -0.000010 1.798820 0.000040 
#    z -0.002220 0.000040 1.787780 
# 
# From -- ./inp_files/347881.got.cif
#   From: 2010.06.25/outbox.ucp.g09.slc.cvg/sg12_174_cif.got.tgz:347881.got - 2010.06.28 13:50:54.
