data_PCOD8116343
_publ_section_title
;
Structure prediction by ZEFSAII (Michael W. Deem and Ramdas Pophale) SiO2 
 PCOD8116343
Probable space group: C 2/M
;
_chemical_formula_sum "Si O2"
_cell_formula_units_Z 32
_cell_length_a 21.000000
_cell_length_b 18.000000
_cell_length_c 27.000000
_cell_angle_alpha 90.000000
_cell_angle_beta 20.000000
_cell_angle_gamma 90.000000
_cell_volume 3490.657583
_symmetry_space_group_name_H-M "C 2/M"
_symmetry_group_IT_number 12
_symmetry_cell_setting 'monoclinic'
loop_
_space_group_symop_operation_xyz
x,y,z
-x,y,-z
-x,-y,-z
x,-y,z
1/2+x,1/2+y,z
1/2-x,1/2+y,-z
1/2-x,1/2-y,-z
1/2+x,1/2-y,z
loop_
_atom_site_type_symbol
_atom_site_label
_atom_site_fract_x
_atom_site_fract_y
_atom_site_fract_z
Si Si1 0.421127 0.414100 0.294879
Si Si2 0.282122 0.415820 0.149631
Si Si3 0.154637 0.686396 0.424994
Si Si4 0.799746 0.332150 0.889684
Si Si5 0.951074 0.780252 0.340044
Si Si6 0.553069 0.225452 0.850241
Si Si7 0.849999 0.586536 0.952999
Si Si8 0.158879 0.266023 0.281254
O O1 0.364709 0.500000 0.346852
O O2 0.273705 0.379897 0.363197
O O3 0.418454 0.365145 0.346905
O O4 0.631530 0.409509 0.122873
O O5 0.204495 0.500000 0.215492
O O6 0.229719 0.390226 0.132948
O O7 0.193576 0.355063 0.251063
O O8 0.500000 0.415802 0.000000
O O9 0.291297 0.747068 0.301544
O O10 0.000000 0.651840 0.500000
O O11 0.037744 0.738607 0.547262
O O12 0.866388 0.383339 0.885765
O O13 0.968425 0.273169 0.761548
O O14 0.611618 0.285140 0.033923
O O15 0.750000 0.750000 0.500000
O O16 0.114568 0.776232 0.262283
O O17 0.473765 0.141880 0.897693
O O18 0.660082 0.227387 0.825580
O O19 0.919243 0.500000 0.907460
#
# Coordination Sequence:
#
# PCOD8116343 Si02
#       8
#     8   8   8   8   8   8   8   8
#     4  11  22  38  57  86 120 150 189 242 294 341
#     4  10  20  34  53  82 119 147 180 233 283 340
#     4  10  21  37  59  86 113 151 191 234 288 350
#     4  11  20  36  61  82 112 151 197 232 280 344
#     4  11  22  38  60  84 114 153 196 233 279 352
#     4  11  20  38  62  85 110 149 198 238 285 343
#     4  11  23  38  60  88 115 146 192 252 296 329
#     4  10  22  37  59  84 114 152 196 233 284 346
#
# _framework density 9.1673270000000002
#
# number of rings (size 3 to 8) (size 9 to 14) (size 15 to 20)
#    0.000    1.375    5.000    1.500    0.000    0.750 
#    0.000    3.125    0.000    4.875    0.000    0.000 
#    0.000    0.000    0.000    0.000    0.000    0.000 
#
# Total GULP energy -396474.811061 kJ/mol
# GULP energy per Si atom -12389.837846 kJ/mol
# Density = 0.914646 g / cm^3
# Si number density = 9.167327 Si / 1000 Ang^3
#
#
#
# Elastic Constant Matrix: (Units=GPa)
#
#
# Indices 1 2 3 4 5 6 
#
# 1 111.1499 67.0597 21.4668 0.0083 -22.3148 0.0247
# 2 67.0597 155.4217 38.2054 0.0291 -17.6243 0.0299
# 3 21.4668 38.2054 88.5434 -0.0126 -12.5842 -0.0014
# 4 0.0083 0.0291 -0.0126 27.6489 -0.0023 -5.2488
# 5 -22.3148 -17.6243 -12.5842 -0.0023 30.8891 -0.0052
# 6 0.0247 0.0299 -0.0014 -5.2488 -0.0052 34.9840
#
#
#
# Elastic Compliance Matrix: (Units=1/GPa)
#
#
# Indices 1 2 3 4 5 6 
#
# 1 0.013384 -0.004973 -0.000136 0.000001 0.006776 -0.000004
# 2 -0.004973 0.009320 -0.002729 -0.000011 0.000614 -0.000006
# 3 -0.000136 -0.002729 0.013023 0.000010 0.003650 0.000005
# 4 0.000001 -0.000011 0.000010 0.037228 0.000002 0.005585
# 5 0.006776 0.000614 0.003650 0.000002 0.039106 0.000001
# 6 -0.000004 -0.000006 0.000005 0.005585 0.000001 0.029423
#
#
# Mechanical properties :
#
#
# Convention : Reuss Voigt Hill
#
# Bulk Modulus (GPa) = 49.87096 67.61986 58.74541
# Shear Modulus (GPa) = 30.51704 33.92992 32.22348
#
# Velocity S-wave (km/s) = 4.08419 4.30652 4.19682
# Velocity P-wave (km/s) = 7.03564 7.85424 7.45618
#
# Compressibility (1/GPa) = 0.02005175
#
# Stress axis : x y z
#
# Youngs Moduli (GPa) = 74.71755 107.29516 76.78675
#
# Poissons Ratio (x) = 0.53356 0.01045
# Poissons Ratio (y) = 0.37156 0.20952
# Poissons Ratio (z) = 0.01017 0.29277
#
# Static dielectric constant tensor:
#      x y z
#    x 3.671600 -0.000110 -0.153080 
#    y -0.000110 3.626770 0.000310 
#    z -0.153080 0.000310 3.583130 
# 
# 
# High freq. dielectric constant tensor:
#      x y z
#    x 1.722000 0.000000 -0.014930 
#    y 0.000000 1.707400 0.000040 
#    z -0.014930 0.000040 1.725360 
# 
# From -- ./inp_files/366785.got.cif
#   From: 2010.06.25/outbox.ucp.g09.slc.cvg/sg12_184_cif.got.tgz:366785.got - 2010.06.28 13:50:54.
