data_PCOD8116883
_publ_section_title
;
Structure prediction by ZEFSAII (Michael W. Deem and Ramdas Pophale) SiO2 
 PCOD8116883
Probable space group: P 2/C
;
_chemical_formula_sum "Si O2"
_cell_formula_units_Z 32
_cell_length_a 16.882837
_cell_length_b 19.471788
_cell_length_c 17.699348
_cell_angle_alpha 90.000000
_cell_angle_beta 163.146079
_cell_angle_gamma 90.000000
_cell_volume 1686.963089
_symmetry_space_group_name_H-M "P 2/C"
_symmetry_group_IT_number 13
_symmetry_cell_setting 'monoclinic'
loop_
_space_group_symop_operation_xyz
x,y,z
-x,y,1/2-z
-x,-y,-z
x,-y,1/2+z
loop_
_atom_site_type_symbol
_atom_site_label
_atom_site_fract_x
_atom_site_fract_y
_atom_site_fract_z
Si Si1 0.690744 0.775711 0.222066
Si Si2 0.697771 0.214703 0.274037
Si Si3 0.697155 0.923171 0.244124
Si Si4 0.372724 0.629188 0.277087
Si Si5 0.411730 0.350566 0.253275
Si Si6 0.939327 0.437606 0.279426
Si Si7 0.833493 0.417972 0.751429
Si Si8 0.690463 0.067473 0.251876
O O1 0.657751 0.846311 0.242648
O O2 0.667438 0.711133 0.256038
O O3 0.979902 0.774517 0.443273
O O4 0.452227 0.771249 0.942220
O O5 0.588719 0.268345 0.236255
O O6 0.633756 0.137222 0.248276
O O7 0.000943 0.928494 0.492112
O O8 0.641247 0.991527 0.246434
O O9 0.497427 0.928414 0.991970
O O10 0.690565 0.615525 0.554024
O O11 0.270596 0.590818 0.258785
O O12 0.205455 0.600684 0.053548
O O13 0.500000 0.369501 0.250000
O O14 0.617722 0.385698 0.498134
O O15 0.115747 0.379287 0.999864
O O16 0.866360 0.501869 0.265403
O O17 0.000000 0.463039 0.250000
#
# Coordination Sequence:
#
# PCOD8116883 Si02
#       8
#     4   4   4   4   4   4   4   4
#     4  10  18  31  53  75 108 133 176 222 267 310
#     4  10  17  31  46  73 108 143 174 222 262 313
#     4   8  14  24  40  70  97 133 166 209 261 304
#     4  12  22  40  63  84 108 143 182 226 274 332
#     4  12  22  35  55  80 112 148 186 225 276 332
#     4  12  26  42  59  83 111 140 178 227 280 330
#     4  12  24  42  60  82 106 144 184 229 273 329
#     4   8  14  23  41  63 101 136 167 206 260 306
#
# _framework density 18.968997999999999
#
# number of rings (size 3 to 8) (size 9 to 14) (size 15 to 20)
#    0.000    1.500    2.500    4.500    0.000    0.000 
#    0.000    0.000    0.000    0.000    0.000    1.750 
#    0.000    0.000    0.000    0.000    0.000    0.250 
#
# Total GULP energy -396455.782351 kJ/mol
# GULP energy per Si atom -12389.243198 kJ/mol
# Density = 1.892582 g / cm^3
# Si number density = 18.968998 Si / 1000 Ang^3
#
#
#
# Elastic Constant Matrix: (Units=GPa)
#
#
# Indices 1 2 3 4 5 6 
#
# 1 42.6652 5.4231 9.8936 0.0000 -5.9775 0.0000
# 2 5.4231 165.9146 14.1839 0.0000 -6.3360 0.0000
# 3 9.8936 14.1839 115.8767 0.0000 -1.9494 0.0000
# 4 0.0000 0.0000 0.0000 26.8959 0.0000 1.4157
# 5 -5.9775 -6.3360 -1.9494 0.0000 17.4394 0.0000
# 6 0.0000 0.0000 0.0000 1.4157 0.0000 6.7279
#
#
#
# Elastic Compliance Matrix: (Units=1/GPa)
#
#
# Indices 1 2 3 4 5 6 
#
# 1 0.025093 -0.000337 -0.001962 0.000000 0.008259 0.000000
# 2 -0.000337 0.006176 -0.000693 0.000000 0.002051 0.000000
# 3 -0.001962 -0.000693 0.008883 0.000000 0.000069 0.000000
# 4 0.000000 0.000000 0.000000 0.037597 0.000000 -0.007911
# 5 0.008259 0.002051 0.000069 0.000000 0.060925 0.000000
# 6 0.000000 0.000000 0.000000 -0.007911 0.000000 0.150300
#
#
# Mechanical properties :
#
#
# Convention : Reuss Voigt Hill
#
# Bulk Modulus (GPa) = 29.26677 42.60641 35.93659
# Shear Modulus (GPa) = 16.32130 29.87635 23.09882
#
# Velocity S-wave (km/s) = 2.93647 3.97294 3.49336
# Velocity P-wave (km/s) = 5.19224 6.59966 5.93780
#
# Compressibility (1/GPa) = 0.03416844
#
# Stress axis : x y z
#
# Youngs Moduli (GPa) = 39.85123 161.92374 112.57024
#
# Poissons Ratio (x) = 0.05457 0.22089
# Poissons Ratio (y) = 0.01343 0.07797
# Poissons Ratio (z) = 0.07820 0.11216
#
# Static dielectric constant tensor:
#      x y z
#    x 3.064060 0.000000 0.069860 
#    y 0.000000 4.527220 0.000000 
#    z 0.069860 0.000000 3.763630 
# 
# 
# High freq. dielectric constant tensor:
#      x y z
#    x 1.662810 0.000000 0.008710 
#    y 0.000000 1.772960 0.000000 
#    z 0.008710 0.000000 1.770300 
# 
# From -- ./inp_files/54001.got.cif
#   From: 2010.06.25/outbox.cif.g09.slc.cpg/sg13_28_cif.got.tgz:54001.got - 2010.06.28 04:50:58.
