data_PCOD8116235
_publ_section_title
;
Structure prediction by ZEFSAII (Michael W. Deem and Ramdas Pophale) SiO2 
 PCOD8116235
Probable space group: C 2/M
;
_chemical_formula_sum "Si O2"
_cell_formula_units_Z 28
_cell_length_a 30.000000
_cell_length_b 9.000000
_cell_length_c 21.000000
_cell_angle_alpha 90.000000
_cell_angle_beta 30.000000
_cell_angle_gamma 90.000000
_cell_volume 2835.000000
_symmetry_space_group_name_H-M "C 2/M"
_symmetry_group_IT_number 12
_symmetry_cell_setting 'monoclinic'
loop_
_space_group_symop_operation_xyz
x,y,z
-x,y,-z
-x,-y,-z
x,-y,z
1/2+x,1/2+y,z
1/2-x,1/2+y,-z
1/2-x,1/2-y,-z
1/2+x,1/2-y,z
loop_
_atom_site_type_symbol
_atom_site_label
_atom_site_fract_x
_atom_site_fract_y
_atom_site_fract_z
Si Si1 0.889942 0.331599 0.837573
Si Si2 0.379219 0.335528 0.181417
Si Si3 0.941872 0.174127 0.324590
Si Si4 0.779017 0.665966 0.526315
Si Si5 0.987113 0.325868 0.144145
Si Si6 0.841866 0.829328 0.090235
Si Si7 0.755479 0.332899 0.905959
O O1 0.920327 0.500000 0.816178
O O2 0.856965 0.316399 0.804875
O O3 0.969914 0.218261 0.747296
O O4 0.806612 0.289394 0.984481
O O5 0.419258 0.500000 0.121962
O O6 0.301931 0.339119 0.326733
O O7 0.458715 0.231478 0.109009
O O8 0.335489 0.273160 0.170453
O O9 0.856756 0.241250 0.466575
O O10 0.929630 0.248962 0.270220
O O11 0.936240 0.000000 0.323787
O O12 0.811676 0.500000 0.469018
O O13 0.750000 0.750000 0.500000
O O14 0.976497 0.500000 0.160793
O O15 0.087455 0.273931 0.034125
O O16 0.749693 0.810577 0.164586
O O17 0.874487 0.000000 0.047215
O O18 0.721143 0.500000 0.965760
#
# Coordination Sequence:
#
# PCOD8116235 Si02
#       7
#     8   8   8   8   8   8   8
#     4  10  19  32  52  81 110 138 176 220 268 320
#     4  10  22  38  56  77 107 146 183 217 263 321
#     4  12  23  36  55  78 108 144 181 225 274 319
#     4  11  22  37  57  80 106 141 181 225 268 315
#     4  12  23  34  52  80 111 144 180 221 267 320
#     4  10  20  36  56  79 110 147 180 213 261 324
#     4   9  18  32  53  79 110 143 174 213 264 322
#
# _framework density 9.8765429999999999
#
# number of rings (size 3 to 8) (size 9 to 14) (size 15 to 20)
#    0.000    1.429    2.857    3.857    0.000    3.429 
#    0.000    0.000    0.000    0.857    0.000    6.000 
#    0.000    0.000    0.000    0.000    0.000    0.000 
#
# Total GULP energy -346927.613222 kJ/mol
# GULP energy per Si atom -12390.271901 kJ/mol
# Density = 0.985406 g / cm^3
# Si number density = 9.876543 Si / 1000 Ang^3
#
#
#
# Elastic Constant Matrix: (Units=GPa)
#
#
# Indices 1 2 3 4 5 6 
#
# 1 137.5482 42.1831 20.5243 0.0076 -7.5672 -0.0021
# 2 42.1831 120.5809 14.7523 0.0052 -6.0742 -0.0040
# 3 20.5243 14.7523 21.9675 0.0035 -8.3543 -0.0050
# 4 0.0076 0.0052 0.0035 13.7514 -0.0033 -8.5843
# 5 -7.5672 -6.0742 -8.3543 -0.0033 14.9556 -0.0001
# 6 -0.0021 -0.0040 -0.0050 -8.5843 -0.0001 22.6237
#
#
#
# Elastic Compliance Matrix: (Units=1/GPa)
#
#
# Indices 1 2 3 4 5 6 
#
# 1 0.009003 -0.002311 -0.006963 -0.000004 -0.000273 -0.000003
# 2 -0.002311 0.009630 -0.004146 -0.000001 0.000426 0.000000
# 3 -0.006963 -0.004146 0.067082 0.000006 0.032265 0.000016
# 4 -0.000004 -0.000001 0.000006 0.095291 0.000022 0.036157
# 5 -0.000273 0.000426 0.032265 0.000022 0.084923 0.000016
# 6 -0.000003 0.000000 0.000016 0.036157 0.000016 0.057921
#
#
# Mechanical properties :
#
#
# Convention : Reuss Voigt Hill
#
# Bulk Modulus (GPa) = 16.98514 48.33510 32.66012
# Shear Modulus (GPa) = 13.50196 23.77527 18.63861
#
# Velocity S-wave (km/s) = 2.61729 3.47309 3.07511
# Velocity P-wave (km/s) = 4.21319 6.37228 5.40171
#
# Compressibility (1/GPa) = 0.05887498
#
# Stress axis : x y z
#
# Youngs Moduli (GPa) = 111.07380 103.83720 14.90708
#
# Poissons Ratio (x) = 0.24001 0.10380
# Poissons Ratio (y) = 0.25674 0.06180
# Poissons Ratio (z) = 0.77343 0.43048
#
# Static dielectric constant tensor:
#      x y z
#    x 3.896440 -0.000130 0.248350 
#    y -0.000130 3.931180 -0.000210 
#    z 0.248350 -0.000210 4.057930 
# 
# 
# High freq. dielectric constant tensor:
#      x y z
#    x 1.774820 0.000000 -0.014550 
#    y 0.000000 1.769620 0.000000 
#    z -0.014550 0.000000 1.716040 
# 
# From -- ./inp_files/237836.got.cif
#   From: 2010.06.25/outbox.ucp.g09.slc.cvg/sg12_119_cif.got.tgz:237836.got - 2010.06.28 13:50:54.
