data_PCOD8116992
_publ_section_title
;
Structure prediction by ZEFSAII (Michael W. Deem and Ramdas Pophale) SiO2 
 PCOD8116992
Probable space group: P 2/C
;
_chemical_formula_sum "Si O2"
_cell_formula_units_Z 22
_cell_length_a 5.386600
_cell_length_b 13.148000
_cell_length_c 13.128371
_cell_angle_alpha 90.000000
_cell_angle_beta 89.412554
_cell_angle_gamma 90.000000
_cell_volume 929.741970
_symmetry_space_group_name_H-M "P 2/C"
_symmetry_group_IT_number 13
_symmetry_cell_setting 'monoclinic'
loop_
_space_group_symop_operation_xyz
x,y,z
-x,y,1/2-z
-x,-y,-z
x,-y,1/2+z
loop_
_atom_site_type_symbol
_atom_site_label
_atom_site_fract_x
_atom_site_fract_y
_atom_site_fract_z
Si Si1 0.743900 0.563125 0.315481
Si Si2 0.621306 0.197377 0.114879
Si Si3 0.000000 0.898568 0.250000
Si Si4 0.916106 0.253390 0.923210
Si Si5 0.765632 0.368167 0.431672
Si Si6 0.000000 0.274935 0.250000
Si Si7 0.500000 0.028530 0.250000
O O1 0.500000 0.541306 0.250000
O O2 0.719950 0.676626 0.362383
O O3 0.718502 0.488116 0.414906
O O4 0.000000 0.550648 0.250000
O O5 0.464920 0.298192 0.096048
O O6 0.763352 0.205977 0.224154
O O7 0.485003 0.091461 0.141478
O O8 0.801902 0.188361 0.016734
O O9 0.036051 0.828755 0.349073
O O10 0.748836 0.962439 0.254687
O O11 0.128971 0.334606 0.958759
O O12 0.978297 0.345560 0.348325
#
# Coordination Sequence:
#
# PCOD8116992 Si02
#       7
#     4   4   2   4   4   2   2
#     4  12  27  47  78 110 157 207 248 300 379 460
#     4  11  24  43  78 109 149 190 253 325 372 449
#     4  12  31  53  76 106 154 210 247 319 384 452
#     4  11  29  48  76 106 160 197 255 308 386 447
#     4  11  23  43  76 113 148 198 252 309 375 451
#     4  10  17  39  66 108 148 190 233 315 374 422
#     4  12  28  50  80 108 148 196 266 316 390 436
#
# _framework density 23.662479999999999
#
# number of rings (size 3 to 8) (size 9 to 14) (size 15 to 20)
#    0.000    0.727    3.636    2.182   11.455    2.182 
#    0.000    0.000    0.000    0.000    0.000    0.000 
#    0.000    0.000    0.000    0.000    0.000    0.000 
#
# Total GULP energy -272592.945096 kJ/mol
# GULP energy per Si atom -12390.588413 kJ/mol
# Density = 2.360862 g / cm^3
# Si number density = 23.662480 Si / 1000 Ang^3
#
#
#
# Elastic Constant Matrix: (Units=GPa)
#
#
# Indices 1 2 3 4 5 6 
#
# 1 121.2973 46.8930 31.0488 0.0000 15.2783 0.0000
# 2 46.8930 129.9134 47.9343 0.0000 -5.3627 0.0000
# 3 31.0488 47.9343 99.0944 0.0000 -5.6491 0.0000
# 4 0.0000 0.0000 0.0000 25.0143 0.0000 -1.2975
# 5 15.2783 -5.3627 -5.6491 0.0000 23.0429 0.0000
# 6 0.0000 0.0000 0.0000 -1.2975 0.0000 26.4251
#
#
#
# Elastic Compliance Matrix: (Units=1/GPa)
#
#
# Indices 1 2 3 4 5 6 
#
# 1 0.011362 -0.003614 -0.002322 0.000000 -0.008944 0.000000
# 2 -0.003614 0.010546 -0.003745 0.000000 0.003932 0.000000
# 3 -0.002322 -0.003745 0.012848 0.000000 0.003818 0.000000
# 4 0.000000 0.000000 0.000000 0.040079 0.000000 0.001968
# 5 -0.008944 0.003932 0.003818 0.000000 0.051179 0.000000
# 6 0.000000 0.000000 0.000000 0.001968 0.000000 0.037939
#
#
# Mechanical properties :
#
#
# Convention : Reuss Voigt Hill
#
# Bulk Modulus (GPa) = 64.95554 66.89524 65.92539
# Shear Modulus (GPa) = 26.53284 29.85839 28.19561
#
# Velocity S-wave (km/s) = 3.35222 3.55610 3.45566
# Velocity P-wave (km/s) = 6.51871 6.72258 6.62143
#
# Compressibility (1/GPa) = 0.01539515
#
# Stress axis : x y z
#
# Youngs Moduli (GPa) = 88.01178 94.82361 77.83307
#
# Poissons Ratio (x) = 0.34266 0.18072
# Poissons Ratio (y) = 0.31805 0.29147
# Poissons Ratio (z) = 0.20435 0.35510
#
# Static dielectric constant tensor:
#      x y z
#    x 4.337080 0.000000 -0.014760 
#    y 0.000000 4.435360 0.000000 
#    z -0.014760 0.000000 4.588590 
# 
# 
# High freq. dielectric constant tensor:
#      x y z
#    x 1.942420 0.000000 -0.007210 
#    y 0.000000 1.934890 0.000000 
#    z -0.007210 0.000000 1.941860 
# 
# From -- ./inp_files/43788.got.cif
#   From: 2010.06.25/outbox.cif.g09.slc.cpg/sg13_22_cif.got.tgz:43788.got - 2010.06.28 04:50:58.
