data_PCOD8116437
_publ_section_title
;
Structure prediction by ZEFSAII (Michael W. Deem and Ramdas Pophale) SiO2 
 PCOD8116437
Probable space group: C 2/M
;
_chemical_formula_sum "Si O2"
_cell_formula_units_Z 32
_cell_length_a 30.000000
_cell_length_b 9.000000
_cell_length_c 24.000000
_cell_angle_alpha 90.000000
_cell_angle_beta 30.000000
_cell_angle_gamma 90.000000
_cell_volume 3240.000000
_symmetry_space_group_name_H-M "C 2/M"
_symmetry_group_IT_number 12
_symmetry_cell_setting 'monoclinic'
loop_
_space_group_symop_operation_xyz
x,y,z
-x,y,-z
-x,-y,-z
x,-y,z
1/2+x,1/2+y,z
1/2-x,1/2+y,-z
1/2-x,1/2-y,-z
1/2+x,1/2-y,z
loop_
_atom_site_type_symbol
_atom_site_label
_atom_site_fract_x
_atom_site_fract_y
_atom_site_fract_z
Si Si1 0.805114 0.175473 0.021551
Si Si2 0.653774 0.178324 0.606012
Si Si3 0.853930 0.831774 0.847307
Si Si4 0.773376 0.824030 0.252814
Si Si5 0.415219 0.323641 0.551416
Si Si6 0.440976 0.330377 0.395558
Si Si7 0.911798 0.824418 0.010894
Si Si8 0.390888 0.675934 0.229597
O O1 0.704445 0.238107 0.133609
O O2 0.866533 0.242155 0.003977
O O3 0.801354 0.000000 0.030676
O O4 0.845810 0.230717 0.918891
O O5 0.750000 0.250000 0.500000
O O6 0.602692 0.228239 0.604929
O O7 0.610147 0.236617 0.710657
O O8 0.658288 0.000000 0.601780
O O9 0.954346 0.818191 0.721260
O O10 0.819156 0.000000 0.882715
O O11 0.681547 0.748568 0.329869
O O12 0.854506 0.768171 0.125624
O O13 0.807020 0.782205 0.279605
O O14 0.759017 0.000000 0.264001
O O15 0.500000 0.271219 0.500000
O O16 0.407419 0.500000 0.566313
O O17 0.424410 0.275639 0.476690
O O18 0.407902 0.500000 0.422412
O O19 0.906587 0.000000 0.014755
O O20 0.015962 0.777835 0.901399
O O21 0.389263 0.500000 0.244310
#
# Coordination Sequence:
#
# PCOD8116437 Si02
#       8
#     8   8   8   8   8   8   8   8
#     4   9  17  30  49  76 110 145 185 232 282 335
#     4  12  25  40  61  89 120 153 194 242 296 353
#     4   9  18  32  52  77 107 145 186 231 284 340
#     4  10  21  37  60  89 117 153 201 248 293 347
#     4  10  23  41  60  84 116 156 199 243 297 356
#     4  10  21  39  61  83 112 151 195 238 289 351
#     4   9  18  34  58  86 117 155 198 240 290 349
#     4  10  20  38  63  89 122 159 197 241 294 354
#
# _framework density 9.8765429999999999
#
# number of rings (size 3 to 8) (size 9 to 14) (size 15 to 20)
#    0.000    2.125    0.000    3.000    1.750    7.250 
#    0.000    3.750    0.000    1.500    0.000    0.000 
#    0.000    0.000    0.000    0.000    0.000    0.000 
#
# Total GULP energy -396530.238461 kJ/mol
# GULP energy per Si atom -12391.569952 kJ/mol
# Density = 0.985406 g / cm^3
# Si number density = 9.876543 Si / 1000 Ang^3
#
#
#
# Elastic Constant Matrix: (Units=GPa)
#
#
# Indices 1 2 3 4 5 6 
#
# 1 150.1295 35.0397 46.0194 -0.0055 -10.1376 0.0059
# 2 35.0397 62.1208 29.3025 -0.0055 -1.9374 0.0085
# 3 46.0194 29.3025 102.3171 0.0207 -0.4058 0.0005
# 4 -0.0055 -0.0055 0.0207 27.2065 -0.0064 -6.7612
# 5 -10.1376 -1.9374 -0.4058 -0.0064 34.8176 -0.0008
# 6 0.0059 0.0085 0.0005 -6.7612 -0.0008 32.5257
#
#
#
# Elastic Compliance Matrix: (Units=1/GPa)
#
#
# Indices 1 2 3 4 5 6 
#
# 1 0.008468 -0.003369 -0.002835 0.000004 0.002245 0.000000
# 2 -0.003369 0.019986 -0.004208 0.000006 0.000082 -0.000003
# 3 -0.002835 -0.004208 0.012250 -0.000011 -0.000917 -0.000001
# 4 0.000004 0.000006 -0.000011 0.038758 0.000009 0.008057
# 5 0.002245 0.000082 -0.000917 0.000009 0.029369 0.000002
# 6 0.000000 -0.000003 -0.000001 0.008057 0.000002 0.032420
#
#
# Mechanical properties :
#
#
# Convention : Reuss Voigt Hill
#
# Bulk Modulus (GPa) = 50.30293 59.47673 54.88983
# Shear Modulus (GPa) = 29.63837 32.52368 31.08103
#
# Velocity S-wave (km/s) = 3.87776 4.06212 3.97101
# Velocity P-wave (km/s) = 6.75059 7.22334 6.99096
#
# Compressibility (1/GPa) = 0.01987956
#
# Stress axis : x y z
#
# Youngs Moduli (GPa) = 118.09429 50.03621 81.63243
#
# Poissons Ratio (x) = 0.16858 0.23141
# Poissons Ratio (y) = 0.39788 0.34351
# Poissons Ratio (z) = 0.33477 0.21055
#
# Static dielectric constant tensor:
#      x y z
#    x 4.163730 -0.000030 0.007010 
#    y -0.000030 3.502340 0.000050 
#    z 0.007010 0.000050 3.831240 
# 
# 
# High freq. dielectric constant tensor:
#      x y z
#    x 1.801660 0.000000 -0.005790 
#    y 0.000000 1.744870 0.000000 
#    z -0.005790 0.000000 1.781790 
# 
# From -- ./inp_files/353385.got.cif
#   From: 2010.06.25/outbox.ucp.g09.slc.cvg/sg12_177_cif.got.tgz:353385.got - 2010.06.28 13:50:54.
