data_PCOD8116897
_publ_section_title
;
Structure prediction by ZEFSAII (Michael W. Deem and Ramdas Pophale) SiO2 
 PCOD8116897
Probable space group: P 2/C
;
_chemical_formula_sum "Si O2"
_cell_formula_units_Z 32
_cell_length_a 11.332237
_cell_length_b 8.932431
_cell_length_c 22.875435
_cell_angle_alpha 90.000000
_cell_angle_beta 51.024479
_cell_angle_gamma 90.000000
_cell_volume 1800.144892
_symmetry_space_group_name_H-M "P 2/C"
_symmetry_group_IT_number 13
_symmetry_cell_setting 'monoclinic'
loop_
_space_group_symop_operation_xyz
x,y,z
-x,y,1/2-z
-x,-y,-z
x,-y,1/2+z
loop_
_atom_site_type_symbol
_atom_site_label
_atom_site_fract_x
_atom_site_fract_y
_atom_site_fract_z
Si Si1 0.164815 0.543376 0.711204
Si Si2 0.839256 0.274471 0.704123
Si Si3 0.511264 0.755795 0.471830
Si Si4 0.644890 0.501252 0.550463
Si Si5 0.624823 0.308410 0.669098
Si Si6 0.177402 0.652508 0.094762
Si Si7 0.580351 0.234900 0.375621
Si Si8 0.574894 0.912395 0.337157
O O1 0.180498 0.440045 0.763675
O O2 0.207271 0.444077 0.642829
O O3 0.266145 0.685770 0.691430
O O4 0.000000 0.609232 0.750000
O O5 0.775557 0.267568 0.658138
O O6 0.745962 0.154194 0.772963
O O7 0.022036 0.249446 0.644482
O O8 0.460214 0.595043 0.461053
O O9 0.678128 0.760828 0.449186
O O10 0.404365 0.803284 0.559602
O O11 0.508874 0.876474 0.421612
O O12 0.678242 0.411603 0.599188
O O13 0.804092 0.545560 0.468671
O O14 0.557884 0.653021 0.594350
O O15 0.500000 0.390536 0.750000
O O16 0.541741 0.156516 0.673391
O O17 0.571300 0.091432 0.335850
#
# Coordination Sequence:
#
# PCOD8116897 Si02
#       8
#     4   4   4   4   4   4   4   4
#     4  10  18  32  52  79 108 134 168 223 274 317
#     4  10  20  35  53  71 107 144 179 215 258 324
#     4  10  17  32  52  78 104 134 170 216 263 323
#     4  10  18  32  59  80 104 135 178 227 268 309
#     4   9  19  36  52  73 101 142 188 218 251 320
#     4  10  17  31  57  80 103 131 172 220 274 313
#     4  11  18  31  51  80 105 128 171 223 267 305
#     4  10  20  32  50  73 102 142 177 207 258 318
#
# _framework density 17.776347000000001
#
# number of rings (size 3 to 8) (size 9 to 14) (size 15 to 20)
#    0.000    2.000    3.750    2.625    0.000    0.500 
#    2.250    5.625    0.000    3.000    0.000    0.000 
#    0.000    0.000    0.000    0.000    0.000    0.000 
#
# Total GULP energy -396454.809404 kJ/mol
# GULP energy per Si atom -12389.212794 kJ/mol
# Density = 1.773589 g / cm^3
# Si number density = 17.776347 Si / 1000 Ang^3
#
#
#
# Elastic Constant Matrix: (Units=GPa)
#
#
# Indices 1 2 3 4 5 6 
#
# 1 74.1985 35.6089 29.4235 0.0000 0.5616 0.0000
# 2 35.6089 86.5017 22.7729 0.0000 -5.8739 0.0000
# 3 29.4235 22.7729 62.1457 0.0000 -1.1323 0.0000
# 4 0.0000 0.0000 0.0000 14.5103 0.0000 7.0227
# 5 0.5616 -5.8739 -1.1323 0.0000 31.6114 0.0000
# 6 0.0000 0.0000 0.0000 7.0227 0.0000 7.4288
#
#
#
# Elastic Compliance Matrix: (Units=1/GPa)
#
#
# Indices 1 2 3 4 5 6 
#
# 1 0.019185 -0.006216 -0.006837 0.000000 -0.001741 0.000000
# 2 -0.006216 0.014965 -0.002490 0.000000 0.002802 0.000000
# 3 -0.006837 -0.002490 0.020248 0.000000 0.000384 0.000000
# 4 0.000000 0.000000 0.000000 0.127040 0.000000 -0.120095
# 5 -0.001741 0.002802 0.000384 0.000000 0.032199 0.000000
# 6 0.000000 0.000000 0.000000 -0.120095 0.000000 0.248141
#
#
# Mechanical properties :
#
#
# Convention : Reuss Voigt Hill
#
# Bulk Modulus (GPa) = 42.89659 44.27295 43.58477
# Shear Modulus (GPa) = 9.98733 19.71281 14.85007
#
# Velocity S-wave (km/s) = 2.37287 3.33368 2.89344
# Velocity P-wave (km/s) = 5.62948 6.30694 5.97781
#
# Compressibility (1/GPa) = 0.02331188
#
# Stress axis : x y z
#
# Youngs Moduli (GPa) = 52.12434 66.82268 49.38814
#
# Poissons Ratio (x) = 0.41535 0.33768
# Poissons Ratio (y) = 0.32399 0.12297
# Poissons Ratio (z) = 0.35639 0.16638
#
# Static dielectric constant tensor:
#      x y z
#    x 3.225240 0.000000 -0.017120 
#    y 0.000000 3.005320 0.000000 
#    z -0.017120 0.000000 3.690750 
# 
# 
# High freq. dielectric constant tensor:
#      x y z
#    x 1.669760 0.000000 0.005150 
#    y 0.000000 1.656470 0.000000 
#    z 0.005150 0.000000 1.699330 
# 
# From -- ./inp_files/82520.got.cif
#   From: 2010.06.25/outbox.cif.g09.slc.cpg/sg13_42_cif.got.tgz:82520.got - 2010.06.28 04:50:58.
