data_PCOD8116401
_publ_section_title
;
Structure prediction by ZEFSAII (Michael W. Deem and Ramdas Pophale) SiO2 
 PCOD8116401
Probable space group: C 2/M
;
_chemical_formula_sum "Si O2"
_cell_formula_units_Z 32
_cell_length_a 21.000000
_cell_length_b 18.000000
_cell_length_c 24.000000
_cell_angle_alpha 90.000000
_cell_angle_beta 20.000000
_cell_angle_gamma 90.000000
_cell_volume 3102.806740
_symmetry_space_group_name_H-M "C 2/M"
_symmetry_group_IT_number 12
_symmetry_cell_setting 'monoclinic'
loop_
_space_group_symop_operation_xyz
x,y,z
-x,y,-z
-x,-y,-z
x,-y,z
1/2+x,1/2+y,z
1/2-x,1/2+y,-z
1/2-x,1/2-y,-z
1/2+x,1/2-y,z
loop_
_atom_site_type_symbol
_atom_site_label
_atom_site_fract_x
_atom_site_fract_y
_atom_site_fract_z
Si Si1 0.275040 0.580233 0.437516
Si Si2 0.059761 0.411213 0.166771
Si Si3 0.045909 0.079848 0.116194
Si Si4 0.934128 0.857673 0.719526
Si Si5 0.480809 0.813638 0.695920
Si Si6 0.987859 0.643922 0.912893
Si Si7 0.855216 0.914119 0.668039
Si Si8 0.934432 0.188688 0.991337
O O1 0.173095 0.500000 0.533084
O O2 0.383805 0.569488 0.291909
O O3 0.416987 0.590797 0.372665
O O4 0.145568 0.650093 0.524638
O O5 0.024336 0.500000 0.199281
O O6 0.964936 0.379109 0.188925
O O7 0.965041 0.363026 0.293442
O O8 0.277127 0.388647 0.994429
O O9 0.102533 0.000000 0.043599
O O10 0.969523 0.131100 0.129224
O O11 0.942082 0.863968 0.646024
O O12 0.988849 0.774922 0.696296
O O13 0.722704 0.885393 0.905228
O O14 0.283095 0.832147 0.831670
O O15 0.143793 0.609471 0.825658
O O16 0.984987 0.731388 0.925650
O O17 0.000000 0.900045 0.500000
O O18 0.849481 0.000000 0.690879
O O19 0.000000 0.178646 0.000000
#
# Coordination Sequence:
#
# PCOD8116401 Si02
#       8
#     8   8   8   8   8   8   8   8
#     4  11  22  38  60  90 126 159 201 259 316 368
#     4  10  20  36  60  91 122 162 204 251 308 364
#     4   9  20  37  59  89 120 155 205 256 307 368
#     4  11  23  40  63  89 123 168 211 252 307 363
#     4  10  23  38  61  90 125 157 205 257 309 369
#     4  11  22  38  65  90 124 166 209 252 300 368
#     4  11  26  43  60  91 131 168 208 251 300 365
#     4  10  22  41  64  89 120 161 206 255 309 371
#
# _framework density 10.313243
#
# number of rings (size 3 to 8) (size 9 to 14) (size 15 to 20)
#    0.000    1.625    1.250    3.375    3.500    5.250 
#    0.000    0.625    0.000    1.500    0.000    0.000 
#    0.000    0.000    0.000    0.000    0.000    0.000 
#
# Total GULP energy -396433.659497 kJ/mol
# GULP energy per Si atom -12388.551859 kJ/mol
# Density = 1.028977 g / cm^3
# Si number density = 10.313243 Si / 1000 Ang^3
#
#
#
# Elastic Constant Matrix: (Units=GPa)
#
#
# Indices 1 2 3 4 5 6 
#
# 1 147.5309 71.5087 16.8538 0.0091 1.3454 0.0826
# 2 71.5087 91.5327 36.6085 -0.0701 -12.0475 0.1377
# 3 16.8538 36.6085 56.3556 0.1185 -11.2550 0.4734
# 4 0.0091 -0.0701 0.1185 29.3228 0.0017 0.9534
# 5 1.3454 -12.0475 -11.2550 0.0017 19.9740 -0.1406
# 6 0.0826 0.1377 0.4734 0.9534 -0.1406 18.2621
#
#
#
# Elastic Compliance Matrix: (Units=1/GPa)
#
#
# Indices 1 2 3 4 5 6 
#
# 1 0.011939 -0.011101 0.002415 -0.000037 -0.006140 -0.000078
# 2 -0.011101 0.025364 -0.011215 0.000102 0.009728 0.000219
# 3 0.002415 -0.011215 0.025835 -0.000115 0.007627 -0.000531
# 4 -0.000037 0.000102 -0.000115 0.034162 -0.000017 -0.001781
# 5 -0.006140 0.009728 0.007627 -0.000017 0.060645 0.000224
# 6 -0.000078 0.000219 -0.000531 -0.001781 0.000224 0.054865
#
#
# Mechanical properties :
#
#
# Convention : Reuss Voigt Hill
#
# Bulk Modulus (GPa) = 42.85296 60.59566 51.72431
# Shear Modulus (GPa) = 19.20181 24.87500 22.03841
#
# Velocity S-wave (km/s) = 3.05442 3.47648 3.27226
# Velocity P-wave (km/s) = 5.76716 6.74951 6.27758
#
# Compressibility (1/GPa) = 0.02333561
#
# Stress axis : x y z
#
# Youngs Moduli (GPa) = 83.75745 39.42651 38.70647
#
# Poissons Ratio (x) = 0.43769 -0.09349
# Poissons Ratio (y) = 0.92983 0.43411
# Poissons Ratio (z) = -0.20231 0.44218
#
# Static dielectric constant tensor:
#      x y z
#    x 3.724070 -0.000530 -0.064530 
#    y -0.000530 4.091820 0.001280 
#    z -0.064530 0.001280 3.788340 
# 
# 
# High freq. dielectric constant tensor:
#      x y z
#    x 1.802650 -0.000010 -0.005330 
#    y -0.000010 1.817310 0.000050 
#    z -0.005330 0.000050 1.803530 
# 
# From -- ./inp_files/347885.got.cif
#   From: 2010.06.25/outbox.ucp.g09.slc.cvg/sg12_174_cif.got.tgz:347885.got - 2010.06.28 13:50:54.
