data_PCOD8116351
_publ_section_title
;
Structure prediction by ZEFSAII (Michael W. Deem and Ramdas Pophale) SiO2 
 PCOD8116351
Probable space group: C 2/M
;
_chemical_formula_sum "Si O2"
_cell_formula_units_Z 28
_cell_length_a 21.000000
_cell_length_b 9.000000
_cell_length_c 30.000000
_cell_angle_alpha 90.000000
_cell_angle_beta 30.000000
_cell_angle_gamma 90.000000
_cell_volume 2835.000000
_symmetry_space_group_name_H-M "C 2/M"
_symmetry_group_IT_number 12
_symmetry_cell_setting 'monoclinic'
loop_
_space_group_symop_operation_xyz
x,y,z
-x,y,-z
-x,-y,-z
x,-y,z
1/2+x,1/2+y,z
1/2-x,1/2+y,-z
1/2-x,1/2-y,-z
1/2+x,1/2-y,z
loop_
_atom_site_type_symbol
_atom_site_label
_atom_site_fract_x
_atom_site_fract_y
_atom_site_fract_z
Si Si1 0.491016 0.176589 0.455379
Si Si2 0.935858 0.823500 0.083709
Si Si3 0.487753 0.174166 0.723358
Si Si4 0.758416 0.823371 0.446745
Si Si5 0.660692 0.173511 0.274278
Si Si6 0.920502 0.333847 0.926851
Si Si7 0.127607 0.833363 0.128230
O O1 0.500000 0.243711 0.500000
O O2 0.359577 0.225856 0.512316
O O3 0.607619 0.237193 0.353632
O O4 0.498649 0.000000 0.452841
O O5 0.794676 0.754673 0.177542
O O6 0.021711 0.775547 0.072304
O O7 0.930880 0.000000 0.083491
O O8 0.000000 0.757492 0.000000
O O9 0.618801 0.259910 0.653135
O O10 0.446411 0.204029 0.697739
O O11 0.381467 0.244504 0.819961
O O12 0.502332 0.000000 0.724310
O O13 0.750000 0.750000 0.500000
O O14 0.765794 0.000000 0.447991
O O15 0.684677 0.000000 0.265218
O O16 0.979649 0.500000 0.892642
O O17 0.951317 0.259993 0.860509
O O18 0.771793 0.343401 0.025741
O O19 0.070822 0.000000 0.167166
#
# Coordination Sequence:
#
# PCOD8116351 Si02
#       7
#     8   8   8   8   8   8   8
#     4   9  18  34  56  82 112 149 195 241 288 344
#     4  10  20  34  55  81 111 151 197 237 280 345
#     4  11  21  36  59  86 116 147 189 241 293 348
#     4  11  21  36  59  86 115 150 193 242 296 350
#     4   9  18  33  53  79 111 150 193 238 285 343
#     4  10  21  37  56  80 115 152 188 238 295 343
#     4  10  21  37  57  82 111 149 194 236 284 348
#
# _framework density 9.8765429999999999
#
# number of rings (size 3 to 8) (size 9 to 14) (size 15 to 20)
#    0.000    2.000    1.429    2.571    0.000    4.286 
#    0.000    4.286    0.000    1.714    0.000    0.000 
#    0.000    0.000    0.000    0.000    0.000    0.000 
#
# Total GULP energy -347140.350506 kJ/mol
# GULP energy per Si atom -12397.869661 kJ/mol
# Density = 0.985406 g / cm^3
# Si number density = 9.876543 Si / 1000 Ang^3
#
#
#
# Elastic Constant Matrix: (Units=GPa)
#
#
# Indices 1 2 3 4 5 6 
#
# 1 106.9267 24.0737 57.9430 0.0325 13.4664 -0.0762
# 2 24.0737 59.6478 33.3624 0.0576 5.2824 -0.0657
# 3 57.9430 33.3624 104.0188 -0.0022 21.3043 0.0093
# 4 0.0325 0.0576 -0.0022 22.9456 0.0029 -1.3376
# 5 13.4664 5.2824 21.3043 0.0029 28.6017 0.0055
# 6 -0.0762 -0.0657 0.0093 -1.3376 0.0055 23.7714
#
#
#
# Elastic Compliance Matrix: (Units=1/GPa)
#
#
# Indices 1 2 3 4 5 6 
#
# 1 0.013531 -0.001549 -0.006838 -0.000013 -0.000992 0.000041
# 2 -0.001549 0.020649 -0.006052 -0.000047 0.001423 0.000051
# 3 -0.006838 -0.006052 0.017081 0.000025 -0.008386 -0.000042
# 4 -0.000013 -0.000047 0.000025 0.043725 -0.000009 0.002460
# 5 -0.000992 0.001423 -0.008386 -0.000009 0.041413 -0.000006
# 6 0.000041 0.000051 -0.000042 0.002460 -0.000006 0.042206
#
#
# Mechanical properties :
#
#
# Convention : Reuss Voigt Hill
#
# Bulk Modulus (GPa) = 44.67242 55.70574 50.18908
# Shear Modulus (GPa) = 23.26199 25.41136 24.33668
#
# Velocity S-wave (km/s) = 3.43540 3.59060 3.51386
# Velocity P-wave (km/s) = 6.19681 6.74182 6.47505
#
# Compressibility (1/GPa) = 0.02238518
#
# Stress axis : x y z
#
# Youngs Moduli (GPa) = 73.90409 48.42848 58.54481
#
# Poissons Ratio (x) = 0.07501 0.40030
# Poissons Ratio (y) = 0.11447 0.35429
# Poissons Ratio (z) = 0.50532 0.29307
#
# Static dielectric constant tensor:
#      x y z
#    x 3.576230 -0.000010 0.132300 
#    y -0.000010 3.494510 0.000010 
#    z 0.132300 0.000010 3.929490 
# 
# 
# High freq. dielectric constant tensor:
#      x y z
#    x 1.766270 0.000000 0.011450 
#    y 0.000000 1.745870 0.000000 
#    z 0.011450 0.000000 1.777850 
# 
# From -- ./inp_files/380655.got.cif
#   From: 2010.06.25/outbox.ucp.g09.slc.cvg/sg12_191_cif.got.tgz:380655.got - 2010.06.28 13:50:54.
