data_PCOD8116517
_publ_section_title
;
Structure prediction by ZEFSAII (Michael W. Deem and Ramdas Pophale) SiO2 
 PCOD8116517
Probable space group: C 2/M
;
_chemical_formula_sum "Si O2"
_cell_formula_units_Z 24
_cell_length_a 15.000000
_cell_length_b 18.000000
_cell_length_c 18.000000
_cell_angle_alpha 90.000000
_cell_angle_beta 30.000000
_cell_angle_gamma 90.000000
_cell_volume 2430.000000
_symmetry_space_group_name_H-M "C 2/M"
_symmetry_group_IT_number 12
_symmetry_cell_setting 'monoclinic'
loop_
_space_group_symop_operation_xyz
x,y,z
-x,y,-z
-x,-y,-z
x,-y,z
1/2+x,1/2+y,z
1/2-x,1/2+y,-z
1/2-x,1/2-y,-z
1/2+x,1/2-y,z
loop_
_atom_site_type_symbol
_atom_site_label
_atom_site_fract_x
_atom_site_fract_y
_atom_site_fract_z
Si Si1 0.516480 0.201555 0.684554
Si Si2 0.939869 0.629639 0.889107
Si Si3 0.933786 0.082540 0.897281
Si Si4 0.123468 0.225096 0.974117
Si Si5 0.549575 0.500000 0.574592
Si Si6 0.304763 0.000000 0.250297
Si Si7 0.149519 0.866911 0.606897
O O1 0.547232 0.160948 0.741249
O O2 0.639561 0.153475 0.539867
O O3 0.557199 0.288602 0.657137
O O4 0.312697 0.197821 0.805976
O O5 0.862212 0.704590 0.982291
O O6 0.070632 0.574547 0.840980
O O7 0.764462 0.583747 0.994060
O O8 0.966538 0.150465 0.929245
O O9 0.087389 0.093486 0.726049
O O10 0.959350 0.000000 0.914527
O O11 0.000000 0.257310 0.000000
O O12 0.670653 0.500000 0.414995
O O13 0.332615 0.500000 0.720088
O O14 0.601765 0.424154 0.576924
#
# Coordination Sequence:
#
# PCOD8116517 Si02
#       7
#     8   8   8   8   4   4   8
#     4  10  21  38  62  85 117 162 208 239 291 366
#     4  11  20  40  61  87 121 162 200 242 302 365
#     4  11  21  38  65  89 118 154 210 250 289 363
#     4  11  24  41  61  88 122 157 202 260 307 348
#     4  11  24  37  57  95 136 154 190 246 314 367
#     4  11  24  37  57  97 132 163 184 244 316 372
#     4  11  20  37  62  89 118 160 201 242 289 363
#
# _framework density 9.8765429999999999
#
# number of rings (size 3 to 8) (size 9 to 14) (size 15 to 20)
#    0.000    1.167    6.667    1.000    2.333    0.333 
#    0.000    2.083    0.000    1.000    0.000    0.000 
#    0.000    0.000    0.000    0.000    0.000    0.000 
#
# Total GULP energy -297334.108836 kJ/mol
# GULP energy per Si atom -12388.921202 kJ/mol
# Density = 0.985406 g / cm^3
# Si number density = 9.876543 Si / 1000 Ang^3
#
#
#
# Elastic Constant Matrix: (Units=GPa)
#
#
# Indices 1 2 3 4 5 6 
#
# 1 31.5743 15.1603 17.2084 -0.0062 -15.4600 0.0052
# 2 15.1603 150.7538 30.6992 -0.0095 -4.4095 0.0078
# 3 17.2084 30.6992 94.4183 -0.0193 -8.7435 0.0308
# 4 -0.0062 -0.0095 -0.0193 30.8321 0.0191 1.6467
# 5 -15.4600 -4.4095 -8.7435 0.0191 17.5570 -0.0167
# 6 0.0052 0.0078 0.0308 1.6467 -0.0167 13.6739
#
#
#
# Elastic Compliance Matrix: (Units=1/GPa)
#
#
# Indices 1 2 3 4 5 6 
#
# 1 0.060713 -0.003570 -0.005281 -0.000026 0.049935 0.000055
# 2 -0.003570 0.007321 -0.001940 0.000002 -0.002271 -0.000001
# 3 -0.005281 -0.001940 0.012275 0.000007 0.000976 -0.000024
# 4 -0.000026 0.000002 0.000007 0.032644 -0.000059 -0.003931
# 5 0.049935 -0.002271 0.000976 -0.000059 0.100844 0.000111
# 6 0.000055 -0.000001 -0.000024 -0.003931 0.000111 0.073606
#
#
# Mechanical properties :
#
#
# Convention : Reuss Voigt Hill
#
# Bulk Modulus (GPa) = 17.02748 44.76469 30.89609
# Shear Modulus (GPa) = 15.21795 26.65785 20.93790
#
# Velocity S-wave (km/s) = 2.77864 3.67761 3.25927
# Velocity P-wave (km/s) = 4.35124 6.38314 5.46250
#
# Compressibility (1/GPa) = 0.05872860
#
# Stress axis : x y z
#
# Youngs Moduli (GPa) = 16.47081 136.59425 81.46812
#
# Poissons Ratio (x) = 0.48759 0.43020
# Poissons Ratio (y) = 0.05879 0.15805
# Poissons Ratio (z) = 0.08698 0.26500
#
# Static dielectric constant tensor:
#      x y z
#    x 3.295400 -0.000010 -0.094910 
#    y -0.000010 3.909890 0.000040 
#    z -0.094910 0.000040 3.898570 
# 
# 
# High freq. dielectric constant tensor:
#      x y z
#    x 1.717670 0.000000 -0.009520 
#    y 0.000000 1.802830 0.000000 
#    z -0.009520 0.000000 1.785600 
# 
# From -- ./inp_files/271630.got.cif
#   From: 2010.06.25/outbox.ucp.g09.slc.cvg/sg12_136_cif.got.tgz:271630.got - 2010.06.28 13:50:54.
