data_PCOD8116417
_publ_section_title
;
Structure prediction by ZEFSAII (Michael W. Deem and Ramdas Pophale) SiO2 
 PCOD8116417
Probable space group: C 2/M
;
_chemical_formula_sum "Si O2"
_cell_formula_units_Z 32
_cell_length_a 18.000000
_cell_length_b 9.000000
_cell_length_c 30.000000
_cell_angle_alpha 90.000000
_cell_angle_beta 40.000000
_cell_angle_gamma 90.000000
_cell_volume 3123.947783
_symmetry_space_group_name_H-M "C 2/M"
_symmetry_group_IT_number 12
_symmetry_cell_setting 'monoclinic'
loop_
_space_group_symop_operation_xyz
x,y,z
-x,y,-z
-x,-y,-z
x,-y,z
1/2+x,1/2+y,z
1/2-x,1/2+y,-z
1/2-x,1/2-y,-z
1/2+x,1/2-y,z
loop_
_atom_site_type_symbol
_atom_site_label
_atom_site_fract_x
_atom_site_fract_y
_atom_site_fract_z
Si Si1 0.765626 0.324860 0.859430
Si Si2 0.327785 0.676244 0.502216
Si Si3 0.325374 0.675372 0.002586
Si Si4 0.262695 0.330287 0.276038
Si Si5 0.916818 0.822550 0.128636
Si Si6 0.234710 0.833088 0.629897
Si Si7 0.983763 0.834943 0.720990
Si Si8 0.509436 0.830300 0.368978
O O1 0.784186 0.500000 0.846009
O O2 0.665486 0.265797 0.872977
O O3 0.885817 0.246746 0.793855
O O4 0.726795 0.278060 0.926341
O O5 0.325602 0.500000 0.498398
O O6 0.250000 0.750000 0.500000
O O7 0.284466 0.722404 0.570506
O O8 0.457435 0.739466 0.434846
O O9 0.325102 0.500000 0.996068
O O10 0.455288 0.738944 0.938458
O O11 0.250000 0.750000 0.000000
O O12 0.294889 0.500000 0.271655
O O13 0.365970 0.259392 0.199000
O O14 0.233707 0.257279 0.337074
O O15 0.146775 0.318555 0.300579
O O16 0.915159 0.000000 0.129874
O O17 0.097075 0.845427 0.698686
O O18 0.286706 0.000000 0.598450
O O19 0.034417 0.744176 0.655946
O O20 0.940850 0.000000 0.726635
O O21 0.466658 0.000000 0.391762
#
# Coordination Sequence:
#
# PCOD8116417 Si02
#       8
#     8   8   8   8   8   8   8   8
#     4  10  20  37  60  86 114 152 203 246 287 341
#     4  12  24  39  60  86 118 157 198 242 298 354
#     4  10  22  37  59  88 121 155 192 242 294 348
#     4   9  19  36  61  89 114 151 198 243 289 346
#     4   9  17  35  62  86 110 150 202 244 279 337
#     4  10  22  39  59  86 117 152 199 243 293 355
#     4  11  22  35  58  89 119 154 195 243 296 351
#     4  11  21  38  64  89 117 151 197 250 291 344
#
# _framework density 10.243449
#
# number of rings (size 3 to 8) (size 9 to 14) (size 15 to 20)
#    0.000    1.750    2.500    2.250    1.750    3.000 
#    0.000    4.375    0.000    1.500    0.000    0.000 
#    0.000    0.000    0.000    0.000    0.000    0.000 
#
# Total GULP energy -396628.498876 kJ/mol
# GULP energy per Si atom -12394.640590 kJ/mol
# Density = 1.022013 g / cm^3
# Si number density = 10.243449 Si / 1000 Ang^3
#
#
#
# Elastic Constant Matrix: (Units=GPa)
#
#
# Indices 1 2 3 4 5 6 
#
# 1 53.3181 21.8827 36.3336 0.0009 17.4779 0.0047
# 2 21.8827 86.2723 51.9492 0.0005 8.3711 0.0020
# 3 36.3336 51.9492 158.9673 0.0006 11.6681 0.0009
# 4 0.0009 0.0005 0.0006 29.8941 0.0002 -0.4326
# 5 17.4779 8.3711 11.6681 0.0002 32.7037 0.0002
# 6 0.0047 0.0020 0.0009 -0.4326 0.0002 20.8377
#
#
#
# Elastic Compliance Matrix: (Units=1/GPa)
#
#
# Indices 1 2 3 4 5 6 
#
# 1 0.026868 -0.003088 -0.004247 -0.000001 -0.012053 -0.000005
# 2 -0.003088 0.014923 -0.004120 0.000000 -0.000700 -0.000001
# 3 -0.004247 -0.004120 0.008588 0.000000 0.000260 0.000001
# 4 -0.000001 0.000000 0.000000 0.033461 0.000000 0.000695
# 5 -0.012053 -0.000700 0.000260 0.000000 0.037106 0.000002
# 6 -0.000005 -0.000001 0.000001 0.000695 0.000002 0.048004
#
#
# Mechanical properties :
#
#
# Convention : Reuss Voigt Hill
#
# Bulk Modulus (GPa) = 36.40317 57.65431 47.02874
# Shear Modulus (GPa) = 24.87351 29.24658 27.06005
#
# Velocity S-wave (km/s) = 3.48820 3.78243 3.63829
# Velocity P-wave (km/s) = 5.83361 6.87596 6.37612
#
# Compressibility (1/GPa) = 0.02747013
#
# Stress axis : x y z
#
# Youngs Moduli (GPa) = 37.21885 67.01081 116.43514
#
# Poissons Ratio (x) = 0.20693 0.49452
# Poissons Ratio (y) = 0.11493 0.47966
# Poissons Ratio (z) = 0.15807 0.27605
#
# Static dielectric constant tensor:
#      x y z
#    x 3.553220 -0.000010 0.017180 
#    y -0.000010 3.475580 0.000000 
#    z 0.017180 0.000000 3.990450 
# 
# 
# High freq. dielectric constant tensor:
#      x y z
#    x 1.787690 0.000000 0.001790 
#    y 0.000000 1.766600 0.000000 
#    z 0.001790 0.000000 1.820340 
# 
# From -- ./inp_files/378208.got.cif
#   From: 2010.06.25/outbox.ucp.g09.slc.cvg/sg12_190_cif.got.tgz:378208.got - 2010.06.28 13:50:54.
