data_PCOD8116475
_publ_section_title
;
Structure prediction by ZEFSAII (Michael W. Deem and Ramdas Pophale) SiO2 
 PCOD8116475
Probable space group: C 2/M
;
_chemical_formula_sum "Si O2"
_cell_formula_units_Z 32
_cell_length_a 21.000000
_cell_length_b 15.000000
_cell_length_c 30.000000
_cell_angle_alpha 90.000000
_cell_angle_beta 160.000000
_cell_angle_gamma 90.000000
_cell_volume 3232.090354
_symmetry_space_group_name_H-M "C 2/M"
_symmetry_group_IT_number 12
_symmetry_cell_setting 'monoclinic'
loop_
_space_group_symop_operation_xyz
x,y,z
-x,y,-z
-x,-y,-z
x,-y,z
1/2+x,1/2+y,z
1/2-x,1/2+y,-z
1/2-x,1/2-y,-z
1/2+x,1/2-y,z
loop_
_atom_site_type_symbol
_atom_site_label
_atom_site_fract_x
_atom_site_fract_y
_atom_site_fract_z
Si Si1 0.535929 0.102276 0.760338
Si Si2 0.763729 0.105207 0.508272
Si Si3 0.332726 0.096922 0.933233
Si Si4 0.956876 0.743708 0.157832
Si Si5 0.595655 0.225335 0.156641
Si Si6 0.970013 0.899432 0.030763
Si Si7 0.652635 0.602831 0.725604
Si Si8 0.571801 0.400669 0.295221
O O1 0.415962 0.138145 0.638531
O O2 0.508100 0.164741 0.784415
O O3 0.477893 0.000000 0.733363
O O4 0.751230 0.109185 0.892081
O O5 0.770721 0.135682 0.565416
O O6 0.951765 0.138947 0.608115
O O7 0.764885 0.000000 0.510286
O O8 0.327697 0.112846 0.876191
O O9 0.113346 0.091702 0.797486
O O10 0.422788 0.000000 0.004686
O O11 0.416339 0.176550 0.017087
O O12 0.094002 0.720233 0.208346
O O13 0.030764 0.836416 0.226834
O O14 0.750000 0.750000 0.000000
O O15 0.587619 0.329364 0.137303
O O16 0.786011 0.173232 0.271441
O O17 0.038558 0.000000 0.087588
O O18 0.000000 0.874149 0.000000
O O19 0.641130 0.500000 0.701647
O O20 0.624821 0.500000 0.311894
#
# Coordination Sequence:
#
# PCOD8116475 Si02
#       8
#     8   8   8   8   8   8   8   8
#     4  10  21  39  61  84 113 145 181 233 281 326
#     4   8  17  37  63  87 108 137 182 231 286 336
#     4   9  16  28  50  78 105 136 174 222 284 336
#     4  12  23  35  49  80 114 152 194 219 264 344
#     4  12  21  32  49  74 114 150 183 222 269 327
#     4  10  21  36  55  79 106 142 189 236 280 314
#     4   9  18  32  54  85 113 139 176 223 276 335
#     4   9  18  34  55  78 106 140 183 238 281 320
#
# _framework density 9.9007129999999997
#
# number of rings (size 3 to 8) (size 9 to 14) (size 15 to 20)
#    0.000    2.125    2.500    3.000    0.000    4.500 
#    0.000    0.625    0.000    2.250    0.000    0.000 
#    0.000    7.000    0.000    0.000    0.000    0.000 
#
# Total GULP energy -396463.483987 kJ/mol
# GULP energy per Si atom -12389.483875 kJ/mol
# Density = 0.987818 g / cm^3
# Si number density = 9.900713 Si / 1000 Ang^3
#
#
#
# Elastic Constant Matrix: (Units=GPa)
#
#
# Indices 1 2 3 4 5 6 
#
# 1 88.3894 37.7447 4.2590 0.0142 -22.9612 -0.0123
# 2 37.7447 97.3152 15.1408 0.0868 -18.5256 -0.0167
# 3 4.2590 15.1408 27.4785 0.1536 -20.7583 -0.0125
# 4 0.0142 0.0868 0.1536 23.9424 -0.0201 -6.4268
# 5 -22.9612 -18.5256 -20.7583 -0.0201 25.1872 0.0017
# 6 -0.0123 -0.0167 -0.0125 -6.4268 0.0017 31.6194
#
#
#
# Elastic Compliance Matrix: (Units=1/GPa)
#
#
# Indices 1 2 3 4 5 6 
#
# 1 0.024032 -0.005937 0.033914 -0.000177 0.045492 -0.000019
# 2 -0.005937 0.013416 -0.008232 0.000007 -0.002329 0.000003
# 3 0.033914 -0.008232 0.144296 -0.000824 0.143784 -0.000109
# 4 -0.000177 0.000007 -0.000824 0.044182 -0.000801 0.008980
# 5 0.045492 -0.002329 0.143784 -0.000801 0.197961 -0.000100
# 6 -0.000019 0.000003 -0.000109 0.008980 -0.000100 0.033451
#
#
# Mechanical properties :
#
#
# Convention : Reuss Voigt Hill
#
# Bulk Modulus (GPa) = 4.52011 36.38581 20.45296
# Shear Modulus (GPa) = 10.17100 26.55238 18.36169
#
# Velocity S-wave (km/s) = 2.26884 3.66585 3.04845
# Velocity P-wave (km/s) = 3.02510 6.02770 4.76888
#
# Compressibility (1/GPa) = 0.22123361
#
# Stress axis : x y z
#
# Youngs Moduli (GPa) = 41.61034 74.53722 6.93022
#
# Poissons Ratio (x) = 0.44256 -0.23503
# Poissons Ratio (y) = 0.24706 0.05705
# Poissons Ratio (z) = -1.41116 0.61356
#
# Static dielectric constant tensor:
#      x y z
#    x 3.509260 -0.000160 -0.194880 
#    y -0.000160 3.844870 -0.000140 
#    z -0.194880 -0.000140 3.596800 
# 
# 
# High freq. dielectric constant tensor:
#      x y z
#    x 1.750310 0.000000 -0.006090 
#    y 0.000000 1.781660 -0.000020 
#    z -0.006090 -0.000020 1.759220 
# 
# From -- ./inp_files/381485.got.cif
#   From: 2010.06.25/outbox.ucp.g09.slc.cvg/sg12_191_cif.got.tgz:381485.got - 2010.06.28 13:50:54.
