data_PCOD8116270
_publ_section_title
;
Structure prediction by ZEFSAII (Michael W. Deem and Ramdas Pophale) SiO2 
 PCOD8116270
Probable space group: C 2/M
;
_chemical_formula_sum "Si O2"
_cell_formula_units_Z 32
_cell_length_a 24.000000
_cell_length_b 9.000000
_cell_length_c 15.000000
_cell_angle_alpha 90.000000
_cell_angle_beta 90.000000
_cell_angle_gamma 90.000000
_cell_volume 3240.000000
_symmetry_space_group_name_H-M "C 2/M"
_symmetry_group_IT_number 12
_symmetry_cell_setting 'monoclinic'
loop_
_space_group_symop_operation_xyz
x,y,z
-x,y,-z
-x,-y,-z
x,-y,z
1/2+x,1/2+y,z
1/2-x,1/2+y,-z
1/2-x,1/2-y,-z
1/2+x,1/2-y,z
loop_
_atom_site_type_symbol
_atom_site_label
_atom_site_fract_x
_atom_site_fract_y
_atom_site_fract_z
Si Si1 0.412918 0.673320 0.482450
Si Si2 0.695700 0.830369 0.531259
Si Si3 0.052483 0.825356 0.321822
Si Si4 0.443316 0.824362 0.296518
Si Si5 0.861523 0.828567 0.160867
Si Si6 0.722421 0.166340 0.731854
Si Si7 0.658051 0.328229 0.215479
Si Si8 0.308948 0.675232 0.978575
O O1 0.409980 0.500000 0.459090
O O2 0.353294 0.735393 0.512186
O O3 0.450444 0.701096 0.570578
O O4 0.430635 0.758753 0.393918
O O5 0.750000 0.750000 0.500000
O O6 0.691063 0.823720 0.638048
O O7 0.694223 0.000000 0.497421
O O8 0.107519 0.760737 0.273125
O O9 0.004992 0.730299 0.273619
O O10 0.044046 0.000000 0.303847
O O11 0.405780 0.771548 0.213655
O O12 0.438389 0.000000 0.303149
O O13 0.801498 0.790548 0.202434
O O14 0.876609 0.000000 0.176712
O O15 0.855477 0.791883 0.055388
O O16 0.787830 0.199928 0.723203
O O17 0.713846 0.000000 0.771847
O O18 0.645162 0.500000 0.203029
O O19 0.666553 0.261853 0.115423
O O20 0.297328 0.500000 0.972373
O O21 0.250000 0.750000 0.000000
#
# Coordination Sequence:
#
# PCOD8116270 Si02
#       8
#     8   8   8   8   8   8   8   8
#     4  11  22  38  61  88 117 151 198 249 296 354
#     4  11  22  34  52  82 120 162 201 240 293 350
#     4  10  22  41  63  86 115 156 199 244 297 353
#     4  12  25  41  61  85 116 158 202 248 299 351
#     4  11  22  36  58  89 119 151 195 242 289 346
#     4  10  19  34  57  83 116 155 192 235 291 350
#     4   9  18  36  61  87 119 156 193 236 292 355
#     4  10  20  35  60  92 122 154 193 237 290 354
#
# _framework density 9.8765429999999999
#
# number of rings (size 3 to 8) (size 9 to 14) (size 15 to 20)
#    0.000    1.500    2.500    3.375    0.000    5.500 
#    0.000    1.875    0.000    3.750    0.000    0.000 
#    0.000    0.000    0.000    0.000    0.000    0.000 
#
# Total GULP energy -396637.028482 kJ/mol
# GULP energy per Si atom -12394.907140 kJ/mol
# Density = 0.985406 g / cm^3
# Si number density = 9.876543 Si / 1000 Ang^3
#
#
#
# Elastic Constant Matrix: (Units=GPa)
#
#
# Indices 1 2 3 4 5 6 
#
# 1 94.6065 40.0355 31.7473 0.0000 11.7270 0.0000
# 2 40.0355 95.2780 39.5455 0.0000 14.4441 0.0000
# 3 31.7473 39.5455 96.3316 0.0000 11.4668 0.0000
# 4 0.0000 0.0000 0.0000 21.4380 0.0000 -0.0762
# 5 11.7270 14.4441 11.4668 0.0000 27.5312 0.0000
# 6 0.0000 0.0000 0.0000 -0.0762 0.0000 32.0863
#
#
#
# Elastic Compliance Matrix: (Units=1/GPa)
#
#
# Indices 1 2 3 4 5 6 
#
# 1 0.013502 -0.004305 -0.002385 0.000000 -0.002499 0.000000
# 2 -0.004305 0.014631 -0.004095 0.000000 -0.004137 0.000000
# 3 -0.002385 -0.004095 0.013122 0.000000 -0.002301 0.000000
# 4 0.000000 0.000000 0.000000 0.046646 0.000000 0.000111
# 5 -0.002499 -0.004137 -0.002301 0.000000 0.040516 0.000000
# 6 0.000000 0.000000 0.000000 0.000111 0.000000 0.031166
#
#
# Mechanical properties :
#
#
# Convention : Reuss Voigt Hill
#
# Bulk Modulus (GPa) = 50.79978 56.54142 53.67060
# Shear Modulus (GPa) = 26.63608 27.87028 27.25318
#
# Velocity S-wave (km/s) = 3.67611 3.76031 3.71845
# Velocity P-wave (km/s) = 6.61752 6.89489 6.75763
#
# Compressibility (1/GPa) = 0.01968513
#
# Stress axis : x y z
#
# Youngs Moduli (GPa) = 74.06357 68.34663 76.20846
#
# Poissons Ratio (x) = 0.29421 0.18177
# Poissons Ratio (y) = 0.31881 0.31209
# Poissons Ratio (z) = 0.17665 0.27990
#
# Static dielectric constant tensor:
#      x y z
#    x 3.691990 0.000000 0.136690 
#    y 0.000000 3.774740 0.000000 
#    z 0.136690 0.000000 4.009770 
# 
# 
# High freq. dielectric constant tensor:
#      x y z
#    x 1.767850 0.000000 0.010450 
#    y 0.000000 1.757770 0.000000 
#    z 0.010450 0.000000 1.774870 
# 
# From -- ./inp_files/238763.got.cif
#   From: 2010.06.25/outbox.ucp.g09.slc.cvg/sg12_120_cif.got.tgz:238763.got - 2010.06.28 13:50:54.
