data_PCOD8116944
_publ_section_title
;
Structure prediction by ZEFSAII (Michael W. Deem and Ramdas Pophale) SiO2 
 PCOD8116944
Probable space group: P 2/C
;
_chemical_formula_sum "Si O2"
_cell_formula_units_Z 32
_cell_length_a 7.775889
_cell_length_b 22.710115
_cell_length_c 16.975891
_cell_angle_alpha 90.000000
_cell_angle_beta 34.974821
_cell_angle_gamma 90.000000
_cell_volume 1718.385386
_symmetry_space_group_name_H-M "P 2/C"
_symmetry_group_IT_number 13
_symmetry_cell_setting 'monoclinic'
loop_
_space_group_symop_operation_xyz
x,y,z
-x,y,1/2-z
-x,-y,-z
x,-y,1/2+z
loop_
_atom_site_type_symbol
_atom_site_label
_atom_site_fract_x
_atom_site_fract_y
_atom_site_fract_z
Si Si1 0.049865 0.164989 0.884907
Si Si2 0.658763 0.822004 0.066448
Si Si3 0.138189 0.947268 0.114180
Si Si4 0.606899 0.541328 0.793333
Si Si5 0.297861 0.746838 0.089364
Si Si6 0.711727 0.464581 0.478908
Si Si7 0.669470 0.640909 0.895568
Si Si8 0.814386 0.923712 0.893164
O O1 0.108819 0.192557 0.949658
O O2 0.344601 0.161888 0.721859
O O3 0.960198 0.096131 0.920045
O O4 0.789201 0.202413 0.940162
O O5 0.580000 0.767756 0.037746
O O6 0.807950 0.876101 0.964530
O O7 0.000000 0.926668 0.250000
O O8 0.037641 0.014429 0.132273
O O9 0.491761 0.941034 0.983310
O O10 0.500000 0.565734 0.750000
O O11 0.562202 0.595452 0.869358
O O12 0.945538 0.517525 0.665575
O O13 0.395481 0.484980 0.894369
O O14 0.000000 0.728591 0.250000
O O15 0.421570 0.691603 0.994185
O O16 0.500000 0.500000 0.500000
O O17 0.680557 0.394401 0.475044
O O18 0.000000 0.666181 0.750000
O O19 0.000000 0.897460 0.750000
#
# Coordination Sequence:
#
# PCOD8116944 Si02
#       8
#     4   4   4   4   4   4   4   4
#     4  10  19  36  60  80 102 141 194 226 277 335
#     4  10  20  36  59  80 105 144 183 235 280 326
#     4  10  17  34  57  80 107 145 182 218 276 341
#     4  10  19  34  57  87 118 146 183 229 273 319
#     4  10  20  38  59  79 104 144 191 236 271 318
#     4   9  18  34  56  81 111 150 185 215 267 334
#     4   9  20  37  56  78 111 152 181 215 279 333
#     4  10  20  31  55  84 111 140 175 224 282 339
#
# _framework density 18.622131
#
# number of rings (size 3 to 8) (size 9 to 14) (size 15 to 20)
#    0.000    2.250    2.500    1.875    0.000    3.000 
#    4.500    0.625    2.750    0.000    0.000    0.000 
#    0.000    0.000    0.000    0.000    0.000    0.000 
#
# Total GULP energy -396527.587014 kJ/mol
# GULP energy per Si atom -12391.487094 kJ/mol
# Density = 1.857975 g / cm^3
# Si number density = 18.622131 Si / 1000 Ang^3
#
#
#
# Elastic Constant Matrix: (Units=GPa)
#
#
# Indices 1 2 3 4 5 6 
#
# 1 92.5741 39.4148 39.2197 0.0000 9.2721 0.0000
# 2 39.4148 89.7789 55.5073 0.0000 0.9635 0.0000
# 3 39.2197 55.5073 94.9512 0.0000 3.2498 0.0000
# 4 0.0000 0.0000 0.0000 39.5300 0.0000 -4.2944
# 5 9.2721 0.9635 3.2498 0.0000 19.4433 0.0000
# 6 0.0000 0.0000 0.0000 -4.2944 0.0000 18.5702
#
#
#
# Elastic Compliance Matrix: (Units=1/GPa)
#
#
# Indices 1 2 3 4 5 6 
#
# 1 0.014673 -0.004321 -0.003321 0.000000 -0.006228 0.000000
# 2 -0.004321 0.018729 -0.009256 0.000000 0.002680 0.000000
# 3 -0.003321 -0.009256 0.017344 0.000000 -0.000856 0.000000
# 4 0.000000 0.000000 0.000000 0.025949 0.000000 0.006001
# 5 -0.006228 0.002680 -0.000856 0.000000 0.054412 0.000000
# 6 0.000000 0.000000 0.000000 0.006001 0.000000 0.055237
#
#
# Mechanical properties :
#
#
# Convention : Reuss Voigt Hill
#
# Bulk Modulus (GPa) = 58.99997 60.62088 59.81042
# Shear Modulus (GPa) = 22.14435 25.05286 23.59860
#
# Velocity S-wave (km/s) = 3.45213 3.67185 3.56369
# Velocity P-wave (km/s) = 6.90226 7.11340 7.00862
#
# Compressibility (1/GPa) = 0.01694916
#
# Stress axis : x y z
#
# Youngs Moduli (GPa) = 68.15265 53.39184 57.65796
#
# Poissons Ratio (x) = 0.23073 0.19149
# Poissons Ratio (y) = 0.29452 0.53367
# Poissons Ratio (z) = 0.22635 0.49418
#
# Static dielectric constant tensor:
#      x y z
#    x 3.568420 0.000000 0.184300 
#    y 0.000000 3.454200 0.000000 
#    z 0.184300 0.000000 3.835770 
# 
# 
# High freq. dielectric constant tensor:
#      x y z
#    x 1.706900 0.000000 -0.004420 
#    y 0.000000 1.708360 0.000000 
#    z -0.004420 0.000000 1.723810 
# 
# From -- ./inp_files/64768.got.cif
#   From: 2010.06.25/outbox.cif.g09.slc.cpg/sg13_33_cif.got.tgz:64768.got - 2010.06.28 04:50:58.
