data_PCOD8116567
_publ_section_title
;
Structure prediction by ZEFSAII (Michael W. Deem and Ramdas Pophale) SiO2 
 PCOD8116567
Probable space group: C 2/M
;
_chemical_formula_sum "Si O2"
_cell_formula_units_Z 32
_cell_length_a 24.000000
_cell_length_b 18.000000
_cell_length_c 21.000000
_cell_angle_alpha 90.000000
_cell_angle_beta 160.000000
_cell_angle_gamma 90.000000
_cell_volume 3102.806740
_symmetry_space_group_name_H-M "C 2/M"
_symmetry_group_IT_number 12
_symmetry_cell_setting 'monoclinic'
loop_
_space_group_symop_operation_xyz
x,y,z
-x,y,-z
-x,-y,-z
x,-y,z
1/2+x,1/2+y,z
1/2-x,1/2+y,-z
1/2-x,1/2-y,-z
1/2+x,1/2-y,z
loop_
_atom_site_type_symbol
_atom_site_label
_atom_site_fract_x
_atom_site_fract_y
_atom_site_fract_z
Si Si1 0.354363 0.207531 0.301406
Si Si2 0.531126 0.217900 0.962972
Si Si3 0.457537 0.648132 0.658457
Si Si4 0.816995 0.586032 0.037824
Si Si5 0.383614 0.580114 0.933977
Si Si6 0.515628 0.818642 0.346215
Si Si7 0.102448 0.415521 0.239598
Si Si8 0.384135 0.657439 0.725337
O O1 0.500000 0.240886 0.500000
O O2 0.440848 0.169706 0.334890
O O3 0.222157 0.273533 0.147692
O O4 0.255170 0.140780 0.228064
O O5 0.463596 0.134037 0.889812
O O6 0.418857 0.261912 0.792432
O O7 0.500000 0.250680 0.000000
O O8 0.462290 0.730908 0.637023
O O9 0.288802 0.606627 0.457777
O O10 0.449002 0.656387 0.724171
O O11 0.626261 0.606902 0.816394
O O12 0.817710 0.500000 0.061256
O O13 0.875985 0.643973 0.153923
O O14 0.957238 0.596209 0.134979
O O15 0.300333 0.500000 0.855981
O O16 0.502943 0.596209 0.120980
O O17 0.500000 0.577980 0.000000
O O18 0.690316 0.859321 0.523283
O O19 0.109109 0.500000 0.224013
#
# Coordination Sequence:
#
# PCOD8116567 Si02
#       8
#     8   8   8   8   8   8   8   8
#     4  11  23  38  62  92 121 160 214 261 315 366
#     4  11  22  41  64  88 124 162 210 267 313 373
#     4  12  23  41  67  92 130 165 209 260 320 375
#     4  11  24  40  60  94 131 167 209 255 313 382
#     4  10  22  40  60  86 126 172 213 256 309 367
#     4  12  22  38  62  92 125 162 210 261 313 374
#     4  11  24  43  66  94 127 167 211 261 321 382
#     4  11  21  38  64  91 122 165 211 256 312 374
#
# _framework density 10.313243
#
# number of rings (size 3 to 8) (size 9 to 14) (size 15 to 20)
#    0.000    0.875    2.500    7.125    0.000    3.500 
#    0.000    0.000    0.000    0.375    0.000    0.000 
#    0.000    0.000    0.000    0.000    0.000    0.000 
#
# Total GULP energy -396439.453198 kJ/mol
# GULP energy per Si atom -12388.732912 kJ/mol
# Density = 1.028977 g / cm^3
# Si number density = 10.313243 Si / 1000 Ang^3
#
#
#
# Elastic Constant Matrix: (Units=GPa)
#
#
# Indices 1 2 3 4 5 6 
#
# 1 47.7185 6.1154 20.5767 0.0143 20.4496 0.0063
# 2 6.1154 121.2857 43.4517 0.0113 0.7799 0.0035
# 3 20.5767 43.4517 162.0625 0.0364 30.3172 0.0134
# 4 0.0143 0.0113 0.0364 29.0325 0.0110 2.8078
# 5 20.4496 0.7799 30.3172 0.0110 37.3844 0.0033
# 6 0.0063 0.0035 0.0134 2.8078 0.0033 18.6037
#
#
#
# Elastic Compliance Matrix: (Units=1/GPa)
#
#
# Indices 1 2 3 4 5 6 
#
# 1 0.027599 -0.001137 -0.000448 -0.000006 -0.014710 -0.000005
# 2 -0.001137 0.009312 -0.002867 -0.000001 0.002753 0.000000
# 3 -0.000448 -0.002867 0.008180 -0.000006 -0.006329 -0.000003
# 4 -0.000006 -0.000001 -0.000006 0.034954 -0.000001 -0.005276
# 5 -0.014710 0.002753 -0.006329 -0.000001 0.039871 0.000002
# 6 -0.000005 0.000000 -0.000003 -0.005276 0.000002 0.054549
#
#
# Mechanical properties :
#
#
# Convention : Reuss Voigt Hill
#
# Bulk Modulus (GPa) = 27.63369 52.37270 40.00320
# Shear Modulus (GPa) = 25.58454 34.39898 29.99176
#
# Velocity S-wave (km/s) = 3.52571 4.08819 3.81733
# Velocity P-wave (km/s) = 5.47727 6.90873 6.23422
#
# Compressibility (1/GPa) = 0.03618771
#
# Stress axis : x y z
#
# Youngs Moduli (GPa) = 36.23338 107.39013 122.24878
#
# Poissons Ratio (x) = 0.12206 0.05472
# Poissons Ratio (y) = 0.04118 0.35052
# Poissons Ratio (z) = 0.01622 0.30792
#
# Static dielectric constant tensor:
#      x y z
#    x 3.880070 -0.000010 0.222950 
#    y -0.000010 4.017270 -0.000020 
#    z 0.222950 -0.000020 4.261350 
# 
# 
# High freq. dielectric constant tensor:
#      x y z
#    x 1.805020 0.000000 0.026220 
#    y 0.000000 1.803430 -0.000010 
#    z 0.026220 -0.000010 1.831950 
# 
# From -- ./inp_files/326151.got.cif
#   From: 2010.06.25/outbox.ucp.g09.slc.cvg/sg12_164_cif.got.tgz:326151.got - 2010.06.28 13:50:54.
