data_PCOD8116332
_publ_section_title
;
Structure prediction by ZEFSAII (Michael W. Deem and Ramdas Pophale) SiO2 
 PCOD8116332
Probable space group: C 2/M
;
_chemical_formula_sum "Si O2"
_cell_formula_units_Z 28
_cell_length_a 21.000000
_cell_length_b 9.000000
_cell_length_c 30.000000
_cell_angle_alpha 90.000000
_cell_angle_beta 30.000000
_cell_angle_gamma 90.000000
_cell_volume 2835.000000
_symmetry_space_group_name_H-M "C 2/M"
_symmetry_group_IT_number 12
_symmetry_cell_setting 'monoclinic'
loop_
_space_group_symop_operation_xyz
x,y,z
-x,y,-z
-x,-y,-z
x,-y,z
1/2+x,1/2+y,z
1/2-x,1/2+y,-z
1/2-x,1/2-y,-z
1/2+x,1/2-y,z
loop_
_atom_site_type_symbol
_atom_site_label
_atom_site_fract_x
_atom_site_fract_y
_atom_site_fract_z
Si Si1 0.123369 0.175275 0.896909
Si Si2 0.202830 0.667126 0.459083
Si Si3 0.126469 0.676911 0.097117
Si Si4 0.908733 0.668317 0.385829
Si Si5 0.864519 0.676637 0.207223
Si Si6 0.650843 0.828161 0.182104
Si Si7 0.855832 0.174852 0.591850
O O1 0.130983 0.254117 0.844501
O O2 0.228686 0.243195 0.866331
O O3 0.138841 0.000000 0.878576
O O4 0.000000 0.214022 0.000000
O O5 0.212973 0.500000 0.433928
O O6 0.080603 0.684042 0.566431
O O7 0.319362 0.703384 0.420856
O O8 0.209382 0.782591 0.414989
O O9 0.140891 0.500000 0.085787
O O10 0.121423 0.738644 0.151101
O O11 0.993876 0.726895 0.154345
O O12 0.250000 0.750000 0.000000
O O13 0.861843 0.500000 0.402496
O O14 0.042387 0.701890 0.283327
O O15 0.860296 0.500000 0.205820
O O16 0.736787 0.732256 0.311831
O O17 0.677989 0.000000 0.157629
O O18 0.000000 0.244023 0.500000
O O19 0.866302 0.000000 0.589619
#
# Coordination Sequence:
#
# PCOD8116332 Si02
#       7
#     8   8   8   8   8   8   8
#     4  10  21  37  59  86 115 149 189 233 284 341
#     4  10  20  33  53  82 111 140 181 232 280 325
#     4  10  20  36  59  83 110 144 186 233 281 339
#     4   9  18  34  55  77 106 145 182 222 276 336
#     4  10  22  39  59  85 116 154 192 232 290 345
#     4   9  18  34  57  80 105 143 187 225 272 332
#     4  10  22  39  58  79 110 154 196 231 279 344
#
# _framework density 9.8765429999999999
#
# number of rings (size 3 to 8) (size 9 to 14) (size 15 to 20)
#    0.000    2.286    0.000    2.143    2.000    5.714 
#    0.000    3.571    0.000    0.000    0.000    0.000 
#    0.000    0.000    0.000    0.000    0.000    0.000 
#
# Total GULP energy -346905.150331 kJ/mol
# GULP energy per Si atom -12389.469655 kJ/mol
# Density = 0.985406 g / cm^3
# Si number density = 9.876543 Si / 1000 Ang^3
#
#
#
# Elastic Constant Matrix: (Units=GPa)
#
#
# Indices 1 2 3 4 5 6 
#
# 1 131.7414 14.9467 69.0164 0.0013 15.2651 0.0031
# 2 14.9467 16.3497 31.7824 0.0025 2.2715 0.0029
# 3 69.0164 31.7824 156.5209 0.0024 13.4069 -0.0013
# 4 0.0013 0.0025 0.0024 24.3572 -0.0009 6.9722
# 5 15.2651 2.2715 13.4069 -0.0009 36.1615 0.0020
# 6 0.0031 0.0029 -0.0013 6.9722 0.0020 29.2590
#
#
#
# Elastic Compliance Matrix: (Units=1/GPa)
#
#
# Indices 1 2 3 4 5 6 
#
# 1 0.010132 -0.001079 -0.004015 0.000000 -0.002721 -0.000001
# 2 -0.001079 0.101223 -0.020215 -0.000005 0.001592 -0.000010
# 3 -0.004015 -0.020215 0.012404 0.000000 -0.001634 0.000003
# 4 0.000000 -0.000005 0.000000 0.044061 0.000002 -0.010499
# 5 -0.002721 0.001592 -0.001634 0.000002 0.029308 -0.000002
# 6 -0.000001 -0.000010 0.000003 -0.010499 -0.000002 0.036679
#
#
# Mechanical properties :
#
#
# Convention : Reuss Voigt Hill
#
# Bulk Modulus (GPa) = 13.67207 59.56700 36.61954
# Shear Modulus (GPa) = 16.19140 30.54665 23.36902
#
# Velocity S-wave (km/s) = 2.86613 3.93673 3.44329
# Velocity P-wave (km/s) = 4.22959 7.13337 5.86406
#
# Compressibility (1/GPa) = 0.07314179
#
# Stress axis : x y z
#
# Youngs Moduli (GPa) = 98.69851 9.87915 80.61819
#
# Poissons Ratio (x) = 0.01066 0.32372
# Poissons Ratio (y) = 0.10647 1.62966
# Poissons Ratio (z) = 0.39632 0.19970
#
# Static dielectric constant tensor:
#      x y z
#    x 3.746950 -0.000010 0.146350 
#    y -0.000010 3.322010 0.000010 
#    z 0.146350 0.000010 4.133360 
# 
# 
# High freq. dielectric constant tensor:
#      x y z
#    x 1.773340 0.000000 0.013530 
#    y 0.000000 1.741890 0.000000 
#    z 0.013530 0.000000 1.793460 
# 
# From -- ./inp_files/380585.got.cif
#   From: 2010.06.25/outbox.ucp.g09.slc.cvg/sg12_191_cif.got.tgz:380585.got - 2010.06.28 13:50:54.
