data_PCOD8116972
_publ_section_title
;
Structure prediction by ZEFSAII (Michael W. Deem and Ramdas Pophale) SiO2 
 PCOD8116972
Probable space group: P 2/C
;
_chemical_formula_sum "Si O2"
_cell_formula_units_Z 24
_cell_length_a 22.841948
_cell_length_b 9.632676
_cell_length_c 16.119680
_cell_angle_alpha 90.000000
_cell_angle_beta 158.493026
_cell_angle_gamma 90.000000
_cell_volume 1300.307640
_symmetry_space_group_name_H-M "P 2/C"
_symmetry_group_IT_number 13
_symmetry_cell_setting 'monoclinic'
loop_
_space_group_symop_operation_xyz
x,y,z
-x,y,1/2-z
-x,-y,-z
x,-y,1/2+z
loop_
_atom_site_type_symbol
_atom_site_label
_atom_site_fract_x
_atom_site_fract_y
_atom_site_fract_z
Si Si1 0.297023 0.862528 0.232192
Si Si2 0.894074 0.358013 0.447370
Si Si3 0.629460 0.860812 0.591619
Si Si4 0.195933 0.704388 0.944446
Si Si5 0.000000 0.535878 0.250000
Si Si6 0.089399 0.677755 0.056484
Si Si7 0.500000 0.207499 0.750000
O O1 0.482455 0.838311 0.459591
O O2 0.203011 0.828930 0.022038
O O3 0.265745 0.015008 0.230114
O O4 0.248972 0.758768 0.242965
O O5 0.726339 0.281342 0.220946
O O6 0.023394 0.280758 0.559591
O O7 0.966340 0.355772 0.633507
O O8 0.867676 0.516126 0.385013
O O9 0.573440 0.887507 0.421586
O O10 0.359829 0.697211 0.106517
O O11 0.158856 0.559168 0.943471
O O12 0.045797 0.725886 0.686914
#
# Coordination Sequence:
#
# PCOD8116972 Si02
#       7
#     4   4   4   4   2   4   2
#     4  10  20  37  57  83 116 152 194 230 282 344
#     4  10  20  37  56  87 117 142 189 240 287 326
#     4  10  22  37  57  85 115 153 191 240 281 331
#     4  10  17  36  59  81 108 157 189 223 284 346
#     4  10  20  38  56  86 120 146 182 248 282 336
#     4  10  19  36  61  83 112 148 194 234 278 346
#     4  10  20  36  56  82 114 152 196 230 276 346
#
# _framework density 18.457169
#
# number of rings (size 3 to 8) (size 9 to 14) (size 15 to 20)
#    0.000    2.000    5.000    0.000    0.000    1.333 
#    3.000    3.333    0.000    1.000    0.000    0.000 
#    0.000    0.000    0.000    0.000    0.000    0.000 
#
# Total GULP energy -297335.457641 kJ/mol
# GULP energy per Si atom -12388.977402 kJ/mol
# Density = 1.841516 g / cm^3
# Si number density = 18.457169 Si / 1000 Ang^3
#
#
#
# Elastic Constant Matrix: (Units=GPa)
#
#
# Indices 1 2 3 4 5 6 
#
# 1 136.3809 57.1606 55.0622 0.0000 5.2936 0.0000
# 2 57.1606 75.6555 51.7446 0.0000 -1.8205 0.0000
# 3 55.0622 51.7446 62.9496 0.0000 -1.8377 0.0000
# 4 0.0000 0.0000 0.0000 24.8342 0.0000 -3.7017
# 5 5.2936 -1.8205 -1.8377 0.0000 41.4612 0.0000
# 6 0.0000 0.0000 0.0000 -3.7017 0.0000 20.3128
#
#
#
# Elastic Compliance Matrix: (Units=1/GPa)
#
#
# Indices 1 2 3 4 5 6 
#
# 1 0.012084 -0.004360 -0.007045 0.000000 -0.002047 0.000000
# 2 -0.004360 0.031768 -0.022271 0.000000 0.000964 0.000000
# 3 -0.007045 -0.022271 0.040405 0.000000 0.001713 0.000000
# 4 0.000000 0.000000 0.000000 0.041391 0.000000 0.007543
# 5 -0.002047 0.000964 0.001713 0.000000 0.024498 0.000000
# 6 0.000000 0.000000 0.000000 0.007543 0.000000 0.050605
#
#
# Mechanical properties :
#
#
# Convention : Reuss Voigt Hill
#
# Bulk Modulus (GPa) = 59.15975 66.99118 63.07547
# Shear Modulus (GPa) = 18.26564 24.72288 21.49426
#
# Velocity S-wave (km/s) = 3.14924 3.66385 3.41625
# Velocity P-wave (km/s) = 6.73392 7.36700 7.05756
#
# Compressibility (1/GPa) = 0.01690338
#
# Stress axis : x y z
#
# Youngs Moduli (GPa) = 82.75515 31.47857 24.74954
#
# Poissons Ratio (x) = 0.13726 0.17437
# Poissons Ratio (y) = 0.36085 0.55119
# Poissons Ratio (z) = 0.58303 0.70105
#
# Static dielectric constant tensor:
#      x y z
#    x 3.960570 0.000000 0.073250 
#    y 0.000000 3.175640 0.000000 
#    z 0.073250 0.000000 3.375610 
# 
# 
# High freq. dielectric constant tensor:
#      x y z
#    x 1.746780 0.000000 0.010610 
#    y 0.000000 1.679970 0.000000 
#    z 0.010610 0.000000 1.700620 
# 
# From -- ./inp_files/71283.got.cif
#   From: 2010.06.25/outbox.cif.g09.slc.cpg/sg13_36_cif.got.tgz:71283.got - 2010.06.28 04:50:58.
