data_PCOD8116060
_publ_section_title
;
Structure prediction by ZEFSAII (Michael W. Deem and Ramdas Pophale) SiO2 
 PCOD8116060
Probable space group: C 2/M
;
_chemical_formula_sum "Si O2"
_cell_formula_units_Z 52
_cell_length_a 12.530018
_cell_length_b 13.523597
_cell_length_c 23.819753
_cell_angle_alpha 90.000000
_cell_angle_beta 51.975176
_cell_angle_gamma 90.000000
_cell_volume 3179.554245
_symmetry_space_group_name_H-M "C 2/M"
_symmetry_group_IT_number 12
_symmetry_cell_setting 'monoclinic'
loop_
_space_group_symop_operation_xyz
x,y,z
-x,y,-z
-x,-y,-z
x,-y,z
1/2+x,1/2+y,z
1/2-x,1/2+y,-z
1/2-x,1/2-y,-z
1/2+x,1/2-y,z
loop_
_atom_site_type_symbol
_atom_site_label
_atom_site_fract_x
_atom_site_fract_y
_atom_site_fract_z
Si Si1 0.106914 0.727232 0.074552
Si Si2 0.236214 0.886718 0.895293
Si Si3 0.500000 0.753946 0.000000
Si Si4 0.226847 0.614326 0.338210
Si Si5 0.463821 0.228312 0.448802
Si Si6 0.300070 0.613987 0.440101
Si Si7 0.893826 0.113629 0.177326
O O1 0.122152 0.652430 0.122748
O O2 0.014014 0.681736 0.053079
O O3 0.030006 0.825284 0.121080
O O4 0.250000 0.750000 0.000000
O O5 0.223521 0.873082 0.832208
O O6 0.216284 0.000000 0.919223
O O7 0.125007 0.820296 0.960775
O O8 0.185603 0.500000 0.344008
O O9 0.302196 0.631271 0.372707
O O10 0.328794 0.649545 0.256686
O O11 0.091307 0.678546 0.377327
O O12 0.500000 0.261681 0.500000
O O13 0.423491 0.325274 0.426959
O O14 0.342815 0.148749 0.487969
O O15 0.320880 0.500000 0.449020
O O16 0.940434 0.000000 0.165560
#
# Coordination Sequence:
#
# PCOD8116060 Si02
#       7
#     8   8   4   8   8   8   8
#     4   9  17  28  45  66  87 110 141 181 222 262
#     4   9  16  27  44  63  83 109 139 173 214 259
#     4   8  15  28  43  62  84 106 137 176 213 256
#     4   9  17  30  47  66  89 117 149 186 224 261
#     4   9  17  29  46  68  92 120 153 186 220 257
#     4   9  17  29  46  68  93 120 151 184 219 261
#     4   9  18  31  47  67  88 113 149 187 222 264
#
# _framework density 16.354493999999999
#
# number of rings (size 3 to 8) (size 9 to 14) (size 15 to 20)
#    0.000    3.077    0.000    0.692    0.000    7.077 
#    0.000    0.385    0.000    6.462    0.000    0.000 
#    0.000    0.000    0.000    0.000    0.000    0.000 
#
# Total GULP energy -322102.911393 kJ/mol
# GULP energy per Si atom -12388.573515 kJ/mol
# Density = 1.631727 g / cm^3
# Si number density = 16.354494 Si / 1000 Ang^3
#
#
#
# Elastic Constant Matrix: (Units=GPa)
#
#
# Indices 1 2 3 4 5 6 
#
# 1 103.2459 58.6800 41.3881 0.0000 6.2351 0.0000
# 2 58.6800 71.4798 38.7911 0.0000 3.9149 0.0000
# 3 41.3881 38.7911 99.7879 0.0000 2.4557 0.0000
# 4 0.0000 0.0000 0.0000 19.7564 0.0000 1.5190
# 5 6.2351 3.9149 2.4557 0.0000 17.8930 0.0000
# 6 0.0000 0.0000 0.0000 1.5190 0.0000 30.9026
#
#
#
# Elastic Compliance Matrix: (Units=1/GPa)
#
#
# Indices 1 2 3 4 5 6 
#
# 1 0.018722 -0.013972 -0.002256 0.000000 -0.003157 0.000000
# 2 -0.013972 0.028314 -0.005196 0.000000 -0.000613 0.000000
# 3 -0.002256 -0.005196 0.012973 0.000000 0.000143 0.000000
# 4 0.000000 0.000000 0.000000 0.050809 0.000000 -0.002498
# 5 -0.003157 -0.000613 0.000143 0.000000 0.057103 0.000000
# 6 0.000000 0.000000 0.000000 -0.002498 0.000000 0.032482
#
#
# Mechanical properties :
#
#
# Convention : Reuss Voigt Hill
#
# Bulk Modulus (GPa) = 58.27474 61.35912 59.81693
# Shear Modulus (GPa) = 20.08270 22.75404 21.41837
#
# Velocity S-wave (km/s) = 3.50803 3.73406 3.62281
# Velocity P-wave (km/s) = 7.21928 7.49604 7.35896
#
# Compressibility (1/GPa) = 0.01716009
#
# Stress axis : x y z
#
# Youngs Moduli (GPa) = 53.41434 35.31883 77.08076
#
# Poissons Ratio (x) = 0.49347 0.17389
# Poissons Ratio (y) = 0.74630 0.40054
# Poissons Ratio (z) = 0.12050 0.18353
#
# Static dielectric constant tensor:
#      x y z
#    x 3.835170 0.000000 0.312400 
#    y 0.000000 3.005020 0.000000 
#    z 0.312400 0.000000 3.004990 
# 
# 
# High freq. dielectric constant tensor:
#      x y z
#    x 1.638820 0.000000 0.018530 
#    y 0.000000 1.608350 0.000000 
#    z 0.018530 0.000000 1.616100 
# 
# From -- ./inp_files/335896.got.cif
#   From: 2010.06.25/outbox.cif.g09.slc.cpg/sg12_168_cif.got.tgz:335896.got - 2010.06.28 00:19:55.
