data_PCOD8116974
_publ_section_title
;
Structure prediction by ZEFSAII (Michael W. Deem and Ramdas Pophale) SiO2 
 PCOD8116974
Probable space group: P 2/C
;
_chemical_formula_sum "Si O2"
_cell_formula_units_Z 28
_cell_length_a 9.415652
_cell_length_b 9.060748
_cell_length_c 31.673352
_cell_angle_alpha 90.000000
_cell_angle_beta 34.022998
_cell_angle_gamma 90.000000
_cell_volume 1511.918775
_symmetry_space_group_name_H-M "P 2/C"
_symmetry_group_IT_number 13
_symmetry_cell_setting 'monoclinic'
loop_
_space_group_symop_operation_xyz
x,y,z
-x,y,1/2-z
-x,-y,-z
x,-y,1/2+z
loop_
_atom_site_type_symbol
_atom_site_label
_atom_site_fract_x
_atom_site_fract_y
_atom_site_fract_z
Si Si1 0.756883 0.666048 0.168911
Si Si2 0.348511 0.548454 0.611870
Si Si3 0.207294 0.253745 0.615978
Si Si4 0.252812 0.724118 0.553448
Si Si5 0.963686 0.944285 0.679849
Si Si6 0.915771 0.497350 0.472863
Si Si7 0.500000 0.942208 0.250000
Si Si8 0.000000 0.260697 0.250000
O O1 0.500000 0.585761 0.250000
O O2 0.683833 0.836636 0.176311
O O3 0.981905 0.664753 0.147169
O O4 0.851533 0.587133 0.104012
O O5 0.286200 0.372974 0.632801
O O6 0.236824 0.601381 0.594285
O O7 0.647772 0.581147 0.536620
O O8 0.236833 0.635694 0.679340
O O9 0.456207 0.228855 0.526038
O O10 0.106557 0.096281 0.658084
O O11 0.118183 0.658894 0.544072
O O12 0.109910 0.870563 0.604447
O O13 0.935458 0.840458 0.726652
O O14 0.671821 0.961970 0.738487
O O15 0.000000 0.500000 0.500000
#
# Coordination Sequence:
#
# PCOD8116974 Si02
#       8
#     4   4   4   4   4   4   2   2
#     4   9  18  35  59  83 110 154 198 235 286 354
#     4  10  20  38  61  81 119 154 195 244 294 352
#     4  10  17  36  64  81 105 161 200 231 280 371
#     4  10  19  37  61  86 114 155 198 242 298 347
#     4  10  21  38  59  85 121 155 196 239 301 360
#     4  11  21  36  57  92 118 145 199 255 292 343
#     4   8  20  38  58  78 114 160 196 232 288 380
#     4  10  24  38  54  92 120 148 192 260 298 330
#
# _framework density 18.519514000000001
#
# number of rings (size 3 to 8) (size 9 to 14) (size 15 to 20)
#    0.429    1.714    2.857    1.286    0.000    2.857 
#    6.429    0.000    0.000    2.571    0.000    0.000 
#    0.000    0.000    0.000    0.000    0.000    0.000 
#
# Total GULP energy -346874.478688 kJ/mol
# GULP energy per Si atom -12388.374239 kJ/mol
# Density = 1.847736 g / cm^3
# Si number density = 18.519514 Si / 1000 Ang^3
#
#
#
# Elastic Constant Matrix: (Units=GPa)
#
#
# Indices 1 2 3 4 5 6 
#
# 1 93.5677 43.7611 56.3271 0.0000 -3.4141 0.0000
# 2 43.7611 103.5494 58.0281 0.0000 2.1821 0.0000
# 3 56.3271 58.0281 134.4199 0.0000 -5.6753 0.0000
# 4 0.0000 0.0000 0.0000 33.3261 0.0000 -1.6629
# 5 -3.4141 2.1821 -5.6753 0.0000 31.5735 0.0000
# 6 0.0000 0.0000 0.0000 -1.6629 0.0000 20.6977
#
#
#
# Elastic Compliance Matrix: (Units=1/GPa)
#
#
# Indices 1 2 3 4 5 6 
#
# 1 0.015386 -0.003875 -0.004729 0.000000 0.001082 0.000000
# 2 -0.003875 0.013827 -0.004437 0.000000 -0.002172 0.000000
# 3 -0.004729 -0.004437 0.011414 0.000000 0.001847 0.000000
# 4 0.000000 0.000000 0.000000 0.030127 0.000000 0.002421
# 5 0.001082 -0.002172 0.001847 0.000000 0.032271 0.000000
# 6 0.000000 0.000000 0.000000 0.002421 0.000000 0.048509
#
#
# Mechanical properties :
#
#
# Convention : Reuss Voigt Hill
#
# Bulk Modulus (GPa) = 68.74895 71.97440 70.36168
# Shear Modulus (GPa) = 27.40250 28.68085 28.04168
#
# Velocity S-wave (km/s) = 3.85080 3.93960 3.89545
# Velocity P-wave (km/s) = 7.54815 7.72285 7.63600
#
# Compressibility (1/GPa) = 0.01454568
#
# Stress axis : x y z
#
# Youngs Moduli (GPa) = 64.99419 72.32190 87.60936
#
# Poissons Ratio (x) = 0.28025 0.41429
# Poissons Ratio (y) = 0.25186 0.38872
# Poissons Ratio (z) = 0.30735 0.32089
#
# Static dielectric constant tensor:
#      x y z
#    x 3.243210 0.000000 -0.223080 
#    y 0.000000 3.437600 0.000000 
#    z -0.223080 0.000000 3.605700 
# 
# 
# High freq. dielectric constant tensor:
#      x y z
#    x 1.698590 0.000000 -0.018440 
#    y 0.000000 1.713740 0.000000 
#    z -0.018440 0.000000 1.724970 
# 
# From -- ./inp_files/95952.got.cif
#   From: 2010.06.25/outbox.cif.g09.slc.cpg/sg13_48_cif.got.tgz:95952.got - 2010.06.28 04:50:58.
