data_PCOD8116713
_publ_section_title
;
Structure prediction by ZEFSAII (Michael W. Deem and Ramdas Pophale) SiO2 
 PCOD8116713
Probable space group: P 2/C
;
_chemical_formula_sum "Si O2"
_cell_formula_units_Z 28
_cell_length_a 13.788311
_cell_length_b 9.201496
_cell_length_c 16.858930
_cell_angle_alpha 90.000000
_cell_angle_beta 134.188441
_cell_angle_gamma 90.000000
_cell_volume 1533.732821
_symmetry_space_group_name_H-M "P 2/C"
_symmetry_group_IT_number 13
_symmetry_cell_setting 'monoclinic'
loop_
_space_group_symop_operation_xyz
x,y,z
-x,y,1/2-z
-x,-y,-z
x,-y,1/2+z
loop_
_atom_site_type_symbol
_atom_site_label
_atom_site_fract_x
_atom_site_fract_y
_atom_site_fract_z
Si Si1 0.708665 0.857164 0.164939
Si Si2 0.460337 0.348675 0.516761
Si Si3 0.622611 0.831768 0.668814
Si Si4 0.630351 0.225569 0.880117
Si Si5 0.327010 0.096925 0.030872
Si Si6 0.865672 0.821239 0.402901
Si Si7 0.836135 0.840445 0.917339
O O1 0.599973 0.732132 0.108632
O O2 0.834014 0.804876 0.290731
O O3 0.641212 0.999063 0.163502
O O4 0.748506 0.890964 0.097087
O O5 0.500000 0.500000 0.500000
O O6 0.360015 0.263245 0.400368
O O7 0.387253 0.350512 0.561865
O O8 0.469667 0.817144 0.613920
O O9 0.734528 0.773771 0.794196
O O10 0.500000 0.216675 0.750000
O O11 0.760123 0.265255 0.899181
O O12 0.651428 0.070721 0.934427
O O13 0.230128 0.184231 0.034874
O O14 0.017615 0.761870 0.504862
O O15 0.855902 0.989311 0.418081
#
# Coordination Sequence:
#
# PCOD8116713 Si02
#       7
#     4   4   4   4   4   4   4
#     4  10  17  32  54  79 107 142 171 224 273 320
#     4  11  21  33  52  84 105 131 182 235 268 312
#     4  10  17  33  53  77 109 137 178 220 277 317
#     4  11  17  32  54  78 103 148 178 216 273 333
#     4  10  16  27  53  81 109 138 180 212 272 318
#     4   9  18  30  50  79 114 138 183 211 269 326
#     4   9  18  29  47  83 113 140 170 230 257 319
#
# _framework density 18.256112999999999
#
# number of rings (size 3 to 8) (size 9 to 14) (size 15 to 20)
#    0.000    2.000    4.286    3.000    0.000    0.571 
#    0.000    3.571    0.000    0.857    7.429    0.000 
#    0.000    0.000    0.000    0.000    0.000    0.000 
#
# Total GULP energy -346999.753900 kJ/mol
# GULP energy per Si atom -12392.848354 kJ/mol
# Density = 1.821456 g / cm^3
# Si number density = 18.256113 Si / 1000 Ang^3
#
#
#
# Elastic Constant Matrix: (Units=GPa)
#
#
# Indices 1 2 3 4 5 6 
#
# 1 127.8917 21.1095 84.4949 0.0000 -9.2246 0.0000
# 2 21.1095 45.7612 26.2840 0.0000 -4.4293 0.0000
# 3 84.4949 26.2840 146.9525 0.0000 -10.1210 0.0000
# 4 0.0000 0.0000 0.0000 0.1264 0.0000 -4.8499
# 5 -9.2246 -4.4293 -10.1210 0.0000 32.1036 0.0000
# 6 0.0000 0.0000 0.0000 -4.8499 0.0000 17.6046
#
#
#
# Elastic Compliance Matrix: (Units=1/GPa)
#
#
# Indices 1 2 3 4 5 6 
#
# 1 0.012797 -0.001790 -0.006953 0.000000 0.001238 0.000000
# 2 -0.001790 0.024735 -0.003266 0.000000 0.001869 0.000000
# 3 -0.006953 -0.003266 0.011467 0.000000 0.001167 0.000000
# 4 0.000000 0.000000 0.000000 -0.826660 0.000000 -0.227736
# 5 0.001238 0.001869 0.001167 0.000000 0.032131 0.000000
# 6 0.000000 0.000000 0.000000 -0.227736 0.000000 -0.005935
#
#
# Mechanical properties :
#
#
# Convention : Reuss Voigt Hill
#
# Bulk Modulus (GPa) = 40.02929 64.93132 52.48030
# Shear Modulus (GPa) = -6.95294 22.54806 7.79756
#
# Velocity S-wave (km/s) = -1.95367 3.51821 2.06893
# Velocity P-wave (km/s) = 4.10914 7.22134 5.87507
#
# Compressibility (1/GPa) = 0.02498171
#
# Stress axis : x y z
#
# Youngs Moduli (GPa) = 78.14050 40.42819 87.20509
#
# Poissons Ratio (x) = 0.07237 0.60632
# Poissons Ratio (y) = 0.13987 0.28483
# Poissons Ratio (z) = 0.54330 0.13205
#
# Static dielectric constant tensor:
#      x y z
#    x 3.731010 0.000000 -0.172610 
#    y 0.000000 2.882580 0.000000 
#    z -0.172610 0.000000 3.816710 
# 
# 
# High freq. dielectric constant tensor:
#      x y z
#    x 1.707500 0.000000 -0.017410 
#    y 0.000000 1.645740 0.000000 
#    z -0.017410 0.000000 1.718280 
# 
# From -- ./inp_files/68232.got.cif
#   From: 2010.06.25/outbox.cif.g09.slc.cpg/sg13_35_cif.got.tgz:68232.got - 2010.06.28 04:50:58.
