data_PCOD8116697
_publ_section_title
;
Structure prediction by ZEFSAII (Michael W. Deem and Ramdas Pophale) SiO2 
 PCOD8116697
Probable space group: P 2/C
;
_chemical_formula_sum "Si O2"
_cell_formula_units_Z 18
_cell_length_a 21.606443
_cell_length_b 8.445767
_cell_length_c 5.292044
_cell_angle_alpha 90.000000
_cell_angle_beta 75.822585
_cell_angle_gamma 90.000000
_cell_volume 936.294415
_symmetry_space_group_name_H-M "P 2/C"
_symmetry_group_IT_number 13
_symmetry_cell_setting 'monoclinic'
loop_
_space_group_symop_operation_xyz
x,y,z
-x,y,1/2-z
-x,-y,-z
x,-y,1/2+z
loop_
_atom_site_type_symbol
_atom_site_label
_atom_site_fract_x
_atom_site_fract_y
_atom_site_fract_z
Si Si1 0.224102 0.593224 0.025890
Si Si2 0.138288 0.894309 0.111693
Si Si3 0.573835 0.685413 0.176177
Si Si4 0.627166 0.338869 0.122847
Si Si5 0.000000 0.102258 0.750000
O O1 0.201923 0.499991 0.298061
O O2 0.192743 0.764352 0.057266
O O3 0.299578 0.613838 0.950420
O O4 0.068111 0.805527 0.181886
O O5 0.146514 0.000020 0.353445
O O6 0.500000 0.730671 0.250000
O O7 0.583851 0.496532 0.166174
O O8 0.608290 0.759509 0.390278
O O9 0.608294 0.759507 0.893171
O O10 0.000000 0.000000 0.500000
#
# Coordination Sequence:
#
# PCOD8116697 Si02
#       5
#     4   4   4   4   2
#     4  12  21  35  53  79 114 149 171 215 282 328
#     4  10  21  38  59  82 107 143 187 223 259 317
#     4  10  16  25  41  63  98 133 170 209 262 311
#     4  10  16  27  39  64  99 136 157 205 269 315
#     4   8  16  34  58  78 102 138 182 226 260 298
#
# _framework density 19.224723000000001
#
# number of rings (size 3 to 8) (size 9 to 14) (size 15 to 20)
#    0.000    1.778    4.444    4.667    0.000    0.000 
#    0.000    1.111    0.000    0.000    0.000    0.000 
#    0.000   30.222    0.000    0.000    0.000    0.000 
#
# Total GULP energy -222991.597102 kJ/mol
# GULP energy per Si atom -12388.422061 kJ/mol
# Density = 1.918097 g / cm^3
# Si number density = 19.224723 Si / 1000 Ang^3
#
#
#
# Elastic Constant Matrix: (Units=GPa)
#
#
# Indices 1 2 3 4 5 6 
#
# 1 63.6778 34.2141 41.6412 0.0000 6.3720 0.0000
# 2 34.2141 47.2229 34.6743 0.0000 0.1056 0.0000
# 3 41.6412 34.6743 201.2795 0.0000 30.0700 0.0000
# 4 0.0000 0.0000 0.0000 15.0484 0.0000 4.2794
# 5 6.3720 0.1056 30.0700 0.0000 29.3270 0.0000
# 6 0.0000 0.0000 0.0000 4.2794 0.0000 -1.0958
#
#
#
# Elastic Compliance Matrix: (Units=1/GPa)
#
#
# Indices 1 2 3 4 5 6 
#
# 1 0.027146 -0.018275 -0.001885 0.000000 -0.003899 0.000000
# 2 -0.018275 0.037171 -0.003774 0.000000 0.007706 0.000000
# 3 -0.001885 -0.003774 0.007021 0.000000 -0.006775 0.000000
# 4 0.000000 0.000000 0.000000 0.031486 0.000000 0.122958
# 5 -0.003899 0.007706 -0.006775 0.000000 0.041865 0.000000
# 6 0.000000 0.000000 0.000000 0.122958 0.000000 -0.432377
#
#
# Mechanical properties :
#
#
# Convention : Reuss Voigt Hill
#
# Bulk Modulus (GPa) = 42.60938 59.24881 50.92910
# Shear Modulus (GPa) = -21.55205 22.09927 0.27361
#
# Velocity S-wave (km/s) = -3.35185 3.39414 0.37767
# Velocity P-wave (km/s) = 2.68925 6.80046 5.17099
#
# Compressibility (1/GPa) = 0.02346901
#
# Stress axis : x y z
#
# Youngs Moduli (GPa) = 36.83731 26.90292 142.43891
#
# Poissons Ratio (x) = 0.49165 0.26854
# Poissons Ratio (y) = 0.67321 0.53754
# Poissons Ratio (z) = 0.06945 0.10153
#
# Static dielectric constant tensor:
#      x y z
#    x 3.927540 0.000000 0.509680 
#    y 0.000000 2.715320 0.000000 
#    z 0.509680 0.000000 5.850190 
# 
# 
# High freq. dielectric constant tensor:
#      x y z
#    x 1.763820 0.000000 0.007990 
#    y 0.000000 1.656710 0.000000 
#    z 0.007990 0.000000 1.793960 
# 
# From -- ./inp_files/5807.got.cif
#   From: 2010.06.25/outbox.cif.g09.slc.cpg/sg13_3_cif.got.tgz:5807.got - 2010.06.28 04:50:58.
