data_PCOD8116098
_publ_section_title
;
Structure prediction by ZEFSAII (Michael W. Deem and Ramdas Pophale) SiO2 
 PCOD8116098
Probable space group: C 2/M
;
_chemical_formula_sum "Si O2"
_cell_formula_units_Z 64
_cell_length_a 21.627343
_cell_length_b 20.205722
_cell_length_c 21.193984
_cell_angle_alpha 90.000000
_cell_angle_beta 28.186529
_cell_angle_gamma 90.000000
_cell_volume 4374.698517
_symmetry_space_group_name_H-M "C 2/M"
_symmetry_group_IT_number 12
_symmetry_cell_setting 'monoclinic'
loop_
_space_group_symop_operation_xyz
x,y,z
-x,y,-z
-x,-y,-z
x,-y,z
1/2+x,1/2+y,z
1/2-x,1/2+y,-z
1/2-x,1/2-y,-z
1/2+x,1/2-y,z
loop_
_atom_site_type_symbol
_atom_site_label
_atom_site_fract_x
_atom_site_fract_y
_atom_site_fract_z
Si Si1 0.168876 0.719475 0.164027
Si Si2 0.812854 0.314769 0.118552
Si Si3 0.649237 0.713009 0.672693
Si Si4 0.558697 0.075942 0.762754
Si Si5 0.891546 0.686373 0.186712
Si Si6 0.264832 0.925170 0.067343
Si Si7 0.377570 0.664555 0.892893
Si Si8 0.896855 0.328454 0.385279
O O1 0.217024 0.755143 0.184616
O O2 0.145913 0.772488 0.130008
O O3 0.034349 0.680128 0.298570
O O4 0.280311 0.668628 0.040224
O O5 0.809146 0.322280 0.197042
O O6 0.762911 0.383460 0.133612
O O7 0.956999 0.298659 0.963160
O O8 0.665228 0.750567 0.724845
O O9 0.526543 0.662591 0.783856
O O10 0.779604 0.670409 0.541598
O O11 0.623522 0.767164 0.642630
O O12 0.625453 0.118553 0.758500
O O13 0.602966 0.103674 0.654912
O O14 0.604510 0.000000 0.728348
O O15 0.402598 0.083103 0.907711
O O16 0.152500 0.901352 0.120192
O O17 0.236219 0.000000 0.112865
#
# Coordination Sequence:
#
# PCOD8116098 Si02
#       8
#     8   8   8   8   8   8   8   8
#     4   9  14  24  41  59  78 105 137 171 214 249
#     4   9  16  25  40  60  86 117 144 171 205 246
#     4   9  16  26  41  60  82 105 135 176 218 250
#     4   9  16  26  40  59  86 117 144 171 204 247
#     4   9  16  26  39  60  87 115 145 172 203 248
#     4   9  16  25  39  61  87 114 145 175 201 242
#     4   9  14  24  41  58  79 105 134 174 217 244
#     4   9  16  26  41  61  81 105 137 175 216 251
#
# _framework density 14.629580000000001
#
# number of rings (size 3 to 8) (size 9 to 14) (size 15 to 20)
#    0.000    3.000    2.500    0.000    0.000    0.500 
#    0.000    3.750    0.000    0.000    0.000    0.000 
#    0.000   16.000    0.000    0.000    0.000    0.000 
#
# Total GULP energy -396670.081018 kJ/mol
# GULP energy per Si atom -12395.940032 kJ/mol
# Density = 1.459628 g / cm^3
# Si number density = 14.629580 Si / 1000 Ang^3
#
#
#
# Elastic Constant Matrix: (Units=GPa)
#
#
# Indices 1 2 3 4 5 6 
#
# 1 89.0327 64.9233 48.5729 -0.0010 0.3231 -0.0009
# 2 64.9233 55.6839 37.7484 -0.0019 5.9307 0.0011
# 3 48.5729 37.7484 79.5930 -0.0103 -5.0482 0.0036
# 4 -0.0010 -0.0019 -0.0103 14.0604 0.0028 0.7956
# 5 0.3231 5.9307 -5.0482 0.0028 16.2349 -0.0003
# 6 -0.0009 0.0011 0.0036 0.7956 -0.0003 13.7734
#
#
#
# Elastic Compliance Matrix: (Units=1/GPa)
#
#
# Indices 1 2 3 4 5 6 
#
# 1 0.094864 -0.113822 -0.001421 -0.000019 0.039251 0.000018
# 2 -0.113822 0.166485 -0.013476 0.000018 -0.062744 -0.000020
# 3 -0.001421 -0.013476 0.020542 0.000011 0.011339 -0.000005
# 4 -0.000019 0.000018 0.000011 0.071355 -0.000015 -0.004122
# 5 0.039251 -0.062744 0.011339 -0.000015 0.087261 0.000007
# 6 0.000018 -0.000020 -0.000005 -0.004122 0.000007 0.072842
#
#
# Mechanical properties :
#
#
# Convention : Reuss Voigt Hill
#
# Bulk Modulus (GPa) = 40.89579 58.53320 49.71450
# Shear Modulus (GPa) = 6.41900 13.68473 10.05186
#
# Velocity S-wave (km/s) = 2.09695 3.06177 2.62409
# Velocity P-wave (km/s) = 5.82046 7.25233 6.57549
#
# Compressibility (1/GPa) = 0.02445239
#
# Stress axis : x y z
#
# Youngs Moduli (GPa) = 10.54135 6.00656 48.68186
#
# Poissons Ratio (x) = 0.68368 0.06917
# Poissons Ratio (y) = 1.19984 0.65605
# Poissons Ratio (z) = 0.01498 0.08095
#
# Static dielectric constant tensor:
#      x y z
#    x 2.734950 0.000000 -0.112080 
#    y 0.000000 2.645830 0.000000 
#    z -0.112080 0.000000 2.916830 
# 
# 
# High freq. dielectric constant tensor:
#      x y z
#    x 1.539040 0.000000 -0.007350 
#    y 0.000000 1.530620 0.000000 
#    z -0.007350 0.000000 1.544470 
# 
# From -- ./inp_files/168436.got.cif
#   From: 2010.06.25/outbox.cif.g09.slc.cpg/sg12_85_cif.got.tgz:168436.got - 2010.06.28 00:19:55.
