data_PCOD8116523
_publ_section_title
;
Structure prediction by ZEFSAII (Michael W. Deem and Ramdas Pophale) SiO2 
 PCOD8116523
Probable space group: C 2/M
;
_chemical_formula_sum "Si O2"
_cell_formula_units_Z 32
_cell_length_a 18.000000
_cell_length_b 9.000000
_cell_length_c 30.000000
_cell_angle_alpha 90.000000
_cell_angle_beta 40.000000
_cell_angle_gamma 90.000000
_cell_volume 3123.947783
_symmetry_space_group_name_H-M "C 2/M"
_symmetry_group_IT_number 12
_symmetry_cell_setting 'monoclinic'
loop_
_space_group_symop_operation_xyz
x,y,z
-x,y,-z
-x,-y,-z
x,-y,z
1/2+x,1/2+y,z
1/2-x,1/2+y,-z
1/2-x,1/2-y,-z
1/2+x,1/2-y,z
loop_
_atom_site_type_symbol
_atom_site_label
_atom_site_fract_x
_atom_site_fract_y
_atom_site_fract_z
Si Si1 0.373105 0.173331 0.291590
Si Si2 0.741073 0.167354 0.203798
Si Si3 0.712492 0.835394 0.974912
Si Si4 0.340608 0.673146 0.672942
Si Si5 0.630905 0.165160 0.161786
Si Si6 0.688229 0.673391 0.590195
Si Si7 0.572616 0.173809 0.561786
Si Si8 0.459215 0.831970 0.065935
O O1 0.275211 0.209587 0.300743
O O2 0.498664 0.216921 0.213462
O O3 0.345858 0.278043 0.345241
O O4 0.372171 0.000000 0.306166
O O5 0.680462 0.269020 0.267944
O O6 0.650250 0.167368 0.205531
O O7 0.865420 0.229938 0.132478
O O8 0.760072 0.000000 0.212981
O O9 0.769630 0.767180 0.904570
O O10 0.761594 0.000000 0.954509
O O11 0.750000 0.750000 0.000000
O O12 0.574520 0.833358 0.041936
O O13 0.367053 0.500000 0.662182
O O14 0.453386 0.751740 0.599622
O O15 0.647729 0.000000 0.134332
O O16 0.663931 0.500000 0.594279
O O17 0.607423 0.762846 0.593704
O O18 0.824208 0.709473 0.520255
O O19 0.550235 0.000000 0.577014
O O20 0.409766 0.000000 0.082268
O O21 0.500000 0.764403 0.000000
#
# Coordination Sequence:
#
# PCOD8116523 Si02
#       8
#     8   8   8   8   8   8   8   8
#     4  10  23  41  60  85 122 163 199 245 302 356
#     4  11  23  38  62  90 118 154 198 253 304 351
#     4  11  24  40  61  87 117 154 194 243 298 355
#     4  11  24  40  60  88 122 162 204 245 297 357
#     4  10  22  41  61  84 116 155 197 243 299 354
#     4  10  21  38  64  94 121 157 200 246 296 354
#     4  10  21  39  63  91 124 158 199 247 296 350
#     4  10  21  40  62  85 116 154 197 244 297 355
#
# _framework density 10.243449
#
# number of rings (size 3 to 8) (size 9 to 14) (size 15 to 20)
#    0.000    1.625    1.250    2.625    1.750    6.250 
#    0.000    2.500    0.000    0.000    0.000    0.000 
#    0.000    0.000    0.000    0.000    0.000    0.000 
#
# Total GULP energy -396824.750835 kJ/mol
# GULP energy per Si atom -12400.773464 kJ/mol
# Density = 1.022013 g / cm^3
# Si number density = 10.243449 Si / 1000 Ang^3
#
#
#
# Elastic Constant Matrix: (Units=GPa)
#
#
# Indices 1 2 3 4 5 6 
#
# 1 62.8312 32.0661 17.0719 0.0009 -21.7320 0.0054
# 2 32.0661 91.4623 31.4478 0.0022 -12.9207 0.0031
# 3 17.0719 31.4478 75.7506 -0.0001 -24.3813 -0.0002
# 4 0.0009 0.0022 -0.0001 39.7145 -0.0001 -1.2865
# 5 -21.7320 -12.9207 -24.3813 -0.0001 38.1742 0.0011
# 6 0.0054 0.0031 -0.0002 -1.2865 0.0011 29.1362
#
#
#
# Elastic Compliance Matrix: (Units=1/GPa)
#
#
# Indices 1 2 3 4 5 6 
#
# 1 0.023129 -0.006949 0.001452 0.000000 0.011742 -0.000004
# 2 -0.006949 0.014884 -0.005368 -0.000001 -0.002347 0.000000
# 3 0.001452 -0.005368 0.018609 0.000000 0.010895 0.000000
# 4 0.000000 -0.000001 0.000000 0.025216 0.000000 0.001113
# 5 0.011742 -0.002347 0.010895 0.000000 0.039044 -0.000003
# 6 -0.000004 0.000000 0.000000 0.001113 -0.000003 0.034371
#
#
# Mechanical properties :
#
#
# Convention : Reuss Voigt Hill
#
# Bulk Modulus (GPa) = 28.66084 43.46842 36.06463
# Shear Modulus (GPa) = 26.50891 31.36888 28.93889
#
# Velocity S-wave (km/s) = 3.60105 3.91726 3.76248
# Velocity P-wave (km/s) = 5.59556 6.45938 6.04292
#
# Compressibility (1/GPa) = 0.03489081
#
# Stress axis : x y z
#
# Youngs Moduli (GPa) = 43.23540 67.18565 53.73624
#
# Poissons Ratio (x) = 0.46689 -0.07801
# Poissons Ratio (y) = 0.30046 0.28848
# Poissons Ratio (z) = -0.06277 0.36068
#
# Static dielectric constant tensor:
#      x y z
#    x 3.629820 0.000000 -0.228690 
#    y 0.000000 3.712930 0.000010 
#    z -0.228690 0.000010 3.601540 
# 
# 
# High freq. dielectric constant tensor:
#      x y z
#    x 1.795100 0.000000 -0.017730 
#    y 0.000000 1.803700 0.000000 
#    z -0.017730 0.000000 1.808790 
# 
# From -- ./inp_files/377978.got.cif
#   From: 2010.06.25/outbox.ucp.g09.slc.cvg/sg12_189_cif.got.tgz:377978.got - 2010.06.28 13:50:54.
