data_PCOD8116551
_publ_section_title
;
Structure prediction by ZEFSAII (Michael W. Deem and Ramdas Pophale) SiO2 
 PCOD8116551
Probable space group: C 2/M
;
_chemical_formula_sum "Si O2"
_cell_formula_units_Z 32
_cell_length_a 18.000000
_cell_length_b 9.000000
_cell_length_c 30.000000
_cell_angle_alpha 90.000000
_cell_angle_beta 40.000000
_cell_angle_gamma 90.000000
_cell_volume 3123.947783
_symmetry_space_group_name_H-M "C 2/M"
_symmetry_group_IT_number 12
_symmetry_cell_setting 'monoclinic'
loop_
_space_group_symop_operation_xyz
x,y,z
-x,y,-z
-x,-y,-z
x,-y,z
1/2+x,1/2+y,z
1/2-x,1/2+y,-z
1/2-x,1/2-y,-z
1/2+x,1/2-y,z
loop_
_atom_site_type_symbol
_atom_site_label
_atom_site_fract_x
_atom_site_fract_y
_atom_site_fract_z
Si Si1 0.287289 0.325546 0.657026
Si Si2 0.014492 0.333212 0.563163
Si Si3 0.160996 0.323017 0.804867
Si Si4 0.574591 0.669170 0.072915
Si Si5 0.239462 0.330619 0.934847
Si Si6 0.254179 0.673090 0.410934
Si Si7 0.806607 0.323937 0.813509
Si Si8 0.465161 0.165967 0.343645
O O1 0.280004 0.500000 0.657895
O O2 0.417995 0.273566 0.587334
O O3 0.233863 0.269496 0.728226
O O4 0.217075 0.256619 0.648371
O O5 0.995856 0.500000 0.553146
O O6 0.139356 0.273830 0.489969
O O7 0.990904 0.332003 0.626332
O O8 0.161803 0.500000 0.808845
O O9 0.211785 0.250210 0.825718
O O10 0.031499 0.264198 0.859477
O O11 0.538054 0.500000 0.078036
O O12 0.667760 0.669992 0.068872
O O13 0.624804 0.746290 0.005084
O O14 0.207454 0.500000 0.936216
O O15 0.293624 0.243904 0.868358
O O16 0.250555 0.500000 0.403379
O O17 0.362526 0.715257 0.391467
O O18 0.786944 0.500000 0.823974
O O19 0.933072 0.283981 0.736361
O O20 0.421711 0.000000 0.351029
#
# Coordination Sequence:
#
# PCOD8116551 Si02
#       8
#     8   8   8   8   8   8   8   8
#     4  11  24  40  60  88 121 159 202 251 304 360
#     4  10  21  41  63  86 118 158 201 250 307 361
#     4  11  24  41  62  89 122 160 203 251 301 355
#     4  10  22  41  66  95 125 161 201 242 294 353
#     4  10  22  41  65  95 129 161 197 245 294 350
#     4  11  24  38  60  89 119 157 203 252 303 363
#     4  11  23  40  64  90 121 162 203 249 300 358
#     4  10  22  40  61  87 121 158 200 251 304 357
#
# _framework density 10.243449
#
# number of rings (size 3 to 8) (size 9 to 14) (size 15 to 20)
#    0.000    1.500    1.250    3.000    1.750    7.500 
#    0.000    2.500    0.000    0.000    0.000    0.000 
#    0.000    0.000    0.000    0.000    0.000    0.000 
#
# Total GULP energy -396849.948300 kJ/mol
# GULP energy per Si atom -12401.560884 kJ/mol
# Density = 1.022013 g / cm^3
# Si number density = 10.243449 Si / 1000 Ang^3
#
#
#
# Elastic Constant Matrix: (Units=GPa)
#
#
# Indices 1 2 3 4 5 6 
#
# 1 35.1803 23.3914 20.6561 0.0009 2.1636 0.0060
# 2 23.3914 94.4614 52.1992 0.0014 2.8681 0.0052
# 3 20.6561 52.1992 122.7867 0.0000 6.5155 0.0003
# 4 0.0009 0.0014 0.0000 38.2243 -0.0004 -1.9461
# 5 2.1636 2.8681 6.5155 -0.0004 34.1345 0.0001
# 6 0.0060 0.0052 0.0003 -1.9461 0.0001 34.0458
#
#
#
# Elastic Compliance Matrix: (Units=1/GPa)
#
#
# Indices 1 2 3 4 5 6 
#
# 1 0.034820 -0.007038 -0.002809 -0.000001 -0.001080 -0.000005
# 2 -0.007038 0.015259 -0.005313 0.000000 0.000178 -0.000001
# 3 -0.002809 -0.005313 0.010953 0.000000 -0.001466 0.000001
# 4 -0.000001 0.000000 0.000000 0.026238 0.000000 0.001500
# 5 -0.001080 0.000178 -0.001466 0.000000 0.029629 0.000000
# 6 -0.000005 -0.000001 0.000001 0.001500 0.000000 0.029458
#
#
# Mechanical properties :
#
#
# Convention : Reuss Voigt Hill
#
# Bulk Modulus (GPa) = 32.55779 49.43576 40.99678
# Shear Modulus (GPa) = 26.75046 31.69304 29.22175
#
# Velocity S-wave (km/s) = 3.61742 3.93745 3.78082
# Velocity P-wave (km/s) = 5.77703 6.69732 6.25413
#
# Compressibility (1/GPa) = 0.03071461
#
# Stress axis : x y z
#
# Youngs Moduli (GPa) = 28.71934 65.53337 91.29932
#
# Poissons Ratio (x) = 0.46120 0.25642
# Poissons Ratio (y) = 0.20212 0.48504
# Poissons Ratio (z) = 0.08066 0.34815
#
# Static dielectric constant tensor:
#      x y z
#    x 3.541930 0.000000 0.119770 
#    y 0.000000 3.841370 0.000000 
#    z 0.119770 0.000000 3.921850 
# 
# 
# High freq. dielectric constant tensor:
#      x y z
#    x 1.790680 0.000000 0.007670 
#    y 0.000000 1.808080 0.000000 
#    z 0.007670 0.000000 1.818900 
# 
# From -- ./inp_files/378178.got.cif
#   From: 2010.06.25/outbox.ucp.g09.slc.cvg/sg12_190_cif.got.tgz:378178.got - 2010.06.28 13:50:54.
