data_PCOD8116999
_publ_section_title
;
Structure prediction by ZEFSAII (Michael W. Deem and Ramdas Pophale) SiO2 
 PCOD8116999
Probable space group: P 2/C
;
_chemical_formula_sum "Si O2"
_cell_formula_units_Z 24
_cell_length_a 14.889367
_cell_length_b 8.767086
_cell_length_c 9.866268
_cell_angle_alpha 90.000000
_cell_angle_beta 109.690613
_cell_angle_gamma 90.000000
_cell_volume 1212.597354
_symmetry_space_group_name_H-M "P 2/C"
_symmetry_group_IT_number 13
_symmetry_cell_setting 'monoclinic'
loop_
_space_group_symop_operation_xyz
x,y,z
-x,y,1/2-z
-x,-y,-z
x,-y,1/2+z
loop_
_atom_site_type_symbol
_atom_site_label
_atom_site_fract_x
_atom_site_fract_y
_atom_site_fract_z
Si Si1 0.512554 0.148431 0.416453
Si Si2 0.995575 0.649347 0.589506
Si Si3 0.792356 0.687862 0.418911
Si Si4 0.808340 0.332977 0.402126
Si Si5 0.664913 0.344376 0.109129
Si Si6 0.700601 0.303157 0.605790
O O1 0.500000 0.115330 0.250000
O O2 0.441216 0.278619 0.434823
O O3 0.619035 0.202144 0.499082
O O4 0.500000 0.000000 0.500000
O O5 0.898996 0.748253 0.511855
O O6 0.000000 0.603543 0.750000
O O7 0.000000 0.500000 0.500000
O O8 0.091486 0.742070 0.596489
O O9 0.809543 0.514487 0.383552
O O10 0.718019 0.711939 0.501579
O O11 0.742962 0.770484 0.265256
O O12 0.722727 0.272885 0.264615
O O13 0.790098 0.297154 0.549344
O O14 0.659155 0.527388 0.108369
#
# Coordination Sequence:
#
# PCOD8116999 Si02
#       6
#     4   4   4   4   4   4
#     4  12  27  43  59  83 114 150 193 240 293 346
#     4  10  18  27  45  79 122 155 183 225 281 338
#     4   9  19  29  53  84 116 146 187 229 280 338
#     4   9  17  31  52  80 117 152 186 227 282 331
#     4  10  19  38  60  83 113 152 191 234 283 335
#     4  10  21  38  59  85 113 151 193 238 282 338
#
# _framework density 19.792223
#
# number of rings (size 3 to 8) (size 9 to 14) (size 15 to 20)
#    0.000    2.000    3.333    0.500    9.333    0.000 
#    0.000    0.000    0.000    0.000    0.000    7.000 
#    0.000    0.000    0.000    0.000    0.000    0.000 
#
# Total GULP energy -297402.106033 kJ/mol
# GULP energy per Si atom -12391.754418 kJ/mol
# Density = 1.974717 g / cm^3
# Si number density = 19.792223 Si / 1000 Ang^3
#
#
#
# Elastic Constant Matrix: (Units=GPa)
#
#
# Indices 1 2 3 4 5 6 
#
# 1 112.7498 22.7121 47.1942 0.0000 1.7683 0.0000
# 2 22.7121 34.9647 27.5193 0.0000 -4.2169 0.0000
# 3 47.1942 27.5193 157.6038 0.0000 -0.4474 0.0000
# 4 0.0000 0.0000 0.0000 16.1986 0.0000 -3.8755
# 5 1.7683 -4.2169 -0.4474 0.0000 36.7840 0.0000
# 6 0.0000 0.0000 0.0000 -3.8755 0.0000 4.3407
#
#
#
# Elastic Compliance Matrix: (Units=1/GPa)
#
#
# Indices 1 2 3 4 5 6 
#
# 1 0.010958 -0.005420 -0.002338 0.000000 -0.001177 0.000000
# 2 -0.005420 0.036357 -0.004713 0.000000 0.004371 0.000000
# 3 -0.002338 -0.004713 0.007867 0.000000 -0.000332 0.000000
# 4 0.000000 0.000000 0.000000 0.078503 0.000000 0.070089
# 5 -0.001177 0.004371 -0.000332 0.000000 0.027739 0.000000
# 6 0.000000 0.000000 0.000000 0.070089 0.000000 0.292954
#
#
# Mechanical properties :
#
#
# Convention : Reuss Voigt Hill
#
# Bulk Modulus (GPa) = 33.06810 55.57438 44.32124
# Shear Modulus (GPa) = 10.21658 25.32420 17.77039
#
# Velocity S-wave (km/s) = 2.27445 3.58089 2.99966
# Velocity P-wave (km/s) = 4.86224 6.72584 5.86849
#
# Compressibility (1/GPa) = 0.03024062
#
# Stress axis : x y z
#
# Youngs Moduli (GPa) = 91.25625 27.50482 127.10876
#
# Poissons Ratio (x) = 0.14906 0.29724
# Poissons Ratio (y) = 0.49456 0.59907
# Poissons Ratio (z) = 0.21340 0.12963
#
# Static dielectric constant tensor:
#      x y z
#    x 5.275190 0.000000 0.643070 
#    y 0.000000 2.958460 0.000000 
#    z 0.643070 0.000000 4.131030 
# 
# 
# High freq. dielectric constant tensor:
#      x y z
#    x 1.795200 0.000000 0.000080 
#    y 0.000000 1.690100 0.000000 
#    z 0.000080 0.000000 1.796010 
# 
# From -- ./inp_files/18177.got.cif
#   From: 2010.06.25/outbox.cif.g09.slc.cpg/sg13_10_cif.got.tgz:18177.got - 2010.06.28 04:50:58.
