data_PCOD8116549
_publ_section_title
;
Structure prediction by ZEFSAII (Michael W. Deem and Ramdas Pophale) SiO2 
 PCOD8116549
Probable space group: C 2/M
;
_chemical_formula_sum "Si O2"
_cell_formula_units_Z 28
_cell_length_a 21.000000
_cell_length_b 21.000000
_cell_length_c 18.000000
_cell_angle_alpha 90.000000
_cell_angle_beta 20.000000
_cell_angle_gamma 90.000000
_cell_volume 2714.955898
_symmetry_space_group_name_H-M "C 2/M"
_symmetry_group_IT_number 12
_symmetry_cell_setting 'monoclinic'
loop_
_space_group_symop_operation_xyz
x,y,z
-x,y,-z
-x,-y,-z
x,-y,z
1/2+x,1/2+y,z
1/2-x,1/2+y,-z
1/2-x,1/2-y,-z
1/2+x,1/2-y,z
loop_
_atom_site_type_symbol
_atom_site_label
_atom_site_fract_x
_atom_site_fract_y
_atom_site_fract_z
Si Si1 0.906100 0.641742 0.432843
Si Si2 0.574863 0.073132 0.737500
Si Si3 0.707268 0.754793 0.133191
Si Si4 0.478388 0.333850 0.938726
Si Si5 0.799205 0.927615 0.636176
Si Si6 0.800781 0.115490 0.793944
Si Si7 0.143317 0.573553 0.282971
O O1 0.893860 0.626999 0.358929
O O2 0.017148 0.703697 0.342421
O O3 0.032241 0.584098 0.327529
O O4 0.689202 0.646373 0.689714
O O5 0.692226 0.096745 0.680356
O O6 0.629734 0.000000 0.655300
O O7 0.358045 0.076188 0.991673
O O8 0.884313 0.782179 0.986092
O O9 0.666040 0.686700 0.213571
O O10 0.750000 0.750000 0.000000
O O11 0.344483 0.394697 0.074607
O O12 0.500000 0.309297 0.000000
O O13 0.754958 0.883153 0.755840
O O14 0.019068 0.925190 0.381918
O O15 0.737709 0.000000 0.721278
O O16 0.183029 0.500000 0.251282
O O17 0.000000 0.602286 0.500000
#
# Coordination Sequence:
#
# PCOD8116549 Si02
#       7
#     8   8   8   8   8   8   8
#     4  11  24  43  66  93 136 173 221 272 328 391
#     4  11  23  39  65  97 131 168 213 267 332 400
#     4  11  26  45  65  96 131 177 223 272 329 395
#     4  11  25  43  67  97 130 172 221 280 326 388
#     4  10  23  41  67 101 129 164 215 269 334 407
#     4  11  22  42  65  91 130 172 211 269 328 385
#     4  10  21  40  66  95 130 168 213 268 329 390
#
# _framework density 10.313243
#
# number of rings (size 3 to 8) (size 9 to 14) (size 15 to 20)
#    0.000    1.286    2.857    2.571    2.000    7.714 
#    0.000    1.429    0.000    0.000    0.000    0.000 
#    0.000    0.000    0.000    0.000    0.000    0.000 
#
# Total GULP energy -346901.971911 kJ/mol
# GULP energy per Si atom -12389.356140 kJ/mol
# Density = 1.028977 g / cm^3
# Si number density = 10.313243 Si / 1000 Ang^3
#
#
#
# Elastic Constant Matrix: (Units=GPa)
#
#
# Indices 1 2 3 4 5 6 
#
# 1 168.3691 57.4945 53.9319 -0.0651 -2.2850 -0.0127
# 2 57.4945 78.8840 12.5007 -0.0793 -6.9052 0.0152
# 3 53.9319 12.5007 126.4675 -0.0795 -18.4160 0.0179
# 4 -0.0651 -0.0793 -0.0795 20.4013 0.0352 2.4526
# 5 -2.2850 -6.9052 -18.4160 0.0352 34.1942 0.0149
# 6 -0.0127 0.0152 0.0179 2.4526 0.0149 39.8200
#
#
#
# Elastic Compliance Matrix: (Units=1/GPa)
#
#
# Indices 1 2 3 4 5 6 
#
# 1 0.009282 -0.006411 -0.003714 -0.000006 -0.002675 0.000008
# 2 -0.006411 0.017444 0.001584 0.000048 0.003947 -0.000014
# 3 -0.003714 0.001584 0.010140 0.000025 0.005533 -0.000010
# 4 -0.000006 0.000048 0.000025 0.049382 -0.000026 -0.003042
# 5 -0.002675 0.003947 0.005533 -0.000026 0.032843 -0.000016
# 6 0.000008 -0.000014 -0.000010 -0.003042 -0.000016 0.025300
#
#
# Mechanical properties :
#
#
# Convention : Reuss Voigt Hill
#
# Bulk Modulus (GPa) = 50.54276 69.06385 59.80330
# Shear Modulus (GPa) = 29.75008 35.53603 32.64305
#
# Velocity S-wave (km/s) = 3.80191 4.15521 3.98248
# Velocity P-wave (km/s) = 6.62040 7.52175 7.08543
#
# Compressibility (1/GPa) = 0.01978523
#
# Stress axis : x y z
#
# Youngs Moduli (GPa) = 107.73789 57.32725 98.61832
#
# Poissons Ratio (x) = 0.36750 0.36627
# Poissons Ratio (y) = 0.69066 -0.15625
# Poissons Ratio (z) = 0.40014 -0.09083
#
# Static dielectric constant tensor:
#      x y z
#    x 4.254400 -0.000970 -0.140110 
#    y -0.000970 3.787960 0.001020 
#    z -0.140110 0.001020 3.854680 
# 
# 
# High freq. dielectric constant tensor:
#      x y z
#    x 1.838290 -0.000030 -0.018850 
#    y -0.000030 1.801940 0.000060 
#    z -0.018850 0.000060 1.812650 
# 
# From -- ./inp_files/285976.got.cif
#   From: 2010.06.25/outbox.ucp.g09.slc.cvg/sg12_143_cif.got.tgz:285976.got - 2010.06.28 13:50:54.
