data_PCOD8116875
_publ_section_title
;
Structure prediction by ZEFSAII (Michael W. Deem and Ramdas Pophale) SiO2 
 PCOD8116875
Probable space group: P 2/C
;
_chemical_formula_sum "Si O2"
_cell_formula_units_Z 18
_cell_length_a 6.317067
_cell_length_b 5.116784
_cell_length_c 23.480948
_cell_angle_alpha 90.000000
_cell_angle_beta 122.536316
_cell_angle_gamma 90.000000
_cell_volume 639.855484
_symmetry_space_group_name_H-M "P 2/C"
_symmetry_group_IT_number 13
_symmetry_cell_setting 'monoclinic'
loop_
_space_group_symop_operation_xyz
x,y,z
-x,y,1/2-z
-x,-y,-z
x,-y,1/2+z
loop_
_atom_site_type_symbol
_atom_site_label
_atom_site_fract_x
_atom_site_fract_y
_atom_site_fract_z
Si Si1 0.631571 0.124324 0.880911
Si Si2 0.840772 0.272679 0.597437
Si Si3 0.284564 0.599930 0.538587
Si Si4 0.500000 0.958334 0.750000
Si Si5 0.028369 0.220323 0.320803
O O1 0.889213 0.227391 0.891471
O O2 0.547648 0.342524 0.916775
O O3 0.671127 0.837386 0.912290
O O4 0.436598 0.121903 0.798668
O O5 0.832329 0.535781 0.632768
O O6 0.649157 0.306101 0.516119
O O7 0.793284 0.025911 0.633693
O O8 0.000000 0.500000 0.500000
O O9 0.255615 0.792980 0.696158
O O10 0.000000 0.244144 0.250000
#
# Coordination Sequence:
#
# PCOD8116875 Si02
#       5
#     4   4   4   2   4
#     4  10  19  30  53  83 111 144 182 228 275 328
#     4  10  19  35  56  82 114 147 188 232 275 328
#     4  10  17  30  52  82 111 142 187 228 271 328
#     4  10  22  38  58  84 116 146 186 228 280 336
#     4  11  23  38  59  84 113 149 186 231 279 329
#
# _framework density 28.131352
#
# number of rings (size 3 to 8) (size 9 to 14) (size 15 to 20)
#    0.000    1.778    0.000   10.000    0.000    8.000 
#    0.000    0.000    0.000    8.000    0.000    0.000 
#    0.000    0.000    0.000    0.000    0.000    0.000 
#
# Total GULP energy -223162.167034 kJ/mol
# GULP energy per Si atom -12397.898169 kJ/mol
# Density = 2.806732 g / cm^3
# Si number density = 28.131352 Si / 1000 Ang^3
#
#
#
# Elastic Constant Matrix: (Units=GPa)
#
#
# Indices 1 2 3 4 5 6 
#
# 1 48.8903 32.2248 28.8795 0.0000 0.0992 0.0000
# 2 32.2248 252.8393 125.1471 0.0000 -12.9879 0.0000
# 3 28.8795 125.1471 283.7022 0.0000 -40.6603 0.0000
# 4 0.0000 0.0000 0.0000 55.0894 0.0000 -5.7663
# 5 0.0992 -12.9879 -40.6603 0.0000 52.2147 0.0000
# 6 0.0000 0.0000 0.0000 -5.7663 0.0000 33.0766
#
#
#
# Elastic Compliance Matrix: (Units=1/GPa)
#
#
# Indices 1 2 3 4 5 6 
#
# 1 0.022870 -0.002208 -0.001620 0.000000 -0.001854 0.000000
# 2 -0.002208 0.005287 -0.002159 0.000000 -0.000362 0.000000
# 3 -0.001620 -0.002159 0.005139 0.000000 0.003468 0.000000
# 4 0.000000 0.000000 0.000000 0.018490 0.000000 0.003223
# 5 -0.001854 -0.000362 0.003468 0.000000 0.021766 0.000000
# 6 0.000000 0.000000 0.000000 0.003223 0.000000 0.030795
#
#
# Mechanical properties :
#
#
# Convention : Reuss Voigt Hill
#
# Bulk Modulus (GPa) = 46.90093 106.43717 76.66905
# Shear Modulus (GPa) = 40.50960 54.68816 47.59888
#
# Velocity S-wave (km/s) = 3.79887 4.41390 4.11788
# Velocity P-wave (km/s) = 5.99585 7.99341 7.06558
#
# Compressibility (1/GPa) = 0.02132154
#
# Stress axis : x y z
#
# Youngs Moduli (GPa) = 43.72534 189.15554 194.58408
#
# Poissons Ratio (x) = 0.41773 0.31515
# Poissons Ratio (y) = 0.09656 0.42014
# Poissons Ratio (z) = 0.07082 0.40842
#
# Static dielectric constant tensor:
#      x y z
#    x 5.962200 0.000000 -0.536170 
#    y 0.000000 5.618370 0.000000 
#    z -0.536170 0.000000 6.836400 
# 
# 
# High freq. dielectric constant tensor:
#      x y z
#    x 2.183200 0.000000 -0.007240 
#    y 0.000000 2.131860 0.000000 
#    z -0.007240 0.000000 2.170430 
# 
# From -- ./inp_files/62150.got.cif
#   From: 2010.06.25/outbox.cif.g09.slc.cpg/sg13_32_cif.got.tgz:62150.got - 2010.06.28 04:50:58.
