data_PCOD8116617
_publ_section_title
;
Structure prediction by ZEFSAII (Michael W. Deem and Ramdas Pophale) SiO2 
 PCOD8116617
Probable space group: C 2/M
;
_chemical_formula_sum "Si O2"
_cell_formula_units_Z 28
_cell_length_a 21.000000
_cell_length_b 18.000000
_cell_length_c 21.000000
_cell_angle_alpha 90.000000
_cell_angle_beta 20.000000
_cell_angle_gamma 90.000000
_cell_volume 2714.955898
_symmetry_space_group_name_H-M "C 2/M"
_symmetry_group_IT_number 12
_symmetry_cell_setting 'monoclinic'
loop_
_space_group_symop_operation_xyz
x,y,z
-x,y,-z
-x,-y,-z
x,-y,z
1/2+x,1/2+y,z
1/2-x,1/2+y,-z
1/2-x,1/2-y,-z
1/2+x,1/2-y,z
loop_
_atom_site_type_symbol
_atom_site_label
_atom_site_fract_x
_atom_site_fract_y
_atom_site_fract_z
Si Si1 0.788026 0.584138 0.215941
Si Si2 0.082249 0.192020 0.315507
Si Si3 0.334725 0.825963 0.287525
Si Si4 0.976451 0.649254 0.450892
Si Si5 0.692058 0.827683 0.024617
Si Si6 0.943746 0.179749 0.125944
Si Si7 0.243570 0.414317 0.101087
O O1 0.725395 0.500000 0.261224
O O2 0.641643 0.636632 0.316316
O O3 0.784783 0.600298 0.294367
O O4 0.000000 0.599205 0.000000
O O5 0.866559 0.196565 0.496559
O O6 0.106134 0.275661 0.321303
O O7 0.196205 0.165952 0.146500
O O8 0.471696 0.836648 0.218189
O O9 0.442460 0.768281 0.138708
O O10 0.753925 0.655694 0.657550
O O11 0.000000 0.616622 0.500000
O O12 0.055030 0.596193 0.320870
O O13 0.723222 0.893513 0.045780
O O14 0.750000 0.750000 0.000000
O O15 0.000000 0.161814 0.000000
O O16 0.093176 0.137710 0.027541
O O17 0.302675 0.500000 0.049841
#
# Coordination Sequence:
#
# PCOD8116617 Si02
#       7
#     8   8   8   8   8   8   8
#     4  11  23  40  67 105 144 178 218 277 340 402
#     4  11  23  41  71 103 133 175 228 275 332 403
#     4  11  23  39  72 101 133 176 228 275 335 400
#     4  11  22  41  70 101 130 170 223 277 340 404
#     4  12  24  44  68  93 132 181 227 275 325 402
#     4  11  22  41  71  99 130 171 222 279 342 405
#     4  12  28  46  65  97 137 178 224 283 342 402
#
# _framework density 10.313243
#
# number of rings (size 3 to 8) (size 9 to 14) (size 15 to 20)
#    0.000    0.714    5.714    2.571    0.000    5.143 
#    0.000    0.000    0.000    0.000    0.000    0.000 
#    0.000    0.000    0.000    0.000    0.000    0.000 
#
# Total GULP energy -346890.514938 kJ/mol
# GULP energy per Si atom -12388.946962 kJ/mol
# Density = 1.028977 g / cm^3
# Si number density = 10.313243 Si / 1000 Ang^3
#
#
#
# Elastic Constant Matrix: (Units=GPa)
#
#
# Indices 1 2 3 4 5 6 
#
# 1 119.0675 23.7230 41.8625 0.0478 -11.0157 -0.0244
# 2 23.7230 78.7523 35.8316 0.0253 -11.9681 -0.0186
# 3 41.8625 35.8316 101.4866 -0.0840 -2.8101 0.0194
# 4 0.0478 0.0253 -0.0840 17.2127 0.0421 6.9075
# 5 -11.0157 -11.9681 -2.8101 0.0421 42.5724 -0.0134
# 6 -0.0244 -0.0186 0.0194 6.9075 -0.0134 24.3545
#
#
#
# Elastic Compliance Matrix: (Units=1/GPa)
#
#
# Indices 1 2 3 4 5 6 
#
# 1 0.010115 -0.001023 -0.003754 -0.000063 0.002082 0.000031
# 2 -0.001023 0.015910 -0.005088 -0.000070 0.003872 0.000037
# 3 -0.003754 -0.005088 0.013156 0.000105 -0.001533 -0.000049
# 4 -0.000063 -0.000070 0.000105 0.065560 -0.000100 -0.018595
# 5 0.002082 0.003872 -0.001533 -0.000100 0.025016 0.000048
# 6 0.000031 0.000037 -0.000049 -0.018595 0.000048 0.046334
#
#
# Mechanical properties :
#
#
# Convention : Reuss Voigt Hill
#
# Bulk Modulus (GPa) = 51.40992 55.79340 53.60166
# Shear Modulus (GPa) = 24.71542 30.02053 27.36797
#
# Velocity S-wave (km/s) = 3.46531 3.81916 3.64653
# Velocity P-wave (km/s) = 6.40230 6.82320 6.61610
#
# Compressibility (1/GPa) = 0.01945150
#
# Stress axis : x y z
#
# Youngs Moduli (GPa) = 98.86590 62.85486 76.01115
#
# Poissons Ratio (x) = 0.06428 0.28532
# Poissons Ratio (y) = 0.10110 0.38676
# Poissons Ratio (z) = 0.37110 0.31982
#
# Static dielectric constant tensor:
#      x y z
#    x 3.947620 -0.000210 -0.004890 
#    y -0.000210 3.615270 0.000270 
#    z -0.004890 0.000270 4.212890 
# 
# 
# High freq. dielectric constant tensor:
#      x y z
#    x 1.809780 -0.000010 -0.002220 
#    y -0.000010 1.786190 0.000030 
#    z -0.002220 0.000030 1.836970 
# 
# From -- ./inp_files/322626.got.cif
#   From: 2010.06.25/outbox.ucp.g09.slc.cvg/sg12_162_cif.got.tgz:322626.got - 2010.06.28 13:50:54.
