data_PCOD8116193
_publ_section_title
;
Structure prediction by ZEFSAII (Michael W. Deem and Ramdas Pophale) SiO2 
 PCOD8116193
Probable space group: C 2/M
;
_chemical_formula_sum "Si O2"
_cell_formula_units_Z 32
_cell_length_a 27.000000
_cell_length_b 9.000000
_cell_length_c 21.000000
_cell_angle_alpha 90.000000
_cell_angle_beta 50.000000
_cell_angle_gamma 90.000000
_cell_volume 3909.124793
_symmetry_space_group_name_H-M "C 2/M"
_symmetry_group_IT_number 12
_symmetry_cell_setting 'monoclinic'
loop_
_space_group_symop_operation_xyz
x,y,z
-x,y,-z
-x,-y,-z
x,-y,z
1/2+x,1/2+y,z
1/2-x,1/2+y,-z
1/2-x,1/2-y,-z
1/2+x,1/2-y,z
loop_
_atom_site_type_symbol
_atom_site_label
_atom_site_fract_x
_atom_site_fract_y
_atom_site_fract_z
Si Si1 0.302939 0.324592 0.998881
Si Si2 0.730321 0.324796 0.830041
Si Si3 0.893821 0.675822 0.098567
Si Si4 0.571724 0.829256 0.157892
Si Si5 0.859380 0.824694 0.672473
Si Si6 0.063408 0.665335 0.491055
Si Si7 0.035570 0.674433 0.328924
Si Si8 0.008456 0.670140 0.085110
O O1 0.299216 0.500000 0.996127
O O2 0.286886 0.273306 0.083948
O O3 0.250000 0.250000 0.000000
O O4 0.371068 0.273234 0.914251
O O5 0.739462 0.500000 0.817600
O O6 0.671329 0.267564 0.835992
O O7 0.793731 0.248936 0.750009
O O8 0.878082 0.500000 0.112598
O O9 0.940490 0.733894 0.116823
O O10 0.928110 0.731251 0.004349
O O11 0.541620 0.781689 0.250075
O O12 0.513245 0.806739 0.156534
O O13 0.596083 0.000000 0.139163
O O14 0.881153 0.773010 0.583122
O O15 0.913481 0.776884 0.677571
O O16 0.850909 0.000000 0.678856
O O17 0.093243 0.500000 0.467226
O O18 0.000000 0.670410 0.500000
O O19 0.037003 0.709308 0.583872
O O20 0.051754 0.500000 0.327052
O O21 0.006942 0.500000 0.065344
#
# Coordination Sequence:
#
# PCOD8116193 Si02
#       8
#     8   8   8   8   8   8   8   8
#     4  11  23  34  44  62  91 127 162 192 225 267
#     4  11  22  34  46  65  93 125 158 193 234 277
#     4   9  16  30  50  70  91 119 155 193 233 272
#     4  10  18  31  50  70  93 124 158 188 223 271
#     4  11  21  31  47  69  92 122 159 196 233 274
#     4   8  15  30  48  66  92 122 151 188 232 275
#     4   9  18  31  48  70  96 126 156 187 227 275
#     4   8  15  28  49  72  93 118 151 193 234 271
#
# _framework density 8.1859760000000001
#
# number of rings (size 3 to 8) (size 9 to 14) (size 15 to 20)
#    0.000    2.375    1.250    4.125    0.000    7.250 
#    0.000    1.875    0.000    0.000    0.000    0.875 
#    0.000    0.000    0.000    0.000    0.000    0.000 
#
# Total GULP energy -396516.918058 kJ/mol
# GULP energy per Si atom -12391.153689 kJ/mol
# Density = 0.816734 g / cm^3
# Si number density = 8.185976 Si / 1000 Ang^3
#
#
#
# Elastic Constant Matrix: (Units=GPa)
#
#
# Indices 1 2 3 4 5 6 
#
# 1 62.5663 31.3510 52.5294 -0.0049 -1.7576 0.0104
# 2 31.3510 73.0202 54.4659 -0.0018 -6.8479 0.0242
# 3 52.5294 54.4659 156.2218 -0.0015 -0.1285 0.0059
# 4 -0.0049 -0.0018 -0.0015 26.8342 0.0021 -6.1632
# 5 -1.7576 -6.8479 -0.1285 0.0021 10.2905 -0.0050
# 6 0.0104 0.0242 0.0059 -6.1632 -0.0050 15.0469
#
#
#
# Elastic Compliance Matrix: (Units=1/GPa)
#
#
# Indices 1 2 3 4 5 6 
#
# 1 0.023948 -0.005755 -0.006046 0.000003 0.000185 -0.000004
# 2 -0.005755 0.021571 -0.005575 -0.000007 0.013302 -0.000027
# 3 -0.006046 -0.005575 0.010374 0.000001 -0.004613 0.000008
# 4 0.000003 -0.000007 0.000001 0.041136 -0.000005 0.016849
# 5 0.000185 0.013302 -0.004613 -0.000005 0.106003 0.000014
# 6 -0.000004 -0.000027 0.000008 0.016849 0.000014 0.073361
#
#
# Mechanical properties :
#
#
# Convention : Reuss Voigt Hill
#
# Bulk Modulus (GPa) = 47.29904 63.16679 55.23291
# Shear Modulus (GPa) = 15.71380 20.66510 18.18945
#
# Velocity S-wave (km/s) = 3.10143 3.55664 3.33680
# Velocity P-wave (km/s) = 6.46360 7.45200 6.97533
#
# Compressibility (1/GPa) = 0.02114208
#
# Stress axis : x y z
#
# Youngs Moduli (GPa) = 41.75714 46.35762 96.39608
#
# Poissons Ratio (x) = 0.26679 0.58280
# Poissons Ratio (y) = 0.24031 0.53738
# Poissons Ratio (z) = 0.25246 0.25843
#
# Static dielectric constant tensor:
#      x y z
#    x 3.147060 -0.000050 -0.001500 
#    y -0.000050 3.004900 0.000030 
#    z -0.001500 0.000030 3.437600 
# 
# 
# High freq. dielectric constant tensor:
#      x y z
#    x 1.598460 0.000000 -0.000390 
#    y 0.000000 1.620460 0.000000 
#    z -0.000390 0.000000 1.634460 
# 
# From -- ./inp_files/326808.got.cif
#   From: 2010.06.25/outbox.ucp.g09.slc.cvg/sg12_164_cif.got.tgz:326808.got - 2010.06.28 13:50:54.
