data_PCOD8116574
_publ_section_title
;
Structure prediction by ZEFSAII (Michael W. Deem and Ramdas Pophale) SiO2 
 PCOD8116574
Probable space group: C 2/M
;
_chemical_formula_sum "Si O2"
_cell_formula_units_Z 32
_cell_length_a 18.000000
_cell_length_b 9.000000
_cell_length_c 30.000000
_cell_angle_alpha 90.000000
_cell_angle_beta 40.000000
_cell_angle_gamma 90.000000
_cell_volume 3123.947783
_symmetry_space_group_name_H-M "C 2/M"
_symmetry_group_IT_number 12
_symmetry_cell_setting 'monoclinic'
loop_
_space_group_symop_operation_xyz
x,y,z
-x,y,-z
-x,-y,-z
x,-y,z
1/2+x,1/2+y,z
1/2-x,1/2+y,-z
1/2-x,1/2-y,-z
1/2+x,1/2-y,z
loop_
_atom_site_type_symbol
_atom_site_label
_atom_site_fract_x
_atom_site_fract_y
_atom_site_fract_z
Si Si1 0.007016 0.168836 0.205431
Si Si2 0.766685 0.174475 0.208518
Si Si3 0.369559 0.826032 0.571093
Si Si4 0.869727 0.674896 0.932896
Si Si5 0.289905 0.325500 0.436332
Si Si6 0.714838 0.823831 0.708599
Si Si7 0.044648 0.166931 0.288422
Si Si8 0.547713 0.827309 0.930177
O O1 0.084377 0.251745 0.133492
O O2 0.069065 0.165020 0.224469
O O3 0.891590 0.260492 0.270843
O O4 0.980264 0.000000 0.201690
O O5 0.815163 0.259601 0.229100
O O6 0.631933 0.213815 0.268449
O O7 0.837041 0.233241 0.133281
O O8 0.783383 0.000000 0.206032
O O9 0.500000 0.784598 0.500000
O O10 0.293894 0.770480 0.564417
O O11 0.333034 0.737209 0.632517
O O12 0.352479 0.000000 0.588572
O O13 0.853412 0.500000 0.932249
O O14 0.954115 0.706523 0.935271
O O15 0.750000 0.750000 0.000000
O O16 0.277608 0.500000 0.448629
O O17 0.250000 0.250000 0.500000
O O18 0.418858 0.280627 0.362571
O O19 0.716784 0.000000 0.709377
O O20 0.069036 0.000000 0.295678
O O21 0.581848 0.000000 0.916022
O O22 0.500000 0.774797 0.000000
#
# Coordination Sequence:
#
# PCOD8116574 Si02
#       8
#     8   8   8   8   8   8   8   8
#     4  11  22  42  69  93 124 166 211 264 321 373
#     4  12  26  42  65  95 127 165 213 263 315 371
#     4  10  22  42  66  93 126 166 212 261 315 373
#     4  11  24  41  64  95 129 168 210 259 314 375
#     4  10  22  41  62  91 128 168 207 255 314 373
#     4  12  24  41  66  94 127 165 211 263 317 378
#     4  10  23  43  65  90 127 168 209 256 316 378
#     4  10  23  44  66  90 126 170 211 255 315 374
#
# _framework density 10.243449
#
# number of rings (size 3 to 8) (size 9 to 14) (size 15 to 20)
#    0.000    1.250    2.500    3.000    3.500    3.000 
#    0.000    0.000    0.000    0.000    0.000    0.000 
#    0.000    0.000    0.000    0.000    0.000    0.000 
#
# Total GULP energy -396862.605422 kJ/mol
# GULP energy per Si atom -12401.956419 kJ/mol
# Density = 1.022013 g / cm^3
# Si number density = 10.243449 Si / 1000 Ang^3
#
#
#
# Elastic Constant Matrix: (Units=GPa)
#
#
# Indices 1 2 3 4 5 6 
#
# 1 54.9141 28.0576 32.8265 0.0000 -2.9623 -0.0002
# 2 28.0576 124.0253 61.5372 0.0009 -2.8549 -0.0022
# 3 32.8265 61.5372 152.0863 -0.0001 2.0846 -0.0008
# 4 0.0000 0.0009 -0.0001 43.5452 0.0000 2.0698
# 5 -2.9623 -2.8549 2.0846 0.0000 38.7939 0.0010
# 6 -0.0002 -0.0022 -0.0008 2.0698 0.0010 28.9258
#
#
#
# Elastic Compliance Matrix: (Units=1/GPa)
#
#
# Indices 1 2 3 4 5 6 
#
# 1 0.022019 -0.003221 -0.003472 0.000000 0.001631 0.000000
# 2 -0.003221 0.010595 -0.003602 0.000000 0.000727 0.000001
# 3 -0.003472 -0.003602 0.008796 0.000000 -0.001003 0.000000
# 4 0.000000 0.000000 0.000000 0.023043 0.000000 -0.001649
# 5 0.001631 0.000727 -0.001003 0.000000 0.026009 -0.000001
# 6 0.000000 0.000001 0.000000 -0.001649 -0.000001 0.034689
#
#
# Mechanical properties :
#
#
# Convention : Reuss Voigt Hill
#
# Bulk Modulus (GPa) = 48.02845 63.98537 56.00691
# Shear Modulus (GPa) = 32.74785 36.15993 34.45389
#
# Velocity S-wave (km/s) = 4.00243 4.20578 4.10537
# Velocity P-wave (km/s) = 6.69729 7.40844 7.06182
#
# Compressibility (1/GPa) = 0.02082099
#
# Stress axis : x y z
#
# Youngs Moduli (GPa) = 45.41452 94.38014 113.69250
#
# Poissons Ratio (x) = 0.30403 0.39470
# Poissons Ratio (y) = 0.14629 0.40950
# Poissons Ratio (z) = 0.15766 0.33994
#
# Static dielectric constant tensor:
#      x y z
#    x 3.817560 -0.000010 -0.308740 
#    y -0.000010 3.701060 0.000010 
#    z -0.308740 0.000010 4.757130 
# 
# 
# High freq. dielectric constant tensor:
#      x y z
#    x 1.795790 0.000000 0.004310 
#    y 0.000000 1.800270 0.000000 
#    z 0.004310 0.000000 1.821880 
# 
# From -- ./inp_files/378106.got.cif
#   From: 2010.06.25/outbox.ucp.g09.slc.cvg/sg12_190_cif.got.tgz:378106.got - 2010.06.28 13:50:54.
