data_PCOD8116179
_publ_section_title
;
Structure prediction by ZEFSAII (Michael W. Deem and Ramdas Pophale) SiO2 
 PCOD8116179
Probable space group: C 2/M
;
_chemical_formula_sum "Si O2"
_cell_formula_units_Z 20
_cell_length_a 15.000000
_cell_length_b 21.000000
_cell_length_c 15.000000
_cell_angle_alpha 90.000000
_cell_angle_beta 30.000000
_cell_angle_gamma 90.000000
_cell_volume 2362.500000
_symmetry_space_group_name_H-M "C 2/M"
_symmetry_group_IT_number 12
_symmetry_cell_setting 'monoclinic'
loop_
_space_group_symop_operation_xyz
x,y,z
-x,y,-z
-x,-y,-z
x,-y,z
1/2+x,1/2+y,z
1/2-x,1/2+y,-z
1/2-x,1/2-y,-z
1/2+x,1/2-y,z
loop_
_atom_site_type_symbol
_atom_site_label
_atom_site_fract_x
_atom_site_fract_y
_atom_site_fract_z
Si Si1 0.304256 0.575599 0.385383
Si Si2 0.708484 0.381516 0.802262
Si Si3 0.157374 0.246034 0.931060
Si Si4 0.415614 0.071784 0.784141
Si Si5 0.642827 0.662107 0.114377
O O1 0.352165 0.500000 0.341001
O O2 0.250217 0.601157 0.334816
O O3 0.472570 0.615690 0.279622
O O4 0.127615 0.587937 0.597991
O O5 0.756715 0.307696 0.784964
O O6 0.828481 0.425979 0.761199
O O7 0.500000 0.394278 0.000000
O O8 0.295497 0.300537 0.847826
O O9 0.085314 0.210614 0.084113
O O10 0.000000 0.272956 0.000000
O O11 0.390846 0.000000 0.841878
O O12 0.315084 0.120700 0.936572
#
# Coordination Sequence:
#
# PCOD8116179 Si02
#       5
#     8   8   8   8   8
#     4  11  20  31  52  78 105 134 168 209 259 310
#     4  10  17  31  50  72 105 137 163 206 262 306
#     4   9  17  34  54  73 101 139 171 213 245 303
#     4  10  20  31  48  77 105 133 171 210 253 309
#     4  10  19  33  55  72 104 139 170 206 259 296
#
# _framework density 8.4656079999999996
#
# number of rings (size 3 to 8) (size 9 to 14) (size 15 to 20)
#    0.000    2.000    6.000    1.800    0.000    2.400 
#    0.000    9.000    0.000    2.400    0.000    2.800 
#    0.000    0.000    0.000    0.000    0.000    0.000 
#
# Total GULP energy -247786.875576 kJ/mol
# GULP energy per Si atom -12389.343779 kJ/mol
# Density = 0.844634 g / cm^3
# Si number density = 8.465608 Si / 1000 Ang^3
#
#
#
# Elastic Constant Matrix: (Units=GPa)
#
#
# Indices 1 2 3 4 5 6 
#
# 1 107.6275 49.9084 24.3258 -0.0082 -18.4670 0.0028
# 2 49.9084 107.8249 41.9335 0.0316 -14.3715 -0.0312
# 3 24.3258 41.9335 89.7522 -0.0779 -22.5548 -0.0196
# 4 -0.0082 0.0316 -0.0779 25.1871 0.0086 -8.3058
# 5 -18.4670 -14.3715 -22.5548 0.0086 24.4160 0.0173
# 6 0.0028 -0.0312 -0.0196 -8.3058 0.0173 39.6750
#
#
#
# Elastic Compliance Matrix: (Units=1/GPa)
#
#
# Indices 1 2 3 4 5 6 
#
# 1 0.012811 -0.005276 0.000843 0.000009 0.007363 -0.000006
# 2 -0.005276 0.013608 -0.005102 -0.000034 -0.000694 0.000002
# 3 0.000843 -0.005102 0.016543 0.000057 0.012917 0.000010
# 4 0.000009 -0.000034 0.000057 0.042647 0.000018 0.008928
# 5 0.007363 -0.000694 0.012917 0.000018 0.058049 -0.000016
# 6 -0.000006 0.000002 0.000010 0.008928 -0.000016 0.027074
#
#
# Mechanical properties :
#
#
# Convention : Reuss Voigt Hill
#
# Bulk Modulus (GPa) = 41.85613 59.72665 50.79139
# Shear Modulus (GPa) = 25.28233 30.45808 27.87020
#
# Velocity S-wave (km/s) = 3.86844 4.24598 4.06160
# Velocity P-wave (km/s) = 6.68790 7.70652 7.21521
#
# Compressibility (1/GPa) = 0.02389137
#
# Stress axis : x y z
#
# Youngs Moduli (GPa) = 78.05983 73.48446 60.44795
#
# Poissons Ratio (x) = 0.38772 -0.05097
# Poissons Ratio (y) = 0.41186 0.30843
# Poissons Ratio (z) = -0.06583 0.37495
#
# Static dielectric constant tensor:
#      x y z
#    x 3.332940 -0.000050 -0.227170 
#    y -0.000050 3.414240 0.000080 
#    z -0.227170 0.000080 3.092680 
# 
# 
# High freq. dielectric constant tensor:
#      x y z
#    x 1.647950 0.000000 -0.027180 
#    y 0.000000 1.665300 0.000010 
#    z -0.027180 0.000010 1.640170 
# 
# From -- ./inp_files/62223.got.cif
#   From: 2010.06.25/outbox.ucp.g09.slc.cvg/sg12_32_cif.got.tgz:62223.got - 2010.06.28 13:50:54.
