data_PCOD8116040
_publ_section_title
;
Structure prediction by ZEFSAII (Michael W. Deem and Ramdas Pophale) SiO2 
 PCOD8116040
Probable space group: C 2/M
;
_chemical_formula_sum "Si O2"
_cell_formula_units_Z 64
_cell_length_a 28.468850
_cell_length_b 9.372643
_cell_length_c 25.304258
_cell_angle_alpha 90.000000
_cell_angle_beta 145.933671
_cell_angle_gamma 90.000000
_cell_volume 3782.088683
_symmetry_space_group_name_H-M "C 2/M"
_symmetry_group_IT_number 12
_symmetry_cell_setting 'monoclinic'
loop_
_space_group_symop_operation_xyz
x,y,z
-x,y,-z
-x,-y,-z
x,-y,z
1/2+x,1/2+y,z
1/2-x,1/2+y,-z
1/2-x,1/2-y,-z
1/2+x,1/2-y,z
loop_
_atom_site_type_symbol
_atom_site_label
_atom_site_fract_x
_atom_site_fract_y
_atom_site_fract_z
Si Si1 0.176239 0.167682 0.403090
Si Si2 0.876006 0.833250 0.239874
Si Si3 0.952405 0.830072 0.102059
Si Si4 0.366363 0.331724 0.753899
Si Si5 0.913184 0.834338 0.393814
Si Si6 0.286406 0.666896 0.890616
Si Si7 0.508615 0.330850 0.746471
Si Si8 0.248609 0.666951 0.736142
O O1 0.250000 0.250000 0.500000
O O2 0.177330 0.208027 0.342176
O O3 0.088082 0.219367 0.346309
O O4 0.189472 0.000000 0.423675
O O5 0.916931 0.802824 0.334889
O O6 0.789198 0.749978 0.152066
O O7 0.940186 0.771658 0.255955
O O8 0.857718 0.000000 0.214531
O O9 0.948313 0.776540 0.159047
O O10 0.038352 0.771164 0.155564
O O11 0.953835 0.000000 0.101932
O O12 0.872498 0.772320 0.995506
O O13 0.371337 0.500000 0.764885
O O14 0.312078 0.268864 0.751601
O O15 0.839490 0.746267 0.352775
O O16 0.000000 0.782298 0.500000
O O17 0.896806 0.000000 0.390231
O O18 0.274411 0.500000 0.891106
O O19 0.289131 0.698602 0.830824
O O20 0.509446 0.500000 0.746830
O O21 0.231862 0.500000 0.712145
#
# Coordination Sequence:
#
# PCOD8116040 Si02
#       8
#     8   8   8   8   8   8   8   8
#     4   9  17  30  47  66  88 113 143 178 214 253
#     4   9  17  30  46  62  84 115 146 175 212 257
#     4   8  14  26  44  65  88 112 141 177 212 249
#     4   8  15  28  45  65  89 116 143 172 210 257
#     4   9  18  31  45  62  85 113 146 181 213 250
#     4   9  17  28  44  67  90 111 140 179 215 247
#     4   8  15  28  45  63  84 114 147 174 207 257
#     4   9  17  29  45  66  90 113 140 175 215 256
#
# _framework density 16.921866000000001
#
# number of rings (size 3 to 8) (size 9 to 14) (size 15 to 20)
#    0.000    3.375    0.000    1.500    0.000    2.250 
#    0.000    5.000    0.000    3.750    0.000    3.500 
#    0.000    0.000    0.000    0.000    0.000    0.000 
#
# Total GULP energy -396673.563918 kJ/mol
# GULP energy per Si atom -12396.048872 kJ/mol
# Density = 1.688335 g / cm^3
# Si number density = 16.921866 Si / 1000 Ang^3
#
#
#
# Elastic Constant Matrix: (Units=GPa)
#
#
# Indices 1 2 3 4 5 6 
#
# 1 166.5537 32.3678 82.1855 0.0000 17.3605 0.0000
# 2 32.3678 25.8725 38.7071 0.0000 4.9770 0.0000
# 3 82.1855 38.7071 167.8781 0.0000 14.9583 0.0000
# 4 0.0000 0.0000 0.0000 23.0106 0.0000 3.9408
# 5 17.3605 4.9770 14.9583 0.0000 16.1673 0.0000
# 6 0.0000 0.0000 0.0000 3.9408 0.0000 18.5413
#
#
#
# Elastic Compliance Matrix: (Units=1/GPa)
#
#
# Indices 1 2 3 4 5 6 
#
# 1 0.009059 -0.006681 -0.002409 0.000000 -0.005441 0.000000
# 2 -0.006681 0.064485 -0.011408 0.000000 -0.002122 0.000000
# 3 -0.002409 -0.011408 0.010052 0.000000 -0.003201 0.000000
# 4 0.000000 0.000000 0.000000 0.045100 0.000000 -0.009586
# 5 -0.005441 -0.002122 -0.003201 0.000000 0.071311 0.000000
# 6 0.000000 0.000000 0.000000 -0.009586 0.000000 0.055971
#
#
# Mechanical properties :
#
#
# Convention : Reuss Voigt Hill
#
# Bulk Modulus (GPa) = 23.47539 74.09167 48.78353
# Shear Modulus (GPa) = 16.06815 25.34677 20.70746
#
# Velocity S-wave (km/s) = 3.08482 3.87443 3.50195
# Velocity P-wave (km/s) = 5.15665 7.99341 6.72628
#
# Compressibility (1/GPa) = 0.04259781
#
# Stress axis : x y z
#
# Youngs Moduli (GPa) = 110.39291 15.50736 99.48504
#
# Poissons Ratio (x) = 0.10361 0.23969
# Poissons Ratio (y) = 0.73759 1.13495
# Poissons Ratio (z) = 0.26597 0.17691
#
# Static dielectric constant tensor:
#      x y z
#    x 3.594940 0.000000 0.104940 
#    y 0.000000 2.773680 0.000000 
#    z 0.104940 0.000000 3.283720 
# 
# 
# High freq. dielectric constant tensor:
#      x y z
#    x 1.659390 0.000000 0.002430 
#    y 0.000000 1.608840 0.000000 
#    z 0.002430 0.000000 1.656580 
# 
# From -- ./inp_files/351805.got.cif
#   From: 2010.06.25/outbox.cif.g09.slc.cpg/sg12_176_cif.got.tgz:351805.got - 2010.06.28 00:19:55.
