data_PCOD8116074
_publ_section_title
;
Structure prediction by ZEFSAII (Michael W. Deem and Ramdas Pophale) SiO2 
 PCOD8116074
Probable space group: C 2/M
;
_chemical_formula_sum "Si O2"
_cell_formula_units_Z 48
_cell_length_a 20.120439
_cell_length_b 9.314732
_cell_length_c 19.388681
_cell_angle_alpha 90.000000
_cell_angle_beta 120.613916
_cell_angle_gamma 90.000000
_cell_volume 3127.279452
_symmetry_space_group_name_H-M "C 2/M"
_symmetry_group_IT_number 12
_symmetry_cell_setting 'monoclinic'
loop_
_space_group_symop_operation_xyz
x,y,z
-x,y,-z
-x,-y,-z
x,-y,z
1/2+x,1/2+y,z
1/2-x,1/2+y,-z
1/2-x,1/2-y,-z
1/2+x,1/2-y,z
loop_
_atom_site_type_symbol
_atom_site_label
_atom_site_fract_x
_atom_site_fract_y
_atom_site_fract_z
Si Si1 0.643097 0.834106 0.160204
Si Si2 0.485361 0.167792 0.146491
Si Si3 0.919611 0.338320 0.255449
Si Si4 0.562805 0.162576 0.585527
Si Si5 0.582517 0.661904 0.007797
Si Si6 0.813765 0.166982 0.284611
O O1 0.573288 0.790039 0.174225
O O2 0.722559 0.803802 0.242565
O O3 0.636375 0.000000 0.134717
O O4 0.642431 0.741532 0.089824
O O5 0.471128 0.213112 0.218299
O O6 0.423805 0.254173 0.067731
O O7 0.471190 0.000000 0.126137
O O8 0.888985 0.500000 0.225908
O O9 0.970717 0.334725 0.353354
O O10 0.845688 0.234383 0.229119
O O11 0.500000 0.229854 0.500000
O O12 0.642249 0.256132 0.627561
O O13 0.582726 0.000000 0.572862
O O14 0.611356 0.500000 0.009396
O O15 0.500000 0.663823 0.000000
O O16 0.833559 0.000000 0.296353
#
# Coordination Sequence:
#
# PCOD8116074 Si02
#       6
#     8   8   8   8   8   8
#     4   9  17  29  45  64  86 116 148 177 213 254
#     4   9  16  29  47  63  84 115 150 182 210 251
#     4   8  16  29  45  65  86 112 146 177 212 254
#     4   8  15  29  48  67  86 111 144 175 207 256
#     4   9  17  27  41  63  88 114 146 182 216 251
#     4   9  17  28  44  67  91 111 139 177 216 256
#
# _framework density 15.348803
#
# number of rings (size 3 to 8) (size 9 to 14) (size 15 to 20)
#    1.000    2.333    0.000    0.500    0.000    4.333 
#    0.000    0.833    0.000    1.000    0.000    0.000 
#    0.000    0.000    0.000    0.000    0.000    0.000 
#
# Total GULP energy -297314.809529 kJ/mol
# GULP energy per Si atom -12388.117064 kJ/mol
# Density = 1.531387 g / cm^3
# Si number density = 15.348803 Si / 1000 Ang^3
#
#
#
# Elastic Constant Matrix: (Units=GPa)
#
#
# Indices 1 2 3 4 5 6 
#
# 1 46.8251 22.4469 20.5969 0.0000 5.4808 0.0000
# 2 22.4469 65.0594 30.9174 0.0000 10.7243 0.0000
# 3 20.5969 30.9174 69.2705 0.0000 11.7957 0.0000
# 4 0.0000 0.0000 0.0000 23.2068 0.0000 1.9370
# 5 5.4808 10.7243 11.7957 0.0000 23.5939 0.0000
# 6 0.0000 0.0000 0.0000 1.9370 0.0000 17.6142
#
#
#
# Elastic Compliance Matrix: (Units=1/GPa)
#
#
# Indices 1 2 3 4 5 6 
#
# 1 0.026839 -0.006863 -0.004795 0.000000 -0.000718 0.000000
# 2 -0.006863 0.021803 -0.006859 0.000000 -0.004887 0.000000
# 3 -0.004795 -0.006859 0.019896 0.000000 -0.005716 0.000000
# 4 0.000000 0.000000 0.000000 0.043490 0.000000 -0.004782
# 5 -0.000718 -0.004887 -0.005716 0.000000 0.047630 0.000000
# 6 0.000000 0.000000 0.000000 -0.004782 0.000000 0.057298
#
#
# Mechanical properties :
#
#
# Convention : Reuss Voigt Hill
#
# Bulk Modulus (GPa) = 31.74021 36.56414 34.15218
# Shear Modulus (GPa) = 18.90415 20.02924 19.46669
#
# Velocity S-wave (km/s) = 3.51328 3.61631 3.56517
# Velocity P-wave (km/s) = 6.09767 6.42735 6.26468
#
# Compressibility (1/GPa) = 0.03150578
#
# Stress axis : x y z
#
# Youngs Moduli (GPa) = 37.25881 45.86439 50.26043
#
# Poissons Ratio (x) = 0.31477 0.24099
# Poissons Ratio (y) = 0.25571 0.34471
# Poissons Ratio (z) = 0.17865 0.31456
#
# Static dielectric constant tensor:
#      x y z
#    x 2.693350 0.000000 -0.022640 
#    y 0.000000 3.014700 0.000000 
#    z -0.022640 0.000000 2.863640 
# 
# 
# High freq. dielectric constant tensor:
#      x y z
#    x 1.553110 0.000000 0.001700 
#    y 0.000000 1.594180 0.000000 
#    z 0.001700 0.000000 1.574490 
# 
# From -- ./inp_files/318806.got.cif
#   From: 2010.06.25/outbox.cif.g09.slc.cpg/sg12_160_cif.got.tgz:318806.got - 2010.06.28 00:19:55.
