data_PCOD8116077
_publ_section_title
;
Structure prediction by ZEFSAII (Michael W. Deem and Ramdas Pophale) SiO2 
 PCOD8116077
Probable space group: C 2/M
;
_chemical_formula_sum "Si O2"
_cell_formula_units_Z 48
_cell_length_a 14.070223
_cell_length_b 9.457853
_cell_length_c 25.042758
_cell_angle_alpha 90.000000
_cell_angle_beta 57.806213
_cell_angle_gamma 90.000000
_cell_volume 2820.167242
_symmetry_space_group_name_H-M "C 2/M"
_symmetry_group_IT_number 12
_symmetry_cell_setting 'monoclinic'
loop_
_space_group_symop_operation_xyz
x,y,z
-x,y,-z
-x,-y,-z
x,-y,z
1/2+x,1/2+y,z
1/2-x,1/2+y,-z
1/2-x,1/2-y,-z
1/2+x,1/2-y,z
loop_
_atom_site_type_symbol
_atom_site_label
_atom_site_fract_x
_atom_site_fract_y
_atom_site_fract_z
Si Si1 0.587848 0.836153 0.429618
Si Si2 0.094011 0.333200 0.900839
Si Si3 0.801285 0.664262 0.345084
Si Si4 0.651976 0.832771 0.001018
Si Si5 0.535807 0.163913 0.324455
Si Si6 0.249714 0.665551 0.760213
O O1 0.500000 0.782683 0.500000
O O2 0.702252 0.749922 0.403280
O O3 0.533104 0.807047 0.388430
O O4 0.617208 0.000000 0.428983
O O5 0.089783 0.500000 0.898344
O O6 0.163765 0.272250 0.829965
O O7 0.965399 0.279924 0.937934
O O8 0.153557 0.289469 0.938235
O O9 0.779743 0.500000 0.362991
O O10 0.804300 0.697053 0.281179
O O11 0.918247 0.715182 0.335183
O O12 0.668855 0.000000 0.003317
O O13 0.750000 0.750000 0.000000
O O14 0.633128 0.253896 0.267368
O O15 0.558005 0.000000 0.304979
O O16 0.272985 0.500000 0.761526
#
# Coordination Sequence:
#
# PCOD8116077 Si02
#       6
#     8   8   8   8   8   8
#     4   9  18  32  48  66  91 122 152 183 223 270
#     4   8  16  31  48  65  91 124 151 179 223 276
#     4   9  18  31  47  67  91 118 149 187 227 266
#     4   9  17  31  49  68  91 120 152 186 224 265
#     4   9  18  32  47  67  95 120 146 187 232 265
#     4   9  17  31  49  67  88 119 156 185 217 270
#
# _framework density 17.020267
#
# number of rings (size 3 to 8) (size 9 to 14) (size 15 to 20)
#    0.000    3.167    0.000    1.000    0.000    3.000 
#    0.000    5.000    0.000    0.000    0.000    0.000 
#    0.000    0.000    0.000    0.000    0.000    0.000 
#
# Total GULP energy -297579.616916 kJ/mol
# GULP energy per Si atom -12399.150705 kJ/mol
# Density = 1.698153 g / cm^3
# Si number density = 17.020267 Si / 1000 Ang^3
#
#
#
# Elastic Constant Matrix: (Units=GPa)
#
#
# Indices 1 2 3 4 5 6 
#
# 1 148.6316 49.3274 73.2203 0.0000 -23.1627 0.0000
# 2 49.3274 43.0083 46.3079 0.0000 -9.9842 0.0000
# 3 73.2203 46.3079 162.4592 0.0000 -14.6035 0.0000
# 4 0.0000 0.0000 0.0000 23.4728 0.0000 -6.0704
# 5 -23.1627 -9.9842 -14.6035 0.0000 17.7907 0.0000
# 6 0.0000 0.0000 0.0000 -6.0704 0.0000 30.6681
#
#
#
# Elastic Compliance Matrix: (Units=1/GPa)
#
#
# Indices 1 2 3 4 5 6 
#
# 1 0.012415 -0.010110 -0.001912 0.000000 0.008921 0.000000
# 2 -0.010110 0.044266 -0.007570 0.000000 0.005466 0.000000
# 3 -0.001912 -0.007570 0.009252 0.000000 0.000857 0.000000
# 4 0.000000 0.000000 0.000000 0.044901 0.000000 0.008888
# 5 0.008921 0.005466 0.000857 0.000000 0.071595 0.000000
# 6 0.000000 0.000000 0.000000 0.008888 0.000000 0.034366
#
#
# Mechanical properties :
#
#
# Convention : Reuss Voigt Hill
#
# Bulk Modulus (GPa) = 37.38315 76.86779 57.12547
# Shear Modulus (GPa) = 18.87529 26.73589 22.80559
#
# Velocity S-wave (km/s) = 3.33376 3.96767 3.66445
# Velocity P-wave (km/s) = 6.06879 8.13943 7.17916
#
# Compressibility (1/GPa) = 0.02675002
#
# Stress axis : x y z
#
# Youngs Moduli (GPa) = 80.54454 22.59049 108.08618
#
# Poissons Ratio (x) = 0.22839 0.20665
# Poissons Ratio (y) = 0.81431 0.81820
# Poissons Ratio (z) = 0.15399 0.17101
#
# Static dielectric constant tensor:
#      x y z
#    x 3.166430 0.000000 -0.014160 
#    y 0.000000 2.974340 0.000000 
#    z -0.014160 0.000000 3.635940 
# 
# 
# High freq. dielectric constant tensor:
#      x y z
#    x 1.657560 0.000000 -0.001700 
#    y 0.000000 1.635820 0.000000 
#    z -0.001700 0.000000 1.661700 
# 
# From -- ./inp_files/261711.got.cif
#   From: 2010.06.25/outbox.cif.g09.slc.cpg/sg12_131_cif.got.tgz:261711.got - 2010.06.28 00:19:55.
