data_PCOD8116862
_publ_section_title
;
Structure prediction by ZEFSAII (Michael W. Deem and Ramdas Pophale) SiO2 
 PCOD8116862
Probable space group: P 2/C
;
_chemical_formula_sum "Si O2"
_cell_formula_units_Z 28
_cell_length_a 20.960931
_cell_length_b 13.285807
_cell_length_c 17.447418
_cell_angle_alpha 90.000000
_cell_angle_beta 161.045916
_cell_angle_gamma 90.000000
_cell_volume 1578.190773
_symmetry_space_group_name_H-M "P 2/C"
_symmetry_group_IT_number 13
_symmetry_cell_setting 'monoclinic'
loop_
_space_group_symop_operation_xyz
x,y,z
-x,y,1/2-z
-x,-y,-z
x,-y,1/2+z
loop_
_atom_site_type_symbol
_atom_site_label
_atom_site_fract_x
_atom_site_fract_y
_atom_site_fract_z
Si Si1 0.967375 0.402642 0.301462
Si Si2 0.205639 0.285394 0.697133
Si Si3 0.719294 0.046074 0.245040
Si Si4 0.013753 0.417760 0.949536
Si Si5 0.966809 0.096819 0.385320
Si Si6 0.328759 0.245488 0.497462
Si Si7 0.361026 0.265268 0.356123
O O1 0.000000 0.382274 0.250000
O O2 0.132427 0.347578 0.539734
O O3 0.971732 0.523279 0.322522
O O4 0.755211 0.356726 0.081632
O O5 0.152018 0.336688 0.717582
O O6 0.103449 0.176901 0.586026
O O7 0.437784 0.284575 0.958274
O O8 0.811562 0.038898 0.263991
O O9 0.723909 0.162167 0.277191
O O10 0.876332 0.981345 0.474750
O O11 0.500000 0.000000 0.000000
O O12 0.223332 0.361273 0.185323
O O13 0.000000 0.500000 0.000000
O O14 0.839338 0.160238 0.178852
O O15 0.500000 0.218482 0.750000
O O16 0.399199 0.243696 0.489475
#
# Coordination Sequence:
#
# PCOD8116862 Si02
#       7
#     4   4   4   4   4   4   4
#     4  10  20  35  51  74 106 143 179 221 276 323
#     4  10  18  32  53  76 111 138 170 222 276 317
#     4  10  17  29  53  79 108 134 172 222 266 328
#     4  10  19  36  50  75 110 137 178 231 263 319
#     4   9  18  31  49  81 109 135 171 219 269 323
#     4  10  19  34  51  78 114 138 175 225 271 335
#     4  11  19  32  55  84 104 141 180 218 277 326
#
# _framework density 17.741834999999998
#
# number of rings (size 3 to 8) (size 9 to 14) (size 15 to 20)
#    0.000    2.000    7.143    0.857    0.000    2.286 
#    2.571    0.000    0.000    0.000    7.429    0.000 
#    0.000    0.000    0.000    0.000    0.000    0.000 
#
# Total GULP energy -346865.393078 kJ/mol
# GULP energy per Si atom -12388.049753 kJ/mol
# Density = 1.770145 g / cm^3
# Si number density = 17.741835 Si / 1000 Ang^3
#
#
#
# Elastic Constant Matrix: (Units=GPa)
#
#
# Indices 1 2 3 4 5 6 
#
# 1 45.6335 24.1767 29.9171 0.0000 14.1810 0.0000
# 2 24.1767 110.6635 62.3538 0.0000 10.0164 0.0000
# 3 29.9171 62.3538 127.3395 0.0000 25.8284 0.0000
# 4 0.0000 0.0000 0.0000 25.5170 0.0000 8.1064
# 5 14.1810 10.0164 25.8284 0.0000 30.6676 0.0000
# 6 0.0000 0.0000 0.0000 8.1064 0.0000 19.5358
#
#
#
# Elastic Compliance Matrix: (Units=1/GPa)
#
#
# Indices 1 2 3 4 5 6 
#
# 1 0.028843 -0.003744 -0.002998 0.000000 -0.009589 0.000000
# 2 -0.003744 0.013008 -0.006005 0.000000 0.002540 0.000000
# 3 -0.002998 -0.006005 0.013048 0.000000 -0.007641 0.000000
# 4 0.000000 0.000000 0.000000 0.045140 0.000000 -0.018731
# 5 -0.009589 0.002540 -0.007641 0.000000 0.042648 0.000000
# 6 0.000000 0.000000 0.000000 -0.018731 0.000000 0.058961
#
#
# Mechanical properties :
#
#
# Convention : Reuss Voigt Hill
#
# Bulk Modulus (GPa) = 34.00881 57.39242 45.70061
# Shear Modulus (GPa) = 21.10211 26.29001 23.69606
#
# Velocity S-wave (km/s) = 3.45251 3.85360 3.65856
# Velocity P-wave (km/s) = 5.92481 7.22629 6.60767
#
# Compressibility (1/GPa) = 0.02940414
#
# Stress axis : x y z
#
# Youngs Moduli (GPa) = 34.67064 76.87493 76.64127
#
# Poissons Ratio (x) = 0.28783 0.22976
# Poissons Ratio (y) = 0.12981 0.46025
# Poissons Ratio (z) = 0.10394 0.46165
#
# Static dielectric constant tensor:
#      x y z
#    x 3.115170 0.000000 0.257870 
#    y 0.000000 3.923010 0.000000 
#    z 0.257870 0.000000 3.279550 
# 
# 
# High freq. dielectric constant tensor:
#      x y z
#    x 1.647900 0.000000 0.038480 
#    y 0.000000 1.702330 0.000000 
#    z 0.038480 0.000000 1.673530 
# 
# From -- ./inp_files/70717.got.cif
#   From: 2010.06.25/outbox.cif.g09.slc.cpg/sg13_36_cif.got.tgz:70717.got - 2010.06.28 04:50:58.
