data_PCOD8116050
_publ_section_title
;
Structure prediction by ZEFSAII (Michael W. Deem and Ramdas Pophale) SiO2 
 PCOD8116050
Probable space group: C 2/M
;
_chemical_formula_sum "Si O2"
_cell_formula_units_Z 40
_cell_length_a 27.807050
_cell_length_b 9.262736
_cell_length_c 26.130476
_cell_angle_alpha 90.000000
_cell_angle_beta 19.919217
_cell_angle_gamma 90.000000
_cell_volume 2293.016407
_symmetry_space_group_name_H-M "C 2/M"
_symmetry_group_IT_number 12
_symmetry_cell_setting 'monoclinic'
loop_
_space_group_symop_operation_xyz
x,y,z
-x,y,-z
-x,-y,-z
x,-y,z
1/2+x,1/2+y,z
1/2-x,1/2+y,-z
1/2-x,1/2-y,-z
1/2+x,1/2-y,z
loop_
_atom_site_type_symbol
_atom_site_label
_atom_site_fract_x
_atom_site_fract_y
_atom_site_fract_z
Si Si1 0.914731 0.159728 0.229385
Si Si2 0.078448 0.664292 0.570238
Si Si3 0.087332 0.668326 0.864974
Si Si4 0.397371 0.670289 0.357830
Si Si5 0.913611 0.831750 0.536488
O O1 0.746667 0.171125 0.402218
O O2 0.972266 0.267179 0.128582
O O3 0.978936 0.192798 0.221814
O O4 0.958926 0.000000 0.167702
O O5 0.022632 0.500000 0.628596
O O6 0.019154 0.754152 0.678647
O O7 0.023163 0.740154 0.573834
O O8 0.060375 0.500000 0.887821
O O9 0.250692 0.707410 0.709759
O O10 0.000000 0.733485 0.000000
O O11 0.374238 0.500000 0.392052
O O12 0.250000 0.750000 0.500000
O O13 0.000000 0.786914 0.500000
O O14 0.931452 0.000000 0.505477
#
# Coordination Sequence:
#
# PCOD8116050 Si02
#       5
#     8   8   8   8   8
#     4   8  15  25  37  56  81 108 136 166 202 245
#     4   9  16  25  38  58  83 109 137 170 209 249
#     4   9  17  28  42  61  84 109 138 171 204 240
#     4   9  15  23  36  56  82 109 137 169 208 251
#     4   9  17  29  44  61  83 112 142 170 204 247
#
# _framework density 17.444271000000001
#
# number of rings (size 3 to 8) (size 9 to 14) (size 15 to 20)
#    0.000    3.200    0.000    2.400    0.000    6.400 
#    0.000    0.000    0.000    0.000    0.000    1.400 
#    0.000    0.000    0.000    0.000    0.000    0.000 
#
# Total GULP energy -247833.797191 kJ/mol
# GULP energy per Si atom -12391.689860 kJ/mol
# Density = 1.740457 g / cm^3
# Si number density = 17.444271 Si / 1000 Ang^3
#
#
#
# Elastic Constant Matrix: (Units=GPa)
#
#
# Indices 1 2 3 4 5 6 
#
# 1 158.9625 77.2567 39.5364 0.0205 38.6396 -0.0031
# 2 77.2567 98.9804 29.3570 0.0891 23.5902 -0.0386
# 3 39.5364 29.3570 35.0065 0.0755 21.8850 -0.0335
# 4 0.0205 0.0891 0.0755 13.0121 -0.0286 10.8850
# 5 38.6396 23.5902 21.8850 -0.0286 27.1813 0.0075
# 6 -0.0031 -0.0386 -0.0335 10.8850 0.0075 34.5178
#
#
#
# Elastic Compliance Matrix: (Units=1/GPa)
#
#
# Indices 1 2 3 4 5 6 
#
# 1 0.012619 -0.006752 -0.002091 0.000028 -0.010395 -0.000015
# 2 -0.006752 0.017438 -0.007122 -0.000105 0.000198 0.000045
# 3 -0.002091 -0.007122 0.062781 -0.000618 -0.041395 0.000257
# 4 0.000028 -0.000105 -0.000618 0.104398 0.000667 -0.032922
# 5 -0.010395 0.000198 -0.041395 0.000667 0.084726 -0.000270
# 6 -0.000015 0.000045 0.000257 -0.032922 -0.000270 0.039353
#
#
# Mechanical properties :
#
#
# Convention : Reuss Voigt Hill
#
# Bulk Modulus (GPa) = 16.41798 65.02771 40.72285
# Shear Modulus (GPa) = 13.38517 24.72885 19.05701
#
# Velocity S-wave (km/s) = 2.77304 3.76918 3.30881
# Velocity P-wave (km/s) = 4.43679 7.50337 6.16383
#
# Compressibility (1/GPa) = 0.06090882
#
# Stress axis : x y z
#
# Youngs Moduli (GPa) = 79.24491 57.34522 15.92840
#
# Poissons Ratio (x) = 0.38718 0.03331
# Poissons Ratio (y) = 0.53505 0.11344
# Poissons Ratio (z) = 0.16572 0.40840
#
# Static dielectric constant tensor:
#      x y z
#    x 3.753770 -0.000010 0.512660 
#    y -0.000010 3.335400 0.000010 
#    z 0.512660 0.000010 2.816530 
# 
# 
# High freq. dielectric constant tensor:
#      x y z
#    x 1.683320 0.000000 0.039380 
#    y 0.000000 1.679770 0.000000 
#    z 0.039380 0.000000 1.604760 
# 
# From -- ./inp_files/94136.got.cif
#   From: 2010.06.25/outbox.cif.g09.slc.cpg/sg12_48_cif.got.tgz:94136.got - 2010.06.28 00:19:55.
