data_PCOD8116141
_publ_section_title
;
Structure prediction by ZEFSAII (Michael W. Deem and Ramdas Pophale) SiO2 
 PCOD8116141
Probable space group: C 2/M
;
_chemical_formula_sum "Si O2"
_cell_formula_units_Z 40
_cell_length_a 27.221810
_cell_length_b 9.502023
_cell_length_c 19.039240
_cell_angle_alpha 90.000000
_cell_angle_beta 28.671166
_cell_angle_gamma 90.000000
_cell_volume 2362.798289
_symmetry_space_group_name_H-M "C 2/M"
_symmetry_group_IT_number 12
_symmetry_cell_setting 'monoclinic'
loop_
_space_group_symop_operation_xyz
x,y,z
-x,y,-z
-x,-y,-z
x,-y,z
1/2+x,1/2+y,z
1/2-x,1/2+y,-z
1/2-x,1/2-y,-z
1/2+x,1/2-y,z
loop_
_atom_site_type_symbol
_atom_site_label
_atom_site_fract_x
_atom_site_fract_y
_atom_site_fract_z
Si Si1 0.615505 0.662738 0.058197
Si Si2 0.187328 0.162984 0.195408
Si Si3 0.999683 0.835163 0.661448
Si Si4 0.598178 0.335958 0.920202
Si Si5 0.203545 0.836869 0.337723
O O1 0.646863 0.500000 0.025768
O O2 0.714161 0.752839 0.954955
O O3 0.524912 0.700306 0.226491
O O4 0.576229 0.698234 0.029409
O O5 0.169794 0.185963 0.299832
O O6 0.089115 0.225369 0.277819
O O7 0.205717 0.000000 0.153841
O O8 0.111204 0.774567 0.501249
O O9 0.005303 0.000000 0.639701
O O10 0.620261 0.500000 0.880299
O O11 0.695593 0.250825 0.769864
O O12 0.500000 0.284836 0.000000
O O13 0.227195 0.000000 0.323705
#
# Coordination Sequence:
#
# PCOD8116141 Si02
#       5
#     8   8   8   8   8
#     4   9  17  29  45  64  86 114 147 177 207 249
#     4   9  16  27  44  65  90 118 143 168 204 251
#     4   9  16  27  44  66  91 116 140 170 210 253
#     4   9  18  33  49  62  81 112 146 179 217 257
#     4   9  17  29  46  67  88 111 142 176 209 251
#
# _framework density 16.929079999999999
#
# number of rings (size 3 to 8) (size 9 to 14) (size 15 to 20)
#    0.000    3.000    0.000    1.200    0.000    2.800 
#    0.000    3.000    0.000    4.800    0.000    0.000 
#    0.000    0.000    0.000    0.000    0.000    0.000 
#
# Total GULP energy -247973.546626 kJ/mol
# GULP energy per Si atom -12398.677331 kJ/mol
# Density = 1.689055 g / cm^3
# Si number density = 16.929080 Si / 1000 Ang^3
#
#
#
# Elastic Constant Matrix: (Units=GPa)
#
#
# Indices 1 2 3 4 5 6 
#
# 1 106.6271 34.7483 74.7515 -0.0014 -20.7274 0.0006
# 2 34.7483 41.0726 48.5028 0.0016 -7.0411 -0.0009
# 3 74.7515 48.5028 162.0449 0.0058 -6.0941 -0.0019
# 4 -0.0014 0.0016 0.0058 25.0950 -0.0023 -4.4932
# 5 -20.7274 -7.0411 -6.0941 -0.0023 21.8550 0.0005
# 6 0.0006 -0.0009 -0.0019 -4.4932 0.0005 18.0711
#
#
#
# Elastic Compliance Matrix: (Units=1/GPa)
#
#
# Indices 1 2 3 4 5 6 
#
# 1 0.018269 -0.005815 -0.006170 0.000004 0.013732 -0.000001
# 2 -0.005815 0.041382 -0.009510 0.000000 0.005166 0.000001
# 3 -0.006170 -0.009510 0.011651 -0.000003 -0.005667 0.000000
# 4 0.000004 0.000000 -0.000003 0.041705 0.000007 0.010370
# 5 0.013732 0.005166 -0.005667 0.000007 0.058864 -0.000001
# 6 -0.000001 0.000001 0.000000 0.010370 -0.000001 0.057915
#
#
# Mechanical properties :
#
#
# Convention : Reuss Voigt Hill
#
# Bulk Modulus (GPa) = 35.32111 69.52775 52.42443
# Shear Modulus (GPa) = 17.71708 23.12035 20.41871
#
# Velocity S-wave (km/s) = 3.23855 3.69957 3.47671
# Velocity P-wave (km/s) = 5.90709 7.70768 6.86666
#
# Compressibility (1/GPa) = 0.02831168
#
# Stress axis : x y z
#
# Youngs Moduli (GPa) = 54.73833 24.16495 85.83058
#
# Poissons Ratio (x) = 0.14052 0.52961
# Poissons Ratio (y) = 0.31830 0.81622
# Poissons Ratio (z) = 0.33776 0.22980
#
# Static dielectric constant tensor:
#      x y z
#    x 3.105660 0.000000 0.034920 
#    y 0.000000 2.996270 0.000000 
#    z 0.034920 0.000000 3.321960 
# 
# 
# High freq. dielectric constant tensor:
#      x y z
#    x 1.642010 0.000000 0.005520 
#    y 0.000000 1.628650 0.000000 
#    z 0.005520 0.000000 1.656470 
# 
# From -- ./inp_files/292680.got.cif
#   From: 2010.06.25/outbox.cif.g09.slc.cpg/sg12_147_cif.got.tgz:292680.got - 2010.06.28 00:19:55.
