data_PCOD8116065
_publ_section_title
;
Structure prediction by ZEFSAII (Michael W. Deem and Ramdas Pophale) SiO2 
 PCOD8116065
Probable space group: C 2/M
;
_chemical_formula_sum "Si O2"
_cell_formula_units_Z 40
_cell_length_a 25.384139
_cell_length_b 9.223726
_cell_length_c 16.233804
_cell_angle_alpha 90.000000
_cell_angle_beta 141.971817
_cell_angle_gamma 90.000000
_cell_volume 2341.555168
_symmetry_space_group_name_H-M "C 2/M"
_symmetry_group_IT_number 12
_symmetry_cell_setting 'monoclinic'
loop_
_space_group_symop_operation_xyz
x,y,z
-x,y,-z
-x,-y,-z
x,-y,z
1/2+x,1/2+y,z
1/2-x,1/2+y,-z
1/2-x,1/2-y,-z
1/2+x,1/2-y,z
loop_
_atom_site_type_symbol
_atom_site_label
_atom_site_fract_x
_atom_site_fract_y
_atom_site_fract_z
Si Si1 0.826478 0.168817 0.638384
Si Si2 0.781380 0.332550 0.345858
Si Si3 0.751537 0.670541 0.128714
Si Si4 0.375776 0.832097 0.136952
Si Si5 0.069779 0.670430 0.352746
O O1 0.750000 0.250000 0.500000
O O2 0.807669 0.188250 0.712965
O O3 0.913319 0.245901 0.713432
O O4 0.827850 0.000000 0.616079
O O5 0.801981 0.500000 0.357522
O O6 0.771028 0.261436 0.242902
O O7 0.863346 0.269014 0.496346
O O8 0.734432 0.500000 0.112362
O O9 0.831856 0.708982 0.169470
O O10 0.665582 0.742458 0.988252
O O11 0.475209 0.792212 0.267281
O O12 0.362318 0.000000 0.099673
O O13 0.083081 0.500000 0.353348
#
# Coordination Sequence:
#
# PCOD8116065 Si02
#       5
#     8   8   8   8   8
#     4   9  16  28  46  68  93 119 148 182 223 267
#     4   8  15  28  47  69  89 113 149 188 221 259
#     4   9  17  31  49  66  88 119 151 184 225 269
#     4   9  18  31  47  67  91 119 149 184 226 268
#     4   9  17  30  47  68  93 118 149 186 221 263
#
# _framework density 17.082664999999999
#
# number of rings (size 3 to 8) (size 9 to 14) (size 15 to 20)
#    0.000    3.200    0.000    1.800    0.000    1.600 
#    0.000   10.000    0.000    6.000    0.000   11.200 
#    0.000    0.000    0.000    0.000    0.000    0.000 
#
# Total GULP energy -247843.920390 kJ/mol
# GULP energy per Si atom -12392.196019 kJ/mol
# Density = 1.704378 g / cm^3
# Si number density = 17.082665 Si / 1000 Ang^3
#
#
#
# Elastic Constant Matrix: (Units=GPa)
#
#
# Indices 1 2 3 4 5 6 
#
# 1 115.2972 40.4251 70.3808 0.0000 -13.9805 0.0000
# 2 40.4251 45.9361 29.7763 0.0000 -2.3961 0.0000
# 3 70.3808 29.7763 93.6464 0.0000 -13.2887 0.0000
# 4 0.0000 0.0000 0.0000 21.9897 0.0000 3.0208
# 5 -13.9805 -2.3961 -13.2887 0.0000 19.5995 0.0000
# 6 0.0000 0.0000 0.0000 3.0208 0.0000 26.7601
#
#
#
# Elastic Compliance Matrix: (Units=1/GPa)
#
#
# Indices 1 2 3 4 5 6 
#
# 1 0.019190 -0.009764 -0.010561 0.000000 0.005334 0.000000
# 2 -0.009764 0.032532 -0.003795 0.000000 -0.005561 0.000000
# 3 -0.010561 -0.003795 0.020677 0.000000 0.006022 0.000000
# 4 0.000000 0.000000 0.000000 0.046192 0.000000 -0.005214
# 5 0.005334 -0.005561 0.006022 0.000000 0.058230 0.000000
# 6 0.000000 0.000000 0.000000 -0.005214 0.000000 0.037958
#
#
# Mechanical properties :
#
#
# Convention : Reuss Voigt Hill
#
# Bulk Modulus (GPa) = 41.39209 59.56048 50.47628
# Shear Modulus (GPa) = 18.44532 21.28969 19.86750
#
# Velocity S-wave (km/s) = 3.28955 3.53409 3.41401
# Velocity P-wave (km/s) = 6.22183 7.18295 6.71960
#
# Compressibility (1/GPa) = 0.02415920
#
# Stress axis : x y z
#
# Youngs Moduli (GPa) = 52.10976 30.73920 48.36326
#
# Poissons Ratio (x) = 0.30014 0.51077
# Poissons Ratio (y) = 0.50880 0.18353
# Poissons Ratio (z) = 0.55033 0.11665
#
# Static dielectric constant tensor:
#      x y z
#    x 3.785120 0.000000 -0.067390 
#    y 0.000000 3.143160 0.000000 
#    z -0.067390 0.000000 3.144760 
# 
# 
# High freq. dielectric constant tensor:
#      x y z
#    x 1.671270 0.000000 -0.001790 
#    y 0.000000 1.640630 0.000000 
#    z -0.001790 0.000000 1.631660 
# 
# From -- ./inp_files/211843.got.cif
#   From: 2010.06.25/outbox.cif.g09.slc.cpg/sg12_106_cif.got.tgz:211843.got - 2010.06.28 00:19:55.
