data_PCOD8116662
_publ_section_title
;
Structure prediction by ZEFSAII (Michael W. Deem and Ramdas Pophale) SiO2 
 PCOD8116662
Probable space group: P 2/C
;
_chemical_formula_sum "Si O2"
_cell_formula_units_Z 24
_cell_length_a 8.700383
_cell_length_b 18.900964
_cell_length_c 8.626546
_cell_angle_alpha 90.000000
_cell_angle_beta 112.192808
_cell_angle_gamma 90.000000
_cell_volume 1313.505205
_symmetry_space_group_name_H-M "P 2/C"
_symmetry_group_IT_number 13
_symmetry_cell_setting 'monoclinic'
loop_
_space_group_symop_operation_xyz
x,y,z
-x,y,1/2-z
-x,-y,-z
x,-y,1/2+z
loop_
_atom_site_type_symbol
_atom_site_label
_atom_site_fract_x
_atom_site_fract_y
_atom_site_fract_z
Si Si1 0.338787 0.409389 0.401025
Si Si2 0.829019 0.776062 0.898861
Si Si3 0.500000 0.520396 0.250000
Si Si4 0.193816 0.912647 0.806531
Si Si5 0.000000 0.666130 0.750000
Si Si6 0.170192 0.962354 0.114064
Si Si7 0.500000 0.299465 0.250000
Si Si8 0.000000 0.147249 0.750000
O O1 0.362199 0.473607 0.287884
O O2 0.403067 0.430066 0.594292
O O3 0.443918 0.343843 0.377517
O O4 0.148785 0.386597 0.350198
O O5 0.784605 0.834508 0.751881
O O6 0.650934 0.745592 0.877225
O O7 0.949500 0.715881 0.875139
O O8 0.917945 0.805686 0.084677
O O9 0.000000 0.928605 0.750000
O O10 0.277306 0.972988 0.728399
O O11 0.266517 0.924044 0.008020
O O12 0.142413 0.901750 0.231523
O O13 0.000000 0.000000 0.000000
#
# Coordination Sequence:
#
# PCOD8116662 Si02
#       8
#     4   4   2   4   2   4   2   2
#     4   9  19  36  58  80 106 137 173 203 250 291
#     4  11  20  33  50  73 104 136 172 208 257 310
#     4   9  18  36  60  82 106 139 166 204 250 309
#     4  10  15  27  46  71  93 126 165 217 257 304
#     4  10  20  35  52  77 108 140 170 214 240 294
#     4  10  15  25  45  76  95 119 162 235 264 292
#     4   9  22  38  50  70 110 149 160 196 262 315
#     4  12  18  27  50  77  96 124 184 222 254 300
#
# _framework density 18.271719999999998
#
# number of rings (size 3 to 8) (size 9 to 14) (size 15 to 20)
#    0.000    2.000    6.667    0.000    0.000    2.000 
#    0.000    0.000    0.000    4.000    0.000    0.000 
#    0.000    0.000    0.000    0.000    0.000    0.000 
#
# Total GULP energy -297383.136121 kJ/mol
# GULP energy per Si atom -12390.964005 kJ/mol
# Density = 1.823013 g / cm^3
# Si number density = 18.271720 Si / 1000 Ang^3
#
#
#
# Elastic Constant Matrix: (Units=GPa)
#
#
# Indices 1 2 3 4 5 6 
#
# 1 88.0621 52.5503 43.5502 0.0000 2.2144 0.0000
# 2 52.5503 112.3541 62.4179 0.0000 1.9455 0.0000
# 3 43.5502 62.4179 104.7946 0.0000 -17.3430 0.0000
# 4 0.0000 0.0000 0.0000 28.0806 0.0000 -6.1278
# 5 2.2144 1.9455 -17.3430 0.0000 17.9022 0.0000
# 6 0.0000 0.0000 0.0000 -6.1278 0.0000 -0.2005
#
#
#
# Elastic Compliance Matrix: (Units=1/GPa)
#
#
# Indices 1 2 3 4 5 6 
#
# 1 0.017075 -0.004958 -0.005244 0.000000 -0.006654 0.000000
# 2 -0.004958 0.016788 -0.009694 0.000000 -0.010602 0.000000
# 3 -0.005244 -0.009694 0.021172 0.000000 0.022212 0.000000
# 4 0.000000 0.000000 0.000000 0.004643 0.000000 -0.141916
# 5 -0.006654 -0.010602 0.022212 0.000000 0.079352 0.000000
# 6 0.000000 0.000000 0.000000 -0.141916 0.000000 -0.650328
#
#
# Mechanical properties :
#
#
# Convention : Reuss Voigt Hill
#
# Bulk Modulus (GPa) = 65.60129 69.13863 67.36996
# Shear Modulus (GPa) = -10.71980 18.93596 4.10808
#
# Velocity S-wave (km/s) = -2.42479 3.22274 1.50107
# Velocity P-wave (km/s) = 5.30487 7.19509 6.32104
#
# Compressibility (1/GPa) = 0.01524360
#
# Stress axis : x y z
#
# Youngs Moduli (GPa) = 58.56575 59.56616 47.23317
#
# Poissons Ratio (x) = 0.29531 0.24770
# Poissons Ratio (y) = 0.29035 0.45786
# Poissons Ratio (z) = 0.30713 0.57741
#
# Static dielectric constant tensor:
#      x y z
#    x 3.324350 0.000000 -0.722950 
#    y 0.000000 3.588610 0.000000 
#    z -0.722950 0.000000 4.489900 
# 
# 
# High freq. dielectric constant tensor:
#      x y z
#    x 1.675610 0.000000 -0.027410 
#    y 0.000000 1.719570 0.000000 
#    z -0.027410 0.000000 1.705280 
# 
# From -- ./inp_files/12874.got.cif
#   From: 2010.06.25/outbox.cif.g09.slc.cpg/sg13_7_cif.got.tgz:12874.got - 2010.06.28 04:50:58.
