data_PCOD8116602
_publ_section_title
;
Structure prediction by ZEFSAII (Michael W. Deem and Ramdas Pophale) SiO2 
 PCOD8116602
Probable space group: C 2/M
;
_chemical_formula_sum "Si O2"
_cell_formula_units_Z 28
_cell_length_a 18.000000
_cell_length_b 9.000000
_cell_length_c 27.000000
_cell_angle_alpha 90.000000
_cell_angle_beta 40.000000
_cell_angle_gamma 90.000000
_cell_volume 2811.553005
_symmetry_space_group_name_H-M "C 2/M"
_symmetry_group_IT_number 12
_symmetry_cell_setting 'monoclinic'
loop_
_space_group_symop_operation_xyz
x,y,z
-x,y,-z
-x,-y,-z
x,-y,z
1/2+x,1/2+y,z
1/2-x,1/2+y,-z
1/2-x,1/2-y,-z
1/2+x,1/2-y,z
loop_
_atom_site_type_symbol
_atom_site_label
_atom_site_fract_x
_atom_site_fract_y
_atom_site_fract_z
Si Si1 0.356359 0.322858 0.673404
Si Si2 0.269661 0.673438 0.352023
Si Si3 0.748455 0.666033 0.912149
Si Si4 0.062350 0.333701 0.520790
Si Si5 0.185904 0.166154 0.833320
Si Si6 0.023808 0.825863 0.190653
Si Si7 0.542901 0.177093 0.076071
O O1 0.356756 0.500000 0.680219
O O2 0.277628 0.277390 0.667320
O O3 0.490669 0.270304 0.595903
O O4 0.297465 0.245920 0.751400
O O5 0.244563 0.500000 0.352299
O O6 0.197558 0.713529 0.439831
O O7 0.408584 0.701809 0.283739
O O8 0.777069 0.500000 0.919713
O O9 0.696242 0.641651 0.885699
O O10 0.860703 0.766877 0.842353
O O11 0.659056 0.747930 0.994785
O O12 0.059730 0.500000 0.544341
O O13 0.000000 0.327626 0.500000
O O14 0.072891 0.268522 0.890956
O O15 0.168910 0.000000 0.817673
O O16 0.020963 0.727311 0.143104
O O17 0.034065 0.000000 0.172916
O O18 0.554933 0.000000 0.065294
#
# Coordination Sequence:
#
# PCOD8116602 Si02
#       7
#     8   8   8   8   8   8   8
#     4  11  20  30  51  83 114 144 181 231 280 326
#     4   9  18  33  54  79 110 149 186 223 274 333
#     4  11  25  42  59  81 112 150 190 233 283 336
#     4   8  15  29  49  75 109 146 182 222 272 331
#     4  11  23  40  60  81 111 151 190 231 282 338
#     4  11  22  38  61  85 115 151 188 231 278 333
#     4  12  24  39  61  87 113 143 186 237 283 332
#
# _framework density 9.9589090000000002
#
# number of rings (size 3 to 8) (size 9 to 14) (size 15 to 20)
#    0.000    1.571    1.429    5.571    0.000    7.143 
#    0.000    0.000    0.000    0.857    0.000    0.000 
#    0.000    0.000    0.000    0.000    0.000    0.000 
#
# Total GULP energy -346877.193228 kJ/mol
# GULP energy per Si atom -12388.471187 kJ/mol
# Density = 0.993624 g / cm^3
# Si number density = 9.958909 Si / 1000 Ang^3
#
#
#
# Elastic Constant Matrix: (Units=GPa)
#
#
# Indices 1 2 3 4 5 6 
#
# 1 35.4097 12.7867 19.9555 0.0000 -2.8258 -0.0001
# 2 12.7867 155.1602 59.8859 -0.0002 -2.0829 -0.0006
# 3 19.9555 59.8859 178.6340 0.0000 -33.9958 0.0000
# 4 0.0000 -0.0002 0.0000 40.5605 0.0001 -7.9625
# 5 -2.8258 -2.0829 -33.9958 0.0001 -1.0459 -0.0001
# 6 -0.0001 -0.0006 0.0000 -7.9625 -0.0001 20.1289
#
#
#
# Elastic Compliance Matrix: (Units=1/GPa)
#
#
# Indices 1 2 3 4 5 6 
#
# 1 0.030356 -0.001512 -0.002494 0.000000 0.002052 0.000000
# 2 -0.001512 0.006895 -0.000554 0.000000 0.008350 0.000000
# 3 -0.002494 -0.000554 0.001051 0.000000 -0.026331 0.000000
# 4 0.000000 0.000000 0.000000 0.026730 0.000000 0.010574
# 5 0.002052 0.008350 -0.026331 0.000000 -0.122444 0.000000
# 6 0.000000 0.000000 0.000000 0.010574 0.000000 0.053862
#
#
# Mechanical properties :
#
#
# Convention : Reuss Voigt Hill
#
# Bulk Modulus (GPa) = 34.26499 61.60667 47.93583
# Shear Modulus (GPa) = 326.84259 30.36710 178.60485
#
# Velocity S-wave (km/s) = 12.82388 3.90887 9.47974
# Velocity P-wave (km/s) = 15.37887 7.16728 11.99749
#
# Compressibility (1/GPa) = 0.02918430
#
# Stress axis : x y z
#
# Youngs Moduli (GPa) = 32.94262 145.02590 951.22471
#
# Poissons Ratio (x) = 0.21921 2.37216
# Poissons Ratio (y) = 0.04979 0.52670
# Poissons Ratio (z) = 0.08215 0.08030
#
# Static dielectric constant tensor:
#      x y z
#    x 3.639340 0.000000 -0.595700 
#    y 0.000000 4.364960 0.000000 
#    z -0.595700 0.000000 4.542000 
# 
# 
# High freq. dielectric constant tensor:
#      x y z
#    x 1.729720 0.000000 -0.019660 
#    y 0.000000 1.796200 0.000000 
#    z -0.019660 0.000000 1.819860 
# 
# From -- ./inp_files/362949.got.cif
#   From: 2010.06.25/outbox.ucp.g09.slc.cvg/sg12_182_cif.got.tgz:362949.got - 2010.06.28 13:50:54.
