data_PCOD8116047
_publ_section_title
;
Structure prediction by ZEFSAII (Michael W. Deem and Ramdas Pophale) SiO2 
 PCOD8116047
Probable space group: C 2/M
;
_chemical_formula_sum "Si O2"
_cell_formula_units_Z 48
_cell_length_a 18.194125
_cell_length_b 9.760823
_cell_length_c 23.544539
_cell_angle_alpha 90.000000
_cell_angle_beta 136.428210
_cell_angle_gamma 90.000000
_cell_volume 2881.991606
_symmetry_space_group_name_H-M "C 2/M"
_symmetry_group_IT_number 12
_symmetry_cell_setting 'monoclinic'
loop_
_space_group_symop_operation_xyz
x,y,z
-x,y,-z
-x,-y,-z
x,-y,z
1/2+x,1/2+y,z
1/2-x,1/2+y,-z
1/2-x,1/2-y,-z
1/2+x,1/2-y,z
loop_
_atom_site_type_symbol
_atom_site_label
_atom_site_fract_x
_atom_site_fract_y
_atom_site_fract_z
Si Si1 0.305353 0.660862 0.578621
Si Si2 0.960022 0.162602 0.260394
Si Si3 0.217759 0.841067 0.752805
Si Si4 0.961438 0.341854 0.916769
Si Si5 0.244370 0.150790 0.324220
Si Si6 0.003855 0.847003 0.841904
O O1 0.301001 0.500000 0.560587
O O2 0.250000 0.750000 0.500000
O O3 0.427152 0.714131 0.651785
O O4 0.242604 0.689503 0.602360
O O5 0.864254 0.216306 0.246139
O O6 0.940390 0.212133 0.184252
O O7 0.963663 0.000000 0.259979
O O8 0.335580 0.814460 0.842514
O O9 0.196029 0.760804 0.681982
O O10 0.197371 0.000000 0.728495
O O11 0.989191 0.500000 0.921187
O O12 0.027071 0.254185 0.907272
O O13 0.000000 0.294054 0.000000
O O14 0.120633 0.147401 0.240404
O O15 0.293478 0.000000 0.340222
O O16 0.045345 0.000000 0.880448
#
# Coordination Sequence:
#
# PCOD8116047 Si02
#       6
#     8   8   8   8   8   8
#     4   9  17  30  47  65  86 111 140 175 212 250
#     4   8  15  29  47  65  84 109 143 179 210 242
#     4   9  16  28  47  65  82 111 147 175 204 249
#     4   9  17  28  42  63  90 114 137 172 215 252
#     4   8  15  28  44  62  85 111 138 172 212 249
#     4   8  14  27  46  62  79 109 146 176 203 246
#
# _framework density 16.655149999999999
#
# number of rings (size 3 to 8) (size 9 to 14) (size 15 to 20)
#    0.000    3.500    0.000    2.000    0.000    1.000 
#    0.000    5.833    0.000    5.000    0.000    0.000 
#    0.000    0.000    0.000    0.000    0.000    0.000 
#
# Total GULP energy -297456.246389 kJ/mol
# GULP energy per Si atom -12394.010266 kJ/mol
# Density = 1.661724 g / cm^3
# Si number density = 16.655150 Si / 1000 Ang^3
#
#
#
# Elastic Constant Matrix: (Units=GPa)
#
#
# Indices 1 2 3 4 5 6 
#
# 1 129.2380 59.1421 46.6077 0.0000 -29.5653 0.0000
# 2 59.1421 70.6144 48.1588 0.0000 -24.3812 0.0000
# 3 46.6077 48.1588 82.9622 0.0000 -31.5683 0.0000
# 4 0.0000 0.0000 0.0000 25.8704 0.0000 -10.4810
# 5 -29.5653 -24.3812 -31.5683 0.0000 28.1720 0.0000
# 6 0.0000 0.0000 0.0000 -10.4810 0.0000 24.7085
#
#
#
# Elastic Compliance Matrix: (Units=1/GPa)
#
#
# Indices 1 2 3 4 5 6 
#
# 1 0.013252 -0.009073 0.000220 0.000000 0.006301 0.000000
# 2 -0.009073 0.030971 -0.010992 0.000000 0.004964 0.000000
# 3 0.000220 -0.010992 0.025765 0.000000 0.019588 0.000000
# 4 0.000000 0.000000 0.000000 0.046675 0.000000 0.019799
# 5 0.006301 0.004964 0.019588 0.000000 0.068356 0.000000
# 6 0.000000 0.000000 0.000000 0.019799 0.000000 0.048870
#
#
# Mechanical properties :
#
#
# Convention : Reuss Voigt Hill
#
# Bulk Modulus (GPa) = 33.00687 65.62576 49.31632
# Shear Modulus (GPa) = 17.62551 24.34393 20.98472
#
# Velocity S-wave (km/s) = 3.25662 3.82730 3.55343
# Velocity P-wave (km/s) = 5.83109 7.68239 6.81985
#
# Compressibility (1/GPa) = 0.03029672
#
# Stress axis : x y z
#
# Youngs Moduli (GPa) = 75.45987 32.28789 38.81273
#
# Poissons Ratio (x) = 0.29296 -0.00853
# Poissons Ratio (y) = 0.68467 0.42664
# Poissons Ratio (z) = -0.01658 0.35492
#
# Static dielectric constant tensor:
#      x y z
#    x 3.461430 0.000000 -0.271050 
#    y 0.000000 3.118300 0.000000 
#    z -0.271050 0.000000 2.947030 
# 
# 
# High freq. dielectric constant tensor:
#      x y z
#    x 1.639110 0.000000 -0.022940 
#    y 0.000000 1.625390 0.000000 
#    z -0.022940 0.000000 1.618650 
# 
# From -- ./inp_files/212569.got.cif
#   From: 2010.06.25/outbox.cif.g09.slc.cpg/sg12_107_cif.got.tgz:212569.got - 2010.06.28 00:19:55.
