data_PCOD8116951
_publ_section_title
;
Structure prediction by ZEFSAII (Michael W. Deem and Ramdas Pophale) SiO2 
 PCOD8116951
Probable space group: P 2/C
;
_chemical_formula_sum "Si O2"
_cell_formula_units_Z 28
_cell_length_a 14.880681
_cell_length_b 8.212990
_cell_length_c 21.267582
_cell_angle_alpha 90.000000
_cell_angle_beta 147.209694
_cell_angle_gamma 90.000000
_cell_volume 1407.646471
_symmetry_space_group_name_H-M "P 2/C"
_symmetry_group_IT_number 13
_symmetry_cell_setting 'monoclinic'
loop_
_space_group_symop_operation_xyz
x,y,z
-x,y,1/2-z
-x,-y,-z
x,-y,1/2+z
loop_
_atom_site_type_symbol
_atom_site_label
_atom_site_fract_x
_atom_site_fract_y
_atom_site_fract_z
Si Si1 0.270475 0.786124 0.722350
Si Si2 0.852899 0.300596 0.704766
Si Si3 0.993332 0.402712 0.133726
Si Si4 0.831714 0.324773 0.466220
Si Si5 0.903938 0.908971 0.348325
Si Si6 0.118788 0.091934 0.379025
Si Si7 0.645516 0.808942 0.978013
O O1 0.148728 0.696746 0.698433
O O2 0.278568 0.686437 0.661546
O O3 0.449903 0.795719 0.858677
O O4 0.214952 0.975344 0.680043
O O5 0.926668 0.472594 0.769673
O O6 0.803361 0.191776 0.735874
O O7 0.695851 0.310342 0.565692
O O8 0.000000 0.213135 0.750000
O O9 0.863304 0.284858 0.094057
O O10 0.891148 0.492316 0.017759
O O11 0.728921 0.255553 0.463808
O O12 0.997884 0.218468 0.549812
O O13 0.040436 0.018686 0.395443
O O14 0.293244 0.995212 0.470753
O O15 0.000000 0.074472 0.250000
#
# Coordination Sequence:
#
# PCOD8116951 Si02
#       7
#     4   4   4   4   4   4   4
#     4  11  23  36  54  92 119 150 196 245 296 333
#     4  11  17  38  61  84 112 153 197 235 295 358
#     4  10  22  35  61  86 111 156 201 240 288 352
#     4  10  20  40  61  77 116 168 200 227 279 363
#     4   9  18  34  59  82 106 153 195 234 282 342
#     4  10  17  34  58  87 109 146 196 237 285 360
#     4  11  21  36  61  85 120 150 190 252 295 342
#
# _framework density 19.891356999999999
#
# number of rings (size 3 to 8) (size 9 to 14) (size 15 to 20)
#    0.000    1.714    5.714    1.714    0.000    1.143 
#    0.000    2.857    0.000    5.143    0.000    0.000 
#    0.000    0.000    0.000    0.000    0.000    0.000 
#
# Total GULP energy -346943.979251 kJ/mol
# GULP energy per Si atom -12390.856402 kJ/mol
# Density = 1.984608 g / cm^3
# Si number density = 19.891357 Si / 1000 Ang^3
#
#
#
# Elastic Constant Matrix: (Units=GPa)
#
#
# Indices 1 2 3 4 5 6 
#
# 1 41.0725 22.4428 23.2292 0.0000 -5.6543 0.0000
# 2 22.4428 108.1708 31.3108 0.0000 -1.7381 0.0000
# 3 23.2292 31.3108 98.6262 0.0000 -8.8343 0.0000
# 4 0.0000 0.0000 0.0000 17.4113 0.0000 -3.2850
# 5 -5.6543 -1.7381 -8.8343 0.0000 28.7938 0.0000
# 6 0.0000 0.0000 0.0000 -3.2850 0.0000 20.8136
#
#
#
# Elastic Compliance Matrix: (Units=1/GPa)
#
#
# Indices 1 2 3 4 5 6 
#
# 1 0.030496 -0.004722 -0.005319 0.000000 0.004072 0.000000
# 2 -0.004722 0.010916 -0.002444 0.000000 -0.001018 0.000000
# 3 -0.005319 -0.002444 0.012402 0.000000 0.002613 0.000000
# 4 0.000000 0.000000 0.000000 0.059197 0.000000 0.009343
# 5 0.004072 -0.001018 0.002613 0.000000 0.036269 0.000000
# 6 0.000000 0.000000 0.000000 0.009343 0.000000 0.049520
#
#
# Mechanical properties :
#
#
# Convention : Reuss Voigt Hill
#
# Bulk Modulus (GPa) = 34.67044 44.64835 39.65940
# Shear Modulus (GPa) = 21.42381 24.79619 23.11000
#
# Velocity S-wave (km/s) = 3.28539 3.53453 3.41223
# Velocity P-wave (km/s) = 5.64442 6.25716 5.95867
#
# Compressibility (1/GPa) = 0.02884301
#
# Stress axis : x y z
#
# Youngs Moduli (GPa) = 32.79104 91.61237 80.63150
#
# Poissons Ratio (x) = 0.43261 0.42886
# Poissons Ratio (y) = 0.15485 0.19709
# Poissons Ratio (z) = 0.17441 0.22393
#
# Static dielectric constant tensor:
#      x y z
#    x 3.413720 0.000000 -0.153560 
#    y 0.000000 4.068150 0.000000 
#    z -0.153560 0.000000 3.592110 
# 
# 
# High freq. dielectric constant tensor:
#      x y z
#    x 1.753050 0.000000 -0.027080 
#    y 0.000000 1.783800 0.000000 
#    z -0.027080 0.000000 1.758940 
# 
# From -- ./inp_files/80026.got.cif
#   From: 2010.06.25/outbox.cif.g09.slc.cpg/sg13_41_cif.got.tgz:80026.got - 2010.06.28 04:50:58.
