data_PCOD8116010
_publ_section_title
;
Structure prediction by ZEFSAII (Michael W. Deem and Ramdas Pophale) SiO2 
 PCOD8116010
Probable space group: C 2/M
;
_chemical_formula_sum "Si O2"
_cell_formula_units_Z 56
_cell_length_a 24.214677
_cell_length_b 9.906173
_cell_length_c 16.292989
_cell_angle_alpha 90.000000
_cell_angle_beta 106.080793
_cell_angle_gamma 90.000000
_cell_volume 3755.354322
_symmetry_space_group_name_H-M "C 2/M"
_symmetry_group_IT_number 12
_symmetry_cell_setting 'monoclinic'
loop_
_space_group_symop_operation_xyz
x,y,z
-x,y,-z
-x,-y,-z
x,-y,z
1/2+x,1/2+y,z
1/2-x,1/2+y,-z
1/2-x,1/2-y,-z
1/2+x,1/2-y,z
loop_
_atom_site_type_symbol
_atom_site_label
_atom_site_fract_x
_atom_site_fract_y
_atom_site_fract_z
Si Si1 0.734464 0.153908 0.876249
Si Si2 0.673489 0.155887 0.022142
Si Si3 0.544587 0.160450 0.951589
Si Si4 0.024110 0.656456 0.760363
Si Si5 0.639493 0.153814 0.708481
Si Si6 0.591087 0.348813 0.566691
Si Si7 0.473304 0.651750 0.616934
O O1 0.788590 0.254063 0.900699
O O2 0.698059 0.188078 0.780225
O O3 0.756864 0.000000 0.883665
O O4 0.693549 0.176638 0.937287
O O5 0.679011 0.000000 0.051443
O O6 0.608357 0.209850 0.001338
O O7 0.525924 0.211448 0.854069
O O8 0.544792 0.000000 0.950282
O O9 0.500000 0.218500 0.000000
O O10 0.006077 0.500000 0.748077
O O11 0.086742 0.680482 0.748001
O O12 0.975540 0.742674 0.692773
O O13 0.636545 0.246656 0.626163
O O14 0.638888 0.000000 0.677794
O O15 0.616535 0.500000 0.581736
O O16 0.578537 0.309103 0.466629
O O17 0.532174 0.340956 0.591718
O O18 0.463983 0.500000 0.647173
#
# Coordination Sequence:
#
# PCOD8116010 Si02
#       7
#     8   8   8   8   8   8   8
#     4   9  16  26  39  56  80 105 129 162 199 234
#     4   9  16  27  41  57  76 101 135 167 195 232
#     4   9  16  27  43  60  79 104 135 171 204 229
#     4   9  15  24  38  55  74  99 133 165 191 227
#     4   9  15  23  36  54  78 103 128 159 192 228
#     4   8  14  23  34  50  74 102 130 156 185 227
#     4   8  14  24  35  49  73 103 129 156 190 228
#
# _framework density 14.912042
#
# number of rings (size 3 to 8) (size 9 to 14) (size 15 to 20)
#    0.000    3.286    1.429    0.857    0.000    1.143 
#    0.000    3.571    0.000    1.714    0.000    0.000 
#    0.000    1.143    0.000    2.571    0.000    4.000 
#
# Total GULP energy -347057.908347 kJ/mol
# GULP energy per Si atom -12394.925298 kJ/mol
# Density = 1.487810 g / cm^3
# Si number density = 14.912042 Si / 1000 Ang^3
#
#
#
# Elastic Constant Matrix: (Units=GPa)
#
#
# Indices 1 2 3 4 5 6 
#
# 1 54.5067 33.9692 44.0949 0.0000 10.5745 0.0000
# 2 33.9692 80.1306 72.8955 0.0000 18.4752 0.0000
# 3 44.0949 72.8955 123.3614 0.0000 24.6769 0.0000
# 4 0.0000 0.0000 0.0000 28.3676 0.0000 9.4006
# 5 10.5745 18.4752 24.6769 0.0000 16.9271 0.0000
# 6 0.0000 0.0000 0.0000 9.4006 0.0000 12.2783
#
#
#
# Elastic Compliance Matrix: (Units=1/GPa)
#
#
# Indices 1 2 3 4 5 6 
#
# 1 0.027040 -0.005548 -0.005956 0.000000 -0.002154 0.000000
# 2 -0.005548 0.029078 -0.013473 0.000000 -0.008630 0.000000
# 3 -0.005956 -0.013473 0.020484 0.000000 -0.011437 0.000000
# 4 0.000000 0.000000 0.000000 0.047236 0.000000 -0.036165
# 5 -0.002154 -0.008630 -0.011437 0.000000 0.086514 0.000000
# 6 0.000000 0.000000 0.000000 -0.036165 0.000000 0.109134
#
#
# Mechanical properties :
#
#
# Convention : Reuss Voigt Hill
#
# Bulk Modulus (GPa) = 37.52616 62.21310 49.86963
# Shear Modulus (GPa) = 13.21620 18.65053 15.93336
#
# Velocity S-wave (km/s) = 2.98027 3.54036 3.27232
# Velocity P-wave (km/s) = 6.08788 7.65002 6.91322
#
# Compressibility (1/GPa) = 0.02664808
#
# Stress axis : x y z
#
# Youngs Moduli (GPa) = 36.98195 34.39058 48.81781
#
# Poissons Ratio (x) = 0.19080 0.29077
# Poissons Ratio (y) = 0.20518 0.65772
# Poissons Ratio (z) = 0.22027 0.46334
#
# Static dielectric constant tensor:
#      x y z
#    x 2.536500 0.000000 0.184180 
#    y 0.000000 2.897830 0.000000 
#    z 0.184180 0.000000 3.075220 
# 
# 
# High freq. dielectric constant tensor:
#      x y z
#    x 1.514920 0.000000 0.023510 
#    y 0.000000 1.562340 0.000000 
#    z 0.023510 0.000000 1.571950 
# 
# From -- ./inp_files/239364.got.cif
#   From: 2010.06.25/outbox.cif.g09.slc.cpg/sg12_120_cif.got.tgz:239364.got - 2010.06.28 00:19:55.
