data_PCOD8116073
_publ_section_title
;
Structure prediction by ZEFSAII (Michael W. Deem and Ramdas Pophale) SiO2 
 PCOD8116073
Probable space group: C 2/M
;
_chemical_formula_sum "Si O2"
_cell_formula_units_Z 64
_cell_length_a 18.981485
_cell_length_b 9.201257
_cell_length_c 21.244039
_cell_angle_alpha 90.000000
_cell_angle_beta 89.939374
_cell_angle_gamma 90.000000
_cell_volume 3710.344150
_symmetry_space_group_name_H-M "C 2/M"
_symmetry_group_IT_number 12
_symmetry_cell_setting 'monoclinic'
loop_
_space_group_symop_operation_xyz
x,y,z
-x,y,-z
-x,-y,-z
x,-y,z
1/2+x,1/2+y,z
1/2-x,1/2+y,-z
1/2-x,1/2-y,-z
1/2+x,1/2-y,z
loop_
_atom_site_type_symbol
_atom_site_label
_atom_site_fract_x
_atom_site_fract_y
_atom_site_fract_z
Si Si1 0.796695 0.829609 0.551238
Si Si2 0.386637 0.669809 0.903049
Si Si3 0.130085 0.672411 0.762267
Si Si4 0.470919 0.668424 0.151117
Si Si5 0.265912 0.831597 0.130397
Si Si6 0.418060 0.172219 0.496278
Si Si7 0.334456 0.831287 0.374188
Si Si8 0.361709 0.331850 0.041683
O O1 0.750000 0.750000 0.500000
O O2 0.873887 0.752993 0.552348
O O3 0.749862 0.807082 0.614631
O O4 0.805456 0.000000 0.535804
O O5 0.401908 0.500000 0.911162
O O6 0.451996 0.734555 0.863845
O O7 0.316778 0.701874 0.862649
O O8 0.380778 0.735461 0.973487
O O9 0.121212 0.500000 0.760943
O O10 0.059234 0.742371 0.789885
O O11 0.195831 0.720264 0.805901
O O12 0.144236 0.738595 0.692771
O O13 0.472145 0.500000 0.170782
O O14 0.426859 0.693786 0.087878
O O15 0.293613 0.748602 0.069056
O O16 0.280292 0.000000 0.117957
O O17 0.500000 0.217584 0.500000
O O18 0.384482 0.229306 0.430345
O O19 0.408794 0.000000 0.505165
O O20 0.351096 0.000000 0.370416
O O21 0.341464 0.500000 0.035264
#
# Coordination Sequence:
#
# PCOD8116073 Si02
#       8
#     8   8   8   8   8   8   8   8
#     4   9  16  28  47  70  94 120 151 184 218 258
#     4   9  16  27  43  62  83 108 138 173 217 262
#     4   9  17  31  47  61  82 115 149 174 206 256
#     4   9  17  29  44  62  84 110 142 178 213 253
#     4   9  17  28  43  62  83 108 139 176 212 249
#     4   9  17  30  48  70  95 120 146 181 226 268
#     4   8  15  29  48  65  84 116 150 175 207 259
#     4   9  16  27  44  62  81 108 139 172 214 262
#
# _framework density 17.249072999999999
#
# number of rings (size 3 to 8) (size 9 to 14) (size 15 to 20)
#    0.000    3.125    0.000    1.875    0.000    1.750 
#    0.000    5.625    0.000    4.500    0.000    0.000 
#    0.000    0.000    0.000    0.000    0.000    0.000 
#
# Total GULP energy -396561.981125 kJ/mol
# GULP energy per Si atom -12392.561910 kJ/mol
# Density = 1.720981 g / cm^3
# Si number density = 17.249073 Si / 1000 Ang^3
#
#
#
# Elastic Constant Matrix: (Units=GPa)
#
#
# Indices 1 2 3 4 5 6 
#
# 1 138.1762 34.5232 58.5454 0.0000 -21.6831 0.0000
# 2 34.5232 34.9992 22.9393 0.0000 -8.3549 0.0000
# 3 58.5454 22.9393 107.2910 0.0000 -21.7228 0.0000
# 4 0.0000 0.0000 0.0000 17.9928 0.0000 -6.5742
# 5 -21.6831 -8.3549 -21.7228 0.0000 21.1581 0.0000
# 6 0.0000 0.0000 0.0000 -6.5742 0.0000 25.4996
#
#
#
# Elastic Compliance Matrix: (Units=1/GPa)
#
#
# Indices 1 2 3 4 5 6 
#
# 1 0.011490 -0.007783 -0.003590 0.000000 0.005016 0.000000
# 2 -0.007783 0.039433 -0.003341 0.000000 0.004165 0.000000
# 3 -0.003590 -0.003341 0.013864 0.000000 0.009235 0.000000
# 4 0.000000 0.000000 0.000000 0.061358 0.000000 0.015819
# 5 0.005016 0.004165 0.009235 0.000000 0.063530 0.000000
# 6 0.000000 0.000000 0.000000 0.015819 0.000000 0.043295
#
#
# Mechanical properties :
#
#
# Convention : Reuss Voigt Hill
#
# Bulk Modulus (GPa) = 28.28154 56.94244 42.61199
# Shear Modulus (GPa) = 18.23595 23.89399 21.06497
#
# Velocity S-wave (km/s) = 3.25501 3.72591 3.49839
# Velocity P-wave (km/s) = 5.52796 7.18286 6.40905
#
# Compressibility (1/GPa) = 0.03535875
#
# Stress axis : x y z
#
# Youngs Moduli (GPa) = 87.03194 25.35921 72.13185
#
# Poissons Ratio (x) = 0.19738 0.25896
# Poissons Ratio (y) = 0.67740 0.24096
# Poissons Ratio (z) = 0.31245 0.08471
#
# Static dielectric constant tensor:
#      x y z
#    x 3.476670 0.000000 -0.216030 
#    y 0.000000 3.028280 0.000000 
#    z -0.216030 0.000000 3.340970 
# 
# 
# High freq. dielectric constant tensor:
#      x y z
#    x 1.670440 0.000000 -0.014040 
#    y 0.000000 1.638160 0.000000 
#    z -0.014040 0.000000 1.647970 
# 
# From -- ./inp_files/341981.got.cif
#   From: 2010.06.25/outbox.cif.g09.slc.cpg/sg12_171_cif.got.tgz:341981.got - 2010.06.28 00:19:55.
