data_PCOD8116653
_publ_section_title
;
Structure prediction by ZEFSAII (Michael W. Deem and Ramdas Pophale) SiO2 
 PCOD8116653
Probable space group: P 2/C
;
_chemical_formula_sum "Si O2"
_cell_formula_units_Z 30
_cell_length_a 26.721839
_cell_length_b 12.082601
_cell_length_c 13.511044
_cell_angle_alpha 90.000000
_cell_angle_beta 20.405835
_cell_angle_gamma 90.000000
_cell_volume 1520.992775
_symmetry_space_group_name_H-M "P 2/C"
_symmetry_group_IT_number 13
_symmetry_cell_setting 'monoclinic'
loop_
_space_group_symop_operation_xyz
x,y,z
-x,y,1/2-z
-x,-y,-z
x,-y,1/2+z
loop_
_atom_site_type_symbol
_atom_site_label
_atom_site_fract_x
_atom_site_fract_y
_atom_site_fract_z
Si Si1 0.120505 0.804838 0.701056
Si Si2 0.642232 0.370948 0.739665
Si Si3 0.168169 0.183232 0.656909
Si Si4 0.152553 0.018110 0.519888
Si Si5 0.670154 0.115360 0.949067
Si Si6 0.342253 0.607285 0.855331
Si Si7 0.704386 0.358091 0.840383
Si Si8 0.000000 0.661857 0.750000
O O1 0.263124 0.734621 0.469780
O O2 0.041880 0.737406 0.763277
O O3 0.164670 0.925257 0.582304
O O4 0.002707 0.823356 0.005519
O O5 0.704466 0.479954 0.571480
O O6 0.630672 0.399695 0.877990
O O7 0.470738 0.356285 0.041299
O O8 0.192278 0.130977 0.503525
O O9 0.271744 0.121162 0.545321
O O10 0.209947 0.312670 0.575759
O O11 0.000000 0.024512 0.750000
O O12 0.266632 0.993194 0.221644
O O13 0.726806 0.224784 0.787621
O O14 0.500000 0.110551 0.250000
O O15 0.382544 0.617462 0.898343
O O16 0.865803 0.411070 0.537804
#
# Coordination Sequence:
#
# PCOD8116653 Si02
#       8
#     4   4   4   4   4   4   4   2
#     4  11  18  36  57  87 108 152 198 245 285 343
#     4  10  21  35  63  85 117 152 199 245 291 352
#     4  11  23  38  61  87 124 157 197 248 300 358
#     4  12  22  39  61  85 121 157 199 247 302 354
#     4  11  21  36  59  89 114 151 207 249 291 348
#     4  10  21  39  55  90 120 153 193 241 302 354
#     4  10  17  33  58  82 109 147 192 244 283 334
#     4  10  14  30  56  82 106 130 188 248 274 318
#
# _framework density 19.723959000000001
#
# number of rings (size 3 to 8) (size 9 to 14) (size 15 to 20)
#    0.000    1.333    7.333    2.400    0.000    1.067 
#    0.000    1.333    1.467    0.000    0.000    0.000 
#    0.000    0.000    0.000    0.000    0.000    0.000 
#
# Total GULP energy -371653.711946 kJ/mol
# GULP energy per Si atom -12388.457065 kJ/mol
# Density = 1.967907 g / cm^3
# Si number density = 19.723959 Si / 1000 Ang^3
#
#
#
# Elastic Constant Matrix: (Units=GPa)
#
#
# Indices 1 2 3 4 5 6 
#
# 1 53.4337 29.6205 14.5156 0.0000 6.9543 0.0000
# 2 29.6205 58.3490 13.4869 0.0000 7.6893 0.0000
# 3 14.5156 13.4869 108.9304 0.0000 -6.7725 0.0000
# 4 0.0000 0.0000 0.0000 42.8194 0.0000 -8.0528
# 5 6.9543 7.6893 -6.7725 0.0000 24.6242 0.0000
# 6 0.0000 0.0000 0.0000 -8.0528 0.0000 36.7864
#
#
#
# Elastic Compliance Matrix: (Units=1/GPa)
#
#
# Indices 1 2 3 4 5 6 
#
# 1 0.026843 -0.012530 -0.002293 0.000000 -0.004299 0.000000
# 2 -0.012530 0.024480 -0.001645 0.000000 -0.004558 0.000000
# 3 -0.002293 -0.001645 0.009931 0.000000 0.003893 0.000000
# 4 0.000000 0.000000 0.000000 0.024357 0.000000 0.005332
# 5 -0.004299 -0.004558 0.003893 0.000000 0.044318 0.000000
# 6 0.000000 0.000000 0.000000 0.005332 0.000000 0.028351
#
#
# Mechanical properties :
#
#
# Convention : Reuss Voigt Hill
#
# Bulk Modulus (GPa) = 35.31194 37.32877 36.32035
# Shear Modulus (GPa) = 24.91832 31.71867 28.31849
#
# Velocity S-wave (km/s) = 3.55822 4.01450 3.79323
# Velocity P-wave (km/s) = 5.90112 6.36042 6.13507
#
# Compressibility (1/GPa) = 0.02831904
#
# Stress axis : x y z
#
# Youngs Moduli (GPa) = 37.25343 40.84982 100.69139
#
# Poissons Ratio (x) = 0.51186 0.23087
# Poissons Ratio (y) = 0.46680 0.16559
# Poissons Ratio (z) = 0.08542 0.06718
#
# Static dielectric constant tensor:
#      x y z
#    x 3.366160 0.000000 0.019340 
#    y 0.000000 3.355560 0.000000 
#    z 0.019340 0.000000 3.904620 
# 
# 
# High freq. dielectric constant tensor:
#      x y z
#    x 1.743960 0.000000 -0.001300 
#    y 0.000000 1.731550 0.000000 
#    z -0.001300 0.000000 1.788660 
# 
# From -- ./inp_files/59987.got.cif
#   From: 2010.06.25/outbox.cif.g09.slc.cpg/sg13_30_cif.got.tgz:59987.got - 2010.06.28 04:50:58.
