data_PCOD8116080
_publ_section_title
;
Structure prediction by ZEFSAII (Michael W. Deem and Ramdas Pophale) SiO2 
 PCOD8116080
Probable space group: C 2/M
;
_chemical_formula_sum "Si O2"
_cell_formula_units_Z 56
_cell_length_a 28.505397
_cell_length_b 9.552433
_cell_length_c 14.161381
_cell_angle_alpha 90.000000
_cell_angle_beta 121.760650
_cell_angle_gamma 90.000000
_cell_volume 3278.654011
_symmetry_space_group_name_H-M "C 2/M"
_symmetry_group_IT_number 12
_symmetry_cell_setting 'monoclinic'
loop_
_space_group_symop_operation_xyz
x,y,z
-x,y,-z
-x,-y,-z
x,-y,z
1/2+x,1/2+y,z
1/2-x,1/2+y,-z
1/2-x,1/2-y,-z
1/2+x,1/2-y,z
loop_
_atom_site_type_symbol
_atom_site_label
_atom_site_fract_x
_atom_site_fract_y
_atom_site_fract_z
Si Si1 0.727258 0.660178 0.890514
Si Si2 0.576635 0.834904 0.511956
Si Si3 0.881240 0.157456 0.125105
Si Si4 0.305373 0.338773 0.871761
Si Si5 0.175798 0.336620 0.490962
Si Si6 0.541864 0.164927 0.678366
Si Si7 0.698513 0.658804 0.342790
O O1 0.748746 0.500000 0.915789
O O2 0.661231 0.663865 0.831190
O O3 0.751105 0.739403 0.823654
O O4 0.750000 0.750000 0.000000
O O5 0.631263 0.775442 0.518411
O O6 0.522651 0.794386 0.393875
O O7 0.571016 0.778809 0.613083
O O8 0.580298 0.000000 0.523706
O O9 0.931956 0.258680 0.203116
O O10 0.903699 0.000000 0.136616
O O11 0.852662 0.206180 0.996467
O O12 0.287631 0.500000 0.872318
O O13 0.327663 0.320570 0.788915
O O14 0.165561 0.500000 0.462333
O O15 0.236491 0.304774 0.594981
O O16 0.167074 0.259675 0.381656
O O17 0.550324 0.000000 0.700197
O O18 0.690823 0.500000 0.370012
#
# Coordination Sequence:
#
# PCOD8116080 Si02
#       7
#     8   8   8   8   8   8   8
#     4   9  17  28  41  61  91 124 156 188 222 268
#     4   8  16  31  49  71  93 117 153 196 234 267
#     4   9  18  30  42  64  97 124 148 186 232 271
#     4   9  18  31  46  65  94 126 155 191 230 275
#     4   9  17  31  50  69  93 121 150 192 238 275
#     4   9  17  30  50  71  91 119 158 192 223 278
#     4   9  18  31  48  71  94 121 156 188 228 282
#
# _framework density 17.080179000000001
#
# number of rings (size 3 to 8) (size 9 to 14) (size 15 to 20)
#    0.000    3.143    0.000    2.143    2.000    3.429 
#    0.000    2.857    0.000    0.857    0.000    6.000 
#    0.000    0.000    0.000    0.000    0.000    0.000 
#
# Total GULP energy -346988.336912 kJ/mol
# GULP energy per Si atom -12392.440604 kJ/mol
# Density = 1.704130 g / cm^3
# Si number density = 17.080179 Si / 1000 Ang^3
#
#
#
# Elastic Constant Matrix: (Units=GPa)
#
#
# Indices 1 2 3 4 5 6 
#
# 1 73.2343 17.7485 24.6685 0.0000 -4.9800 0.0000
# 2 17.7485 53.3319 28.7120 0.0000 0.2208 0.0000
# 3 24.6685 28.7120 88.1783 0.0000 -1.7698 0.0000
# 4 0.0000 0.0000 0.0000 27.6836 0.0000 -0.3936
# 5 -4.9800 0.2208 -1.7698 0.0000 18.9314 0.0000
# 6 0.0000 0.0000 0.0000 -0.3936 0.0000 21.8232
#
#
#
# Elastic Compliance Matrix: (Units=1/GPa)
#
#
# Indices 1 2 3 4 5 6 
#
# 1 0.015864 -0.003575 -0.003195 0.000000 0.003916 0.000000
# 2 -0.003575 0.023559 -0.006708 0.000000 -0.001842 0.000000
# 3 -0.003195 -0.006708 0.014431 0.000000 0.000587 0.000000
# 4 0.000000 0.000000 0.000000 0.036132 0.000000 0.000652
# 5 0.003916 -0.001842 0.000587 0.000000 0.053929 0.000000
# 6 0.000000 0.000000 0.000000 0.000652 0.000000 0.045834
#
#
# Mechanical properties :
#
#
# Convention : Reuss Voigt Hill
#
# Bulk Modulus (GPa) = 37.17949 39.66693 38.42321
# Shear Modulus (GPa) = 22.15611 23.26202 22.70907
#
# Velocity S-wave (km/s) = 3.60555 3.69444 3.65026
# Velocity P-wave (km/s) = 6.25685 6.43994 6.34906
#
# Compressibility (1/GPa) = 0.02689655
#
# Stress axis : x y z
#
# Youngs Moduli (GPa) = 63.03618 42.44599 69.29754
#
# Poissons Ratio (x) = 0.15176 0.22142
# Poissons Ratio (y) = 0.22538 0.46485
# Poissons Ratio (z) = 0.20142 0.28473
#
# Static dielectric constant tensor:
#      x y z
#    x 3.359810 0.000000 -0.137620 
#    y 0.000000 3.205890 0.000000 
#    z -0.137620 0.000000 3.092430 
# 
# 
# High freq. dielectric constant tensor:
#      x y z
#    x 1.631760 0.000000 -0.004710 
#    y 0.000000 1.647480 0.000000 
#    z -0.004710 0.000000 1.648300 
# 
# From -- ./inp_files/248585.got.cif
#   From: 2010.06.25/outbox.cif.g09.slc.cpg/sg12_125_cif.got.tgz:248585.got - 2010.06.28 00:19:55.
