data_PCOD8116774
_publ_section_title
;
Structure prediction by ZEFSAII (Michael W. Deem and Ramdas Pophale) SiO2 
 PCOD8116774
Probable space group: P 2/C
;
_chemical_formula_sum "Si O2"
_cell_formula_units_Z 22
_cell_length_a 13.606342
_cell_length_b 8.643530
_cell_length_c 17.428261
_cell_angle_alpha 90.000000
_cell_angle_beta 32.168456
_cell_angle_gamma 90.000000
_cell_volume 1091.272100
_symmetry_space_group_name_H-M "P 2/C"
_symmetry_group_IT_number 13
_symmetry_cell_setting 'monoclinic'
loop_
_space_group_symop_operation_xyz
x,y,z
-x,y,1/2-z
-x,-y,-z
x,-y,1/2+z
loop_
_atom_site_type_symbol
_atom_site_label
_atom_site_fract_x
_atom_site_fract_y
_atom_site_fract_z
Si Si1 0.703580 0.622353 0.908172
Si Si2 0.483739 0.837718 0.588306
Si Si3 0.000000 0.148807 0.250000
Si Si4 0.970483 0.365304 0.681583
Si Si5 0.200129 0.056828 0.723150
Si Si6 0.616046 0.415549 0.102380
O O1 0.563475 0.709760 0.945350
O O2 0.821923 0.743313 0.879682
O O3 0.838850 0.514888 0.767026
O O4 0.589283 0.523647 0.045595
O O5 0.665404 0.926208 0.439434
O O6 0.531213 0.752807 0.636607
O O7 0.315377 0.960926 0.711711
O O8 0.972941 0.045491 0.191306
O O9 0.169400 0.404473 0.513930
O O10 0.000000 0.310062 0.750000
O O11 0.874470 0.223268 0.698547
O O12 0.500000 0.483429 0.250000
#
# Coordination Sequence:
#
# PCOD8116774 Si02
#       6
#     4   4   2   4   4   4
#     4  10  19  34  59  79 105 138 190 222 254 307
#     4  10  20  33  56  88 105 136 182 233 252 316
#     4  10  16  30  54  84 106 132 182 222 250 320
#     4  10  17  34  55  80 102 146 178 216 261 322
#     4  10  18  30  58  85 106 131 183 219 268 302
#     4  11  21  35  54  81 111 141 175 224 278 314
#
# _framework density 20.159960000000002
#
# number of rings (size 3 to 8) (size 9 to 14) (size 15 to 20)
#    0.000    1.818    7.273    0.545    0.000    0.000 
#    0.000    1.818    0.000   17.455    0.000    0.000 
#    0.000    0.000    0.000    0.000    0.000    0.000 
#
# Total GULP energy -272679.685656 kJ/mol
# GULP energy per Si atom -12394.531166 kJ/mol
# Density = 2.011407 g / cm^3
# Si number density = 20.159960 Si / 1000 Ang^3
#
#
#
# Elastic Constant Matrix: (Units=GPa)
#
#
# Indices 1 2 3 4 5 6 
#
# 1 39.1099 19.4982 19.4737 0.0000 -12.7315 0.0000
# 2 19.4982 103.0122 24.8252 0.0000 -9.9311 0.0000
# 3 19.4737 24.8252 96.6300 0.0000 -4.3328 0.0000
# 4 0.0000 0.0000 0.0000 20.0508 0.0000 -15.5889
# 5 -12.7315 -9.9311 -4.3328 0.0000 19.2156 0.0000
# 6 0.0000 0.0000 0.0000 -15.5889 0.0000 32.2056
#
#
#
# Elastic Compliance Matrix: (Units=1/GPa)
#
#
# Indices 1 2 3 4 5 6 
#
# 1 0.037150 -0.003612 -0.005595 0.000000 0.021486 0.000000
# 2 -0.003612 0.011157 -0.002007 0.000000 0.002920 0.000000
# 3 -0.005595 -0.002007 0.011900 0.000000 -0.002062 0.000000
# 4 0.000000 0.000000 0.000000 0.079968 0.000000 0.038708
# 5 0.021486 0.002920 -0.002062 0.000000 0.067321 0.000000
# 6 0.000000 0.000000 0.000000 0.038708 0.000000 0.049787
#
#
# Mechanical properties :
#
#
# Convention : Reuss Voigt Hill
#
# Bulk Modulus (GPa) = 26.47129 40.70513 33.58821
# Shear Modulus (GPa) = 17.10549 25.95805 21.53177
#
# Velocity S-wave (km/s) = 2.91604 3.59221 3.27164
# Velocity P-wave (km/s) = 4.94943 6.11884 5.56494
#
# Compressibility (1/GPa) = 0.03777678
#
# Stress axis : x y z
#
# Youngs Moduli (GPa) = 26.91783 89.63337 84.03597
#
# Poissons Ratio (x) = 0.32375 0.47022
# Poissons Ratio (y) = 0.09723 0.16869
# Poissons Ratio (z) = 0.15062 0.17993
#
# Static dielectric constant tensor:
#      x y z
#    x 3.493570 0.000000 -0.575600 
#    y 0.000000 3.989350 0.000000 
#    z -0.575600 0.000000 3.303090 
# 
# 
# High freq. dielectric constant tensor:
#      x y z
#    x 1.761810 0.000000 -0.059520 
#    y 0.000000 1.808270 0.000000 
#    z -0.059520 0.000000 1.737520 
# 
# From -- ./inp_files/46187.got.cif
#   From: 2010.06.25/outbox.cif.g09.slc.cpg/sg13_24_cif.got.tgz:46187.got - 2010.06.28 04:50:58.
