data_PCOD8116798
_publ_section_title
;
Structure prediction by ZEFSAII (Michael W. Deem and Ramdas Pophale) SiO2 
 PCOD8116798
Probable space group: P 2/C
;
_chemical_formula_sum "Si O2"
_cell_formula_units_Z 26
_cell_length_a 7.985111
_cell_length_b 19.907818
_cell_length_c 8.984224
_cell_angle_alpha 90.000000
_cell_angle_beta 53.627792
_cell_angle_gamma 90.000000
_cell_volume 1149.950124
_symmetry_space_group_name_H-M "P 2/C"
_symmetry_group_IT_number 13
_symmetry_cell_setting 'monoclinic'
loop_
_space_group_symop_operation_xyz
x,y,z
-x,y,1/2-z
-x,-y,-z
x,-y,1/2+z
loop_
_atom_site_type_symbol
_atom_site_label
_atom_site_fract_x
_atom_site_fract_y
_atom_site_fract_z
Si Si1 0.569643 0.907829 0.564104
Si Si2 0.205989 0.957382 0.555185
Si Si3 0.000000 0.633821 0.750000
Si Si4 0.256817 0.699852 0.350054
Si Si5 0.236607 0.579092 0.145529
Si Si6 0.784266 0.464762 0.154883
Si Si7 0.273360 0.847864 0.297703
O O1 0.500000 0.867829 0.750000
O O2 0.361295 0.920708 0.583469
O O3 0.722405 0.864057 0.380823
O O4 0.684073 0.975293 0.562304
O O5 0.147766 0.907312 0.448726
O O6 0.000000 0.977848 0.750000
O O7 0.126337 0.675971 0.561151
O O8 0.177206 0.591550 0.740518
O O9 0.500000 0.702463 0.250000
O O10 0.233512 0.653806 0.215031
O O11 0.168668 0.774641 0.366158
O O12 0.348951 0.525913 0.199388
O O13 0.000000 0.555860 0.250000
O O14 0.332645 0.570008 0.926971
O O15 0.000000 0.500000 0.000000
O O16 0.500000 0.847022 0.250000
#
# Coordination Sequence:
#
# PCOD8116798 Si02
#       7
#     4   4   2   4   4   4   4
#     4  10  20  37  61  88 118 156 197 258 312 349
#     4  10  20  36  62  89 118 158 203 246 307 375
#     4  12  20  38  68  88 116 170 202 244 314 370
#     4  11  24  41  61  88 124 164 208 255 306 375
#     4  10  17  35  61  87 123 159 198 254 308 359
#     4  10  16  32  65  89 118 161 199 250 313 353
#     4   9  21  41  58  82 126 162 196 252 311 367
#
# _framework density 22.609674999999999
#
# number of rings (size 3 to 8) (size 9 to 14) (size 15 to 20)
#    0.000    1.846    5.385    2.308    1.077    2.462 
#    0.000   10.769    0.000    0.000    0.000    0.000 
#    0.000    0.000    0.000    0.000    0.000    0.000 
#
# Total GULP energy -322129.075794 kJ/mol
# GULP energy per Si atom -12389.579838 kJ/mol
# Density = 2.255821 g / cm^3
# Si number density = 22.609675 Si / 1000 Ang^3
#
#
#
# Elastic Constant Matrix: (Units=GPa)
#
#
# Indices 1 2 3 4 5 6 
#
# 1 33.9930 36.6678 33.1761 0.0000 22.3533 0.0000
# 2 36.6678 119.9515 60.2335 0.0000 37.7908 0.0000
# 3 33.1761 60.2335 140.9222 0.0000 38.7977 0.0000
# 4 0.0000 0.0000 0.0000 10.5855 0.0000 -16.1134
# 5 22.3533 37.7908 38.7977 0.0000 45.3193 0.0000
# 6 0.0000 0.0000 0.0000 -16.1134 0.0000 2.0271
#
#
#
# Elastic Compliance Matrix: (Units=1/GPa)
#
#
# Indices 1 2 3 4 5 6 
#
# 1 0.053802 -0.009535 -0.004545 0.000000 -0.014696 0.000000
# 2 -0.009535 0.014002 -0.002382 0.000000 -0.004934 0.000000
# 3 -0.004545 -0.002382 0.010493 0.000000 -0.004756 0.000000
# 4 0.000000 0.000000 0.000000 -0.008510 0.000000 -0.067651
# 5 -0.014696 -0.004934 -0.004756 0.000000 0.037500 0.000000
# 6 0.000000 0.000000 0.000000 -0.067651 0.000000 -0.044442
#
#
# Mechanical properties :
#
#
# Convention : Reuss Voigt Hill
#
# Bulk Modulus (GPa) = 22.03866 61.66905 41.85386
# Shear Modulus (GPa) = 45.08920 22.57233 33.83077
#
# Velocity S-wave (km/s) = 4.47054 3.16309 3.87239
# Velocity P-wave (km/s) = 6.03459 6.37769 6.20851
#
# Compressibility (1/GPa) = 0.04537481
#
# Stress axis : x y z
#
# Youngs Moduli (GPa) = 18.58666 71.41994 95.29867
#
# Poissons Ratio (x) = 0.68096 0.43313
# Poissons Ratio (y) = 0.17722 0.22697
# Poissons Ratio (z) = 0.08448 0.17010
#
# Static dielectric constant tensor:
#      x y z
#    x 4.053590 0.000000 0.533730 
#    y 0.000000 4.327600 0.000000 
#    z 0.533730 0.000000 4.349140 
# 
# 
# High freq. dielectric constant tensor:
#      x y z
#    x 1.872890 0.000000 0.018790 
#    y 0.000000 1.873700 0.000000 
#    z 0.018790 0.000000 1.908710 
# 
# From -- ./inp_files/13633.got.cif
#   From: 2010.06.25/outbox.cif.g09.slc.cpg/sg13_7_cif.got.tgz:13633.got - 2010.06.28 04:50:58.
