data_PCOD8116046
_publ_section_title
;
Structure prediction by ZEFSAII (Michael W. Deem and Ramdas Pophale) SiO2 
 PCOD8116046
Probable space group: C 2/M
;
_chemical_formula_sum "Si O2"
_cell_formula_units_Z 56
_cell_length_a 19.842889
_cell_length_b 9.408771
_cell_length_c 18.303977
_cell_angle_alpha 90.000000
_cell_angle_beta 104.528240
_cell_angle_gamma 90.000000
_cell_volume 3308.029998
_symmetry_space_group_name_H-M "C 2/M"
_symmetry_group_IT_number 12
_symmetry_cell_setting 'monoclinic'
loop_
_space_group_symop_operation_xyz
x,y,z
-x,y,-z
-x,-y,-z
x,-y,z
1/2+x,1/2+y,z
1/2-x,1/2+y,-z
1/2-x,1/2-y,-z
1/2+x,1/2-y,z
loop_
_atom_site_type_symbol
_atom_site_label
_atom_site_fract_x
_atom_site_fract_y
_atom_site_fract_z
Si Si1 0.653236 0.165106 0.271773
Si Si2 0.278027 0.339250 0.836199
Si Si3 0.497482 0.831123 0.728330
Si Si4 0.810083 0.335407 0.554789
Si Si5 0.036597 0.330967 0.438426
Si Si6 0.180504 0.835127 0.996623
Si Si7 0.372587 0.167291 0.141526
O O1 0.697197 0.241006 0.221860
O O2 0.573726 0.223400 0.252834
O O3 0.690635 0.194109 0.358962
O O4 0.652970 0.000000 0.252523
O O5 0.277655 0.500000 0.807198
O O6 0.331518 0.324336 0.919337
O O7 0.199721 0.295934 0.838013
O O8 0.501222 0.774541 0.645688
O O9 0.564611 0.777752 0.790611
O O10 0.494738 0.000000 0.725317
O O11 0.798048 0.500000 0.534992
O O12 0.750000 0.250000 0.500000
O O13 0.883091 0.283720 0.540477
O O14 0.031734 0.500000 0.438890
O O15 0.000000 0.263939 0.500000
O O16 0.187758 0.000000 0.975017
O O17 0.250000 0.750000 0.000000
O O18 0.120989 0.756704 0.932569
O O19 0.377911 0.000000 0.124993
#
# Coordination Sequence:
#
# PCOD8116046 Si02
#       7
#     8   8   8   8   8   8   8
#     4   9  18  32  48  66  92 125 155 185 224 272
#     4   9  18  30  46  70  94 117 149 189 230 270
#     4   8  15  29  46  65  91 120 152 189 225 266
#     4   9  18  31  47  69  94 120 152 188 228 273
#     4   8  14  26  46  69  90 116 152 191 227 263
#     4   9  17  30  47  68  94 121 152 190 230 271
#     4   9  17  30  49  71  93 118 152 193 232 270
#
# _framework density 16.928504
#
# number of rings (size 3 to 8) (size 9 to 14) (size 15 to 20)
#    0.000    3.286    0.000    3.000    0.000    4.571 
#    0.000    4.286    0.000    5.571    0.000    0.000 
#    0.000    0.000    0.000    0.000    0.000    0.000 
#
# Total GULP energy -346990.932267 kJ/mol
# GULP energy per Si atom -12392.533295 kJ/mol
# Density = 1.688997 g / cm^3
# Si number density = 16.928504 Si / 1000 Ang^3
#
#
#
# Elastic Constant Matrix: (Units=GPa)
#
#
# Indices 1 2 3 4 5 6 
#
# 1 85.6062 36.0644 72.6448 0.0000 13.0743 0.0000
# 2 36.0644 55.1666 52.9225 0.0000 1.9286 0.0000
# 3 72.6448 52.9225 116.9778 0.0000 14.7957 0.0000
# 4 0.0000 0.0000 0.0000 30.7692 0.0000 0.5727
# 5 13.0743 1.9286 14.7957 0.0000 33.9099 0.0000
# 6 0.0000 0.0000 0.0000 0.5727 0.0000 21.5203
#
#
#
# Elastic Compliance Matrix: (Units=1/GPa)
#
#
# Indices 1 2 3 4 5 6 
#
# 1 0.025282 -0.003129 -0.013838 0.000000 -0.003532 0.000000
# 2 -0.003129 0.033158 -0.013730 0.000000 0.005311 0.000000
# 3 -0.013838 -0.013730 0.023899 0.000000 -0.004311 0.000000
# 4 0.000000 0.000000 0.000000 0.032516 0.000000 -0.000865
# 5 -0.003532 0.005311 -0.004311 0.000000 0.032431 0.000000
# 6 0.000000 0.000000 0.000000 -0.000865 0.000000 0.046491
#
#
# Mechanical properties :
#
#
# Convention : Reuss Voigt Hill
#
# Bulk Modulus (GPa) = 47.74342 64.55711 56.15027
# Shear Modulus (GPa) = 19.07288 23.64780 21.36034
#
# Velocity S-wave (km/s) = 3.36024 3.74160 3.55603
# Velocity P-wave (km/s) = 6.58173 7.54215 7.07825
#
# Compressibility (1/GPa) = 0.02094529
#
# Stress axis : x y z
#
# Youngs Moduli (GPa) = 39.55407 30.15849 41.84267
#
# Poissons Ratio (x) = 0.09437 0.57902
# Poissons Ratio (y) = 0.12377 0.57449
# Poissons Ratio (z) = 0.54735 0.41407
#
# Static dielectric constant tensor:
#      x y z
#    x 3.155050 0.000000 0.141180 
#    y 0.000000 2.945560 0.000000 
#    z 0.141180 0.000000 3.678360 
# 
# 
# High freq. dielectric constant tensor:
#      x y z
#    x 1.635800 0.000000 0.006210 
#    y 0.000000 1.624040 0.000000 
#    z 0.006210 0.000000 1.663610 
# 
# From -- ./inp_files/280381.got.cif
#   From: 2010.06.25/outbox.cif.g09.slc.cpg/sg12_141_cif.got.tgz:280381.got - 2010.06.28 00:19:55.
