data_PCOD8116411
_publ_section_title
;
Structure prediction by ZEFSAII (Michael W. Deem and Ramdas Pophale) SiO2 
 PCOD8116411
Probable space group: C 2/M
;
_chemical_formula_sum "Si O2"
_cell_formula_units_Z 32
_cell_length_a 30.000000
_cell_length_b 9.000000
_cell_length_c 18.000000
_cell_angle_alpha 90.000000
_cell_angle_beta 40.000000
_cell_angle_gamma 90.000000
_cell_volume 3123.947783
_symmetry_space_group_name_H-M "C 2/M"
_symmetry_group_IT_number 12
_symmetry_cell_setting 'monoclinic'
loop_
_space_group_symop_operation_xyz
x,y,z
-x,y,-z
-x,-y,-z
x,-y,z
1/2+x,1/2+y,z
1/2-x,1/2+y,-z
1/2-x,1/2-y,-z
1/2+x,1/2-y,z
loop_
_atom_site_type_symbol
_atom_site_label
_atom_site_fract_x
_atom_site_fract_y
_atom_site_fract_z
Si Si1 0.530070 0.831309 0.587452
Si Si2 0.797405 0.671090 0.232961
Si Si3 0.097605 0.174856 0.287500
Si Si4 0.169712 0.669151 0.325695
Si Si5 0.819572 0.324635 0.939213
Si Si6 0.684642 0.173689 0.619790
Si Si7 0.040477 0.676584 0.742153
Si Si8 0.397926 0.172369 0.980425
O O1 0.481706 0.727271 0.596589
O O2 0.609064 0.818365 0.462596
O O3 0.528717 0.772609 0.672995
O O4 0.502893 0.000000 0.614563
O O5 0.774210 0.500000 0.251163
O O6 0.738864 0.779169 0.277435
O O7 0.813591 0.709860 0.296089
O O8 0.869664 0.704131 0.098474
O O9 0.152166 0.222487 0.280331
O O10 0.116070 0.264422 0.189859
O O11 0.102650 0.000000 0.270040
O O12 0.178518 0.500000 0.285880
O O13 0.810971 0.500000 0.941776
O O14 0.838285 0.273238 0.999008
O O15 0.750000 0.250000 0.000000
O O16 0.750000 0.250000 0.500000
O O17 0.612879 0.242933 0.680115
O O18 0.689512 0.000000 0.596547
O O19 0.045521 0.500000 0.742483
O O20 0.974605 0.743332 0.872164
O O21 0.408561 0.000000 0.949694
#
# Coordination Sequence:
#
# PCOD8116411 Si02
#       8
#     8   8   8   8   8   8   8   8
#     4  10  20  37  59  82 111 151 201 247 294 357
#     4  10  21  37  58  89 121 149 189 246 300 348
#     4  12  24  37  55  83 118 154 196 247 303 358
#     4  11  23  38  59  84 114 157 200 242 297 365
#     4  11  21  36  58  83 116 160 205 250 297 354
#     4  10  21  37  61  90 121 154 194 240 293 355
#     4   9  17  34  60  86 113 151 195 241 292 354
#     4   9  18  34  58  83 113 151 194 243 292 342
#
# _framework density 10.243449
#
# number of rings (size 3 to 8) (size 9 to 14) (size 15 to 20)
#    0.000    1.750    1.250    3.750    0.000    5.500 
#    0.000    3.750    0.000    0.000    0.000    1.750 
#    0.000    0.000    0.000    0.000    0.000    0.000 
#
# Total GULP energy -396742.070582 kJ/mol
# GULP energy per Si atom -12398.189706 kJ/mol
# Density = 1.022013 g / cm^3
# Si number density = 10.243449 Si / 1000 Ang^3
#
#
#
# Elastic Constant Matrix: (Units=GPa)
#
#
# Indices 1 2 3 4 5 6 
#
# 1 92.3677 48.6238 35.7700 0.0032 -19.6911 0.0056
# 2 48.6238 62.7709 39.7272 -0.0200 0.4263 0.0068
# 3 35.7700 39.7272 91.5038 -0.0055 -4.4238 0.0058
# 4 0.0032 -0.0200 -0.0055 24.8619 0.0030 -4.3482
# 5 -19.6911 0.4263 -4.4238 0.0030 36.6744 -0.0004
# 6 0.0056 0.0068 0.0058 -4.3482 -0.0004 25.9514
#
#
#
# Elastic Compliance Matrix: (Units=1/GPa)
#
#
# Indices 1 2 3 4 5 6 
#
# 1 0.022893 -0.017281 -0.000847 -0.000019 0.012390 -0.000003
# 2 -0.017281 0.035085 -0.008998 0.000030 -0.010772 0.000001
# 3 -0.000847 -0.008998 0.015238 -0.000004 0.001488 -0.000002
# 4 -0.000019 0.000030 -0.000004 0.041437 -0.000014 0.006943
# 5 0.012390 -0.010772 0.001488 -0.000014 0.034224 -0.000002
# 6 -0.000003 0.000001 -0.000002 0.006943 -0.000002 0.039697
#
#
# Mechanical properties :
#
#
# Convention : Reuss Voigt Hill
#
# Bulk Modulus (GPa) = 52.73306 54.98715 53.86010
# Shear Modulus (GPa) = 20.06838 25.66562 22.86700
#
# Velocity S-wave (km/s) = 3.13321 3.54331 3.34455
# Velocity P-wave (km/s) = 6.23579 6.60594 6.42353
#
# Compressibility (1/GPa) = 0.01896344
#
# Stress axis : x y z
#
# Youngs Moduli (GPa) = 43.68156 28.50197 65.62467
#
# Poissons Ratio (x) = 0.49255 0.05560
# Poissons Ratio (y) = 0.75487 0.59048
# Poissons Ratio (z) = 0.03701 0.25646
#
# Static dielectric constant tensor:
#      x y z
#    x 3.750310 -0.000030 -0.121590 
#    y -0.000030 3.435180 -0.000010 
#    z -0.121590 -0.000010 3.547440 
# 
# 
# High freq. dielectric constant tensor:
#      x y z
#    x 1.803160 0.000000 -0.008590 
#    y 0.000000 1.764500 0.000000 
#    z -0.008590 0.000000 1.811230 
# 
# From -- ./inp_files/295447.got.cif
#   From: 2010.06.25/outbox.ucp.g09.slc.cvg/sg12_148_cif.got.tgz:295447.got - 2010.06.28 13:50:54.
