data_PCOD8116505
_publ_section_title
;
Structure prediction by ZEFSAII (Michael W. Deem and Ramdas Pophale) SiO2 
 PCOD8116505
Probable space group: C 2/M
;
_chemical_formula_sum "Si O2"
_cell_formula_units_Z 32
_cell_length_a 18.000000
_cell_length_b 9.000000
_cell_length_c 30.000000
_cell_angle_alpha 90.000000
_cell_angle_beta 40.000000
_cell_angle_gamma 90.000000
_cell_volume 3123.947783
_symmetry_space_group_name_H-M "C 2/M"
_symmetry_group_IT_number 12
_symmetry_cell_setting 'monoclinic'
loop_
_space_group_symop_operation_xyz
x,y,z
-x,y,-z
-x,-y,-z
x,-y,z
1/2+x,1/2+y,z
1/2-x,1/2+y,-z
1/2-x,1/2-y,-z
1/2+x,1/2-y,z
loop_
_atom_site_type_symbol
_atom_site_label
_atom_site_fract_x
_atom_site_fract_y
_atom_site_fract_z
Si Si1 0.798407 0.832163 0.148310
Si Si2 0.180428 0.824064 0.426506
Si Si3 0.490900 0.830799 0.828809
Si Si4 0.021781 0.175780 0.418825
Si Si5 0.764506 0.168261 0.062934
Si Si6 0.100724 0.175144 0.286820
Si Si7 0.013268 0.330771 0.069730
Si Si8 0.585501 0.325675 0.700717
O O1 0.742594 0.818976 0.125670
O O2 0.724885 0.745086 0.219232
O O3 0.925208 0.764770 0.081122
O O4 0.809321 0.000000 0.160145
O O5 0.102927 0.772143 0.504632
O O6 0.302194 0.744088 0.373387
O O7 0.120000 0.772832 0.408296
O O8 0.198652 0.000000 0.418586
O O9 0.359292 0.780319 0.898081
O O10 0.539952 0.814525 0.855965
O O11 0.561757 0.731580 0.761553
O O12 0.496957 0.000000 0.808443
O O13 0.049370 0.240648 0.356968
O O14 0.020366 0.000000 0.417091
O O15 0.796446 0.000000 0.034594
O O16 0.857354 0.275113 0.997875
O O17 0.017876 0.220185 0.284379
O O18 0.117318 0.000000 0.283207
O O19 0.010555 0.500000 0.055224
O O20 0.602615 0.500000 0.695498
#
# Coordination Sequence:
#
# PCOD8116505 Si02
#       8
#     8   8   8   8   8   8   8   8
#     4  11  23  39  59  84 116 152 190 233 283 338
#     4   9  18  36  62  86 112 149 192 232 275 338
#     4  10  22  41  60  81 112 153 194 232 280 343
#     4   8  17  36  61  86 111 148 193 233 275 331
#     4  10  21  40  62  82 111 149 191 236 282 336
#     4  10  21  38  58  82 115 152 193 237 281 332
#     4  11  24  38  59  87 113 146 190 237 287 341
#     4  11  23  36  55  85 119 151 186 238 290 330
#
# _framework density 10.243449
#
# number of rings (size 3 to 8) (size 9 to 14) (size 15 to 20)
#    0.000    2.000    1.250    2.625    1.750    5.000 
#    0.000    1.875    0.000    0.000    0.000    0.000 
#    0.000    0.000    0.000    0.000    0.000    0.000 
#
# Total GULP energy -396718.072148 kJ/mol
# GULP energy per Si atom -12397.439755 kJ/mol
# Density = 1.022013 g / cm^3
# Si number density = 10.243449 Si / 1000 Ang^3
#
#
#
# Elastic Constant Matrix: (Units=GPa)
#
#
# Indices 1 2 3 4 5 6 
#
# 1 24.3640 27.8470 15.6255 0.0013 -8.1955 0.0041
# 2 27.8470 55.7230 39.9130 0.0029 -7.0666 0.0048
# 3 15.6255 39.9130 120.3857 0.0003 -1.0630 0.0010
# 4 0.0013 0.0029 0.0003 38.3621 0.0001 -3.5155
# 5 -8.1955 -7.0666 -1.0630 0.0001 31.0786 0.0007
# 6 0.0041 0.0048 0.0010 -3.5155 0.0007 20.4044
#
#
#
# Elastic Compliance Matrix: (Units=1/GPa)
#
#
# Indices 1 2 3 4 5 6 
#
# 1 0.104419 -0.053242 0.004236 0.000000 0.015574 -0.000009
# 2 -0.053242 0.051514 -0.010192 -0.000002 -0.002675 -0.000001
# 3 0.004236 -0.010192 0.011129 0.000001 -0.000820 0.000001
# 4 0.000000 -0.000002 0.000001 0.026486 -0.000001 0.004563
# 5 0.015574 -0.002675 -0.000820 -0.000001 0.035647 -0.000004
# 6 -0.000009 -0.000001 0.000001 0.004563 -0.000004 0.049795
#
#
# Mechanical properties :
#
#
# Convention : Reuss Voigt Hill
#
# Bulk Modulus (GPa) = 20.54791 40.80485 30.67638
# Shear Modulus (GPa) = 12.08877 25.77483 18.93180
#
# Velocity S-wave (km/s) = 2.43178 3.55084 3.04319
# Velocity P-wave (km/s) = 4.23512 6.06399 5.23012
#
# Compressibility (1/GPa) = 0.04866675
#
# Stress axis : x y z
#
# Youngs Moduli (GPa) = 9.57679 19.41219 89.85771
#
# Poissons Ratio (x) = 1.03354 -0.38066
# Poissons Ratio (y) = 0.50988 0.91585
# Poissons Ratio (z) = -0.04057 0.19785
#
# Static dielectric constant tensor:
#      x y z
#    x 3.662130 0.000000 0.166040 
#    y 0.000000 3.439670 0.000000 
#    z 0.166040 0.000000 3.835810 
# 
# 
# High freq. dielectric constant tensor:
#      x y z
#    x 1.793310 0.000000 0.004880 
#    y 0.000000 1.777070 0.000000 
#    z 0.004880 0.000000 1.816760 
# 
# From -- ./inp_files/378236.got.cif
#   From: 2010.06.25/outbox.ucp.g09.slc.cvg/sg12_190_cif.got.tgz:378236.got - 2010.06.28 13:50:54.
