data_PCOD8116366
_publ_section_title
;
Structure prediction by ZEFSAII (Michael W. Deem and Ramdas Pophale) SiO2 
 PCOD8116366
Probable space group: C 2/M
;
_chemical_formula_sum "Si O2"
_cell_formula_units_Z 32
_cell_length_a 30.000000
_cell_length_b 9.000000
_cell_length_c 24.000000
_cell_angle_alpha 90.000000
_cell_angle_beta 30.000000
_cell_angle_gamma 90.000000
_cell_volume 3240.000000
_symmetry_space_group_name_H-M "C 2/M"
_symmetry_group_IT_number 12
_symmetry_cell_setting 'monoclinic'
loop_
_space_group_symop_operation_xyz
x,y,z
-x,y,-z
-x,-y,-z
x,-y,z
1/2+x,1/2+y,z
1/2-x,1/2+y,-z
1/2-x,1/2-y,-z
1/2+x,1/2-y,z
loop_
_atom_site_type_symbol
_atom_site_label
_atom_site_fract_x
_atom_site_fract_y
_atom_site_fract_z
Si Si1 0.699535 0.333260 0.702590
Si Si2 0.334952 0.673844 0.933314
Si Si3 0.351556 0.166994 0.028323
Si Si4 0.911622 0.166294 0.563424
Si Si5 0.628248 0.333387 0.515555
Si Si6 0.256445 0.333965 0.223384
Si Si7 0.509170 0.169652 0.726557
Si Si8 0.950684 0.664029 0.189391
O O1 0.728290 0.500000 0.654179
O O2 0.770856 0.213528 0.605370
O O3 0.684370 0.323472 0.785137
O O4 0.606474 0.294204 0.775207
O O5 0.327826 0.500000 0.932706
O O6 0.422779 0.731493 0.806458
O O7 0.250000 0.750000 0.000000
O O8 0.339272 0.714632 0.993146
O O9 0.286905 0.209605 0.147803
O O10 0.329481 0.000000 0.030834
O O11 0.451633 0.173982 0.943407
O O12 0.930070 0.173890 0.477487
O O13 0.844438 0.295812 0.652391
O O14 0.000000 0.206222 0.500000
O O15 0.876948 0.000000 0.616400
O O16 0.628474 0.500000 0.540053
O O17 0.589711 0.217933 0.600773
O O18 0.261070 0.500000 0.193018
O O19 0.542414 0.193804 0.752775
O O20 0.482983 0.000000 0.743597
O O21 0.909820 0.500000 0.222236
#
# Coordination Sequence:
#
# PCOD8116366 Si02
#       8
#     8   8   8   8   8   8   8   8
#     4  10  21  36  55  79 109 143 180 226 274 323
#     4  11  22  38  59  83 112 145 182 224 270 320
#     4  10  21  38  58  81 110 144 182 224 270 321
#     4   9  19  36  56  78 106 140 179 223 269 318
#     4  10  20  35  56  80 107 142 182 224 272 325
#     4  10  21  36  54  80 111 143 180 221 270 324
#     4  10  21  38  57  80 111 144 180 224 273 324
#     4   9  20  37  56  78 105 140 181 223 270 326
#
# _framework density 9.8765429999999999
#
# number of rings (size 3 to 8) (size 9 to 14) (size 15 to 20)
#    0.000    2.125    0.000    3.750    0.000    7.250 
#    0.000    6.250    0.000    0.000    0.000    0.000 
#    0.000    0.000    0.000    0.000    0.000    0.000 
#
# Total GULP energy -396778.981327 kJ/mol
# GULP energy per Si atom -12399.343166 kJ/mol
# Density = 0.985406 g / cm^3
# Si number density = 9.876543 Si / 1000 Ang^3
#
#
#
# Elastic Constant Matrix: (Units=GPa)
#
#
# Indices 1 2 3 4 5 6 
#
# 1 29.0464 40.9524 10.5736 -0.0470 -17.3547 0.0237
# 2 40.9524 107.6354 22.2501 0.0205 -2.9042 -0.0102
# 3 10.5736 22.2501 37.9131 0.0064 11.8539 -0.0130
# 4 -0.0470 0.0205 0.0064 31.1428 -0.0100 1.3257
# 5 -17.3547 -2.9042 11.8539 -0.0100 19.0274 0.0031
# 6 0.0237 -0.0102 -0.0130 1.3257 0.0031 24.4612
#
#
#
# Elastic Compliance Matrix: (Units=1/GPa)
#
#
# Indices 1 2 3 4 5 6 
#
# 1 -0.143302 0.034838 0.072929 -0.000319 -0.170821 0.000231
# 2 0.034838 0.002865 -0.026662 0.000074 0.048823 -0.000057
# 3 0.072929 -0.026662 0.002681 0.000151 0.060779 -0.000096
# 4 -0.000319 0.000074 0.000151 0.032184 -0.000356 -0.001744
# 5 -0.170821 0.048823 0.060779 -0.000356 -0.133662 0.000255
# 6 0.000231 -0.000057 -0.000096 -0.001744 0.000255 0.040975
#
#
# Mechanical properties :
#
#
# Convention : Reuss Voigt Hill
#
# Bulk Modulus (GPa) = 40.89341 35.79413 38.34377
# Shear Modulus (GPa) = -14.19172 21.64754 3.72791
#
# Velocity S-wave (km/s) = -2.68331 3.31404 1.37526
# Velocity P-wave (km/s) = 3.33872 5.72747 4.68780
#
# Compressibility (1/GPa) = 0.02445382
#
# Stress axis : x y z
#
# Youngs Moduli (GPa) = -6.97828 349.09481 373.01254
#
# Poissons Ratio (x) = -12.16170 -27.20352
# Poissons Ratio (y) = 0.24311 9.94524
# Poissons Ratio (z) = 0.50892 9.30755
#
# Static dielectric constant tensor:
#      x y z
#    x 3.501640 -0.000010 0.030400 
#    y -0.000010 3.682090 0.000030 
#    z 0.030400 0.000030 3.352440 
# 
# 
# High freq. dielectric constant tensor:
#      x y z
#    x 1.752630 0.000000 -0.001700 
#    y 0.000000 1.779990 0.000000 
#    z -0.001700 0.000000 1.750610 
# 
# From -- ./inp_files/353371.got.cif
#   From: 2010.06.25/outbox.ucp.g09.slc.cvg/sg12_177_cif.got.tgz:353371.got - 2010.06.28 13:50:54.
