data_PCOD8116900
_publ_section_title
;
Structure prediction by ZEFSAII (Michael W. Deem and Ramdas Pophale) SiO2 
 PCOD8116900
Probable space group: P 2/C
;
_chemical_formula_sum "Si O2"
_cell_formula_units_Z 30
_cell_length_a 21.237873
_cell_length_b 11.210474
_cell_length_c 27.039121
_cell_angle_alpha 90.000000
_cell_angle_beta 11.427972
_cell_angle_gamma 90.000000
_cell_volume 1275.530100
_symmetry_space_group_name_H-M "P 2/C"
_symmetry_group_IT_number 13
_symmetry_cell_setting 'monoclinic'
loop_
_space_group_symop_operation_xyz
x,y,z
-x,y,1/2-z
-x,-y,-z
x,-y,1/2+z
loop_
_atom_site_type_symbol
_atom_site_label
_atom_site_fract_x
_atom_site_fract_y
_atom_site_fract_z
Si Si1 0.682199 0.241108 0.700934
Si Si2 0.046516 0.447668 0.545496
Si Si3 0.500000 0.388214 0.750000
Si Si4 0.714607 0.613070 0.738957
Si Si5 0.863893 0.057147 0.486791
Si Si6 0.740651 0.917041 0.908595
Si Si7 0.641479 0.171270 0.007677
Si Si8 0.776223 0.197759 0.075181
O O1 0.460216 0.302770 0.829172
O O2 0.881821 0.132521 0.523024
O O3 0.928727 0.332790 0.533679
O O4 0.483933 0.189274 0.899848
O O5 0.192847 0.527446 0.477495
O O6 0.310343 0.441402 0.297314
O O7 0.985173 0.311205 0.609585
O O8 0.718466 0.508895 0.777984
O O9 0.441884 0.710732 0.960987
O O10 0.089781 0.121162 0.272797
O O11 0.980329 0.919982 0.404237
O O12 0.500000 0.048319 0.750000
O O13 0.000000 0.943867 0.750000
O O14 0.576758 0.047643 0.028002
O O15 0.382244 0.173402 0.250319
O O16 0.000000 0.186024 0.750000
O O17 0.500000 0.228673 0.250000
#
# Coordination Sequence:
#
# PCOD8116900 Si02
#       8
#     4   4   2   4   4   4   4   4
#     4  11  20  37  61  95 130 166 202 259 320 379
#     4   9  18  36  59  93 115 169 214 252 311 374
#     4  10  18  34  64  92 120 162 218 252 306 378
#     4   9  21  36  61  88 127 166 214 258 321 371
#     4  11  19  34  59  96 127 162 210 258 307 381
#     4  11  19  34  59  92 129 161 207 257 312 381
#     4  10  19  35  58  85 122 163 208 257 313 381
#     4  10  17  31  59  92 119 160 213 255 304 377
#
# _framework density 23.519635000000001
#
# number of rings (size 3 to 8) (size 9 to 14) (size 15 to 20)
#    0.000    1.867    4.000    2.400    0.000    0.533 
#    0.000    0.667    5.867   39.200    0.000    0.000 
#    0.000    0.000    0.000    0.000    0.000    0.000 
#
# Total GULP energy -371718.654942 kJ/mol
# GULP energy per Si atom -12390.621831 kJ/mol
# Density = 2.346610 g / cm^3
# Si number density = 23.519635 Si / 1000 Ang^3
#
#
#
# Elastic Constant Matrix: (Units=GPa)
#
#
# Indices 1 2 3 4 5 6 
#
# 1 65.6644 25.3587 21.8821 0.0000 10.3941 0.0000
# 2 25.3587 131.8807 31.8474 0.0000 5.0138 0.0000
# 3 21.8821 31.8474 63.6670 0.0000 18.0167 0.0000
# 4 0.0000 0.0000 0.0000 -118.3959 0.0000 110.2752
# 5 10.3941 5.0138 18.0167 0.0000 30.9736 0.0000
# 6 0.0000 0.0000 0.0000 110.2752 0.0000 -70.3870
#
#
#
# Elastic Compliance Matrix: (Units=1/GPa)
#
#
# Indices 1 2 3 4 5 6 
#
# 1 0.018020 -0.002353 -0.004085 0.000000 -0.003290 0.000000
# 2 -0.002353 0.008978 -0.004183 0.000000 0.001770 0.000000
# 3 -0.004085 -0.004183 0.022293 0.000000 -0.010919 0.000000
# 4 0.000000 0.000000 0.000000 0.018392 0.000000 0.028814
# 5 -0.003290 0.001770 -0.010919 0.000000 0.039455 0.000000
# 6 0.000000 0.000000 0.000000 0.028814 0.000000 0.030936
#
#
# Mechanical properties :
#
#
# Convention : Reuss Voigt Hill
#
# Bulk Modulus (GPa) = 35.65291 46.59873 41.12582
# Shear Modulus (GPa) = 29.64439 -19.42028 5.11206
#
# Velocity S-wave (km/s) = 3.55408 -2.87663 1.47589
# Velocity P-wave (km/s) = 5.65983 2.97025 4.51974
#
# Compressibility (1/GPa) = 0.02804820
#
# Stress axis : x y z
#
# Youngs Moduli (GPa) = 55.49423 111.38391 44.85685
#
# Poissons Ratio (x) = 0.26213 0.18325
# Poissons Ratio (y) = 0.13060 0.18763
# Poissons Ratio (z) = 0.22670 0.46590
#
# Static dielectric constant tensor:
#      x y z
#    x 4.540930 0.000000 -0.025790 
#    y 0.000000 4.928960 0.000000 
#    z -0.025790 0.000000 3.610990 
# 
# 
# High freq. dielectric constant tensor:
#      x y z
#    x 1.926990 0.000000 -0.005780 
#    y 0.000000 1.959690 0.000000 
#    z -0.005780 0.000000 1.868230 
# 
# From -- ./inp_files/97742.got.cif
#   From: 2010.06.25/outbox.cif.g09.slc.cpg/sg13_49_cif.got.tgz:97742.got - 2010.06.28 04:50:58.
