data_PCOD8116218
_publ_section_title
;
Structure prediction by ZEFSAII (Michael W. Deem and Ramdas Pophale) SiO2 
 PCOD8116218
Probable space group: C 2/M
;
_chemical_formula_sum "Si O2"
_cell_formula_units_Z 28
_cell_length_a 24.000000
_cell_length_b 18.000000
_cell_length_c 21.000000
_cell_angle_alpha 90.000000
_cell_angle_beta 160.000000
_cell_angle_gamma 90.000000
_cell_volume 3102.806740
_symmetry_space_group_name_H-M "C 2/M"
_symmetry_group_IT_number 12
_symmetry_cell_setting 'monoclinic'
loop_
_space_group_symop_operation_xyz
x,y,z
-x,y,-z
-x,-y,-z
x,-y,z
1/2+x,1/2+y,z
1/2-x,1/2+y,-z
1/2-x,1/2-y,-z
1/2+x,1/2-y,z
loop_
_atom_site_type_symbol
_atom_site_label
_atom_site_fract_x
_atom_site_fract_y
_atom_site_fract_z
Si Si1 0.862860 0.583294 0.802565
Si Si2 0.609677 0.305795 0.923712
Si Si3 0.141626 0.582408 0.013497
Si Si4 0.245412 0.193074 0.436888
Si Si5 0.593714 0.842555 0.832454
Si Si6 0.205541 0.777430 0.776398
Si Si7 0.343675 0.277283 0.419096
O O1 0.803381 0.500000 0.755894
O O2 0.706472 0.636236 0.631835
O O3 0.000000 0.610599 0.000000
O O4 0.951594 0.585432 0.829309
O O5 0.433784 0.347154 0.746973
O O6 0.587800 0.244105 0.845235
O O7 0.765071 0.356723 0.069644
O O8 0.651914 0.267386 0.035973
O O9 0.213345 0.500000 0.099130
O O10 0.251061 0.635098 0.175964
O O11 0.151189 0.604900 0.950571
O O12 0.250000 0.250000 0.500000
O O13 0.405265 0.138633 0.609242
O O14 0.247236 0.233507 0.370113
O O15 0.198139 0.747154 0.696496
O O16 0.037586 0.768062 0.635813
#
# Coordination Sequence:
#
# PCOD8116218 Si02
#       7
#     8   8   8   8   8   8   8
#     4  10  19  31  43  59  88 129 175 207 231 269
#     4   9  17  30  48  69  91 122 152 199 248 290
#     4  10  20  34  50  65  91 133 170 203 240 278
#     4  10  19  29  49  70  91 122 161 199 250 291
#     4   9  17  32  47  67  93 116 160 202 239 290
#     4  10  20  31  46  69 100 129 163 204 242 289
#     4  11  20  30  46  69  98 131 167 204 241 283
#
# _framework density 9.0240880000000008
#
# number of rings (size 3 to 8) (size 9 to 14) (size 15 to 20)
#    0.000    2.143    2.857    2.571    2.000    0.571 
#    0.000    1.429    0.000    0.000    0.000    0.000 
#    0.000    2.286    0.000    2.571    0.000    0.000 
#
# Total GULP energy -346869.455123 kJ/mol
# GULP energy per Si atom -12388.194826 kJ/mol
# Density = 0.900355 g / cm^3
# Si number density = 9.024088 Si / 1000 Ang^3
#
#
#
# Elastic Constant Matrix: (Units=GPa)
#
#
# Indices 1 2 3 4 5 6 
#
# 1 105.6400 15.6625 37.3031 0.0183 14.1046 0.0088
# 2 15.6625 9.0597 3.6642 0.0093 -2.3100 0.0089
# 3 37.3031 3.6642 107.8639 0.0330 22.7243 0.0261
# 4 0.0183 0.0093 0.0330 15.2163 0.0184 2.7655
# 5 14.1046 -2.3100 22.7243 0.0184 35.3975 0.0100
# 6 0.0088 0.0089 0.0261 2.7655 0.0100 13.4717
#
#
#
# Elastic Compliance Matrix: (Units=1/GPa)
#
#
# Indices 1 2 3 4 5 6 
#
# 1 0.015315 -0.026678 -0.003166 0.000009 -0.005811 0.000016
# 2 -0.026678 0.162415 -0.000883 -0.000076 0.021796 -0.000089
# 3 -0.003166 -0.000883 0.011728 -0.000011 -0.006325 -0.000013
# 4 0.000009 -0.000076 -0.000011 0.068266 -0.000033 -0.014014
# 5 -0.005811 0.021796 -0.006325 -0.000033 0.036049 -0.000018
# 6 0.000016 -0.000089 -0.000013 -0.014014 -0.000018 0.077107
#
#
# Mechanical properties :
#
#
# Convention : Reuss Voigt Hill
#
# Bulk Modulus (GPa) = 7.81226 37.31371 22.56298
# Shear Modulus (GPa) = 10.52624 23.87935 17.20279
#
# Velocity S-wave (km/s) = 2.41764 3.64138 3.09068
# Velocity P-wave (km/s) = 3.48299 6.19668 5.02644
#
# Compressibility (1/GPa) = 0.12800400
#
# Stress axis : x y z
#
# Youngs Moduli (GPa) = 65.29378 6.15707 85.26247
#
# Poissons Ratio (x) = 0.16426 0.26995
# Poissons Ratio (y) = 1.74194 0.07528
# Poissons Ratio (z) = 0.20672 0.00544
#
# Static dielectric constant tensor:
#      x y z
#    x 3.538460 -0.000010 0.300370 
#    y -0.000010 2.704710 -0.000020 
#    z 0.300370 -0.000020 3.662210 
# 
# 
# High freq. dielectric constant tensor:
#      x y z
#    x 1.717450 0.000000 0.015420 
#    y 0.000000 1.613980 0.000000 
#    z 0.015420 0.000000 1.708410 
# 
# From -- ./inp_files/76952.got.cif
#   From: 2010.06.25/outbox.ucp.g09.slc.cvg/sg12_39_cif.got.tgz:76952.got - 2010.06.28 13:50:54.
