data_PCOD8116048
_publ_section_title
;
Structure prediction by ZEFSAII (Michael W. Deem and Ramdas Pophale) SiO2 
 PCOD8116048
Probable space group: C 2/M
;
_chemical_formula_sum "Si O2"
_cell_formula_units_Z 64
_cell_length_a 24.429561
_cell_length_b 9.357096
_cell_length_c 20.299183
_cell_angle_alpha 90.000000
_cell_angle_beta 114.713214
_cell_angle_gamma 90.000000
_cell_volume 4215.198829
_symmetry_space_group_name_H-M "C 2/M"
_symmetry_group_IT_number 12
_symmetry_cell_setting 'monoclinic'
loop_
_space_group_symop_operation_xyz
x,y,z
-x,y,-z
-x,-y,-z
x,-y,z
1/2+x,1/2+y,z
1/2-x,1/2+y,-z
1/2-x,1/2-y,-z
1/2+x,1/2-y,z
loop_
_atom_site_type_symbol
_atom_site_label
_atom_site_fract_x
_atom_site_fract_y
_atom_site_fract_z
Si Si1 0.792468 0.666091 0.608659
Si Si2 0.202678 0.842034 0.123442
Si Si3 0.687303 0.669149 0.973345
Si Si4 0.723441 0.165431 0.253374
Si Si5 0.932657 0.830039 0.457942
Si Si6 0.662466 0.666345 0.484937
Si Si7 0.138556 0.167449 0.705098
Si Si8 0.343140 0.163718 0.161017
O O1 0.807275 0.500000 0.608298
O O2 0.801447 0.717648 0.688479
O O3 0.723752 0.698177 0.554695
O O4 0.838202 0.752579 0.585249
O O5 0.186200 0.738661 0.175460
O O6 0.272478 0.828346 0.139641
O O7 0.188162 0.000000 0.141728
O O8 0.164200 0.809936 0.037374
O O9 0.694852 0.500000 0.960906
O O10 0.642526 0.745920 0.898630
O O11 0.750000 0.750000 0.000000
O O12 0.794067 0.200939 0.285289
O O13 0.711700 0.000000 0.238792
O O14 0.891880 0.773012 0.497694
O O15 0.906258 0.779515 0.374707
O O16 0.000000 0.768890 0.500000
O O17 0.931472 0.000000 0.459308
O O18 0.654478 0.500000 0.465898
O O19 0.122034 0.259593 0.761384
O O20 0.130705 0.000000 0.717330
O O21 0.365213 0.000000 0.164268
#
# Coordination Sequence:
#
# PCOD8116048 Si02
#       8
#     8   8   8   8   8   8   8   8
#     4   9  16  26  39  56  78 101 128 163 199 235
#     4   8  15  23  31  47  71  95 123 156 188 224
#     4   9  15  23  33  47  69  97 128 160 191 226
#     4   9  15  23  36  52  72  99 128 159 191 228
#     4   9  16  27  44  62  79 101 132 170 206 242
#     4   9  16  27  41  58  77  98 129 164 200 240
#     4   9  15  25  39  54  72  96 128 163 199 236
#     4   9  16  24  34  49  69  95 128 163 194 227
#
# _framework density 15.183151000000001
#
# number of rings (size 3 to 8) (size 9 to 14) (size 15 to 20)
#    0.000    3.125    1.250    1.500    0.000    4.000 
#    0.000    0.625    0.000    1.500    0.000    0.000 
#    0.000    0.000    0.000    1.125    0.000   23.625 
#
# Total GULP energy -396551.164221 kJ/mol
# GULP energy per Si atom -12392.223882 kJ/mol
# Density = 1.514859 g / cm^3
# Si number density = 15.183151 Si / 1000 Ang^3
#
#
#
# Elastic Constant Matrix: (Units=GPa)
#
#
# Indices 1 2 3 4 5 6 
#
# 1 51.8652 27.7493 47.9910 0.0000 -12.9405 0.0000
# 2 27.7493 69.3564 60.6427 0.0000 -18.3085 0.0000
# 3 47.9910 60.6427 133.9590 0.0000 -35.1659 0.0000
# 4 0.0000 0.0000 0.0000 26.1318 0.0000 -9.9097
# 5 -12.9405 -18.3085 -35.1659 0.0000 20.7589 0.0000
# 6 0.0000 0.0000 0.0000 -9.9097 0.0000 12.6110
#
#
#
# Elastic Compliance Matrix: (Units=1/GPa)
#
#
# Indices 1 2 3 4 5 6 
#
# 1 0.029580 -0.004252 -0.008673 0.000000 -0.000003 0.000000
# 2 -0.004252 0.024761 -0.008372 0.000000 0.005005 0.000000
# 3 -0.008673 -0.008372 0.019817 0.000000 0.020780 0.000000
# 4 0.000000 0.000000 0.000000 0.054511 0.000000 0.042835
# 5 -0.000003 0.005005 0.020780 0.000000 0.087787 0.000000
# 6 0.000000 0.000000 0.000000 0.042835 0.000000 0.112955
#
#
# Mechanical properties :
#
#
# Convention : Reuss Voigt Hill
#
# Bulk Modulus (GPa) = 31.68180 58.66074 45.17127
# Shear Modulus (GPa) = 13.07097 19.82021 16.44559
#
# Velocity S-wave (km/s) = 2.93727 3.61696 3.29469
# Velocity P-wave (km/s) = 5.69343 7.49417 6.65498
#
# Compressibility (1/GPa) = 0.03156387
#
# Stress axis : x y z
#
# Youngs Moduli (GPa) = 33.80640 40.38620 50.46175
#
# Poissons Ratio (x) = 0.17174 0.43765
# Poissons Ratio (y) = 0.14376 0.42245
# Poissons Ratio (z) = 0.29320 0.33810
#
# Static dielectric constant tensor:
#      x y z
#    x 2.566050 0.000000 -0.359500 
#    y 0.000000 2.894860 0.000000 
#    z -0.359500 0.000000 3.309420 
# 
# 
# High freq. dielectric constant tensor:
#      x y z
#    x 1.515070 0.000000 -0.036370 
#    y 0.000000 1.576150 0.000000 
#    z -0.036370 0.000000 1.586930 
# 
# From -- ./inp_files/323720.got.cif
#   From: 2010.06.25/outbox.cif.g09.slc.cpg/sg12_162_cif.got.tgz:323720.got - 2010.06.28 00:19:55.
