data_PCOD8116857
_publ_section_title
;
Structure prediction by ZEFSAII (Michael W. Deem and Ramdas Pophale) SiO2 
 PCOD8116857
Probable space group: P 2/C
;
_chemical_formula_sum "Si O2"
_cell_formula_units_Z 32
_cell_length_a 26.176021
_cell_length_b 7.791676
_cell_length_c 17.912274
_cell_angle_alpha 90.000000
_cell_angle_beta 26.974165
_cell_angle_gamma 90.000000
_cell_volume 1657.095202
_symmetry_space_group_name_H-M "P 2/C"
_symmetry_group_IT_number 13
_symmetry_cell_setting 'monoclinic'
loop_
_space_group_symop_operation_xyz
x,y,z
-x,y,1/2-z
-x,-y,-z
x,-y,1/2+z
loop_
_atom_site_type_symbol
_atom_site_label
_atom_site_fract_x
_atom_site_fract_y
_atom_site_fract_z
Si Si1 0.427741 0.113880 0.673170
Si Si2 0.570492 0.265851 0.313649
Si Si3 0.227647 0.265988 0.563510
Si Si4 0.345210 0.400991 0.549314
Si Si5 0.124160 0.423603 0.119462
Si Si6 0.321494 0.428052 0.744408
Si Si7 0.233743 0.113281 0.048242
Si Si8 0.594672 0.227493 0.568267
O O1 0.394545 0.250799 0.652440
O O2 0.551616 0.161286 0.543971
O O3 0.426900 0.916740 0.644766
O O4 0.333760 0.135435 0.859033
O O5 0.451448 0.281003 0.427774
O O6 0.595647 0.418594 0.338380
O O7 0.658898 0.272247 0.131664
O O8 0.256581 0.302931 0.612214
O O9 0.138332 0.403900 0.649673
O O10 0.175599 0.074515 0.622961
O O11 0.285052 0.452812 0.705901
O O12 0.388791 0.569056 0.450585
O O13 0.141102 0.257916 0.150424
O O14 0.000000 0.418152 0.250000
O O15 0.209525 0.422680 0.939069
O O16 0.286978 0.141117 0.061523
O O17 0.500000 0.173404 0.750000
#
# Coordination Sequence:
#
# PCOD8116857 Si02
#       8
#     4   4   4   4   4   4   4   4
#     4   9  18  32  50  74 108 144 177 205 242 298
#     4  10  19  33  53  76 109 151 178 200 242 306
#     4  10  20  35  56  81 104 136 180 213 250 310
#     4  12  20  31  51  80 115 144 166 208 257 306
#     4  10  21  40  62  75  93 132 179 227 270 307
#     4  10  22  36  48  78 112 135 175 218 258 307
#     4   9  18  34  55  79 101 130 176 221 249 300
#     4  10  17  29  51  76 107 143 174 204 245 303
#
# _framework density 19.3109
#
# number of rings (size 3 to 8) (size 9 to 14) (size 15 to 20)
#    0.000    2.000    2.500    2.250    0.000    3.000 
#    2.250    0.625    0.000    0.750    0.000    0.000 
#    0.000    0.000    0.000    0.000    0.000    0.000 
#
# Total GULP energy -396766.342852 kJ/mol
# GULP energy per Si atom -12398.948214 kJ/mol
# Density = 1.926695 g / cm^3
# Si number density = 19.310900 Si / 1000 Ang^3
#
#
#
# Elastic Constant Matrix: (Units=GPa)
#
#
# Indices 1 2 3 4 5 6 
#
# 1 111.0181 57.2595 30.5681 0.0000 -20.5637 0.0000
# 2 57.2595 156.5519 31.7425 0.0000 -19.8575 0.0000
# 3 30.5681 31.7425 34.1177 0.0000 -22.7556 0.0000
# 4 0.0000 0.0000 0.0000 14.7607 0.0000 2.9141
# 5 -20.5637 -19.8575 -22.7556 0.0000 29.2552 0.0000
# 6 0.0000 0.0000 0.0000 2.9141 0.0000 27.8751
#
#
#
# Elastic Compliance Matrix: (Units=1/GPa)
#
#
# Indices 1 2 3 4 5 6 
#
# 1 0.012974 -0.002948 -0.008590 0.000000 0.000437 0.000000
# 2 -0.002948 0.008550 -0.005870 0.000000 -0.000835 0.000000
# 3 -0.008590 -0.005870 0.074361 0.000000 0.047818 0.000000
# 4 0.000000 0.000000 0.000000 0.069175 0.000000 -0.007232
# 5 0.000437 -0.000835 0.047818 0.000000 0.071117 0.000000
# 6 0.000000 0.000000 0.000000 -0.007232 0.000000 0.036630
#
#
# Mechanical properties :
#
#
# Convention : Reuss Voigt Hill
#
# Bulk Modulus (GPa) = 16.37494 60.09200 38.23347
# Shear Modulus (GPa) = 15.24474 26.51937 20.88205
#
# Velocity S-wave (km/s) = 2.81274 3.70981 3.29197
# Velocity P-wave (km/s) = 4.36425 7.03818 5.85588
#
# Compressibility (1/GPa) = 0.06106893
#
# Stress axis : x y z
#
# Youngs Moduli (GPa) = 77.07550 116.95370 13.44783
#
# Poissons Ratio (x) = 0.34481 0.11552
# Poissons Ratio (y) = 0.22724 0.07894
# Poissons Ratio (z) = 0.66208 0.68656
#
# Static dielectric constant tensor:
#      x y z
#    x 3.592960 0.000000 0.104520 
#    y 0.000000 3.871450 0.000000 
#    z 0.104520 0.000000 3.016250 
# 
# 
# High freq. dielectric constant tensor:
#      x y z
#    x 1.752990 0.000000 0.013400 
#    y 0.000000 1.771480 0.000000 
#    z 0.013400 0.000000 1.695490 
# 
# From -- ./inp_files/71123.got.cif
#   From: 2010.06.25/outbox.cif.g09.slc.cpg/sg13_36_cif.got.tgz:71123.got - 2010.06.28 04:50:58.
