data_PCOD8116454
_publ_section_title
;
Structure prediction by ZEFSAII (Michael W. Deem and Ramdas Pophale) SiO2 
 PCOD8116454
Probable space group: C 2/M
;
_chemical_formula_sum "Si O2"
_cell_formula_units_Z 32
_cell_length_a 18.000000
_cell_length_b 9.000000
_cell_length_c 30.000000
_cell_angle_alpha 90.000000
_cell_angle_beta 40.000000
_cell_angle_gamma 90.000000
_cell_volume 3123.947783
_symmetry_space_group_name_H-M "C 2/M"
_symmetry_group_IT_number 12
_symmetry_cell_setting 'monoclinic'
loop_
_space_group_symop_operation_xyz
x,y,z
-x,y,-z
-x,-y,-z
x,-y,z
1/2+x,1/2+y,z
1/2-x,1/2+y,-z
1/2-x,1/2-y,-z
1/2+x,1/2-y,z
loop_
_atom_site_type_symbol
_atom_site_label
_atom_site_fract_x
_atom_site_fract_y
_atom_site_fract_z
Si Si1 0.036426 0.168562 0.282724
Si Si2 0.322096 0.176030 0.357072
Si Si3 0.076447 0.830629 0.365254
Si Si4 0.809312 0.176752 0.273717
Si Si5 0.908552 0.328822 0.502707
Si Si6 0.417621 0.323987 0.131531
Si Si7 0.675157 0.675684 0.996562
Si Si8 0.263686 0.824157 0.858460
O O1 0.095002 0.169298 0.303953
O O2 0.119667 0.237759 0.207008
O O3 0.925195 0.272938 0.341795
O O4 0.003911 0.000000 0.283442
O O5 0.367356 0.243564 0.289175
O O6 0.206140 0.248305 0.428436
O O7 0.308273 0.000000 0.360974
O O8 0.177003 0.727506 0.338082
O O9 0.956452 0.757921 0.437207
O O10 0.085558 0.000000 0.379313
O O11 0.872826 0.235119 0.199925
O O12 0.815320 0.000000 0.275376
O O13 0.881909 0.500000 0.502548
O O14 0.000000 0.316902 0.500000
O O15 0.418254 0.500000 0.132035
O O16 0.334322 0.268328 0.130609
O O17 0.545038 0.263031 0.062189
O O18 0.678897 0.500000 0.000901
O O19 0.723904 0.722167 0.926051
O O20 0.750000 0.750000 0.000000
O O21 0.285388 0.000000 0.844379
#
# Coordination Sequence:
#
# PCOD8116454 Si02
#       8
#     8   8   8   8   8   8   8   8
#     4  11  25  43  63  91 128 164 205 256 313 371
#     4  12  26  42  63  91 126 164 207 258 310 368
#     4  11  23  40  64  93 124 162 206 258 310 366
#     4  11  21  37  63  93 124 162 207 257 310 371
#     4  11  23  40  65  93 123 163 207 253 308 372
#     4   9  19  37  63  90 120 161 207 251 302 363
#     4  10  22  39  60  91 126 163 205 254 308 366
#     4  10  20  39  65  90 119 162 213 255 301 366
#
# _framework density 10.243449
#
# number of rings (size 3 to 8) (size 9 to 14) (size 15 to 20)
#    0.000    1.375    2.500    3.000    1.750    4.500 
#    0.000    1.250    0.000    1.500    0.000    0.000 
#    0.000    0.000    0.000    0.000    0.000    0.000 
#
# Total GULP energy -396834.246145 kJ/mol
# GULP energy per Si atom -12401.070192 kJ/mol
# Density = 1.022013 g / cm^3
# Si number density = 10.243449 Si / 1000 Ang^3
#
#
#
# Elastic Constant Matrix: (Units=GPa)
#
#
# Indices 1 2 3 4 5 6 
#
# 1 54.2169 23.5526 30.1447 0.0018 -6.0596 0.0052
# 2 23.5526 111.5512 51.2450 0.0034 -4.9572 0.0024
# 3 30.1447 51.2450 150.0048 0.0000 0.4033 0.0002
# 4 0.0018 0.0034 0.0000 28.8691 0.0005 0.4656
# 5 -6.0596 -4.9572 0.4033 0.0005 36.9023 0.0015
# 6 0.0052 0.0024 0.0002 0.4656 0.0015 31.3728
#
#
#
# Elastic Compliance Matrix: (Units=1/GPa)
#
#
# Indices 1 2 3 4 5 6 
#
# 1 0.021984 -0.002922 -0.003428 -0.000001 0.003255 -0.000004
# 2 -0.002922 0.011102 -0.003208 -0.000001 0.001047 0.000000
# 3 -0.003428 -0.003208 0.008454 0.000001 -0.001086 0.000001
# 4 -0.000001 -0.000001 0.000001 0.034647 -0.000001 -0.000514
# 5 0.003255 0.001047 -0.001086 -0.000001 0.027786 -0.000002
# 6 -0.000004 0.000000 0.000001 -0.000514 -0.000002 0.031882
#
#
# Mechanical properties :
#
#
# Convention : Reuss Voigt Hill
#
# Bulk Modulus (GPa) = 44.59770 58.40638 51.50204
# Shear Modulus (GPa) = 30.77937 33.48421 32.13179
#
# Velocity S-wave (km/s) = 3.88028 4.04718 3.96461
# Velocity P-wave (km/s) = 6.47237 7.10004 6.79346
#
# Compressibility (1/GPa) = 0.02242268
#
# Stress axis : x y z
#
# Youngs Moduli (GPa) = 45.48812 90.07582 118.28261
#
# Poissons Ratio (x) = 0.26320 0.40551
# Poissons Ratio (y) = 0.13292 0.37948
# Poissons Ratio (z) = 0.15595 0.28898
#
# Static dielectric constant tensor:
#      x y z
#    x 3.762950 0.000000 0.036260 
#    y 0.000000 3.682480 -0.000010 
#    z 0.036260 -0.000010 3.961710 
# 
# 
# High freq. dielectric constant tensor:
#      x y z
#    x 1.795900 0.000000 0.004930 
#    y 0.000000 1.795510 0.000000 
#    z 0.004930 0.000000 1.819440 
# 
# From -- ./inp_files/378047.got.cif
#   From: 2010.06.25/outbox.ucp.g09.slc.cvg/sg12_190_cif.got.tgz:378047.got - 2010.06.28 13:50:54.
