data_PCOD8116242
_publ_section_title
;
Structure prediction by ZEFSAII (Michael W. Deem and Ramdas Pophale) SiO2 
 PCOD8116242
Probable space group: C 2/M
;
_chemical_formula_sum "Si O2"
_cell_formula_units_Z 28
_cell_length_a 30.000000
_cell_length_b 9.000000
_cell_length_c 21.000000
_cell_angle_alpha 90.000000
_cell_angle_beta 30.000000
_cell_angle_gamma 90.000000
_cell_volume 2835.000000
_symmetry_space_group_name_H-M "C 2/M"
_symmetry_group_IT_number 12
_symmetry_cell_setting 'monoclinic'
loop_
_space_group_symop_operation_xyz
x,y,z
-x,y,-z
-x,-y,-z
x,-y,z
1/2+x,1/2+y,z
1/2-x,1/2+y,-z
1/2-x,1/2-y,-z
1/2+x,1/2-y,z
loop_
_atom_site_type_symbol
_atom_site_label
_atom_site_fract_x
_atom_site_fract_y
_atom_site_fract_z
Si Si1 0.460102 0.172005 0.851887
Si Si2 0.954554 0.824057 0.470484
Si Si3 0.356309 0.324343 0.712082
Si Si4 0.713906 0.166541 0.606058
Si Si5 0.962983 0.327844 0.111604
Si Si6 0.282988 0.677599 0.024925
Si Si7 0.407328 0.668289 0.394855
O O1 0.462558 0.192885 0.925407
O O2 0.557111 0.227743 0.706505
O O3 0.444956 0.000000 0.852884
O O4 0.383747 0.271172 0.914298
O O5 0.870645 0.780849 0.619926
O O6 0.945591 0.758078 0.411444
O O7 0.050790 0.769099 0.373456
O O8 0.956398 0.000000 0.466399
O O9 0.337537 0.500000 0.745370
O O10 0.276761 0.231627 0.841922
O O11 0.750000 0.250000 0.500000
O O12 0.631652 0.242512 0.746776
O O13 0.802059 0.165788 0.539876
O O14 0.684014 0.000000 0.623207
O O15 0.944059 0.500000 0.120650
O O16 0.000000 0.253361 0.000000
O O17 0.280083 0.500000 0.022255
O O18 0.250000 0.750000 0.000000
O O19 0.441024 0.500000 0.340152
#
# Coordination Sequence:
#
# PCOD8116242 Si02
#       7
#     8   8   8   8   8   8   8
#     4  11  22  37  59  85 115 153 196 245 297 347
#     4   8  16  31  54  83 111 144 185 228 275 339
#     4   9  17  34  57  80 111 148 187 230 279 335
#     4  10  19  33  55  81 110 147 189 239 289 336
#     4   9  19  36  58  86 119 156 201 248 292 346
#     4  12  25  40  58  83 116 152 193 237 290 351
#     4  10  19  32  55  84 114 150 193 237 287 345
#
# _framework density 9.8765429999999999
#
# number of rings (size 3 to 8) (size 9 to 14) (size 15 to 20)
#    0.000    2.143    1.429    3.429    0.000    2.286 
#    0.000    6.429    0.000    5.571    0.000    0.000 
#    0.000    0.000    0.000    0.000    0.000    0.000 
#
# Total GULP energy -346914.457553 kJ/mol
# GULP energy per Si atom -12389.802055 kJ/mol
# Density = 0.985406 g / cm^3
# Si number density = 9.876543 Si / 1000 Ang^3
#
#
#
# Elastic Constant Matrix: (Units=GPa)
#
#
# Indices 1 2 3 4 5 6 
#
# 1 82.8428 28.3759 39.9638 0.0013 15.4311 -0.0004
# 2 28.3759 82.9603 36.4425 -0.0183 2.3416 0.0054
# 3 39.9638 36.4425 145.8633 -0.0155 11.3321 0.0046
# 4 0.0013 -0.0183 -0.0155 32.6210 0.0062 -0.6853
# 5 15.4311 2.3416 11.3321 0.0062 32.8514 -0.0012
# 6 -0.0004 0.0054 0.0046 -0.6853 -0.0012 19.4682
#
#
#
# Elastic Compliance Matrix: (Units=1/GPa)
#
#
# Indices 1 2 3 4 5 6 
#
# 1 0.016009 -0.004028 -0.002895 -0.000003 -0.006234 0.000002
# 2 -0.004028 0.014555 -0.002671 0.000007 0.001776 -0.000003
# 3 -0.002895 -0.002671 0.008422 0.000003 -0.001355 -0.000001
# 4 -0.000003 0.000007 0.000003 0.030678 -0.000006 0.001080
# 5 -0.006234 0.001776 -0.001355 -0.000006 0.033709 0.000002
# 6 0.000002 -0.000003 -0.000001 0.001080 0.000002 0.051404
#
#
# Mechanical properties :
#
#
# Convention : Reuss Voigt Hill
#
# Bulk Modulus (GPa) = 50.51304 57.91452 54.21378
# Shear Modulus (GPa) = 27.69128 30.78041 29.23585
#
# Velocity S-wave (km/s) = 3.74822 3.95176 3.85133
# Velocity P-wave (km/s) = 6.66033 7.08553 6.87622
#
# Compressibility (1/GPa) = 0.01979687
#
# Stress axis : x y z
#
# Youngs Moduli (GPa) = 62.46644 68.70627 118.74306
#
# Poissons Ratio (x) = 0.27673 0.34382
# Poissons Ratio (y) = 0.25160 0.31714
# Poissons Ratio (z) = 0.18087 0.18350
#
# Static dielectric constant tensor:
#      x y z
#    x 4.380230 -0.000010 -0.158030 
#    y -0.000010 3.290010 0.000020 
#    z -0.158030 0.000020 4.086790 
# 
# 
# High freq. dielectric constant tensor:
#      x y z
#    x 1.769010 0.000000 0.003240 
#    y 0.000000 1.732710 0.000000 
#    z 0.003240 0.000000 1.787960 
# 
# From -- ./inp_files/329519.got.cif
#   From: 2010.06.25/outbox.ucp.g09.slc.cvg/sg12_165_cif.got.tgz:329519.got - 2010.06.28 13:50:54.
