data_PCOD8116655
_publ_section_title
;
Structure prediction by ZEFSAII (Michael W. Deem and Ramdas Pophale) SiO2 
 PCOD8116655
Probable space group: P 2/C
;
_chemical_formula_sum "Si O2"
_cell_formula_units_Z 26
_cell_length_a 21.890498
_cell_length_b 8.133269
_cell_length_c 14.518306
_cell_angle_alpha 90.000000
_cell_angle_beta 150.287524
_cell_angle_gamma 90.000000
_cell_volume 1281.179278
_symmetry_space_group_name_H-M "P 2/C"
_symmetry_group_IT_number 13
_symmetry_cell_setting 'monoclinic'
loop_
_space_group_symop_operation_xyz
x,y,z
-x,y,1/2-z
-x,-y,-z
x,-y,1/2+z
loop_
_atom_site_type_symbol
_atom_site_label
_atom_site_fract_x
_atom_site_fract_y
_atom_site_fract_z
Si Si1 0.721405 0.222384 0.482381
Si Si2 0.055151 0.548811 0.225948
Si Si3 0.852041 0.643251 0.822726
Si Si4 0.630496 0.578232 0.033470
Si Si5 0.500000 0.668615 0.250000
Si Si6 0.309054 0.086410 0.458712
Si Si7 0.509394 0.117391 0.427453
O O1 0.838514 0.325628 0.601690
O O2 0.647216 0.330162 0.458388
O O3 0.627446 0.176437 0.278185
O O4 0.768257 0.047616 0.585185
O O5 0.101596 0.400567 0.220764
O O6 0.000000 0.478566 0.250000
O O7 0.959496 0.653273 0.038508
O O8 0.758017 0.501635 0.734511
O O9 0.786049 0.821184 0.733878
O O10 0.527910 0.438032 0.878756
O O11 0.585097 0.713568 0.048157
O O12 0.622703 0.776205 0.388644
O O13 0.421197 0.990051 0.557656
O O14 0.500000 0.000000 0.500000
#
# Coordination Sequence:
#
# PCOD8116655 Si02
#       7
#     4   4   4   4   2   4   4
#     4  10  19  37  58  79 115 159 191 235 297 355
#     4  10  22  41  62  82 116 159 208 245 289 358
#     4   9  21  39  62  89 112 159 200 250 303 339
#     4   9  17  35  59  80 114 156 191 234 300 361
#     4  10  14  30  58  78 108 144 188 224 280 358
#     4  10  19  35  58  85 114 147 193 245 294 365
#     4  11  21  34  54  92 123 151 189 244 301 369
#
# _framework density 20.293801999999999
#
# number of rings (size 3 to 8) (size 9 to 14) (size 15 to 20)
#    0.000    2.154    3.077    0.923    2.154    0.615 
#    2.769    3.846    0.000    0.000    0.000    0.000 
#    0.000    0.000    0.000    0.000    0.000    0.000 
#
# Total GULP energy -322146.700564 kJ/mol
# GULP energy per Si atom -12390.257714 kJ/mol
# Density = 2.024761 g / cm^3
# Si number density = 20.293802 Si / 1000 Ang^3
#
#
#
# Elastic Constant Matrix: (Units=GPa)
#
#
# Indices 1 2 3 4 5 6 
#
# 1 66.4248 24.9865 22.7297 0.0000 0.5006 0.0000
# 2 24.9865 86.2089 21.3877 0.0000 8.2832 0.0000
# 3 22.7297 21.3877 96.1614 0.0000 14.5051 0.0000
# 4 0.0000 0.0000 0.0000 31.4226 0.0000 -2.9377
# 5 0.5006 8.2832 14.5051 0.0000 18.6790 0.0000
# 6 0.0000 0.0000 0.0000 -2.9377 0.0000 10.9770
#
#
#
# Elastic Compliance Matrix: (Units=1/GPa)
#
#
# Indices 1 2 3 4 5 6 
#
# 1 0.018148 -0.004731 -0.003942 0.000000 0.004673 0.000000
# 2 -0.004731 0.013749 -0.001177 0.000000 -0.005056 0.000000
# 3 -0.003942 -0.001177 0.013024 0.000000 -0.009486 0.000000
# 4 0.000000 0.000000 0.000000 0.032641 0.000000 0.008735
# 5 0.004673 -0.005056 -0.009486 0.000000 0.063019 0.000000
# 6 0.000000 0.000000 0.000000 0.008735 0.000000 0.093437
#
#
# Mechanical properties :
#
#
# Convention : Reuss Voigt Hill
#
# Bulk Modulus (GPa) = 39.65110 43.00036 41.32573
# Shear Modulus (GPa) = 19.07490 24.19513 21.63501
#
# Velocity S-wave (km/s) = 3.06917 3.45663 3.26865
# Velocity P-wave (km/s) = 5.66927 6.09639 5.88671
#
# Compressibility (1/GPa) = 0.02521998
#
# Stress axis : x y z
#
# Youngs Moduli (GPa) = 55.10255 72.73401 76.78324
#
# Poissons Ratio (x) = 0.34410 0.30270
# Poissons Ratio (y) = 0.26068 0.09037
# Poissons Ratio (z) = 0.21723 0.08561
#
# Static dielectric constant tensor:
#      x y z
#    x 5.885730 0.000000 0.316550 
#    y 0.000000 4.169760 0.000000 
#    z 0.316550 0.000000 3.651130 
# 
# 
# High freq. dielectric constant tensor:
#      x y z
#    x 1.747130 0.000000 0.013840 
#    y 0.000000 1.805290 0.000000 
#    z 0.013840 0.000000 1.791780 
# 
# From -- ./inp_files/58534.got.cif
#   From: 2010.06.25/outbox.cif.g09.slc.cpg/sg13_30_cif.got.tgz:58534.got - 2010.06.28 04:50:58.
