data_PCOD8116338
_publ_section_title
;
Structure prediction by ZEFSAII (Michael W. Deem and Ramdas Pophale) SiO2 
 PCOD8116338
Probable space group: C 2/M
;
_chemical_formula_sum "Si O2"
_cell_formula_units_Z 28
_cell_length_a 18.000000
_cell_length_b 9.000000
_cell_length_c 27.000000
_cell_angle_alpha 90.000000
_cell_angle_beta 40.000000
_cell_angle_gamma 90.000000
_cell_volume 2811.553005
_symmetry_space_group_name_H-M "C 2/M"
_symmetry_group_IT_number 12
_symmetry_cell_setting 'monoclinic'
loop_
_space_group_symop_operation_xyz
x,y,z
-x,y,-z
-x,-y,-z
x,-y,z
1/2+x,1/2+y,z
1/2-x,1/2+y,-z
1/2-x,1/2-y,-z
1/2+x,1/2-y,z
loop_
_atom_site_type_symbol
_atom_site_label
_atom_site_fract_x
_atom_site_fract_y
_atom_site_fract_z
Si Si1 0.554471 0.675001 0.287263
Si Si2 0.687115 0.831350 0.307573
Si Si3 0.592772 0.667623 0.862865
Si Si4 0.156445 0.835107 0.017889
Si Si5 0.633989 0.328694 0.430669
Si Si6 0.739829 0.831917 0.142029
Si Si7 0.211118 0.173399 0.569476
O O1 0.571962 0.500000 0.288282
O O2 0.607339 0.774746 0.303839
O O3 0.624202 0.729155 0.202584
O O4 0.420153 0.714995 0.349294
O O5 0.824085 0.830819 0.226962
O O6 0.676267 0.709036 0.354894
O O7 0.649042 0.000000 0.341585
O O8 0.560726 0.500000 0.895855
O O9 0.663927 0.743054 0.871248
O O10 0.469349 0.746426 0.915175
O O11 0.203485 0.837549 0.939264
O O12 0.146441 0.000000 0.045459
O O13 0.250000 0.750000 0.000000
O O14 0.500000 0.289312 0.500000
O O15 0.657635 0.500000 0.431742
O O16 0.702099 0.224130 0.432819
O O17 0.709375 0.000000 0.176320
O O18 0.250000 0.250000 0.500000
O O19 0.223944 0.000000 0.555091
#
# Coordination Sequence:
#
# PCOD8116338 Si02
#       7
#     8   8   8   8   8   8   8
#     4  10  21  37  57  83 114 144 177 223 276 325
#     4  10  20  36  60  86 110 142 184 225 271 327
#     4   8  16  33  56  78 102 137 180 222 263 313
#     4  10  20  34  52  76 108 141 176 222 272 321
#     4  11  24  40  58  82 113 147 182 224 274 323
#     4   9  18  34  57  80 101 138 188 225 261 317
#     4  11  24  40  59  83 111 146 185 224 271 325
#
# _framework density 9.9589090000000002
#
# number of rings (size 3 to 8) (size 9 to 14) (size 15 to 20)
#    0.000    2.143    0.000    3.857    0.000   10.286 
#    0.000    7.857    0.000    4.286    0.000    0.000 
#    0.000    0.000    0.000    0.000    0.000    0.000 
#
# Total GULP energy -347016.069855 kJ/mol
# GULP energy per Si atom -12393.431066 kJ/mol
# Density = 0.993624 g / cm^3
# Si number density = 9.958909 Si / 1000 Ang^3
#
#
#
# Elastic Constant Matrix: (Units=GPa)
#
#
# Indices 1 2 3 4 5 6 
#
# 1 83.2192 39.3706 60.3347 -0.0002 -33.7355 0.0006
# 2 39.3706 66.5674 52.4877 -0.0009 -27.1304 0.0001
# 3 60.3347 52.4877 98.8663 0.0000 -29.2661 0.0000
# 4 -0.0002 -0.0009 0.0000 48.3401 -0.0001 5.2218
# 5 -33.7355 -27.1304 -29.2661 -0.0001 32.1193 -0.0003
# 6 0.0006 0.0001 0.0000 5.2218 -0.0003 32.7004
#
#
#
# Elastic Compliance Matrix: (Units=1/GPa)
#
#
# Indices 1 2 3 4 5 6 
#
# 1 0.028053 0.000432 -0.011666 0.000000 0.019200 0.000000
# 2 0.000432 0.030335 -0.011844 0.000001 0.015285 0.000000
# 3 -0.011666 -0.011844 0.023187 0.000000 -0.001129 0.000000
# 4 0.000000 0.000001 0.000000 0.021050 0.000000 -0.003361
# 5 0.019200 0.015285 -0.001129 0.000000 0.063183 0.000000
# 6 0.000000 0.000000 0.000000 -0.003361 0.000000 0.031117
#
#
# Mechanical properties :
#
#
# Convention : Reuss Voigt Hill
#
# Bulk Modulus (GPa) = 28.23186 61.44876 44.84031
# Shear Modulus (GPa) = 19.61646 29.06263 24.33955
#
# Velocity S-wave (km/s) = 3.14167 3.82400 3.49950
# Velocity P-wave (km/s) = 5.23116 7.10038 6.23620
#
# Compressibility (1/GPa) = 0.03542097
#
# Stress axis : x y z
#
# Youngs Moduli (GPa) = 35.64643 32.96475 43.12716
#
# Poissons Ratio (x) = -0.01423 0.50310
# Poissons Ratio (y) = -0.01539 0.51078
# Poissons Ratio (z) = 0.41583 0.39042
#
# Static dielectric constant tensor:
#      x y z
#    x 3.178980 0.000000 -0.562520 
#    y 0.000000 3.660810 0.000000 
#    z -0.562520 0.000000 3.598410 
# 
# 
# High freq. dielectric constant tensor:
#      x y z
#    x 1.766620 0.000000 -0.015370 
#    y 0.000000 1.761770 0.000000 
#    z -0.015370 0.000000 1.783580 
# 
# From -- ./inp_files/275196.got.cif
#   From: 2010.06.25/outbox.ucp.g09.slc.cvg/sg12_138_cif.got.tgz:275196.got - 2010.06.28 13:50:54.
