data_PCOD8116868
_publ_section_title
;
Structure prediction by ZEFSAII (Michael W. Deem and Ramdas Pophale) SiO2 
 PCOD8116868
Probable space group: P 2/C
;
_chemical_formula_sum "Si O2"
_cell_formula_units_Z 24
_cell_length_a 5.038664
_cell_length_b 15.393386
_cell_length_c 20.218384
_cell_angle_alpha 90.000000
_cell_angle_beta 119.840813
_cell_angle_gamma 90.000000
_cell_volume 1360.257217
_symmetry_space_group_name_H-M "P 2/C"
_symmetry_group_IT_number 13
_symmetry_cell_setting 'monoclinic'
loop_
_space_group_symop_operation_xyz
x,y,z
-x,y,1/2-z
-x,-y,-z
x,-y,1/2+z
loop_
_atom_site_type_symbol
_atom_site_label
_atom_site_fract_x
_atom_site_fract_y
_atom_site_fract_z
Si Si1 0.304172 0.281109 0.508050
Si Si2 0.599887 0.739866 0.905656
Si Si3 0.252471 0.098190 0.534885
Si Si4 0.353106 0.581511 0.801787
Si Si5 0.344889 0.529357 0.047623
Si Si6 0.556849 0.078130 0.436839
O O1 0.527920 0.283131 0.472849
O O2 0.371617 0.196531 0.563262
O O3 0.363798 0.366603 0.558700
O O4 0.957754 0.277253 0.437455
O O5 0.408061 0.680220 0.832244
O O6 0.508797 0.841372 0.879989
O O7 0.299590 0.082350 0.461642
O O8 0.896966 0.091763 0.510473
O O9 0.440852 0.019727 0.595262
O O10 0.500000 0.564127 0.750000
O O11 0.491419 0.513322 0.870084
O O12 0.000000 0.562982 0.750000
O O13 0.500000 0.500000 0.000000
O O14 0.000000 0.500000 0.000000
#
# Coordination Sequence:
#
# PCOD8116868 Si02
#       6
#     4   4   4   4   4   4
#     4  10  17  30  50  73  94 126 167 206 251 295
#     4  10  18  31  49  69  98 130 161 199 252 305
#     4   8  14  23  40  67  96 115 149 194 242 281
#     4  12  24  36  50  74 104 136 171 216 260 311
#     4  12  21  36  55  74  98 136 178 215 256 308
#     4   8  14  24  40  65  94 123 144 188 241 290
#
# _framework density 17.643719999999998
#
# number of rings (size 3 to 8) (size 9 to 14) (size 15 to 20)
#    0.000    2.000    3.333    2.000    0.000    0.000 
#    0.000    0.000    0.000    0.000    0.000    2.333 
#    0.000    0.000    0.000    0.000    0.000    0.000 
#
# Total GULP energy -297332.442138 kJ/mol
# GULP energy per Si atom -12388.851756 kJ/mol
# Density = 1.760356 g / cm^3
# Si number density = 17.643720 Si / 1000 Ang^3
#
#
#
# Elastic Constant Matrix: (Units=GPa)
#
#
# Indices 1 2 3 4 5 6 
#
# 1 104.0782 28.1375 28.6874 0.0000 1.4055 0.0000
# 2 28.1375 193.8455 55.0606 0.0000 -1.8801 0.0000
# 3 28.6874 55.0606 73.1470 0.0000 0.2734 0.0000
# 4 0.0000 0.0000 0.0000 23.0087 0.0000 0.0196
# 5 1.4055 -1.8801 0.2734 0.0000 22.2366 0.0000
# 6 0.0000 0.0000 0.0000 0.0196 0.0000 24.7896
#
#
#
# Elastic Compliance Matrix: (Units=1/GPa)
#
#
# Indices 1 2 3 4 5 6 
#
# 1 0.010816 -0.000474 -0.003883 0.000000 -0.000676 0.000000
# 2 -0.000474 0.006591 -0.004778 0.000000 0.000646 0.000000
# 3 -0.003883 -0.004778 0.018792 0.000000 -0.000390 0.000000
# 4 0.000000 0.000000 0.000000 0.043462 0.000000 -0.000034
# 5 -0.000676 0.000646 -0.000390 0.000000 0.045073 0.000000
# 6 0.000000 0.000000 0.000000 -0.000034 0.000000 0.040339
#
#
# Mechanical properties :
#
#
# Convention : Reuss Voigt Hill
#
# Bulk Modulus (GPa) = 55.77295 66.09351 60.93323
# Shear Modulus (GPa) = 26.41066 31.28601 28.84834
#
# Velocity S-wave (km/s) = 3.87316 4.21552 4.04796
# Velocity P-wave (km/s) = 7.18896 7.82531 7.51387
#
# Compressibility (1/GPa) = 0.01792984
#
# Stress axis : x y z
#
# Youngs Moduli (GPa) = 92.45965 151.72456 53.21470
#
# Poissons Ratio (x) = 0.07186 0.20662
# Poissons Ratio (y) = 0.04379 0.25425
# Poissons Ratio (z) = 0.35899 0.72492
#
# Static dielectric constant tensor:
#      x y z
#    x 3.561070 0.000000 0.068560 
#    y 0.000000 4.233110 0.000000 
#    z 0.068560 0.000000 2.786630 
# 
# 
# High freq. dielectric constant tensor:
#      x y z
#    x 1.714630 0.000000 0.005610 
#    y 0.000000 1.717560 0.000000 
#    z 0.005610 0.000000 1.584990 
# 
# From -- ./inp_files/73853.got.cif
#   From: 2010.06.25/outbox.cif.g09.slc.cpg/sg13_37_cif.got.tgz:73853.got - 2010.06.28 04:50:58.
