data_PCOD8116920
_publ_section_title
;
Structure prediction by ZEFSAII (Michael W. Deem and Ramdas Pophale) SiO2 
 PCOD8116920
Probable space group: P 2/C
;
_chemical_formula_sum "Si O2"
_cell_formula_units_Z 28
_cell_length_a 18.452890
_cell_length_b 17.245406
_cell_length_c 8.351560
_cell_angle_alpha 90.000000
_cell_angle_beta 32.797216
_cell_angle_gamma 90.000000
_cell_volume 1439.587587
_symmetry_space_group_name_H-M "P 2/C"
_symmetry_group_IT_number 13
_symmetry_cell_setting 'monoclinic'
loop_
_space_group_symop_operation_xyz
x,y,z
-x,y,1/2-z
-x,-y,-z
x,-y,1/2+z
loop_
_atom_site_type_symbol
_atom_site_label
_atom_site_fract_x
_atom_site_fract_y
_atom_site_fract_z
Si Si1 0.361526 0.749180 0.911861
Si Si2 0.229152 0.109061 0.538548
Si Si3 0.038015 0.159147 0.365629
Si Si4 0.142615 0.965776 0.898046
Si Si5 0.385103 0.592305 0.749943
Si Si6 0.325712 0.558132 0.226623
Si Si7 0.141008 0.692652 0.563711
O O1 0.500000 0.739588 0.750000
O O2 0.355513 0.683836 0.781351
O O3 0.354172 0.835080 0.847975
O O4 0.236483 0.735774 0.259963
O O5 0.247350 0.071472 0.329338
O O6 0.208147 0.045235 0.716110
O O7 0.096797 0.162897 0.778597
O O8 0.126694 0.088400 0.270336
O O9 0.114370 0.241324 0.247879
O O10 0.000000 0.146296 0.250000
O O11 0.000000 0.981423 0.250000
O O12 0.540874 0.577563 0.419782
O O13 0.294267 0.533836 0.811509
O O14 0.348999 0.573819 0.999225
O O15 0.207990 0.614527 0.510330
O O16 0.000000 0.667267 0.750000
#
# Coordination Sequence:
#
# PCOD8116920 Si02
#       7
#     4   4   4   4   4   4   4
#     4  11  20  36  57  81 111 151 190 226 281 341
#     4  11  20  34  56  81 110 150 183 238 276 338
#     4  10  17  32  57  85 109 142 186 231 276 328
#     4  10  21  33  55  85 113 140 194 230 282 334
#     4   9  17  34  56  79 104 144 186 223 265 331
#     4   9  17  33  55  80 105 140 185 223 266 327
#     4  10  18  32  59  82 109 144 186 226 283 334
#
# _framework density 19.450015
#
# number of rings (size 3 to 8) (size 9 to 14) (size 15 to 20)
#    0.000    2.000    5.714    3.000    0.000    0.000 
#    2.571    3.571    0.000    0.000    0.000    0.000 
#    0.000    0.000    0.000    0.000    0.000    0.000 
#
# Total GULP energy -346905.121163 kJ/mol
# GULP energy per Si atom -12389.468613 kJ/mol
# Density = 1.940575 g / cm^3
# Si number density = 19.450015 Si / 1000 Ang^3
#
#
#
# Elastic Constant Matrix: (Units=GPa)
#
#
# Indices 1 2 3 4 5 6 
#
# 1 61.4233 58.7080 21.0767 0.0000 0.1408 0.0000
# 2 58.7080 185.1327 40.2283 0.0000 -9.2770 0.0000
# 3 21.0767 40.2283 50.8077 0.0000 -10.6004 0.0000
# 4 0.0000 0.0000 0.0000 28.1733 0.0000 -7.0576
# 5 0.1408 -9.2770 -10.6004 0.0000 19.6785 0.0000
# 6 0.0000 0.0000 0.0000 -7.0576 0.0000 40.1614
#
#
#
# Elastic Compliance Matrix: (Units=1/GPa)
#
#
# Indices 1 2 3 4 5 6 
#
# 1 0.025093 -0.006918 -0.006365 0.000000 -0.006870 0.000000
# 2 -0.006918 0.008433 -0.003343 0.000000 0.002224 0.000000
# 3 -0.006365 -0.003343 0.027771 0.000000 0.013429 0.000000
# 4 0.000000 0.000000 0.000000 0.037129 0.000000 0.006525
# 5 -0.006870 0.002224 0.013429 0.000000 0.059149 0.000000
# 6 0.000000 0.000000 0.000000 0.006525 0.000000 0.026046
#
#
# Mechanical properties :
#
#
# Convention : Reuss Voigt Hill
#
# Bulk Modulus (GPa) = 35.65743 59.70996 47.68370
# Shear Modulus (GPa) = 22.10212 29.42603 25.76408
#
# Velocity S-wave (km/s) = 3.37464 3.89383 3.64350
# Velocity P-wave (km/s) = 5.79284 7.14015 6.50149
#
# Compressibility (1/GPa) = 0.02804465
#
# Stress axis : x y z
#
# Youngs Moduli (GPa) = 39.85197 118.57600 36.00831
#
# Poissons Ratio (x) = 0.82037 0.22918
# Poissons Ratio (y) = 0.27572 0.12039
# Poissons Ratio (z) = 0.25365 0.39643
#
# Static dielectric constant tensor:
#      x y z
#    x 3.420420 0.000000 -0.094780 
#    y 0.000000 4.124640 0.000000 
#    z -0.094780 0.000000 3.435280 
# 
# 
# High freq. dielectric constant tensor:
#      x y z
#    x 1.720390 0.000000 0.001800 
#    y 0.000000 1.778350 0.000000 
#    z 0.001800 0.000000 1.721520 
# 
# From -- ./inp_files/23649.got.cif
#   From: 2010.06.25/outbox.cif.g09.slc.cpg/sg13_12_cif.got.tgz:23649.got - 2010.06.28 04:50:58.
