data_PCOD8116012
_publ_section_title
;
Structure prediction by ZEFSAII (Michael W. Deem and Ramdas Pophale) SiO2 
 PCOD8116012
Probable space group: C 2/M
;
_chemical_formula_sum "Si O2"
_cell_formula_units_Z 56
_cell_length_a 19.401089
_cell_length_b 9.344526
_cell_length_c 21.198143
_cell_angle_alpha 90.000000
_cell_angle_beta 123.127233
_cell_angle_gamma 90.000000
_cell_volume 3218.435321
_symmetry_space_group_name_H-M "C 2/M"
_symmetry_group_IT_number 12
_symmetry_cell_setting 'monoclinic'
loop_
_space_group_symop_operation_xyz
x,y,z
-x,y,-z
-x,-y,-z
x,-y,z
1/2+x,1/2+y,z
1/2-x,1/2+y,-z
1/2-x,1/2-y,-z
1/2+x,1/2-y,z
loop_
_atom_site_type_symbol
_atom_site_label
_atom_site_fract_x
_atom_site_fract_y
_atom_site_fract_z
Si Si1 0.970611 0.331783 0.724983
Si Si2 0.518533 0.331831 0.862423
Si Si3 0.131456 0.330764 0.571748
Si Si4 0.131338 0.335465 0.152666
Si Si5 0.405898 0.340796 0.975410
Si Si6 0.492203 0.830413 0.594767
Si Si7 0.789103 0.661302 0.682416
O O1 0.989290 0.500000 0.740752
O O2 0.986979 0.271241 0.663099
O O3 0.876658 0.297175 0.696016
O O4 0.033161 0.246261 0.802632
O O5 0.502634 0.500000 0.844197
O O6 0.439193 0.260864 0.853350
O O7 0.594862 0.307393 0.949463
O O8 0.141824 0.500000 0.577067
O O9 0.085985 0.277336 0.485310
O O10 0.221311 0.263912 0.619352
O O11 0.077023 0.279666 0.604488
O O12 0.102390 0.500000 0.131782
O O13 0.150666 0.271163 0.092508
O O14 0.207951 0.324347 0.239469
O O15 0.371300 0.500000 0.945601
O O16 0.500000 0.330336 0.000000
O O17 0.489480 0.000000 0.594329
O O18 0.766072 0.500000 0.651930
#
# Coordination Sequence:
#
# PCOD8116012 Si02
#       7
#     8   8   8   8   8   8   8
#     4   9  17  30  46  63  89 121 147 178 219 262
#     4   9  16  25  37  58  88 115 143 181 220 257
#     4   9  17  31  51  68  84 113 149 183 218 260
#     4   9  16  25  38  57  84 118 150 178 212 257
#     4   8  14  23  35  54  83 115 143 178 219 254
#     4   8  16  32  50  67  86 111 149 187 216 255
#     4   9  18  29  41  64  95 119 141 177 222 260
#
# _framework density 17.399757999999999
#
# number of rings (size 3 to 8) (size 9 to 14) (size 15 to 20)
#    0.000    3.286    0.000    3.429    0.000    6.571 
#    0.000    2.857    0.000    0.000    0.000    1.000 
#    0.000    0.000    0.000    0.000    0.000    0.000 
#
# Total GULP energy -346893.974158 kJ/mol
# GULP energy per Si atom -12389.070506 kJ/mol
# Density = 1.736016 g / cm^3
# Si number density = 17.399758 Si / 1000 Ang^3
#
#
#
# Elastic Constant Matrix: (Units=GPa)
#
#
# Indices 1 2 3 4 5 6 
#
# 1 29.2052 14.5015 28.2056 0.0000 -17.3625 0.0000
# 2 14.5015 61.9853 38.9956 0.0000 -14.4794 0.0000
# 3 28.2056 38.9956 106.2185 0.0000 -40.3708 0.0000
# 4 0.0000 0.0000 0.0000 30.9411 0.0000 4.2941
# 5 -17.3625 -14.4794 -40.3708 0.0000 20.8627 0.0000
# 6 0.0000 0.0000 0.0000 4.2941 0.0000 10.7361
#
#
#
# Elastic Compliance Matrix: (Units=1/GPa)
#
#
# Indices 1 2 3 4 5 6 
#
# 1 0.075273 -0.007200 0.017257 0.000000 0.091041 0.000000
# 2 -0.007200 0.021676 -0.009850 0.000000 -0.010008 0.000000
# 3 0.017257 -0.009850 0.042749 0.000000 0.090248 0.000000
# 4 0.000000 0.000000 0.000000 0.034219 0.000000 -0.013687
# 5 0.091041 -0.010008 0.090248 0.000000 0.291390 0.000000
# 6 0.000000 0.000000 0.000000 -0.013687 0.000000 0.098618
#
#
# Mechanical properties :
#
#
# Convention : Reuss Voigt Hill
#
# Bulk Modulus (GPa) = 7.13710 40.09045 23.61378
# Shear Modulus (GPa) = 8.19385 20.22174 14.20780
#
# Velocity S-wave (km/s) = 2.17242 3.41278 2.86064
# Velocity P-wave (km/s) = 3.22541 6.21452 4.95094
#
# Compressibility (1/GPa) = 0.14011284
#
# Stress axis : x y z
#
# Youngs Moduli (GPa) = 13.28504 46.13384 23.39237
#
# Poissons Ratio (x) = 0.33217 -0.40369
# Poissons Ratio (y) = 0.09566 0.23041
# Poissons Ratio (z) = -0.22927 0.45440
#
# Static dielectric constant tensor:
#      x y z
#    x 2.832330 0.000000 -0.412710 
#    y 0.000000 3.173060 0.000000 
#    z -0.412710 0.000000 4.089940 
# 
# 
# High freq. dielectric constant tensor:
#      x y z
#    x 1.608950 0.000000 -0.017660 
#    y 0.000000 1.662050 0.000000 
#    z -0.017660 0.000000 1.690800 
# 
# From -- ./inp_files/319307.got.cif
#   From: 2010.06.25/outbox.cif.g09.slc.cpg/sg12_160_cif.got.tgz:319307.got - 2010.06.28 00:19:55.
