data_PCOD8116646
_publ_section_title
;
Structure prediction by ZEFSAII (Michael W. Deem and Ramdas Pophale) SiO2 
 PCOD8116646
Probable space group: P 2/C
;
_chemical_formula_sum "Si O2"
_cell_formula_units_Z 18
_cell_length_a 7.338717
_cell_length_b 23.086834
_cell_length_c 5.363837
_cell_angle_alpha 90.000000
_cell_angle_beta 56.317861
_cell_angle_gamma 90.000000
_cell_volume 756.222735
_symmetry_space_group_name_H-M "P 2/C"
_symmetry_group_IT_number 13
_symmetry_cell_setting 'monoclinic'
loop_
_space_group_symop_operation_xyz
x,y,z
-x,y,1/2-z
-x,-y,-z
x,-y,1/2+z
loop_
_atom_site_type_symbol
_atom_site_label
_atom_site_fract_x
_atom_site_fract_y
_atom_site_fract_z
Si Si1 0.740983 0.467671 0.422562
Si Si2 0.250823 0.023816 0.804718
Si Si3 0.134881 0.851332 0.398634
Si Si4 0.500000 0.361725 0.750000
Si Si5 0.141084 0.276385 0.893263
O O1 0.659439 0.493002 0.752732
O O2 0.646005 0.402898 0.459436
O O3 0.000000 0.464293 0.250000
O O4 0.288439 0.092985 0.749236
O O5 0.365277 0.994139 0.478067
O O6 0.000000 0.000000 0.000000
O O7 0.248192 0.788168 0.337348
O O8 0.000000 0.847753 0.250000
O O9 0.000000 0.864265 0.750000
O O10 0.338733 0.321504 0.711563
O O11 0.000000 0.282831 0.750000
O O12 0.000000 0.289348 0.250000
#
# Coordination Sequence:
#
# PCOD8116646 Si02
#       5
#     4   4   4   2   4
#     4  10  23  42  67 100 130 161 203 259 309 362
#     4  10  14  20  39  71  98 134 188 243 297 362
#     4  10  16  29  45  70 114 143 190 256 297 353
#     4  12  24  44  70  94 130 174 212 250 312 376
#     4  10  25  41  60  90 125 169 213 260 306 369
#
# _framework density 23.802510000000002
#
# number of rings (size 3 to 8) (size 9 to 14) (size 15 to 20)
#    0.000    1.778    4.444    1.333    0.000    7.111 
#    0.000    0.000    0.000    0.000    0.000    1.556 
#    0.000    0.000    0.000    0.000    0.000    0.222 
#
# Total GULP energy -223068.949681 kJ/mol
# GULP energy per Si atom -12392.719427 kJ/mol
# Density = 2.374833 g / cm^3
# Si number density = 23.802510 Si / 1000 Ang^3
#
#
#
# Elastic Constant Matrix: (Units=GPa)
#
#
# Indices 1 2 3 4 5 6 
#
# 1 131.0432 68.7013 52.1991 0.0000 21.9492 0.0000
# 2 68.7013 222.9403 49.0913 0.0000 3.1036 0.0000
# 3 52.1991 49.0913 145.9536 0.0000 32.5251 0.0000
# 4 0.0000 0.0000 0.0000 12.5787 0.0000 13.9808
# 5 21.9492 3.1036 32.5251 0.0000 33.8268 0.0000
# 6 0.0000 0.0000 0.0000 13.9808 0.0000 25.0953
#
#
#
# Elastic Compliance Matrix: (Units=1/GPa)
#
#
# Indices 1 2 3 4 5 6 
#
# 1 0.010640 -0.002825 -0.001749 0.000000 -0.004963 0.000000
# 2 -0.002825 0.005649 -0.001505 0.000000 0.002762 0.000000
# 3 -0.001749 -0.001505 0.009799 0.000000 -0.008149 0.000000
# 4 0.000000 0.000000 0.000000 0.208772 0.000000 -0.116308
# 5 -0.004963 0.002762 -0.008149 0.000000 0.040365 0.000000
# 6 0.000000 0.000000 0.000000 -0.116308 0.000000 0.104644
#
#
# Mechanical properties :
#
#
# Convention : Reuss Voigt Hill
#
# Bulk Modulus (GPa) = 71.78764 93.32450 82.55607
# Shear Modulus (GPa) = 12.60492 36.29652 24.45072
#
# Velocity S-wave (km/s) = 2.30372 3.90924 3.20852
# Velocity P-wave (km/s) = 6.10748 7.72458 6.96313
#
# Compressibility (1/GPa) = 0.01392997
#
# Stress axis : x y z
#
# Youngs Moduli (GPa) = 93.98558 177.02474 102.04676
#
# Poissons Ratio (x) = 0.50001 0.17851
# Poissons Ratio (y) = 0.26546 0.15361
# Poissons Ratio (z) = 0.16441 0.26648
#
# Static dielectric constant tensor:
#      x y z
#    x 4.445250 0.000000 0.359810 
#    y 0.000000 4.761530 0.000000 
#    z 0.359810 0.000000 4.604900 
# 
# 
# High freq. dielectric constant tensor:
#      x y z
#    x 1.964140 0.000000 0.008740 
#    y 0.000000 1.957330 0.000000 
#    z 0.008740 0.000000 1.953490 
# 
# From -- ./inp_files/1911.got.cif
#   From: 2010.06.25/outbox.cif.g09.slc.cpg/sg13_1_cif.got.tgz:1911.got - 2010.06.28 04:50:58.
