data_PCOD8116349
_publ_section_title
;
Structure prediction by ZEFSAII (Michael W. Deem and Ramdas Pophale) SiO2 
 PCOD8116349
Probable space group: C 2/M
;
_chemical_formula_sum "Si O2"
_cell_formula_units_Z 32
_cell_length_a 18.000000
_cell_length_b 9.000000
_cell_length_c 30.000000
_cell_angle_alpha 90.000000
_cell_angle_beta 40.000000
_cell_angle_gamma 90.000000
_cell_volume 3123.947783
_symmetry_space_group_name_H-M "C 2/M"
_symmetry_group_IT_number 12
_symmetry_cell_setting 'monoclinic'
loop_
_space_group_symop_operation_xyz
x,y,z
-x,y,-z
-x,-y,-z
x,-y,z
1/2+x,1/2+y,z
1/2-x,1/2+y,-z
1/2-x,1/2-y,-z
1/2+x,1/2-y,z
loop_
_atom_site_type_symbol
_atom_site_label
_atom_site_fract_x
_atom_site_fract_y
_atom_site_fract_z
Si Si1 0.865325 0.334837 0.568792
Si Si2 0.276493 0.174362 0.897025
Si Si3 0.023617 0.169762 0.161748
Si Si4 0.389550 0.171940 0.965304
Si Si5 0.102009 0.828119 0.359256
Si Si6 0.165149 0.826086 0.505134
Si Si7 0.204218 0.171281 0.775663
Si Si8 0.123321 0.668166 0.897809
O O1 0.811223 0.500000 0.602059
O O2 0.844738 0.221210 0.618221
O O3 0.807189 0.257232 0.553364
O O4 0.000000 0.355244 0.500000
O O5 0.408814 0.235507 0.830957
O O6 0.192104 0.215039 0.895927
O O7 0.278793 0.000000 0.901995
O O8 0.229334 0.253690 0.963534
O O9 0.062535 0.230016 0.096191
O O10 0.883400 0.184199 0.226951
O O11 0.061831 0.000000 0.149970
O O12 0.482619 0.179236 0.963949
O O13 0.370464 0.000000 0.959784
O O14 0.165470 0.722098 0.294774
O O15 0.965699 0.799364 0.418561
O O16 0.132181 0.000000 0.337310
O O17 0.250000 0.750000 0.500000
O O18 0.191313 0.000000 0.487853
O O19 0.158534 0.289315 0.831906
O O20 0.205741 0.000000 0.792142
O O21 0.163049 0.500000 0.890840
#
# Coordination Sequence:
#
# PCOD8116349 Si02
#       8
#     8   8   8   8   8   8   8   8
#     4   9  17  31  53  80 109 141 177 216 256 301
#     4  12  23  34  52  78 107 137 172 218 270 320
#     4  10  21  37  55  76 104 136 173 219 267 315
#     4  10  20  35  55  78 104 136 174 215 265 324
#     4  10  20  35  57  82 109 143 180 217 259 311
#     4  10  20  34  54  83 117 148 177 215 263 309
#     4  10  21  38  59  80 103 137 180 221 262 313
#     4  10  21  37  56  77 105 140 176 218 267 319
#
# _framework density 10.243449
#
# number of rings (size 3 to 8) (size 9 to 14) (size 15 to 20)
#    0.000    1.875    0.000    4.500    0.000    7.500 
#    0.000    1.250    0.000    7.500    0.000    0.000 
#    0.000    0.000    0.000    0.000    0.000    0.000 
#
# Total GULP energy -396589.234927 kJ/mol
# GULP energy per Si atom -12393.413591 kJ/mol
# Density = 1.022013 g / cm^3
# Si number density = 10.243449 Si / 1000 Ang^3
#
#
#
# Elastic Constant Matrix: (Units=GPa)
#
#
# Indices 1 2 3 4 5 6 
#
# 1 91.4279 47.3852 8.3179 0.0003 -11.6029 0.0058
# 2 47.3852 118.8688 16.3309 0.0002 -17.7372 0.0026
# 3 8.3179 16.3309 28.9489 -0.0001 -16.7531 0.0002
# 4 0.0003 0.0002 -0.0001 27.7018 -0.0002 0.2812
# 5 -11.6029 -17.7372 -16.7531 -0.0002 14.0609 0.0006
# 6 0.0058 0.0026 0.0002 0.2812 0.0006 35.4724
#
#
#
# Elastic Compliance Matrix: (Units=1/GPa)
#
#
# Indices 1 2 3 4 5 6 
#
# 1 0.014488 -0.004598 0.006420 0.000000 0.013805 -0.000002
# 2 -0.004598 0.012105 0.003651 0.000000 0.015827 0.000000
# 3 0.006420 0.003651 0.117143 0.000002 0.149475 -0.000004
# 4 0.000000 0.000000 0.000002 0.036102 0.000003 -0.000286
# 5 0.013805 0.015827 0.149475 0.000003 0.280570 -0.000009
# 6 -0.000002 0.000000 -0.000004 -0.000286 -0.000009 0.028193
#
#
# Mechanical properties :
#
#
# Convention : Reuss Voigt Hill
#
# Bulk Modulus (GPa) = 6.46482 42.59040 24.52761
# Shear Modulus (GPa) = 9.44795 26.59447 18.02121
#
# Velocity S-wave (km/s) = 2.14982 3.60685 2.96910
# Velocity P-wave (km/s) = 3.05364 6.17900 4.87364
#
# Compressibility (1/GPa) = 0.15468324
#
# Stress axis : x y z
#
# Youngs Moduli (GPa) = 69.02105 82.60762 8.53661
#
# Poissons Ratio (x) = 0.37980 -0.05480
# Poissons Ratio (y) = 0.31733 -0.03117
# Poissons Ratio (z) = -0.44310 -0.30163
#
# Static dielectric constant tensor:
#      x y z
#    x 3.929870 0.000000 -0.245310 
#    y 0.000000 3.855080 0.000000 
#    z -0.245310 0.000000 3.605830 
# 
# 
# High freq. dielectric constant tensor:
#      x y z
#    x 1.802120 0.000000 -0.015760 
#    y 0.000000 1.821070 0.000000 
#    z -0.015760 0.000000 1.764060 
# 
# From -- ./inp_files/377997.got.cif
#   From: 2010.06.25/outbox.ucp.g09.slc.cvg/sg12_189_cif.got.tgz:377997.got - 2010.06.28 13:50:54.
