data_PCOD8116374
_publ_section_title
;
Structure prediction by ZEFSAII (Michael W. Deem and Ramdas Pophale) SiO2 
 PCOD8116374
Probable space group: C 2/M
;
_chemical_formula_sum "Si O2"
_cell_formula_units_Z 32
_cell_length_a 30.000000
_cell_length_b 9.000000
_cell_length_c 18.000000
_cell_angle_alpha 90.000000
_cell_angle_beta 40.000000
_cell_angle_gamma 90.000000
_cell_volume 3123.947783
_symmetry_space_group_name_H-M "C 2/M"
_symmetry_group_IT_number 12
_symmetry_cell_setting 'monoclinic'
loop_
_space_group_symop_operation_xyz
x,y,z
-x,y,-z
-x,-y,-z
x,-y,z
1/2+x,1/2+y,z
1/2-x,1/2+y,-z
1/2-x,1/2-y,-z
1/2+x,1/2-y,z
loop_
_atom_site_type_symbol
_atom_site_label
_atom_site_fract_x
_atom_site_fract_y
_atom_site_fract_z
Si Si1 0.860609 0.173552 0.583899
Si Si2 0.400998 0.167284 0.682867
Si Si3 0.062837 0.830718 0.133041
Si Si4 0.498953 0.827487 0.086523
Si Si5 0.653164 0.169749 0.660055
Si Si6 0.020362 0.331709 0.635356
Si Si7 0.179580 0.166619 0.089173
Si Si8 0.226382 0.328728 0.415697
O O1 0.882721 0.253003 0.630607
O O2 0.917748 0.214758 0.449601
O O3 0.789758 0.236138 0.638795
O O4 0.854664 0.000000 0.605820
O O5 0.481765 0.166284 0.603943
O O6 0.368883 0.257928 0.790079
O O7 0.371579 0.000000 0.716515
O O8 0.143727 0.827509 0.053625
O O9 0.056118 0.768208 0.058092
O O10 0.023664 0.719747 0.238355
O O11 0.034533 0.000000 0.174530
O O12 0.426179 0.795153 0.219838
O O13 0.519314 0.000000 0.064213
O O14 0.500000 0.772821 0.000000
O O15 0.698738 0.278265 0.651969
O O16 0.668554 0.200349 0.553589
O O17 0.672207 0.000000 0.655887
O O18 0.047264 0.500000 0.617147
O O19 0.193282 0.000000 0.097630
O O20 0.250000 0.250000 0.000000
O O21 0.229895 0.500000 0.389017
#
# Coordination Sequence:
#
# PCOD8116374 Si02
#       8
#     8   8   8   8   8   8   8   8
#     4  12  23  34  52  82 118 152 187 229 280 339
#     4  10  21  37  56  80 112 148 188 235 285 338
#     4  10  21  37  59  87 115 147 193 241 286 341
#     4  10  21  38  60  86 116 153 194 241 295 351
#     4   9  19  37  58  80 110 144 188 240 288 344
#     4  10  20  35  57  82 112 150 189 232 281 338
#     4  10  21  39  61  85 113 151 195 240 288 341
#     4  10  20  35  57  82 109 149 192 235 287 346
#
# _framework density 10.243449
#
# number of rings (size 3 to 8) (size 9 to 14) (size 15 to 20)
#    0.000    1.875    0.000    4.125    0.000    6.750 
#    2.250    0.000    0.000    0.000    0.000    0.000 
#    0.000    0.000    0.000    0.000    0.000    0.000 
#
# Total GULP energy -396686.159604 kJ/mol
# GULP energy per Si atom -12396.442488 kJ/mol
# Density = 1.022013 g / cm^3
# Si number density = 10.243449 Si / 1000 Ang^3
#
#
#
# Elastic Constant Matrix: (Units=GPa)
#
#
# Indices 1 2 3 4 5 6 
#
# 1 113.9971 56.5873 36.9772 0.0097 14.2322 -0.0047
# 2 56.5873 123.6337 39.3531 0.0195 -1.6891 -0.0106
# 3 36.9772 39.3531 14.2261 0.0096 3.7597 -0.0026
# 4 0.0097 0.0195 0.0096 23.1517 -0.0028 -1.3512
# 5 14.2322 -1.6891 3.7597 -0.0028 23.1467 0.0010
# 6 -0.0047 -0.0106 -0.0026 -1.3512 0.0010 37.6941
#
#
#
# Elastic Compliance Matrix: (Units=1/GPa)
#
#
# Indices 1 2 3 4 5 6 
#
# 1 -0.004717 -0.024964 0.084667 -0.000014 -0.012674 -0.000002
# 2 -0.024964 -0.009801 0.092084 -0.000019 -0.000323 0.000000
# 3 0.084667 0.092084 -0.410127 0.000059 0.021278 0.000010
# 4 -0.000014 -0.000019 0.000059 0.043284 0.000002 0.001552
# 5 -0.012674 -0.000323 0.021278 0.000002 0.047516 -0.000001
# 6 -0.000002 0.000000 0.000010 0.001552 -0.000001 0.026585
#
#
# Mechanical properties :
#
#
# Convention : Reuss Voigt Hill
#
# Bulk Modulus (GPa) = -8.25956 57.52133 24.63089
# Shear Modulus (GPa) = -7.67825 24.72778 8.52477
#
# Velocity S-wave (km/s) = -1.93804 3.47797 2.04209
# Velocity P-wave (km/s) = 3.00806 6.65330 4.19631
#
# Compressibility (1/GPa) = -0.12107189
#
# Stress axis : x y z
#
# Youngs Moduli (GPa) = -212.00345 -102.03441 -2.43827
#
# Poissons Ratio (x) = -2.54718 0.20644
# Poissons Ratio (y) = -5.29244 0.22452
# Poissons Ratio (z) = 17.94961 9.39572
#
# Static dielectric constant tensor:
#      x y z
#    x 3.308870 -0.000030 0.547200 
#    y -0.000030 3.772590 0.000030 
#    z 0.547200 0.000030 2.956290 
# 
# 
# High freq. dielectric constant tensor:
#      x y z
#    x 1.815690 0.000000 0.006060 
#    y 0.000000 1.808060 0.000000 
#    z 0.006060 0.000000 1.761760 
# 
# From -- ./inp_files/295659.got.cif
#   From: 2010.06.25/outbox.ucp.g09.slc.cvg/sg12_148_cif.got.tgz:295659.got - 2010.06.28 13:50:54.
