data_PCOD8116687
_publ_section_title
;
Structure prediction by ZEFSAII (Michael W. Deem and Ramdas Pophale) SiO2 
 PCOD8116687
Probable space group: P 2/C
;
_chemical_formula_sum "Si O2"
_cell_formula_units_Z 18
_cell_length_a 24.608404
_cell_length_b 7.100346
_cell_length_c 5.342590
_cell_angle_alpha 90.000000
_cell_angle_beta 122.530084
_cell_angle_gamma 90.000000
_cell_volume 787.043329
_symmetry_space_group_name_H-M "P 2/C"
_symmetry_group_IT_number 13
_symmetry_cell_setting 'monoclinic'
loop_
_space_group_symop_operation_xyz
x,y,z
-x,y,1/2-z
-x,-y,-z
x,-y,1/2+z
loop_
_atom_site_type_symbol
_atom_site_label
_atom_site_fract_x
_atom_site_fract_y
_atom_site_fract_z
Si Si1 0.500000 0.621077 0.250000
Si Si2 0.305192 0.292579 0.771655
Si Si3 0.158855 0.618958 0.919786
Si Si4 0.972970 0.789020 0.932833
Si Si5 0.641138 0.281727 0.095330
O O1 0.500000 0.500000 0.500000
O O2 0.564199 0.746821 0.409179
O O3 0.228411 0.287153 0.573658
O O4 0.331091 0.184981 0.588119
O O5 0.335998 0.500831 0.852364
O O6 0.329174 0.185360 0.081949
O O7 0.150570 0.475168 0.670291
O O8 0.104761 0.781475 0.760650
O O9 0.000000 0.685583 0.750000
O O10 0.000000 0.686025 0.250000
O O11 0.000000 0.000000 0.000000
#
# Coordination Sequence:
#
# PCOD8116687 Si02
#       5
#     2   4   4   4   4
#     4  12  16  20  34  52  74 128 178 188 224 292
#     4  10  16  27  38  59  91 120 152 213 245 282
#     4  12  21  32  55  80 100 128 171 218 265 300
#     4  10  23  42  57  73 102 135 165 203 266 324
#     4  10  16  25  36  54  90 126 164 204 236 288
#
# _framework density 22.870405000000002
#
# number of rings (size 3 to 8) (size 9 to 14) (size 15 to 20)
#    0.000    1.333    8.889    1.333    0.000    2.667 
#    0.000    0.000    0.000    0.000    0.000    0.000 
#    0.000    0.000    0.000    0.000    0.000  151.111 
#
# Total GULP energy -223038.949204 kJ/mol
# GULP energy per Si atom -12391.052734 kJ/mol
# Density = 2.281835 g / cm^3
# Si number density = 22.870405 Si / 1000 Ang^3
#
#
#
# Elastic Constant Matrix: (Units=GPa)
#
#
# Indices 1 2 3 4 5 6 
#
# 1 186.6140 13.8052 117.0726 0.0000 14.2378 0.0000
# 2 13.8052 29.4372 12.8544 0.0000 15.2129 0.0000
# 3 117.0726 12.8544 226.1676 0.0000 -8.5651 0.0000
# 4 0.0000 0.0000 0.0000 -5.7897 0.0000 9.8023
# 5 14.2378 15.2129 -8.5651 0.0000 93.5055 0.0000
# 6 0.0000 0.0000 0.0000 9.8023 0.0000 -0.8498
#
#
#
# Elastic Compliance Matrix: (Units=1/GPa)
#
#
# Indices 1 2 3 4 5 6 
#
# 1 0.008220 -0.001263 -0.004237 0.000000 -0.001434 0.000000
# 2 -0.001263 0.038565 -0.001774 0.000000 -0.006245 0.000000
# 3 -0.004237 -0.001774 0.006775 0.000000 0.001554 0.000000
# 4 0.000000 0.000000 0.000000 0.009321 0.000000 0.107522
# 5 -0.001434 -0.006245 0.001554 0.000000 0.012071 0.000000
# 6 0.000000 0.000000 0.000000 0.107522 0.000000 0.063507
#
#
# Mechanical properties :
#
#
# Convention : Reuss Voigt Hill
#
# Bulk Modulus (GPa) = 25.63495 81.07593 53.35544
# Shear Modulus (GPa) = 30.11813 37.27233 33.69523
#
# Velocity S-wave (km/s) = 3.63285 4.04136 3.84254
# Velocity P-wave (km/s) = 5.36935 7.56993 6.56254
#
# Compressibility (1/GPa) = 0.03900924
#
# Stress axis : x y z
#
# Youngs Moduli (GPa) = 121.65610 25.93023 147.60879
#
# Poissons Ratio (x) = 0.03276 0.62548
# Poissons Ratio (y) = 0.15369 0.26192
# Poissons Ratio (z) = 0.51551 0.04601
#
# Static dielectric constant tensor:
#      x y z
#    x 6.099000 0.000000 -1.955260 
#    y 0.000000 3.235570 0.000000 
#    z -1.955260 0.000000 6.785970 
# 
# 
# High freq. dielectric constant tensor:
#      x y z
#    x 1.930660 0.000000 -0.017840 
#    y 0.000000 1.825050 0.000000 
#    z -0.017840 0.000000 1.940360 
# 
# From -- ./inp_files/5813.got.cif
#   From: 2010.06.25/outbox.cif.g09.slc.cpg/sg13_3_cif.got.tgz:5813.got - 2010.06.28 04:50:58.
