data_PCOD8116939
_publ_section_title
;
Structure prediction by ZEFSAII (Michael W. Deem and Ramdas Pophale) SiO2 
 PCOD8116939
Probable space group: P 2/C
;
_chemical_formula_sum "Si O2"
_cell_formula_units_Z 28
_cell_length_a 11.784327
_cell_length_b 14.445993
_cell_length_c 9.744278
_cell_angle_alpha 90.000000
_cell_angle_beta 118.614038
_cell_angle_gamma 90.000000
_cell_volume 1456.229800
_symmetry_space_group_name_H-M "P 2/C"
_symmetry_group_IT_number 13
_symmetry_cell_setting 'monoclinic'
loop_
_space_group_symop_operation_xyz
x,y,z
-x,y,1/2-z
-x,-y,-z
x,-y,1/2+z
loop_
_atom_site_type_symbol
_atom_site_label
_atom_site_fract_x
_atom_site_fract_y
_atom_site_fract_z
Si Si1 0.590992 0.968405 0.431964
Si Si2 0.414816 0.199777 0.407788
Si Si3 0.706277 0.468018 0.589671
Si Si4 0.070175 0.429722 0.143372
Si Si5 0.115468 0.314610 0.925229
Si Si6 0.530914 0.375143 0.912992
Si Si7 0.686339 0.159012 0.447304
O O1 0.500000 0.954928 0.250000
O O2 0.647959 0.869885 0.514723
O O3 0.500000 0.000000 0.500000
O O4 0.701949 0.046583 0.467384
O O5 0.392704 0.303631 0.446093
O O6 0.569068 0.186034 0.479781
O O7 0.343001 0.186607 0.224548
O O8 0.788750 0.528134 0.745308
O O9 0.793376 0.402740 0.546564
O O10 0.607604 0.401813 0.609178
O O11 0.623772 0.536672 0.445037
O O12 0.000000 0.414955 0.250000
O O13 0.073824 0.331309 0.060969
O O14 0.000000 0.500000 0.000000
O O15 0.000000 0.319045 0.750000
O O16 0.184545 0.215392 0.939286
O O17 0.500000 0.327491 0.750000
#
# Coordination Sequence:
#
# PCOD8116939 Si02
#       7
#     4   4   4   4   4   4   4
#     4  10  17  33  60  88 118 150 187 232 298 360
#     4  10  19  35  58  88 120 156 186 245 298 364
#     4  11  22  38  55  82 122 166 198 247 298 347
#     4  12  22  39  62  82 110 160 214 257 287 343
#     4  12  23  40  63  82 118 167 207 247 297 355
#     4  11  23  34  54  86 128 158 197 244 302 360
#     4  10  20  36  57  87 120 148 200 239 299 358
#
# _framework density 19.227734999999999
#
# number of rings (size 3 to 8) (size 9 to 14) (size 15 to 20)
#    0.000    1.143    7.143    2.143    0.000    1.143 
#    0.000    0.000    0.000    0.857    0.000    2.000 
#    0.000    0.000    0.000    0.000    0.000    0.000 
#
# Total GULP energy -346971.563735 kJ/mol
# GULP energy per Si atom -12391.841562 kJ/mol
# Density = 1.918397 g / cm^3
# Si number density = 19.227735 Si / 1000 Ang^3
#
#
#
# Elastic Constant Matrix: (Units=GPa)
#
#
# Indices 1 2 3 4 5 6 
#
# 1 65.8679 46.5906 41.2409 0.0000 -0.7884 0.0000
# 2 46.5906 108.0072 37.5251 0.0000 -9.5189 0.0000
# 3 41.2409 37.5251 97.4767 0.0000 -17.4224 0.0000
# 4 0.0000 0.0000 0.0000 22.7640 0.0000 -8.0135
# 5 -0.7884 -9.5189 -17.4224 0.0000 26.5692 0.0000
# 6 0.0000 0.0000 0.0000 -8.0135 0.0000 27.4134
#
#
#
# Elastic Compliance Matrix: (Units=1/GPa)
#
#
# Indices 1 2 3 4 5 6 
#
# 1 0.027835 -0.009406 -0.009753 0.000000 -0.008940 0.000000
# 2 -0.009406 0.013906 -0.000604 0.000000 0.004307 0.000000
# 3 -0.009753 -0.000604 0.016456 0.000000 0.010285 0.000000
# 4 0.000000 0.000000 0.000000 0.048968 0.000000 0.014314
# 5 -0.008940 0.004307 0.010285 0.000000 0.045660 0.000000
# 6 0.000000 0.000000 0.000000 0.014314 0.000000 0.040663
#
#
# Mechanical properties :
#
#
# Convention : Reuss Voigt Hill
#
# Bulk Modulus (GPa) = 53.56186 58.00721 55.78454
# Shear Modulus (GPa) = 20.89979 25.08235 22.99107
#
# Velocity S-wave (km/s) = 3.30049 3.61569 3.46168
# Velocity P-wave (km/s) = 6.51470 6.90398 6.71216
#
# Compressibility (1/GPa) = 0.01867000
#
# Stress axis : x y z
#
# Youngs Moduli (GPa) = 35.92601 71.91382 60.76808
#
# Poissons Ratio (x) = 0.67645 0.59269
# Poissons Ratio (y) = 0.33793 0.03668
# Poissons Ratio (z) = 0.35040 0.04341
#
# Static dielectric constant tensor:
#      x y z
#    x 3.781610 0.000000 -0.256680 
#    y 0.000000 0.841960 0.000000 
#    z -0.256680 0.000000 3.574480 
# 
# 
# High freq. dielectric constant tensor:
#      x y z
#    x 1.717720 0.000000 -0.015780 
#    y 0.000000 1.745390 0.000000 
#    z -0.015780 0.000000 1.757030 
# 
# From -- ./inp_files/16857.got.cif
#   From: 2010.06.25/outbox.cif.g09.slc.cpg/sg13_9_cif.got.tgz:16857.got - 2010.06.28 04:50:58.
