data_PCOD8116444
_publ_section_title
;
Structure prediction by ZEFSAII (Michael W. Deem and Ramdas Pophale) SiO2 
 PCOD8116444
Probable space group: C 2/M
;
_chemical_formula_sum "Si O2"
_cell_formula_units_Z 28
_cell_length_a 18.000000
_cell_length_b 18.000000
_cell_length_c 27.000000
_cell_angle_alpha 90.000000
_cell_angle_beta 20.000000
_cell_angle_gamma 90.000000
_cell_volume 2991.992214
_symmetry_space_group_name_H-M "C 2/M"
_symmetry_group_IT_number 12
_symmetry_cell_setting 'monoclinic'
loop_
_space_group_symop_operation_xyz
x,y,z
-x,y,-z
-x,-y,-z
x,-y,z
1/2+x,1/2+y,z
1/2-x,1/2+y,-z
1/2-x,1/2-y,-z
1/2+x,1/2-y,z
loop_
_atom_site_type_symbol
_atom_site_label
_atom_site_fract_x
_atom_site_fract_y
_atom_site_fract_z
Si Si1 0.242823 0.315968 0.653587
Si Si2 0.942051 0.587711 0.309168
Si Si3 0.091597 0.153058 0.996776
Si Si4 0.438579 0.662711 0.262583
Si Si5 0.114116 0.293508 0.044730
Si Si6 0.726310 0.414811 0.730949
Si Si7 0.158634 0.412426 0.515734
O O1 0.500000 0.301637 0.500000
O O2 0.226784 0.388416 0.628087
O O3 0.131388 0.248751 0.693207
O O4 0.103139 0.328269 0.792912
O O5 0.986859 0.500000 0.278856
O O6 0.852412 0.610473 0.419571
O O7 0.156784 0.633653 0.161741
O O8 0.042478 0.236646 0.046502
O O9 0.000000 0.142747 0.000000
O O10 0.976209 0.095014 0.105570
O O11 0.308222 0.628272 0.298261
O O12 0.365738 0.626136 0.360076
O O13 0.702428 0.649783 0.092402
O O14 0.250000 0.250000 0.000000
O O15 0.752415 0.500000 0.700276
O O16 0.941366 0.384708 0.623829
O O17 0.186151 0.500000 0.493351
#
# Coordination Sequence:
#
# PCOD8116444 Si02
#       7
#     8   8   8   8   8   8   8
#     4  11  22  39  64  84 110 151 195 242 284 329
#     4  11  23  39  57  85 117 150 192 240 290 339
#     4  12  21  36  58  86 120 154 185 234 293 344
#     4  11  20  37  59  79 120 154 190 232 278 338
#     4  10  20  39  57  83 118 145 191 243 273 331
#     4  11  20  31  55  87 117 153 188 225 283 345
#     4  10  22  36  53  85 123 149 182 234 285 346
#
# _framework density 9.3583130000000008
#
# number of rings (size 3 to 8) (size 9 to 14) (size 15 to 20)
#    0.000    1.143    7.143    2.143    0.000    2.571 
#    2.571    0.714    0.000    0.000    0.000    2.000 
#    0.000    0.000    0.000    0.000    0.000    0.000 
#
# Total GULP energy -347099.395491 kJ/mol
# GULP energy per Si atom -12396.406982 kJ/mol
# Density = 0.933701 g / cm^3
# Si number density = 9.358313 Si / 1000 Ang^3
#
#
#
# Elastic Constant Matrix: (Units=GPa)
#
#
# Indices 1 2 3 4 5 6 
#
# 1 64.4942 32.3628 32.8683 0.2010 20.5848 -0.0293
# 2 32.3628 54.7735 29.4842 0.0163 10.2227 0.0245
# 3 32.8683 29.4842 162.0972 0.5060 22.8934 -0.0793
# 4 0.2010 0.0163 0.5060 29.8909 -0.2611 4.3396
# 5 20.5848 10.2227 22.8934 -0.2611 36.8014 0.0855
# 6 -0.0293 0.0245 -0.0793 4.3396 0.0855 28.6217
#
#
#
# Elastic Compliance Matrix: (Units=1/GPa)
#
#
# Indices 1 2 3 4 5 6 
#
# 1 0.025761 -0.012533 -0.001534 -0.000242 -0.009975 0.000099
# 2 -0.012533 0.026794 -0.002491 0.000131 0.001118 -0.000066
# 3 -0.001534 -0.002491 0.007362 -0.000147 -0.003031 0.000052
# 4 -0.000242 0.000131 -0.000147 0.034216 0.000445 -0.005190
# 5 -0.009975 0.001118 -0.003031 0.000445 0.034331 -0.000190
# 6 0.000099 -0.000066 0.000052 -0.005190 -0.000190 0.035726
#
#
# Mechanical properties :
#
#
# Convention : Reuss Voigt Hill
#
# Bulk Modulus (GPa) = 37.31209 52.31061 44.81135
# Shear Modulus (GPa) = 24.24359 31.50610 27.87485
#
# Velocity S-wave (km/s) = 3.60293 4.10728 3.86334
# Velocity P-wave (km/s) = 6.10628 7.10651 6.62530
#
# Compressibility (1/GPa) = 0.02680096
#
# Stress axis : x y z
#
# Youngs Moduli (GPa) = 38.81861 37.32154 135.83666
#
# Poissons Ratio (x) = 0.46775 0.20840
# Poissons Ratio (y) = 0.48652 0.33832
# Poissons Ratio (z) = 0.05955 0.09296
#
# Static dielectric constant tensor:
#      x y z
#    x 3.562360 -0.000430 0.042140 
#    y -0.000430 3.522630 0.004530 
#    z 0.042140 0.004530 4.242770 
# 
# 
# High freq. dielectric constant tensor:
#      x y z
#    x 1.718190 0.000010 0.021410 
#    y 0.000010 1.706250 0.000040 
#    z 0.021410 0.000040 1.748940 
# 
# From -- ./inp_files/364424.got.cif
#   From: 2010.06.25/outbox.ucp.g09.slc.cvg/sg12_183_cif.got.tgz:364424.got - 2010.06.28 13:50:54.
