data_PCOD8116376
_publ_section_title
;
Structure prediction by ZEFSAII (Michael W. Deem and Ramdas Pophale) SiO2 
 PCOD8116376
Probable space group: C 2/M
;
_chemical_formula_sum "Si O2"
_cell_formula_units_Z 32
_cell_length_a 24.000000
_cell_length_b 9.000000
_cell_length_c 30.000000
_cell_angle_alpha 90.000000
_cell_angle_beta 30.000000
_cell_angle_gamma 90.000000
_cell_volume 3240.000000
_symmetry_space_group_name_H-M "C 2/M"
_symmetry_group_IT_number 12
_symmetry_cell_setting 'monoclinic'
loop_
_space_group_symop_operation_xyz
x,y,z
-x,y,-z
-x,-y,-z
x,-y,z
1/2+x,1/2+y,z
1/2-x,1/2+y,-z
1/2-x,1/2-y,-z
1/2+x,1/2-y,z
loop_
_atom_site_type_symbol
_atom_site_label
_atom_site_fract_x
_atom_site_fract_y
_atom_site_fract_z
Si Si1 0.155404 0.832977 0.592602
Si Si2 0.216168 0.172550 0.778118
Si Si3 0.506970 0.831351 0.819435
Si Si4 0.714161 0.329054 0.882133
Si Si5 0.562248 0.826580 0.229723
Si Si6 0.216944 0.164938 0.651375
Si Si7 0.375312 0.326249 0.597988
Si Si8 0.980509 0.669992 0.934175
O O1 0.250000 0.750000 0.500000
O O2 0.199317 0.833932 0.611751
O O3 0.036071 0.752213 0.674329
O O4 0.140407 0.000000 0.584439
O O5 0.246133 0.194084 0.808871
O O6 0.318700 0.238500 0.678362
O O7 0.101411 0.257289 0.849615
O O8 0.200934 0.000000 0.776614
O O9 0.437791 0.792083 0.823050
O O10 0.608030 0.716366 0.753626
O O11 0.433863 0.816058 0.915364
O O12 0.553937 0.000000 0.782904
O O13 0.692387 0.500000 0.908991
O O14 0.819200 0.264318 0.836371
O O15 0.601907 0.244649 0.973526
O O16 0.550202 0.000000 0.248698
O O17 0.312652 0.282758 0.596007
O O18 0.248025 0.000000 0.646789
O O19 0.500000 0.275756 0.500000
O O20 0.367482 0.500000 0.613895
O O21 0.993069 0.500000 0.940075
#
# Coordination Sequence:
#
# PCOD8116376 Si02
#       8
#     8   8   8   8   8   8   8   8
#     4  10  21  36  57  86 115 149 194 237 285 347
#     4  11  23  40  61  84 115 155 199 246 291 343
#     4   9  18  34  58  84 113 149 189 235 286 340
#     4  10  23  40  58  84 119 158 198 242 294 347
#     4   9  19  38  59  81 115 155 193 240 294 343
#     4  10  20  35  57  83 111 146 189 236 283 338
#     4  11  24  40  59  86 117 150 189 237 297 354
#     4  11  22  36  59  89 117 152 199 244 293 352
#
# _framework density 9.8765429999999999
#
# number of rings (size 3 to 8) (size 9 to 14) (size 15 to 20)
#    0.000    1.875    1.250    2.250    0.000    7.500 
#    0.000    3.750    0.000    0.000    0.000    0.000 
#    0.000    0.000    0.000    0.000    0.000    0.000 
#
# Total GULP energy -396667.801144 kJ/mol
# GULP energy per Si atom -12395.868786 kJ/mol
# Density = 0.985406 g / cm^3
# Si number density = 9.876543 Si / 1000 Ang^3
#
#
#
# Elastic Constant Matrix: (Units=GPa)
#
#
# Indices 1 2 3 4 5 6 
#
# 1 55.4413 36.7705 43.7773 -0.0041 -20.0442 0.0018
# 2 36.7705 99.3056 65.8861 0.0121 3.5388 0.0298
# 3 43.7773 65.8861 144.0037 0.0088 -1.6207 -0.0218
# 4 -0.0041 0.0121 0.0088 33.8471 0.0224 2.9490
# 5 -20.0442 3.5388 -1.6207 0.0224 14.8007 -0.0467
# 6 0.0018 0.0298 -0.0218 2.9490 -0.0467 20.2559
#
#
#
# Elastic Compliance Matrix: (Units=1/GPa)
#
#
# Indices 1 2 3 4 5 6 
#
# 1 0.112555 -0.037124 -0.015435 -0.000111 0.159618 0.000412
# 2 -0.037124 0.026968 -0.001693 0.000039 -0.056910 -0.000175
# 3 -0.015435 -0.001693 0.012196 0.000011 -0.019163 -0.000029
# 4 -0.000111 0.000039 0.000011 0.029924 -0.000217 -0.004357
# 5 0.159618 -0.056910 -0.019163 -0.000217 0.295243 0.000761
# 6 0.000412 -0.000175 -0.000029 -0.004357 0.000761 0.050005
#
#
# Mechanical properties :
#
#
# Convention : Reuss Voigt Hill
#
# Bulk Modulus (GPa) = 23.14092 65.73539 44.43816
# Shear Modulus (GPa) = 7.69470 23.93518 15.81494
#
# Velocity S-wave (km/s) = 1.97583 3.48475 2.83261
# Velocity P-wave (km/s) = 4.11652 7.03862 5.76575
#
# Compressibility (1/GPa) = 0.04321349
#
# Stress axis : x y z
#
# Youngs Moduli (GPa) = 8.88458 37.08162 81.99707
#
# Poissons Ratio (x) = 1.37661 1.26562
# Poissons Ratio (y) = 0.32983 0.13885
# Poissons Ratio (z) = 0.13713 0.06279
#
# Static dielectric constant tensor:
#      x y z
#    x 3.957990 -0.000150 0.262860 
#    y -0.000150 3.822580 0.000000 
#    z 0.262860 0.000000 3.699840 
# 
# 
# High freq. dielectric constant tensor:
#      x y z
#    x 1.767690 -0.000010 0.013550 
#    y -0.000010 1.776470 0.000000 
#    z 0.013550 0.000000 1.768010 
# 
# From -- ./inp_files/382366.got.cif
#   From: 2010.06.25/outbox.ucp.g09.slc.cvg/sg12_192_cif.got.tgz:382366.got - 2010.06.28 13:50:54.
