data_PCOD8116034
_publ_section_title
;
Structure prediction by ZEFSAII (Michael W. Deem and Ramdas Pophale) SiO2 
 PCOD8116034
Probable space group: C 2/M
;
_chemical_formula_sum "Si O2"
_cell_formula_units_Z 64
_cell_length_a 14.237741
_cell_length_b 9.520532
_cell_length_c 29.790390
_cell_angle_alpha 90.000000
_cell_angle_beta 62.402921
_cell_angle_gamma 90.000000
_cell_volume 3578.685785
_symmetry_space_group_name_H-M "C 2/M"
_symmetry_group_IT_number 12
_symmetry_cell_setting 'monoclinic'
loop_
_space_group_symop_operation_xyz
x,y,z
-x,y,-z
-x,-y,-z
x,-y,z
1/2+x,1/2+y,z
1/2-x,1/2+y,-z
1/2-x,1/2-y,-z
1/2+x,1/2-y,z
loop_
_atom_site_type_symbol
_atom_site_label
_atom_site_fract_x
_atom_site_fract_y
_atom_site_fract_z
Si Si1 0.227466 0.836947 0.123424
Si Si2 0.153717 0.158559 0.505984
Si Si3 0.221205 0.835331 0.398792
Si Si4 0.921242 0.162012 0.385351
Si Si5 0.497695 0.663043 0.139802
Si Si6 0.651284 0.333597 0.318923
Si Si7 0.425225 0.337280 0.056838
Si Si8 0.201024 0.664208 0.793264
O O1 0.112667 0.787171 0.131486
O O2 0.316904 0.749969 0.077524
O O3 0.236512 0.806627 0.174415
O O4 0.245700 0.000000 0.108338
O O5 0.250000 0.250000 0.500000
O O6 0.131219 0.192821 0.458007
O O7 0.061260 0.178917 0.563791
O O8 0.194900 0.000000 0.498746
O O9 0.330237 0.761274 0.387524
O O10 0.185154 0.770049 0.359492
O O11 0.243775 0.000000 0.388586
O O12 0.029545 0.209584 0.337137
O O13 0.893749 0.000000 0.380262
O O14 0.478912 0.500000 0.155427
O O15 0.488677 0.691875 0.088727
O O16 0.409314 0.752954 0.185166
O O17 0.659281 0.500000 0.318860
O O18 0.725029 0.275477 0.262821
O O19 0.394641 0.500000 0.058777
O O20 0.500000 0.286759 0.000000
O O21 0.175881 0.500000 0.793046
#
# Coordination Sequence:
#
# PCOD8116034 Si02
#       8
#     8   8   8   8   8   8   8   8
#     4   9  18  32  50  70  93 124 160 194 228 268
#     4   8  14  25  43  64  86 113 145 180 220 269
#     4   9  17  30  46  65  90 118 147 183 227 274
#     4   9  17  30  47  67  90 117 149 185 226 274
#     4   9  18  33  51  71  95 124 158 193 229 269
#     4   9  18  31  47  67  91 118 150 189 232 276
#     4   9  18  32  49  72 103 131 154 187 229 270
#     4   9  18  33  49  66  90 120 155 194 233 272
#
# _framework density 17.883659000000002
#
# number of rings (size 3 to 8) (size 9 to 14) (size 15 to 20)
#    0.000    3.125    0.000    0.000    0.000    2.750 
#    0.000    5.625    0.000    0.000    0.000    8.750 
#    0.000    0.000    0.000    0.000    0.000    0.000 
#
# Total GULP energy -396514.791885 kJ/mol
# GULP energy per Si atom -12391.087246 kJ/mol
# Density = 1.784296 g / cm^3
# Si number density = 17.883659 Si / 1000 Ang^3
#
#
#
# Elastic Constant Matrix: (Units=GPa)
#
#
# Indices 1 2 3 4 5 6 
#
# 1 77.5629 19.5285 28.1222 0.0000 -10.4676 0.0000
# 2 19.5285 31.5937 24.5206 0.0000 -6.7420 0.0000
# 3 28.1222 24.5206 114.9610 0.0000 -15.9434 0.0000
# 4 0.0000 0.0000 0.0000 22.1550 0.0000 -4.4198
# 5 -10.4676 -6.7420 -15.9434 0.0000 23.0637 0.0000
# 6 0.0000 0.0000 0.0000 -4.4198 0.0000 23.1796
#
#
#
# Elastic Compliance Matrix: (Units=1/GPa)
#
#
# Indices 1 2 3 4 5 6 
#
# 1 0.015978 -0.007719 -0.001736 0.000000 0.003795 0.000000
# 2 -0.007719 0.042446 -0.006559 0.000000 0.004370 0.000000
# 3 -0.001736 -0.006559 0.011223 0.000000 0.005053 0.000000
# 4 0.000000 0.000000 0.000000 0.046921 0.000000 0.008947
# 5 0.003795 0.004370 0.005053 0.000000 0.049851 0.000000
# 6 0.000000 0.000000 0.000000 0.008947 0.000000 0.044847
#
#
# Mechanical properties :
#
#
# Convention : Reuss Voigt Hill
#
# Bulk Modulus (GPa) = 26.58214 40.94002 33.76108
# Shear Modulus (GPa) = 19.54383 23.80940 21.67661
#
# Velocity S-wave (km/s) = 3.30939 3.65272 3.48529
# Velocity P-wave (km/s) = 5.43129 6.38216 5.92583
#
# Compressibility (1/GPa) = 0.03761925
#
# Stress axis : x y z
#
# Youngs Moduli (GPa) = 62.58699 23.55911 89.10230
#
# Poissons Ratio (x) = 0.18185 0.15466
# Poissons Ratio (y) = 0.48311 0.58444
# Poissons Ratio (z) = 0.10864 0.15453
#
# Static dielectric constant tensor:
#      x y z
#    x 9.498440 0.000000 -0.063510 
#    y 0.000000 3.132060 0.000000 
#    z -0.063510 0.000000 3.716770 
# 
# 
# High freq. dielectric constant tensor:
#      x y z
#    x 1.679890 0.000000 0.001370 
#    y 0.000000 1.673120 0.000000 
#    z 0.001370 0.000000 1.701410 
# 
# From -- ./inp_files/359855.got.cif
#   From: 2010.06.25/outbox.cif.g09.slc.cpg/sg12_180_cif.got.tgz:359855.got - 2010.06.28 00:19:55.
