data_PCOD8116805
_publ_section_title
;
Structure prediction by ZEFSAII (Michael W. Deem and Ramdas Pophale) SiO2 
 PCOD8116805
Probable space group: P 2/C
;
_chemical_formula_sum "Si O2"
_cell_formula_units_Z 26
_cell_length_a 14.386069
_cell_length_b 8.908103
_cell_length_c 19.745078
_cell_angle_alpha 90.000000
_cell_angle_beta 148.925087
_cell_angle_gamma 90.000000
_cell_volume 1306.078229
_symmetry_space_group_name_H-M "P 2/C"
_symmetry_group_IT_number 13
_symmetry_cell_setting 'monoclinic'
loop_
_space_group_symop_operation_xyz
x,y,z
-x,y,1/2-z
-x,-y,-z
x,-y,1/2+z
loop_
_atom_site_type_symbol
_atom_site_label
_atom_site_fract_x
_atom_site_fract_y
_atom_site_fract_z
Si Si1 0.570219 0.754502 0.724631
Si Si2 0.712230 0.673426 0.254283
Si Si3 0.935056 0.858433 0.000079
Si Si4 0.616423 0.400477 0.122280
Si Si5 0.579916 0.862679 0.508700
Si Si6 0.500000 0.732344 0.250000
Si Si7 0.689517 0.980258 0.444940
O O1 0.500000 0.675423 0.750000
O O2 0.505794 0.662814 0.618262
O O3 0.494037 0.923282 0.671972
O O4 0.786572 0.769609 0.863232
O O5 0.759061 0.517017 0.244221
O O6 0.601050 0.635989 0.254454
O O7 0.903680 0.746264 0.385805
O O8 0.588960 0.782693 0.132540
O O9 0.853716 0.917382 0.020917
O O10 0.000000 0.000000 0.000000
O O11 0.687712 0.255980 0.124555
O O12 0.500000 0.500000 0.000000
O O13 0.722644 0.925324 0.542824
O O14 0.500000 0.000000 0.500000
O O15 0.660385 0.834260 0.380542
#
# Coordination Sequence:
#
# PCOD8116805 Si02
#       7
#     4   4   4   4   4   2   4
#     4  10  20  35  63  89 114 153 205 249 304 363
#     4  10  22  34  58  91 121 157 195 257 314 368
#     4  11  19  34  59  92 125 141 195 266 315 352
#     4  10  22  39  59  85 123 164 205 244 309 375
#     4  10  19  36  63  82 113 164 218 241 287 372
#     4  10  16  34  54  90 118 146 210 242 304 366
#     4  10  17  33  60  94 110 154 204 256 295 357
#
# _framework density 19.906924
#
# number of rings (size 3 to 8) (size 9 to 14) (size 15 to 20)
#    0.000    1.846    5.385    0.923    1.077    0.615 
#    0.000    0.769    0.000    3.692    0.000    0.000 
#    0.000    0.000    0.000    0.000    0.000    0.000 
#
# Total GULP energy -322111.038570 kJ/mol
# GULP energy per Si atom -12388.886099 kJ/mol
# Density = 1.986161 g / cm^3
# Si number density = 19.906924 Si / 1000 Ang^3
#
#
#
# Elastic Constant Matrix: (Units=GPa)
#
#
# Indices 1 2 3 4 5 6 
#
# 1 137.8147 59.5438 53.3136 0.0000 -24.0041 0.0000
# 2 59.5438 100.1268 45.1149 0.0000 -12.6686 0.0000
# 3 53.3136 45.1149 78.6327 0.0000 2.7023 0.0000
# 4 0.0000 0.0000 0.0000 32.1886 0.0000 -20.5373
# 5 -24.0041 -12.6686 2.7023 0.0000 35.1831 0.0000
# 6 0.0000 0.0000 0.0000 -20.5373 0.0000 42.9806
#
#
#
# Elastic Compliance Matrix: (Units=1/GPa)
#
#
# Indices 1 2 3 4 5 6 
#
# 1 0.012878 -0.003476 -0.007014 0.000000 0.008073 0.000000
# 2 -0.003476 0.015541 -0.006688 0.000000 0.003738 0.000000
# 3 -0.007014 -0.006688 0.021614 0.000000 -0.008854 0.000000
# 4 0.000000 0.000000 0.000000 0.044692 0.000000 0.021355
# 5 0.008073 0.003738 -0.008854 0.000000 0.035956 0.000000
# 6 0.000000 0.000000 0.000000 0.021355 0.000000 0.033470
#
#
# Mechanical properties :
#
#
# Convention : Reuss Voigt Hill
#
# Bulk Modulus (GPa) = 63.79069 70.27988 67.03529
# Shear Modulus (GPa) = 24.54179 32.64393 28.59286
#
# Velocity S-wave (km/s) = 3.51497 4.05387 3.79400
# Velocity P-wave (km/s) = 6.97047 7.56920 7.27599
#
# Compressibility (1/GPa) = 0.01567627
#
# Stress axis : x y z
#
# Youngs Moduli (GPa) = 77.65450 64.34563 46.26534
#
# Poissons Ratio (x) = 0.22368 0.32451
# Poissons Ratio (y) = 0.26995 0.30943
# Poissons Ratio (z) = 0.54467 0.43035
#
# Static dielectric constant tensor:
#      x y z
#    x 4.070290 0.000000 -0.338600 
#    y 0.000000 4.026640 0.000000 
#    z -0.338600 0.000000 3.376390 
# 
# 
# High freq. dielectric constant tensor:
#      x y z
#    x 1.782340 0.000000 -0.031860 
#    y 0.000000 1.787220 0.000000 
#    z -0.031860 0.000000 1.736850 
# 
# From -- ./inp_files/79861.got.cif
#   From: 2010.06.25/outbox.cif.g09.slc.cpg/sg13_40_cif.got.tgz:79861.got - 2010.06.28 04:50:58.
