data_PCOD8116256
_publ_section_title
;
Structure prediction by ZEFSAII (Michael W. Deem and Ramdas Pophale) SiO2 
 PCOD8116256
Probable space group: C 2/M
;
_chemical_formula_sum "Si O2"
_cell_formula_units_Z 24
_cell_length_a 27.000000
_cell_length_b 9.000000
_cell_length_c 15.000000
_cell_angle_alpha 90.000000
_cell_angle_beta 140.000000
_cell_angle_gamma 90.000000
_cell_volume 2342.960837
_symmetry_space_group_name_H-M "C 2/M"
_symmetry_group_IT_number 12
_symmetry_cell_setting 'monoclinic'
loop_
_space_group_symop_operation_xyz
x,y,z
-x,y,-z
-x,-y,-z
x,-y,z
1/2+x,1/2+y,z
1/2-x,1/2+y,-z
1/2-x,1/2-y,-z
1/2+x,1/2-y,z
loop_
_atom_site_type_symbol
_atom_site_label
_atom_site_fract_x
_atom_site_fract_y
_atom_site_fract_z
Si Si1 0.304757 0.169414 0.694697
Si Si2 0.323865 0.832725 0.250886
Si Si3 0.064016 0.173474 0.460596
Si Si4 0.167976 0.671100 0.072549
Si Si5 0.418920 0.167028 0.217028
Si Si6 0.151659 0.670671 0.438065
O O1 0.353935 0.197031 0.853171
O O2 0.233532 0.281264 0.591769
O O3 0.357055 0.197339 0.680010
O O4 0.272700 0.000000 0.649116
O O5 0.386177 0.743474 0.393044
O O6 0.240176 0.769676 0.149239
O O7 0.341728 0.826630 0.170047
O O8 0.325811 0.000000 0.289664
O O9 0.086978 0.229833 0.394041
O O10 0.975486 0.220646 0.345873
O O11 0.073317 0.000000 0.481439
O O12 0.189642 0.500000 0.085062
O O13 0.099259 0.716254 0.910256
O O14 0.453798 0.000000 0.265308
O O15 0.138823 0.500000 0.445010
#
# Coordination Sequence:
#
# PCOD8116256 Si02
#       6
#     8   8   8   8   8   8
#     4   9  18  33  56  86 114 143 182 226 276 333
#     4  11  22  37  59  85 112 147 190 233 279 333
#     4  12  24  38  57  82 112 149 193 237 282 331
#     4  10  20  37  60  86 116 148 183 227 277 335
#     4  10  23  40  57  81 116 152 186 228 281 338
#     4  10  19  33  56  84 113 145 183 230 280 330
#
# _framework density 10.243449
#
# number of rings (size 3 to 8) (size 9 to 14) (size 15 to 20)
#    0.000    1.667    1.667    3.500    0.000    4.667 
#    0.000    0.833    0.000    5.000    0.000    0.000 
#    0.000    0.000    0.000    0.000    0.000    0.000 
#
# Total GULP energy -297507.232116 kJ/mol
# GULP energy per Si atom -12396.134672 kJ/mol
# Density = 1.022013 g / cm^3
# Si number density = 10.243449 Si / 1000 Ang^3
#
#
#
# Elastic Constant Matrix: (Units=GPa)
#
#
# Indices 1 2 3 4 5 6 
#
# 1 46.3301 19.0854 5.0657 0.0000 -9.6009 0.0000
# 2 19.0854 94.3391 60.0043 0.0000 -12.5128 0.0000
# 3 5.0657 60.0043 33.6725 0.0000 4.0695 0.0000
# 4 0.0000 0.0000 0.0000 26.6139 0.0000 2.9071
# 5 -9.6009 -12.5128 4.0695 0.0000 17.1087 0.0000
# 6 0.0000 0.0000 0.0000 2.9071 0.0000 26.9153
#
#
#
# Elastic Compliance Matrix: (Units=1/GPa)
#
#
# Indices 1 2 3 4 5 6 
#
# 1 0.025373 -0.001469 -0.002874 0.000000 0.013848 0.000000
# 2 -0.001469 -0.027618 0.053516 0.000000 -0.033753 0.000000
# 3 -0.002874 0.053516 -0.071835 0.000000 0.054614 0.000000
# 4 0.000000 0.000000 0.000000 0.038023 0.000000 -0.004107
# 5 0.013848 -0.033753 0.054614 0.000000 0.028545 0.000000
# 6 0.000000 0.000000 0.000000 -0.004107 0.000000 0.037597
#
#
# Mechanical properties :
#
#
# Convention : Reuss Voigt Hill
#
# Bulk Modulus (GPa) = 41.20871 38.07248 39.64059
# Shear Modulus (GPa) = -83.09203 20.14001 -31.47601
#
# Velocity S-wave (km/s) = -6.37547 3.13879 -3.92394
# Velocity P-wave (km/s) = 5.83414 5.63562 1.06701
#
# Compressibility (1/GPa) = 0.02426672
#
# Stress axis : x y z
#
# Youngs Moduli (GPa) = 39.41178 -36.20778 -13.92070
#
# Poissons Ratio (x) = -0.05318 -0.04000
# Poissons Ratio (y) = 0.05788 0.74498
# Poissons Ratio (z) = 0.11325 1.93769
#
# Static dielectric constant tensor:
#      x y z
#    x 3.899680 0.000000 -0.429700 
#    y 0.000000 3.724530 0.000000 
#    z -0.429700 0.000000 3.635960 
# 
# 
# High freq. dielectric constant tensor:
#      x y z
#    x 1.794270 0.000000 -0.033140 
#    y 0.000000 1.797400 0.000000 
#    z -0.033140 0.000000 1.783990 
# 
# From -- ./inp_files/230398.got.cif
#   From: 2010.06.25/outbox.ucp.g09.slc.cvg/sg12_116_cif.got.tgz:230398.got - 2010.06.28 13:50:54.
