data_PCOD8116463
_publ_section_title
;
Structure prediction by ZEFSAII (Michael W. Deem and Ramdas Pophale) SiO2 
 PCOD8116463
Probable space group: C 2/M
;
_chemical_formula_sum "Si O2"
_cell_formula_units_Z 32
_cell_length_a 18.000000
_cell_length_b 9.000000
_cell_length_c 30.000000
_cell_angle_alpha 90.000000
_cell_angle_beta 40.000000
_cell_angle_gamma 90.000000
_cell_volume 3123.947783
_symmetry_space_group_name_H-M "C 2/M"
_symmetry_group_IT_number 12
_symmetry_cell_setting 'monoclinic'
loop_
_space_group_symop_operation_xyz
x,y,z
-x,y,-z
-x,-y,-z
x,-y,z
1/2+x,1/2+y,z
1/2-x,1/2+y,-z
1/2-x,1/2-y,-z
1/2+x,1/2-y,z
loop_
_atom_site_type_symbol
_atom_site_label
_atom_site_fract_x
_atom_site_fract_y
_atom_site_fract_z
Si Si1 0.366544 0.331275 0.291680
Si Si2 0.769320 0.169075 0.187673
Si Si3 0.741162 0.826874 0.957890
Si Si4 0.307731 0.674398 0.693266
Si Si5 0.602712 0.169674 0.181227
Si Si6 0.738710 0.667082 0.565442
Si Si7 0.567312 0.324857 0.569283
Si Si8 0.519811 0.660231 0.041425
O O1 0.400012 0.500000 0.263555
O O2 0.291005 0.260779 0.287583
O O3 0.480006 0.237718 0.250797
O O4 0.287535 0.326347 0.371058
O O5 0.715250 0.291143 0.244785
O O6 0.695741 0.182337 0.177074
O O7 0.902055 0.215188 0.118663
O O8 0.761622 0.000000 0.209764
O O9 0.848535 0.763856 0.881536
O O10 0.756264 0.000000 0.953991
O O11 0.750000 0.750000 0.000000
O O12 0.614558 0.788554 0.998220
O O13 0.297626 0.500000 0.688236
O O14 0.436920 0.736817 0.623958
O O15 0.584311 0.000000 0.174926
O O16 0.766248 0.500000 0.536761
O O17 0.629498 0.727936 0.586757
O O18 0.853679 0.765240 0.507060
O O19 0.559293 0.500000 0.570862
O O20 0.559685 0.500000 0.044556
O O21 0.500000 0.623099 0.000000
#
# Coordination Sequence:
#
# PCOD8116463 Si02
#       8
#     8   8   8   8   8   8   8   8
#     4  11  24  41  60  87 124 162 201 248 303 358
#     4  10  22  40  65  90 118 157 199 248 304 360
#     4  12  26  42  63  91 124 162 202 248 302 360
#     4  11  24  40  59  87 124 162 202 251 299 353
#     4  11  23  43  66  90 119 157 203 248 301 362
#     4   9  19  37  62  89 118 155 197 245 297 355
#     4   9  19  37  61  88 118 154 199 247 297 351
#     4  10  20  41  66  90 122 156 197 251 304 359
#
# _framework density 10.243449
#
# number of rings (size 3 to 8) (size 9 to 14) (size 15 to 20)
#    0.000    1.625    1.250    3.000    1.750    5.250 
#    0.000    5.000    0.000    0.000    0.000    0.000 
#    0.000    0.000    0.000    0.000    0.000    0.000 
#
# Total GULP energy -396695.777264 kJ/mol
# GULP energy per Si atom -12396.743039 kJ/mol
# Density = 1.022013 g / cm^3
# Si number density = 10.243449 Si / 1000 Ang^3
#
#
#
# Elastic Constant Matrix: (Units=GPa)
#
#
# Indices 1 2 3 4 5 6 
#
# 1 -5.2412 6.0751 -1.8877 0.0020 17.4428 0.0091
# 2 6.0751 87.1043 28.2300 0.0031 10.5276 0.0069
# 3 -1.8877 28.2300 82.2280 0.0018 -3.5291 0.0047
# 4 0.0020 0.0031 0.0018 36.4651 0.0000 -3.8302
# 5 17.4428 10.5276 -3.5291 0.0000 19.8579 0.0008
# 6 0.0091 0.0069 0.0047 -3.8302 0.0008 28.5326
#
#
#
# Elastic Compliance Matrix: (Units=1/GPa)
#
#
# Indices 1 2 3 4 5 6 
#
# 1 -0.048154 -0.002475 0.001628 0.000004 0.043899 0.000015
# 2 -0.002475 0.014073 -0.005155 -0.000001 -0.006203 -0.000002
# 3 0.001628 -0.005155 0.014132 -0.000001 0.003814 -0.000002
# 4 0.000004 -0.000001 -0.000001 0.027816 -0.000004 0.003734
# 5 0.043899 -0.006203 0.003814 -0.000004 0.015764 -0.000014
# 6 0.000015 -0.000002 -0.000002 0.003734 -0.000014 0.035549
#
#
# Mechanical properties :
#
#
# Convention : Reuss Voigt Hill
#
# Bulk Modulus (GPa) = -31.29757 25.43620 -2.93069
# Shear Modulus (GPa) = 82.60116 25.74938 54.17527
#
# Velocity S-wave (km/s) = 6.35661 3.54908 5.14794
# Velocity P-wave (km/s) = 6.21010 5.40717 5.82249
#
# Compressibility (1/GPa) = -0.03195137
#
# Stress axis : x y z
#
# Youngs Moduli (GPa) = -20.76663 71.05600 70.76120
#
# Poissons Ratio (x) = 0.17586 -0.11522
# Poissons Ratio (y) = -0.05140 0.36475
# Poissons Ratio (z) = 0.03381 0.36627
#
# Static dielectric constant tensor:
#      x y z
#    x 3.593040 0.000000 -0.165130 
#    y 0.000000 3.911770 0.000000 
#    z -0.165130 0.000000 3.679530 
# 
# 
# High freq. dielectric constant tensor:
#      x y z
#    x 1.795990 0.000000 -0.013420 
#    y 0.000000 1.798130 0.000000 
#    z -0.013420 0.000000 1.802470 
# 
# From -- ./inp_files/377982.got.cif
#   From: 2010.06.25/outbox.ucp.g09.slc.cvg/sg12_189_cif.got.tgz:377982.got - 2010.06.28 13:50:54.
