data_PCOD8116169
_publ_section_title
;
Structure prediction by ZEFSAII (Michael W. Deem and Ramdas Pophale) SiO2 
 PCOD8116169
Probable space group: C 2/M
;
_chemical_formula_sum "Si O2"
_cell_formula_units_Z 64
_cell_length_a 13.983490
_cell_length_b 9.614585
_cell_length_c 27.908515
_cell_angle_alpha 90.000000
_cell_angle_beta 88.534239
_cell_angle_gamma 90.000000
_cell_volume 3750.945197
_symmetry_space_group_name_H-M "C 2/M"
_symmetry_group_IT_number 12
_symmetry_cell_setting 'monoclinic'
loop_
_space_group_symop_operation_xyz
x,y,z
-x,y,-z
-x,-y,-z
x,-y,z
1/2+x,1/2+y,z
1/2-x,1/2+y,-z
1/2-x,1/2-y,-z
1/2+x,1/2-y,z
loop_
_atom_site_type_symbol
_atom_site_label
_atom_site_fract_x
_atom_site_fract_y
_atom_site_fract_z
Si Si1 0.595506 0.661653 0.758794
Si Si2 0.223414 0.339175 0.821643
Si Si3 0.235763 0.839218 0.071231
Si Si4 0.380682 0.339250 0.741723
Si Si5 0.392584 0.160871 0.991078
Si Si6 0.247443 0.660125 0.320060
Si Si7 0.891755 0.838469 0.508128
Si Si8 0.242268 0.660163 0.429522
O O1 0.599735 0.500000 0.772862
O O2 0.635905 0.748859 0.802760
O O3 0.487859 0.711157 0.750693
O O4 0.656065 0.693889 0.710249
O O5 0.192640 0.500000 0.820063
O O6 0.243628 0.290216 0.875229
O O7 0.319022 0.311300 0.790045
O O8 0.147639 0.749881 0.052493
O O9 0.205150 0.000000 0.069750
O O10 0.331106 0.811029 0.039465
O O11 0.378363 0.500000 0.726512
O O12 0.340297 0.251707 0.697869
O O13 0.389464 0.000000 0.975849
O O14 0.500000 0.210474 0.000000
O O15 0.217800 0.500000 0.314261
O O16 0.267898 0.698347 0.374768
O O17 0.846661 0.752707 0.552357
O O18 0.835984 0.806436 0.459636
O O19 0.000000 0.788158 0.500000
O O20 0.886860 0.000000 0.522179
O O21 0.211858 0.500000 0.435363
#
# Coordination Sequence:
#
# PCOD8116169 Si02
#       8
#     8   8   8   8   8   8   8   8
#     4   9  18  32  49  69  93 121 153 189 228 270
#     4   9  18  32  48  68  95 123 152 189 232 276
#     4   9  18  32  48  67  93 123 153 189 233 276
#     4   9  18  32  49  69  93 121 154 191 228 271
#     4   9  18  32  48  67  92 121 155 193 231 275
#     4   9  18  32  48  67  93 123 153 187 228 272
#     4   9  18  32  50  71  94 122 156 191 228 272
#     4   9  18  32  48  68  95 123 152 189 230 271
#
# _framework density 17.062365
#
# number of rings (size 3 to 8) (size 9 to 14) (size 15 to 20)
#    0.000    3.000    0.000    0.000    0.000    4.000 
#    0.000    2.500    0.000    0.000    0.000    0.000 
#    0.000    0.000    0.000    0.000    0.000    0.000 
#
# Total GULP energy -396886.838582 kJ/mol
# GULP energy per Si atom -12402.713706 kJ/mol
# Density = 1.702353 g / cm^3
# Si number density = 17.062365 Si / 1000 Ang^3
#
#
#
# Elastic Constant Matrix: (Units=GPa)
#
#
# Indices 1 2 3 4 5 6 
#
# 1 134.5417 51.0608 46.1789 0.0000 8.8236 0.0000
# 2 51.0608 53.9805 44.6588 0.0000 8.4172 0.0000
# 3 46.1789 44.6588 112.7003 0.0000 15.4033 0.0000
# 4 0.0000 0.0000 0.0000 28.8903 0.0000 4.7401
# 5 8.8236 8.4172 15.4033 0.0000 16.7553 0.0000
# 6 0.0000 0.0000 0.0000 4.7401 0.0000 29.8177
#
#
#
# Elastic Compliance Matrix: (Units=1/GPa)
#
#
# Indices 1 2 3 4 5 6 
#
# 1 0.011624 -0.010474 -0.000566 0.000000 -0.000339 0.000000
# 2 -0.010474 0.037279 -0.009921 0.000000 -0.004091 0.000000
# 3 -0.000566 -0.009921 0.014084 0.000000 -0.007665 0.000000
# 4 0.000000 0.000000 0.000000 0.035541 0.000000 -0.005650
# 5 -0.000339 -0.004091 -0.007665 0.000000 0.068963 0.000000
# 6 0.000000 0.000000 0.000000 -0.005650 0.000000 0.034435
#
#
# Mechanical properties :
#
#
# Convention : Reuss Voigt Hill
#
# Bulk Modulus (GPa) = 47.47444 65.00217 56.23830
# Shear Modulus (GPa) = 19.93053 25.71425 22.82239
#
# Velocity S-wave (km/s) = 3.42145 3.88632 3.66127
# Velocity P-wave (km/s) = 6.59492 7.63659 7.13479
#
# Compressibility (1/GPa) = 0.02106397
#
# Stress axis : x y z
#
# Youngs Moduli (GPa) = 86.02585 26.82484 71.00185
#
# Poissons Ratio (x) = 0.28097 0.04020
# Poissons Ratio (y) = 0.90107 0.70442
# Poissons Ratio (z) = 0.04870 0.26613
#
# Static dielectric constant tensor:
#      x y z
#    x 3.197710 0.000000 0.010870 
#    y 0.000000 3.184590 0.000000 
#    z 0.010870 0.000000 3.200800 
# 
# 
# High freq. dielectric constant tensor:
#      x y z
#    x 1.656710 0.000000 0.000910 
#    y 0.000000 1.656260 0.000000 
#    z 0.000910 0.000000 1.657330 
# 
# From -- ./inp_files/359853.got.cif
#   From: 2010.06.25/outbox.cif.g09.slc.cpg/sg12_180_cif.got.tgz:359853.got - 2010.06.28 00:19:55.
