data_PCOD8116821
_publ_section_title
;
Structure prediction by ZEFSAII (Michael W. Deem and Ramdas Pophale) SiO2 
 PCOD8116821
Probable space group: P 2/C
;
_chemical_formula_sum "Si O2"
_cell_formula_units_Z 28
_cell_length_a 11.565100
_cell_length_b 24.728060
_cell_length_c 5.093295
_cell_angle_alpha 90.000000
_cell_angle_beta 93.658836
_cell_angle_gamma 90.000000
_cell_volume 1453.624230
_symmetry_space_group_name_H-M "P 2/C"
_symmetry_group_IT_number 13
_symmetry_cell_setting 'monoclinic'
loop_
_space_group_symop_operation_xyz
x,y,z
-x,y,1/2-z
-x,-y,-z
x,-y,1/2+z
loop_
_atom_site_type_symbol
_atom_site_label
_atom_site_fract_x
_atom_site_fract_y
_atom_site_fract_z
Si Si1 0.371681 0.350775 0.296977
Si Si2 0.129465 0.022674 0.456765
Si Si3 0.693875 0.533429 0.547356
Si Si4 0.138433 0.204589 0.787157
Si Si5 0.926574 0.587625 0.482036
Si Si6 0.235777 0.321188 0.760102
Si Si7 0.131498 0.854036 0.788464
O O1 0.500000 0.330269 0.250000
O O2 0.376199 0.412034 0.404909
O O3 0.324462 0.313851 0.529329
O O4 0.293271 0.348358 0.024502
O O5 0.136313 0.082626 0.347447
O O6 0.192126 0.015697 0.747286
O O7 0.000000 0.000000 0.500000
O O8 0.658952 0.511247 0.256839
O O9 0.831568 0.544658 0.565339
O O10 0.186847 0.263962 0.844272
O O11 0.191979 0.179663 0.529304
O O12 0.000000 0.205660 0.750000
O O13 0.186963 0.164279 0.020937
O O14 0.868584 0.641648 0.357289
O O15 0.000000 0.603654 0.750000
O O16 0.000000 0.562202 0.250000
O O17 0.000000 0.835040 0.750000
#
# Coordination Sequence:
#
# PCOD8116821 Si02
#       7
#     4   4   4   4   4   4   4
#     4  11  24  42  64  82 101 133 175 221 272 344
#     4  10  17  24  40  57  88 137 186 238 247 276
#     4  11  23  38  56  84 113 136 169 214 264 319
#     4  10  21  31  49  72 104 139 174 226 256 305
#     4  11  22  36  57  80 110 149 181 210 249 316
#     4  11  22  40  58  80 107 135 181 224 276 313
#     4  10  18  28  40  66  97 133 189 227 250 292
#
# _framework density 19.2622
#
# number of rings (size 3 to 8) (size 9 to 14) (size 15 to 20)
#    0.000    1.429    1.429    6.857    4.000    4.000 
#    0.000    0.000    0.000    0.000    0.000    0.000 
#    0.000    0.000    0.000    0.000    0.000  180.000 
#
# Total GULP energy -347002.296120 kJ/mol
# GULP energy per Si atom -12392.939147 kJ/mol
# Density = 1.921836 g / cm^3
# Si number density = 19.262200 Si / 1000 Ang^3
#
#
#
# Elastic Constant Matrix: (Units=GPa)
#
#
# Indices 1 2 3 4 5 6 
#
# 1 28.8293 -2.3024 14.8018 0.0000 -7.6811 0.0000
# 2 -2.3024 88.8892 40.8376 0.0000 0.1382 0.0000
# 3 14.8018 40.8376 162.4610 0.0000 -9.9232 0.0000
# 4 0.0000 0.0000 0.0000 39.9201 0.0000 -6.1233
# 5 -7.6811 0.1382 -9.9232 0.0000 20.6798 0.0000
# 6 0.0000 0.0000 0.0000 -6.1233 0.0000 9.9645
#
#
#
# Elastic Compliance Matrix: (Units=1/GPa)
#
#
# Indices 1 2 3 4 5 6 
#
# 1 0.040232 0.002639 -0.003520 0.000000 0.013236 0.000000
# 2 0.002639 0.012948 -0.003544 0.000000 -0.000807 0.000000
# 3 -0.003520 -0.003544 0.007509 0.000000 0.002319 0.000000
# 4 0.000000 0.000000 0.000000 0.027657 0.000000 0.016996
# 5 0.013236 -0.000807 0.002319 0.000000 0.054391 0.000000
# 6 0.000000 0.000000 0.000000 0.016996 0.000000 0.110801
#
#
# Mechanical properties :
#
#
# Convention : Reuss Voigt Hill
#
# Bulk Modulus (GPa) = 19.29149 42.98374 31.13761
# Shear Modulus (GPa) = 17.87838 29.23572 23.55705
#
# Velocity S-wave (km/s) = 3.04988 3.90009 3.50089
# Velocity P-wave (km/s) = 4.73701 6.53027 5.70455
#
# Compressibility (1/GPa) = 0.05183633
#
# Stress axis : x y z
#
# Youngs Moduli (GPa) = 24.85606 77.23233 133.17925
#
# Poissons Ratio (x) = -0.20380 0.46884
# Poissons Ratio (y) = -0.06559 0.47204
# Poissons Ratio (z) = 0.08750 0.27374
#
# Static dielectric constant tensor:
#      x y z
#    x 3.095010 0.000000 -0.227390 
#    y 0.000000 3.365170 0.000000 
#    z -0.227390 0.000000 1.714970 
# 
# 
# High freq. dielectric constant tensor:
#      x y z
#    x 1.681250 0.000000 -0.009930 
#    y 0.000000 1.741030 0.000000 
#    z -0.009930 0.000000 1.790880 
# 
# From -- ./inp_files/3942.got.cif
#   From: 2010.06.25/outbox.cif.g09.slc.cpg/sg13_2_cif.got.tgz:3942.got - 2010.06.28 04:50:58.
