data_PCOD8116132
_publ_section_title
;
Structure prediction by ZEFSAII (Michael W. Deem and Ramdas Pophale) SiO2 
 PCOD8116132
Probable space group: C 2/M
;
_chemical_formula_sum "Si O2"
_cell_formula_units_Z 56
_cell_length_a 28.012338
_cell_length_b 18.119278
_cell_length_c 22.937005
_cell_angle_alpha 90.000000
_cell_angle_beta 17.638606
_cell_angle_gamma 90.000000
_cell_volume 3527.661484
_symmetry_space_group_name_H-M "C 2/M"
_symmetry_group_IT_number 12
_symmetry_cell_setting 'monoclinic'
loop_
_space_group_symop_operation_xyz
x,y,z
-x,y,-z
-x,-y,-z
x,-y,z
1/2+x,1/2+y,z
1/2-x,1/2+y,-z
1/2-x,1/2-y,-z
1/2+x,1/2-y,z
loop_
_atom_site_type_symbol
_atom_site_label
_atom_site_fract_x
_atom_site_fract_y
_atom_site_fract_z
Si Si1 0.422860 0.584784 0.321375
Si Si2 0.957240 0.666113 0.917254
Si Si3 0.588644 0.915218 0.655609
Si Si4 0.846159 0.207968 0.970411
Si Si5 0.706267 0.666117 0.419259
Si Si6 0.671209 0.082662 0.828779
Si Si7 0.979316 0.292040 0.704129
O O1 0.473973 0.500000 0.265617
O O2 0.271903 0.596317 0.456192
O O3 0.566526 0.629551 0.125327
O O4 0.385385 0.612251 0.430088
O O5 0.983613 0.612245 0.831882
O O6 0.121035 0.685316 0.757900
O O7 0.877562 0.742978 0.991034
O O8 0.836716 0.625388 0.100791
O O9 0.549749 0.870460 0.642127
O O10 0.546814 0.000000 0.692800
O O11 0.917088 0.250004 0.832920
O O12 0.660025 0.194425 0.179920
O O13 0.711721 0.625390 0.350807
O O14 0.614824 0.742991 0.516599
O O15 0.736089 0.000000 0.763893
O O16 0.500000 0.078008 0.000000
#
# Coordination Sequence:
#
# PCOD8116132 Si02
#       7
#     8   8   8   8   8   8   8
#     4   9  16  26  42  64  87 110 138 174 214 252
#     4   9  16  27  43  62  86 115 144 173 205 244
#     4   9  16  26  42  64  87 110 138 174 214 252
#     4   9  17  28  41  58  82 112 144 176 210 249
#     4   9  16  27  43  62  86 115 144 173 205 244
#     4   9  16  26  43  67  90 113 144 177 205 238
#     4   9  17  28  41  58  82 112 144 176 210 249
#
# _framework density 15.874537999999999
#
# number of rings (size 3 to 8) (size 9 to 14) (size 15 to 20)
#    0.000    3.000    0.000    1.714    0.000    7.429 
#    0.000    0.714    0.000    3.429    0.000    1.000 
#    0.000    8.000    0.000    0.000    0.000    0.000 
#
# Total GULP energy -347184.267914 kJ/mol
# GULP energy per Si atom -12399.438140 kJ/mol
# Density = 1.583841 g / cm^3
# Si number density = 15.874538 Si / 1000 Ang^3
#
#
#
# Elastic Constant Matrix: (Units=GPa)
#
#
# Indices 1 2 3 4 5 6 
#
# 1 66.5586 64.9200 44.5367 -0.0010 -0.2917 0.0043
# 2 64.9200 147.2485 64.6450 0.0154 -1.5610 -0.0020
# 3 44.5367 64.6450 66.5235 0.0226 0.7937 -0.0031
# 4 -0.0010 0.0154 0.0226 20.8603 -0.0017 6.8686
# 5 -0.2917 -1.5610 0.7937 -0.0017 18.6628 -0.0039
# 6 0.0043 -0.0020 -0.0031 6.8686 -0.0039 19.9375
#
#
#
# Elastic Compliance Matrix: (Units=1/GPa)
#
#
# Indices 1 2 3 4 5 6 
#
# 1 0.032060 -0.008207 -0.013493 0.000029 0.000388 -0.000020
# 2 -0.008207 0.013986 -0.008113 -0.000003 0.001387 0.000003
# 3 -0.013493 -0.008113 0.031977 -0.000036 -0.002249 0.000019
# 4 0.000029 -0.000003 -0.000036 0.054071 0.000003 -0.018628
# 5 0.000388 0.001387 -0.002249 0.000003 0.053800 0.000009
# 6 -0.000020 0.000003 0.000019 -0.018628 0.000009 0.056574
#
#
# Mechanical properties :
#
#
# Convention : Reuss Voigt Hill
#
# Bulk Modulus (GPa) = 54.35959 69.83713 62.09836
# Shear Modulus (GPa) = 16.22181 18.97405 17.59793
#
# Velocity S-wave (km/s) = 3.20015 3.46099 3.33312
# Velocity P-wave (km/s) = 6.92620 7.74984 7.34956
#
# Compressibility (1/GPa) = 0.01839602
#
# Stress axis : x y z
#
# Youngs Moduli (GPa) = 31.19198 71.49930 31.27252
#
# Poissons Ratio (x) = 0.58678 0.42196
# Poissons Ratio (y) = 0.25599 0.25373
# Poissons Ratio (z) = 0.42088 0.58010
#
# Static dielectric constant tensor:
#      x y z
#    x 2.883020 -0.000050 -0.073730 
#    y -0.000050 3.100690 0.000050 
#    z -0.073730 0.000050 2.872280 
# 
# 
# High freq. dielectric constant tensor:
#      x y z
#    x 1.586070 0.000000 -0.012360 
#    y 0.000000 1.610830 0.000010 
#    z -0.012360 0.000010 1.584290 
# 
# From -- ./inp_files/87285.got.cif
#   From: 2010.06.25/outbox.cif.g09.slc.cpg/sg12_44_cif.got.tgz:87285.got - 2010.06.28 00:19:55.
