data_PCOD8116665
_publ_section_title
;
Structure prediction by ZEFSAII (Michael W. Deem and Ramdas Pophale) SiO2 
 PCOD8116665
Probable space group: P 2/C
;
_chemical_formula_sum "Si O2"
_cell_formula_units_Z 32
_cell_length_a 28.252503
_cell_length_b 9.299534
_cell_length_c 22.068009
_cell_angle_alpha 90.000000
_cell_angle_beta 161.536626
_cell_angle_gamma 90.000000
_cell_volume 1836.230142
_symmetry_space_group_name_H-M "P 2/C"
_symmetry_group_IT_number 13
_symmetry_cell_setting 'monoclinic'
loop_
_space_group_symop_operation_xyz
x,y,z
-x,y,1/2-z
-x,-y,-z
x,-y,1/2+z
loop_
_atom_site_type_symbol
_atom_site_label
_atom_site_fract_x
_atom_site_fract_y
_atom_site_fract_z
Si Si1 0.446771 0.963559 0.119010
Si Si2 0.635978 0.094820 0.739111
Si Si3 0.429996 0.790935 0.897459
Si Si4 0.895448 0.911667 0.477670
Si Si5 0.877733 0.236672 0.431692
Si Si6 0.318942 0.214304 0.884927
Si Si7 0.819812 0.243275 0.218662
Si Si8 0.889816 0.552511 0.314275
O O1 0.500000 0.006339 0.250000
O O2 0.595471 0.925949 0.260255
O O3 0.339182 0.825438 0.990768
O O4 0.360398 0.099842 0.986840
O O5 0.522297 0.212083 0.572701
O O6 0.809768 0.134692 0.936443
O O7 0.613851 0.952170 0.672615
O O8 0.274438 0.706760 0.720431
O O9 0.531952 0.725824 0.967665
O O10 0.790562 0.867421 0.293962
O O11 0.052508 0.831847 0.666271
O O12 0.929255 0.081339 0.517577
O O13 0.854865 0.225094 0.331938
O O14 0.009233 0.349718 0.608237
O O15 0.244716 0.353561 0.823157
O O16 0.818193 0.411379 0.196371
O O17 0.000000 0.500000 0.500000
#
# Coordination Sequence:
#
# PCOD8116665 Si02
#       8
#     4   4   4   4   4   4   4   4
#     4  11  21  34  53  72  95 133 172 202 234 288
#     4   8  15  28  45  74  98 121 159 202 252 288
#     4   8  14  25  48  71 102 127 146 202 258 290
#     4  10  16  28  55  76  98 126 151 212 265 285
#     4  10  15  27  46  74 100 124 155 193 252 298
#     4  10  17  32  50  77 104 125 162 202 252 298
#     4  11  19  31  45  74 103 130 160 197 243 294
#     4  10  20  29  45  74 110 125 155 198 250 308
#
# _framework density 17.427009000000002
#
# number of rings (size 3 to 8) (size 9 to 14) (size 15 to 20)
#    0.000    2.250    5.000    2.625    0.000    0.000 
#    0.000    5.000    0.000    0.000    0.000    5.250 
#    0.000    0.000    0.000    0.000    0.000    0.000 
#
# Total GULP energy -396532.000484 kJ/mol
# GULP energy per Si atom -12391.625015 kJ/mol
# Density = 1.738734 g / cm^3
# Si number density = 17.427009 Si / 1000 Ang^3
#
#
#
# Elastic Constant Matrix: (Units=GPa)
#
#
# Indices 1 2 3 4 5 6 
#
# 1 89.2309 34.9645 41.9977 0.0000 25.3801 0.0000
# 2 34.9645 99.8610 35.4185 0.0000 23.0101 0.0000
# 3 41.9977 35.4185 47.0443 0.0000 28.4648 0.0000
# 4 0.0000 0.0000 0.0000 16.0453 0.0000 2.0410
# 5 25.3801 23.0101 28.4648 0.0000 40.3349 0.0000
# 6 0.0000 0.0000 0.0000 2.0410 0.0000 2.3879
#
#
#
# Elastic Compliance Matrix: (Units=1/GPa)
#
#
# Indices 1 2 3 4 5 6 
#
# 1 0.019385 -0.000888 -0.016690 0.000000 0.000087 0.000000
# 2 -0.000888 0.013723 -0.008971 0.000000 -0.000939 0.000000
# 3 -0.016690 -0.008971 0.058393 0.000000 -0.025589 0.000000
# 4 0.000000 0.000000 0.000000 0.069926 0.000000 -0.059766
# 5 0.000087 -0.000939 -0.025589 0.000000 0.043332 0.000000
# 6 0.000000 0.000000 0.000000 -0.059766 0.000000 0.469857
#
#
# Mechanical properties :
#
#
# Convention : Reuss Voigt Hill
#
# Bulk Modulus (GPa) = 26.03880 51.21085 38.62482
# Shear Modulus (GPa) = 6.75205 20.00397 13.37801
#
# Velocity S-wave (km/s) = 1.97050 3.39170 2.77367
# Velocity P-wave (km/s) = 4.48901 6.69238 5.69821
#
# Compressibility (1/GPa) = 0.03840423
#
# Stress axis : x y z
#
# Youngs Moduli (GPa) = 51.58498 72.87073 17.12528
#
# Poissons Ratio (x) = 0.06470 0.28582
# Poissons Ratio (y) = 0.04580 0.15363
# Poissons Ratio (z) = 0.86095 0.65371
#
# Static dielectric constant tensor:
#      x y z
#    x 3.462450 0.000000 0.703730 
#    y 0.000000 3.450900 0.000000 
#    z 0.703730 0.000000 3.266250 
# 
# 
# High freq. dielectric constant tensor:
#      x y z
#    x 1.653320 0.000000 0.053090 
#    y 0.000000 1.654950 0.000000 
#    z 0.053090 0.000000 1.650200 
# 
# From -- ./inp_files/89657.got.cif
#   From: 2010.06.25/outbox.cif.g09.slc.cpg/sg13_45_cif.got.tgz:89657.got - 2010.06.28 04:50:58.
