data_PCOD8116229
_publ_section_title
;
Structure prediction by ZEFSAII (Michael W. Deem and Ramdas Pophale) SiO2 
 PCOD8116229
Probable space group: C 2/M
;
_chemical_formula_sum "Si O2"
_cell_formula_units_Z 32
_cell_length_a 27.000000
_cell_length_b 9.000000
_cell_length_c 21.000000
_cell_angle_alpha 90.000000
_cell_angle_beta 50.000000
_cell_angle_gamma 90.000000
_cell_volume 3909.124793
_symmetry_space_group_name_H-M "C 2/M"
_symmetry_group_IT_number 12
_symmetry_cell_setting 'monoclinic'
loop_
_space_group_symop_operation_xyz
x,y,z
-x,y,-z
-x,-y,-z
x,-y,z
1/2+x,1/2+y,z
1/2-x,1/2+y,-z
1/2-x,1/2-y,-z
1/2+x,1/2-y,z
loop_
_atom_site_type_symbol
_atom_site_label
_atom_site_fract_x
_atom_site_fract_y
_atom_site_fract_z
Si Si1 0.679363 0.670596 0.835449
Si Si2 0.396465 0.329466 0.323390
Si Si3 0.298318 0.669075 0.506543
Si Si4 0.250773 0.672430 0.096381
Si Si5 0.050165 0.665691 0.902348
Si Si6 0.013835 0.324069 0.174802
Si Si7 0.223990 0.169397 0.661391
Si Si8 0.351197 0.327446 0.901075
O O1 0.663818 0.500000 0.863415
O O2 0.719332 0.737645 0.862258
O O3 0.611034 0.744269 0.877481
O O4 0.724069 0.690077 0.736795
O O5 0.415374 0.500000 0.292607
O O6 0.369886 0.314767 0.417852
O O7 0.459355 0.225529 0.270137
O O8 0.343095 0.273211 0.315573
O O9 0.277332 0.500000 0.529398
O O10 0.250000 0.750000 0.500000
O O11 0.287816 0.743098 0.584388
O O12 0.232332 0.500000 0.118786
O O13 0.184941 0.757975 0.130911
O O14 0.305895 0.698487 0.998931
O O15 0.074053 0.500000 0.865330
O O16 0.013260 0.734222 0.871274
O O17 0.000000 0.662642 0.000000
O O18 0.024103 0.500000 0.166535
O O19 0.081160 0.250392 0.139074
O O20 0.232029 0.000000 0.633473
O O21 0.363881 0.500000 0.876839
#
# Coordination Sequence:
#
# PCOD8116229 Si02
#       8
#     8   8   8   8   8   8   8   8
#     4  10  19  32  50  71  96 127 162 198 238 285
#     4   9  17  30  45  65  95 127 159 195 231 278
#     4   9  17  28  44  65  92 127 161 194 233 279
#     4   9  19  35  53  72  93 122 163 206 245 285
#     4  10  21  33  44  65  98 131 161 195 238 286
#     4  11  21  31  47  70  96 128 162 198 239 284
#     4   9  17  29  45  68  97 127 158 195 234 281
#     4  10  20  34  52  71  93 124 162 206 249 285
#
# _framework density 8.1859760000000001
#
# number of rings (size 3 to 8) (size 9 to 14) (size 15 to 20)
#    0.000    2.375    1.250    2.625    0.000    4.750 
#    0.000    0.000    0.000    0.000    0.000    0.875 
#    0.000    7.000    0.000    0.000    0.000    0.000 
#
# Total GULP energy -396622.723854 kJ/mol
# GULP energy per Si atom -12394.460120 kJ/mol
# Density = 0.816734 g / cm^3
# Si number density = 8.185976 Si / 1000 Ang^3
#
#
#
# Elastic Constant Matrix: (Units=GPa)
#
#
# Indices 1 2 3 4 5 6 
#
# 1 144.3550 54.9151 48.0532 -0.0068 -0.1072 0.0097
# 2 54.9151 74.0598 42.3525 -0.0050 -3.4004 -0.0220
# 3 48.0532 42.3525 65.4903 -0.0027 -1.9752 0.0168
# 4 -0.0068 -0.0050 -0.0027 23.6726 0.0031 -3.2409
# 5 -0.1072 -3.4004 -1.9752 0.0031 16.5737 0.0005
# 6 0.0097 -0.0220 0.0168 -3.2409 0.0005 27.2116
#
#
#
# Elastic Compliance Matrix: (Units=1/GPa)
#
#
# Indices 1 2 3 4 5 6 
#
# 1 0.010356 -0.005360 -0.004179 0.000001 -0.001531 -0.000005
# 2 -0.005360 0.024327 -0.011692 0.000006 0.003563 0.000029
# 3 -0.004179 -0.011692 0.025917 -0.000004 0.000663 -0.000024
# 4 0.000001 0.000006 -0.000004 0.042943 -0.000007 0.005115
# 5 -0.001531 0.003563 0.000663 -0.000007 0.061137 0.000001
# 6 -0.000005 0.000029 -0.000024 0.005115 0.000001 0.037358
#
#
# Mechanical properties :
#
#
# Convention : Reuss Voigt Hill
#
# Bulk Modulus (GPa) = 55.13071 63.83855 59.48463
# Shear Modulus (GPa) = 19.95650 22.73052 21.34351
#
# Velocity S-wave (km/s) = 3.49513 3.73014 3.61454
# Velocity P-wave (km/s) = 7.07353 7.59139 7.33703
#
# Compressibility (1/GPa) = 0.01813871
#
# Stress axis : x y z
#
# Youngs Moduli (GPa) = 96.56048 41.10735 38.58485
#
# Poissons Ratio (x) = 0.22032 0.16124
# Poissons Ratio (y) = 0.51752 0.45113
# Poissons Ratio (z) = 0.40352 0.48063
#
# Static dielectric constant tensor:
#      x y z
#    x 3.027850 -0.000040 0.092700 
#    y -0.000040 3.275490 -0.000030 
#    z 0.092700 -0.000030 3.317540 
# 
# 
# High freq. dielectric constant tensor:
#      x y z
#    x 1.606830 0.000000 0.001940 
#    y 0.000000 1.633550 0.000000 
#    z 0.001940 0.000000 1.624600 
# 
# From -- ./inp_files/326893.got.cif
#   From: 2010.06.25/outbox.ucp.g09.slc.cvg/sg12_164_cif.got.tgz:326893.got - 2010.06.28 13:50:54.
