data_PCOD8116914
_publ_section_title
;
Structure prediction by ZEFSAII (Michael W. Deem and Ramdas Pophale) SiO2 
 PCOD8116914
Probable space group: P 2/C
;
_chemical_formula_sum "Si O2"
_cell_formula_units_Z 26
_cell_length_a 14.154777
_cell_length_b 7.632581
_cell_length_c 14.046547
_cell_angle_alpha 90.000000
_cell_angle_beta 127.739998
_cell_angle_gamma 90.000000
_cell_volume 1200.075952
_symmetry_space_group_name_H-M "P 2/C"
_symmetry_group_IT_number 13
_symmetry_cell_setting 'monoclinic'
loop_
_space_group_symop_operation_xyz
x,y,z
-x,y,1/2-z
-x,-y,-z
x,-y,1/2+z
loop_
_atom_site_type_symbol
_atom_site_label
_atom_site_fract_x
_atom_site_fract_y
_atom_site_fract_z
Si Si1 0.195597 0.121376 0.120101
Si Si2 0.237196 0.723438 0.164731
Si Si3 0.362272 0.584336 0.643277
Si Si4 0.000000 0.564637 0.250000
Si Si5 0.255010 0.709809 0.390623
Si Si6 0.016861 0.715034 0.908571
Si Si7 0.115429 0.976811 0.375336
O O1 0.293671 0.273166 0.165806
O O2 0.103683 0.171422 0.147946
O O3 0.260857 0.932990 0.175552
O O4 0.111029 0.109568 0.976925
O O5 0.318626 0.612503 0.141783
O O6 0.276500 0.659099 0.294660
O O7 0.097700 0.681990 0.053286
O O8 0.500000 0.602971 0.750000
O O9 0.347422 0.618451 0.519983
O O10 0.877951 0.665358 0.154489
O O11 0.976010 0.461027 0.333347
O O12 0.241378 0.923110 0.399387
O O13 0.102477 0.814346 0.883707
O O14 0.000000 0.901622 0.250000
#
# Coordination Sequence:
#
# PCOD8116914 Si02
#       7
#     4   4   4   2   4   4   4
#     4  10  23  38  62  93 126 164 209 266 312 376
#     4  11  23  42  66  94 127 169 212 258 321 386
#     4  11  26  47  63  88 130 171 220 271 308 361
#     4  12  22  30  60  94 130 164 196 248 324 382
#     4  11  23  38  62  94 125 169 207 257 318 380
#     4  11  21  35  58  96 133 162 198 258 323 388
#     4  10  17  32  55  86 131 162 190 242 311 382
#
# _framework density 21.665296000000001
#
# number of rings (size 3 to 8) (size 9 to 14) (size 15 to 20)
#    0.000    1.231    3.077    4.615    2.154    2.462 
#    0.000    0.769    0.000    0.000    0.000    0.000 
#    0.000    0.000    0.000    0.000    0.000    0.000 
#
# Total GULP energy -322090.595113 kJ/mol
# GULP energy per Si atom -12388.099812 kJ/mol
# Density = 2.161598 g / cm^3
# Si number density = 21.665296 Si / 1000 Ang^3
#
#
#
# Elastic Constant Matrix: (Units=GPa)
#
#
# Indices 1 2 3 4 5 6 
#
# 1 58.1323 33.5106 44.5606 0.0000 -1.1369 0.0000
# 2 33.5106 87.6808 41.4360 0.0000 -0.2008 0.0000
# 3 44.5606 41.4360 138.6073 0.0000 -2.8149 0.0000
# 4 0.0000 0.0000 0.0000 23.9469 0.0000 -4.6158
# 5 -1.1369 -0.2008 -2.8149 0.0000 35.6694 0.0000
# 6 0.0000 0.0000 0.0000 -4.6158 0.0000 21.1755
#
#
#
# Elastic Compliance Matrix: (Units=1/GPa)
#
#
# Indices 1 2 3 4 5 6 
#
# 1 0.026050 -0.006988 -0.006280 0.000000 0.000295 0.000000
# 2 -0.006988 0.015158 -0.002291 0.000000 -0.000318 0.000000
# 3 -0.006280 -0.002291 0.009930 0.000000 0.000571 0.000000
# 4 0.000000 0.000000 0.000000 0.043591 0.000000 0.009502
# 5 0.000295 -0.000318 0.000571 0.000000 0.028088 0.000000
# 6 0.000000 0.000000 0.000000 0.009502 0.000000 0.049296
#
#
# Mechanical properties :
#
#
# Convention : Reuss Voigt Hill
#
# Bulk Modulus (GPa) = 49.94991 58.15943 54.05467
# Shear Modulus (GPa) = 23.82063 27.15256 25.48660
#
# Velocity S-wave (km/s) = 3.31944 3.54400 3.43356
# Velocity P-wave (km/s) = 6.14792 6.60677 6.38147
#
# Compressibility (1/GPa) = 0.02002006
#
# Stress axis : x y z
#
# Youngs Moduli (GPa) = 38.38837 65.97318 100.70420
#
# Poissons Ratio (x) = 0.46099 0.63240
# Poissons Ratio (y) = 0.26824 0.23075
# Poissons Ratio (z) = 0.24107 0.15117
#
# Static dielectric constant tensor:
#      x y z
#    x 3.527820 0.000000 -0.274530 
#    y 0.000000 4.202880 0.000000 
#    z -0.274530 0.000000 3.885810 
# 
# 
# High freq. dielectric constant tensor:
#      x y z
#    x 1.806460 0.000000 -0.035820 
#    y 0.000000 1.867650 0.000000 
#    z -0.035820 0.000000 1.847060 
# 
# From -- ./inp_files/49897.got.cif
#   From: 2010.06.25/outbox.cif.g09.slc.cpg/sg13_25_cif.got.tgz:49897.got - 2010.06.28 04:50:58.
