data_PCOD8116681
_publ_section_title
;
Structure prediction by ZEFSAII (Michael W. Deem and Ramdas Pophale) SiO2 
 PCOD8116681
Probable space group: P 2/C
;
_chemical_formula_sum "Si O2"
_cell_formula_units_Z 18
_cell_length_a 22.238255
_cell_length_b 7.204207
_cell_length_c 5.364707
_cell_angle_alpha 90.000000
_cell_angle_beta 118.847207
_cell_angle_gamma 90.000000
_cell_volume 752.821670
_symmetry_space_group_name_H-M "P 2/C"
_symmetry_group_IT_number 13
_symmetry_cell_setting 'monoclinic'
loop_
_space_group_symop_operation_xyz
x,y,z
-x,y,1/2-z
-x,-y,-z
x,-y,1/2+z
loop_
_atom_site_type_symbol
_atom_site_label
_atom_site_fract_x
_atom_site_fract_y
_atom_site_fract_z
Si Si1 0.863672 0.805876 0.977344
Si Si2 0.500000 0.620746 0.750000
Si Si3 0.646435 0.784441 0.042871
Si Si4 0.920013 0.783044 0.590026
Si Si5 0.296949 0.805251 0.843899
O O1 0.885675 0.694292 0.271635
O O2 0.905576 0.997551 0.061153
O O3 0.885675 0.694292 0.771065
O O4 0.783349 0.847999 0.816699
O O5 0.500000 0.500000 0.500000
O O6 0.434518 0.754058 0.619037
O O7 0.680672 0.693905 0.361092
O O8 0.661632 0.002659 0.073265
O O9 0.680673 0.693905 0.861598
O O10 0.000000 0.739585 0.750000
#
# Coordination Sequence:
#
# PCOD8116681 Si02
#       5
#     4   2   4   4   4
#     4  10  16  25  38  60  93 121 167 204 229 279
#     4  12  26  42  56  74 100 134 164 194 248 310
#     4  10  20  35  54  75 100 122 162 206 248 304
#     4  10  16  22  33  53  88 138 177 188 211 270
#     4  10  19  32  54  80  97 126 166 212 262 280
#
# _framework density 23.910046000000001
#
# number of rings (size 3 to 8) (size 9 to 14) (size 15 to 20)
#    0.000    1.778    0.000   11.333    0.000    3.556 
#    0.000    0.000    0.000    0.000    0.000    0.000 
#    0.000    0.000    0.000    0.000    0.000 2140.000 
#
# Total GULP energy -223063.275037 kJ/mol
# GULP energy per Si atom -12392.404169 kJ/mol
# Density = 2.385563 g / cm^3
# Si number density = 23.910046 Si / 1000 Ang^3
#
#
#
# Elastic Constant Matrix: (Units=GPa)
#
#
# Indices 1 2 3 4 5 6 
#
# 1 214.9602 25.5162 126.1170 0.0000 -13.3681 0.0000
# 2 25.5162 31.8094 14.9938 0.0000 13.8348 0.0000
# 3 126.1170 14.9938 254.3059 0.0000 -38.3624 0.0000
# 4 0.0000 0.0000 0.0000 -3.9906 0.0000 1.9395
# 5 -13.3681 13.8348 -38.3624 0.0000 82.3674 0.0000
# 6 0.0000 0.0000 0.0000 1.9395 0.0000 -2.5154
#
#
#
# Elastic Compliance Matrix: (Units=1/GPa)
#
#
# Indices 1 2 3 4 5 6 
#
# 1 0.007060 -0.004330 -0.003187 0.000000 0.000389 0.000000
# 2 -0.004330 0.038964 -0.001337 0.000000 -0.007870 0.000000
# 3 -0.003187 -0.001337 0.005967 0.000000 0.002486 0.000000
# 4 0.000000 0.000000 0.000000 -0.400775 0.000000 -0.309011
# 5 0.000389 -0.007870 0.002486 0.000000 0.014684 0.000000
# 6 0.000000 0.000000 0.000000 -0.309011 0.000000 -0.635810
#
#
# Mechanical properties :
#
#
# Convention : Reuss Voigt Hill
#
# Bulk Modulus (GPa) = 29.17001 92.70328 60.93665
# Shear Modulus (GPa) = -5.31477 37.46885 16.07704
#
# Velocity S-wave (km/s) = -1.49253 3.96293 2.59587
# Velocity P-wave (km/s) = 3.04240 7.73276 5.87587
#
# Compressibility (1/GPa) = 0.03428178
#
# Stress axis : x y z
#
# Youngs Moduli (GPa) = 141.63814 25.66485 167.59080
#
# Poissons Ratio (x) = 0.11113 0.53419
# Poissons Ratio (y) = 0.61330 0.22409
# Poissons Ratio (z) = 0.45146 0.03432
#
# Static dielectric constant tensor:
#      x y z
#    x 5.743340 0.000000 -2.327640 
#    y 0.000000 3.353870 0.000000 
#    z -2.327640 0.000000 7.513690 
# 
# 
# High freq. dielectric constant tensor:
#      x y z
#    x 1.967850 0.000000 -0.024180 
#    y 0.000000 1.879190 0.000000 
#    z -0.024180 0.000000 1.986240 
# 
# From -- ./inp_files/5940.got.cif
#   From: 2010.06.25/outbox.cif.g09.slc.cpg/sg13_3_cif.got.tgz:5940.got - 2010.06.28 04:50:58.
