data_PCOD8116166
_publ_section_title
;
Structure prediction by ZEFSAII (Michael W. Deem and Ramdas Pophale) SiO2 
 PCOD8116166
Probable space group: C 2/M
;
_chemical_formula_sum "Si O2"
_cell_formula_units_Z 40
_cell_length_a 26.177409
_cell_length_b 14.426873
_cell_length_c 7.497098
_cell_angle_alpha 90.000000
_cell_angle_beta 140.553261
_cell_angle_gamma 90.000000
_cell_volume 1798.922175
_symmetry_space_group_name_H-M "C 2/M"
_symmetry_group_IT_number 12
_symmetry_cell_setting 'monoclinic'
loop_
_space_group_symop_operation_xyz
x,y,z
-x,y,-z
-x,-y,-z
x,-y,z
1/2+x,1/2+y,z
1/2-x,1/2+y,-z
1/2-x,1/2-y,-z
1/2+x,1/2-y,z
loop_
_atom_site_type_symbol
_atom_site_label
_atom_site_fract_x
_atom_site_fract_y
_atom_site_fract_z
Si Si1 0.992526 0.209002 0.192273
Si Si2 0.541892 0.101263 0.298812
Si Si3 0.347613 0.390384 0.356401
Si Si4 0.165514 0.890933 0.273942
Si Si5 0.721701 0.890734 0.730172
O O1 0.994629 0.315771 0.273435
O O2 0.066886 0.151466 0.472632
O O3 0.000000 0.211532 0.000000
O O4 0.909583 0.160442 0.022236
O O5 0.630977 0.145079 0.507905
O O6 0.542844 0.000000 0.402549
O O7 0.500000 0.081760 0.000000
O O8 0.356150 0.500000 0.364345
O O9 0.322108 0.360214 0.488006
O O10 0.278862 0.350857 0.040290
O O11 0.244517 0.862842 0.374152
O O12 0.147536 0.000000 0.213025
O O13 0.718870 0.000000 0.739693
#
# Coordination Sequence:
#
# PCOD8116166 Si02
#       5
#     8   8   8   8   8
#     4   9  17  30  48  74 105 138 170 201 253 311
#     4   9  18  34  54  73  99 138 180 217 251 295
#     4   9  17  30  50  78 111 137 161 205 259 312
#     4   9  17  31  53  81 109 132 161 207 260 312
#     4   9  18  32  53  79 102 133 174 211 255 303
#
# _framework density 22.235537000000001
#
# number of rings (size 3 to 8) (size 9 to 14) (size 15 to 20)
#    0.000    3.000    0.000    0.600    0.000    4.000 
#    0.000   12.000    0.000    8.400    0.000   15.400 
#    0.000    0.000    0.000    0.000    0.000    0.000 
#
# Total GULP energy -247835.898268 kJ/mol
# GULP energy per Si atom -12391.794913 kJ/mol
# Density = 2.218493 g / cm^3
# Si number density = 22.235537 Si / 1000 Ang^3
#
#
#
# Elastic Constant Matrix: (Units=GPa)
#
#
# Indices 1 2 3 4 5 6 
#
# 1 33.3612 7.7569 8.4735 0.0000 -4.4804 0.0000
# 2 7.7569 56.2498 2.6023 0.0000 4.1010 0.0000
# 3 8.4735 2.6023 106.6685 0.0000 2.6979 0.0000
# 4 0.0000 0.0000 0.0000 32.4608 0.0000 0.5042
# 5 -4.4804 4.1010 2.6979 0.0000 25.7892 0.0000
# 6 0.0000 0.0000 0.0000 0.5042 0.0000 16.6723
#
#
#
# Elastic Compliance Matrix: (Units=1/GPa)
#
#
# Indices 1 2 3 4 5 6 
#
# 1 0.032685 -0.004875 -0.002648 0.000000 0.006731 0.000000
# 2 -0.004875 0.018728 0.000027 0.000000 -0.003828 0.000000
# 3 -0.002648 0.000027 0.009622 0.000000 -0.001471 0.000000
# 4 0.000000 0.000000 0.000000 0.030821 0.000000 -0.000932
# 5 0.006731 -0.003828 -0.001471 0.000000 0.040708 0.000000
# 6 0.000000 0.000000 0.000000 -0.000932 0.000000 0.060008
#
#
# Mechanical properties :
#
#
# Convention : Reuss Voigt Hill
#
# Bulk Modulus (GPa) = 21.71896 25.99388 23.85642
# Shear Modulus (GPa) = 22.43049 26.81425 24.62237
#
# Velocity S-wave (km/s) = 3.17956 3.47640 3.33129
# Velocity P-wave (km/s) = 4.82372 5.27536 5.05459
#
# Compressibility (1/GPa) = 0.04604273
#
# Stress axis : x y z
#
# Youngs Moduli (GPa) = 30.59507 53.39597 103.93170
#
# Poissons Ratio (x) = 0.26033 0.27518
# Poissons Ratio (y) = 0.14917 -0.00283
# Poissons Ratio (z) = 0.08101 -0.00145
#
# Static dielectric constant tensor:
#      x y z
#    x 3.651890 0.000000 0.165320 
#    y 0.000000 4.241940 0.000000 
#    z 0.165320 0.000000 4.347830 
# 
# 
# High freq. dielectric constant tensor:
#      x y z
#    x 1.831630 0.000000 0.009440 
#    y 0.000000 1.885070 0.000000 
#    z 0.009440 0.000000 1.879110 
# 
# From -- ./inp_files/59199.got.cif
#   From: 2010.06.25/outbox.cif.g09.slc.cpg/sg12_30_cif.got.tgz:59199.got - 2010.06.28 00:19:55.
