data_PCOD8116859
_publ_section_title
;
Structure prediction by ZEFSAII (Michael W. Deem and Ramdas Pophale) SiO2 
 PCOD8116859
Probable space group: P 2/C
;
_chemical_formula_sum "Si O2"
_cell_formula_units_Z 32
_cell_length_a 11.471423
_cell_length_b 8.667043
_cell_length_c 19.468744
_cell_angle_alpha 90.000000
_cell_angle_beta 120.608984
_cell_angle_gamma 90.000000
_cell_volume 1665.938284
_symmetry_space_group_name_H-M "P 2/C"
_symmetry_group_IT_number 13
_symmetry_cell_setting 'monoclinic'
loop_
_space_group_symop_operation_xyz
x,y,z
-x,y,1/2-z
-x,-y,-z
x,-y,1/2+z
loop_
_atom_site_type_symbol
_atom_site_label
_atom_site_fract_x
_atom_site_fract_y
_atom_site_fract_z
Si Si1 0.544415 0.950525 0.686033
Si Si2 0.145147 0.545214 0.326760
Si Si3 0.561293 0.520109 0.392245
Si Si4 0.699348 0.357149 0.226315
Si Si5 0.084604 0.353683 0.953737
Si Si6 0.340131 0.200697 0.024199
Si Si7 0.813675 0.528841 0.386291
Si Si8 0.618685 0.223776 0.613163
O O1 0.500000 0.986876 0.750000
O O2 0.662973 0.822939 0.719870
O O3 0.410088 0.899395 0.604017
O O4 0.606485 0.102142 0.670759
O O5 0.217950 0.390120 0.319574
O O6 0.132079 0.534632 0.405084
O O7 0.239087 0.689761 0.332990
O O8 0.000000 0.573463 0.250000
O O9 0.439566 0.452799 0.310242
O O10 0.623713 0.383066 0.457160
O O11 0.672104 0.592994 0.373152
O O12 0.507646 0.657711 0.423742
O O13 0.792258 0.412553 0.316635
O O14 0.920137 0.333297 0.898096
O O15 0.174135 0.194945 0.977610
O O16 0.113287 0.427425 0.035138
O O17 0.388005 0.142483 0.963692
#
# Coordination Sequence:
#
# PCOD8116859 Si02
#       8
#     4   4   4   4   4   4   4   4
#     4  11  22  36  52  82 116 150 184 224 276 335
#     4  10  19  36  55  80 106 138 185 237 279 327
#     4   9  18  31  54  86 106 136 184 241 275 320
#     4  10  19  33  56  77 107 143 185 228 279 323
#     4   9  18  30  51  82 105 139 174 228 280 322
#     4   9  18  36  57  78 110 146 185 230 278 327
#     4  10  17  29  51  81 110 135 178 225 280 324
#     4  10  21  34  56  82 109 146 184 226 285 328
#
# _framework density 19.208394999999999
#
# number of rings (size 3 to 8) (size 9 to 14) (size 15 to 20)
#    0.000    2.250    1.250    3.375    0.000    5.000 
#    0.000    0.625    0.000    0.750    6.500    0.000 
#    0.000    0.000    0.000    0.000    0.000    0.000 
#
# Total GULP energy -396485.524002 kJ/mol
# GULP energy per Si atom -12390.172625 kJ/mol
# Density = 1.916468 g / cm^3
# Si number density = 19.208395 Si / 1000 Ang^3
#
#
#
# Elastic Constant Matrix: (Units=GPa)
#
#
# Indices 1 2 3 4 5 6 
#
# 1 115.2615 29.3307 28.8215 0.0000 4.1999 0.0000
# 2 29.3307 51.7645 19.1226 0.0000 0.1762 0.0000
# 3 28.8215 19.1226 85.2137 0.0000 -9.6817 0.0000
# 4 0.0000 0.0000 0.0000 15.4985 0.0000 -2.5836
# 5 4.1999 0.1762 -9.6817 0.0000 36.0330 0.0000
# 6 0.0000 0.0000 0.0000 -2.5836 0.0000 19.4507
#
#
#
# Elastic Compliance Matrix: (Units=1/GPa)
#
#
# Indices 1 2 3 4 5 6 
#
# 1 0.010713 -0.005063 -0.002709 0.000000 -0.001952 0.000000
# 2 -0.005063 0.023527 -0.003624 0.000000 -0.000499 0.000000
# 3 -0.002709 -0.003624 0.013928 0.000000 0.004076 0.000000
# 4 0.000000 0.000000 0.000000 0.065983 0.000000 0.008764
# 5 -0.001952 -0.000499 0.004076 0.000000 0.029077 0.000000
# 6 0.000000 0.000000 0.000000 0.008764 0.000000 0.052576
#
#
# Mechanical properties :
#
#
# Convention : Reuss Voigt Hill
#
# Bulk Modulus (GPa) = 39.40657 45.19882 42.30269
# Shear Modulus (GPa) = 22.02113 25.86079 23.94096
#
# Velocity S-wave (km/s) = 3.38957 3.67321 3.53424
# Velocity P-wave (km/s) = 5.98989 6.44762 6.22297
#
# Compressibility (1/GPa) = 0.02537648
#
# Stress axis : x y z
#
# Youngs Moduli (GPa) = 93.34693 42.50378 71.79897
#
# Poissons Ratio (x) = 0.21518 0.19450
# Poissons Ratio (y) = 0.47258 0.26020
# Poissons Ratio (z) = 0.25287 0.15404
#
# Static dielectric constant tensor:
#      x y z
#    x 4.182700 0.000000 0.136310 
#    y 0.000000 3.088260 0.000000 
#    z 0.136310 0.000000 3.667130 
# 
# 
# High freq. dielectric constant tensor:
#      x y z
#    x 1.765760 0.000000 -0.003410 
#    y 0.000000 1.685260 0.000000 
#    z -0.003410 0.000000 1.763180 
# 
# From -- ./inp_files/78075.got.cif
#   From: 2010.06.25/outbox.cif.g09.slc.cpg/sg13_40_cif.got.tgz:78075.got - 2010.06.28 04:50:58.
