data_PCOD8116984
_publ_section_title
;
Structure prediction by ZEFSAII (Michael W. Deem and Ramdas Pophale) SiO2 
 PCOD8116984
Probable space group: P 2/C
;
_chemical_formula_sum "Si O2"
_cell_formula_units_Z 26
_cell_length_a 12.030693
_cell_length_b 14.169526
_cell_length_c 7.151553
_cell_angle_alpha 90.000000
_cell_angle_beta 61.424890
_cell_angle_gamma 90.000000
_cell_volume 1070.619705
_symmetry_space_group_name_H-M "P 2/C"
_symmetry_group_IT_number 13
_symmetry_cell_setting 'monoclinic'
loop_
_space_group_symop_operation_xyz
x,y,z
-x,y,1/2-z
-x,-y,-z
x,-y,1/2+z
loop_
_atom_site_type_symbol
_atom_site_label
_atom_site_fract_x
_atom_site_fract_y
_atom_site_fract_z
Si Si1 0.174400 0.566258 0.754068
Si Si2 0.090044 0.620511 0.421025
Si Si3 0.272850 0.076100 0.916141
Si Si4 0.391750 0.697250 0.695426
Si Si5 0.767689 0.870887 0.631982
Si Si6 0.962188 0.175215 0.498360
Si Si7 0.500000 0.200475 0.750000
O O1 0.143876 0.616605 0.586407
O O2 0.178555 0.451276 0.728788
O O3 0.304873 0.605751 0.730488
O O4 0.056793 0.589424 0.987488
O O5 0.096967 0.730223 0.360460
O O6 0.396005 0.130257 0.739075
O O7 0.289965 0.963381 0.922156
O O8 0.249206 0.119687 0.135053
O O9 0.148822 0.097281 0.888169
O O10 0.500000 0.664069 0.750000
O O11 0.311243 0.779103 0.865000
O O12 0.447455 0.732373 0.453931
O O13 0.917821 0.857779 0.474015
O O14 0.000000 0.192567 0.250000
#
# Coordination Sequence:
#
# PCOD8116984 Si02
#       7
#     4   4   4   4   4   4   2
#     4  10  20  39  65  99 121 165 212 278 325 397
#     4  10  18  37  70  90 127 159 219 266 344 394
#     4  10  22  35  61  89 126 171 220 264 325 397
#     4  11  24  44  69  94 137 175 225 270 328 398
#     4  10  21  37  61  92 127 168 222 271 330 381
#     4  10  17  37  62  88 123 172 206 272 339 387
#     4  10  24  42  64  96 130 192 220 258 336 398
#
# _framework density 24.285
#
# number of rings (size 3 to 8) (size 9 to 14) (size 15 to 20)
#    0.000    1.846    3.077    2.308    3.231    1.231 
#    5.538    0.769    5.077    0.000    0.000    0.000 
#    0.000    0.000    0.000    0.000    0.000    0.000 
#
# Total GULP energy -322321.042935 kJ/mol
# GULP energy per Si atom -12396.963190 kJ/mol
# Density = 2.422973 g / cm^3
# Si number density = 24.285000 Si / 1000 Ang^3
#
#
#
# Elastic Constant Matrix: (Units=GPa)
#
#
# Indices 1 2 3 4 5 6 
#
# 1 161.3688 40.0703 28.7039 0.0000 -20.9698 0.0000
# 2 40.0703 116.0286 27.3317 0.0000 -8.9592 0.0000
# 3 28.7039 27.3317 42.2988 0.0000 -25.7780 0.0000
# 4 0.0000 0.0000 0.0000 23.8349 0.0000 -7.5245
# 5 -20.9698 -8.9592 -25.7780 0.0000 22.9098 0.0000
# 6 0.0000 0.0000 0.0000 -7.5245 0.0000 46.0778
#
#
#
# Elastic Compliance Matrix: (Units=1/GPa)
#
#
# Indices 1 2 3 4 5 6 
#
# 1 0.007511 -0.002103 -0.000157 0.000000 0.005875 0.000000
# 2 -0.002103 0.011683 -0.014353 0.000000 -0.013506 0.000000
# 3 -0.000157 -0.014353 0.093911 0.000000 0.099911 0.000000
# 4 0.000000 0.000000 0.000000 0.044236 0.000000 0.007224
# 5 0.005875 -0.013506 0.099911 0.000000 0.156165 0.000000
# 6 0.000000 0.000000 0.000000 0.007224 0.000000 0.022882
#
#
# Mechanical properties :
#
#
# Convention : Reuss Voigt Hill
#
# Bulk Modulus (GPa) = 12.51905 56.87867 34.69886
# Shear Modulus (GPa) = 12.61866 33.47052 23.04459
#
# Velocity S-wave (km/s) = 2.28196 3.71649 3.08380
# Velocity P-wave (km/s) = 3.47985 6.47214 5.19605
#
# Compressibility (1/GPa) = 0.07987824
#
# Stress axis : x y z
#
# Youngs Moduli (GPa) = 133.14372 85.59508 10.64844
#
# Poissons Ratio (x) = 0.18001 0.00167
# Poissons Ratio (y) = 0.28001 0.15283
# Poissons Ratio (z) = 0.02094 1.22851
#
# Static dielectric constant tensor:
#      x y z
#    x 4.540040 0.000000 -0.258760 
#    y 0.000000 4.485840 0.000000 
#    z -0.258760 0.000000 4.116270 
# 
# 
# High freq. dielectric constant tensor:
#      x y z
#    x 1.962670 0.000000 0.002510 
#    y 0.000000 1.966240 0.000000 
#    z 0.002510 0.000000 1.941220 
# 
# From -- ./inp_files/16426.got.cif
#   From: 2010.06.25/outbox.cif.g09.slc.cpg/sg13_9_cif.got.tgz:16426.got - 2010.06.28 04:50:58.
