data_PCOD8116405
_publ_section_title
;
Structure prediction by ZEFSAII (Michael W. Deem and Ramdas Pophale) SiO2 
 PCOD8116405
Probable space group: C 2/M
;
_chemical_formula_sum "Si O2"
_cell_formula_units_Z 32
_cell_length_a 18.000000
_cell_length_b 9.000000
_cell_length_c 30.000000
_cell_angle_alpha 90.000000
_cell_angle_beta 40.000000
_cell_angle_gamma 90.000000
_cell_volume 3123.947783
_symmetry_space_group_name_H-M "C 2/M"
_symmetry_group_IT_number 12
_symmetry_cell_setting 'monoclinic'
loop_
_space_group_symop_operation_xyz
x,y,z
-x,y,-z
-x,-y,-z
x,-y,z
1/2+x,1/2+y,z
1/2-x,1/2+y,-z
1/2-x,1/2-y,-z
1/2+x,1/2-y,z
loop_
_atom_site_type_symbol
_atom_site_label
_atom_site_fract_x
_atom_site_fract_y
_atom_site_fract_z
Si Si1 0.996518 0.165940 0.216031
Si Si2 0.834568 0.179074 0.997345
Si Si3 0.421105 0.176485 0.497210
Si Si4 0.000819 0.323995 0.364989
Si Si5 0.839971 0.826122 0.368746
Si Si6 0.249572 0.669161 0.874857
Si Si7 0.967440 0.324325 0.143625
Si Si8 0.750232 0.676988 0.783390
O O1 0.889507 0.210837 0.296877
O O2 0.022673 0.288849 0.166316
O O3 0.112270 0.165382 0.191817
O O4 0.976413 0.000000 0.204871
O O5 0.799911 0.235631 0.061744
O O6 0.830207 0.000000 0.996819
O O7 0.750000 0.250000 0.000000
O O8 0.962139 0.240992 0.927824
O O9 0.500000 0.243577 0.500000
O O10 0.468664 0.239834 0.428511
O O11 0.291455 0.228081 0.567444
O O12 0.428501 0.000000 0.493287
O O13 0.997259 0.500000 0.366887
O O14 0.906282 0.266592 0.374777
O O15 0.126381 0.268472 0.291515
O O16 0.854074 0.000000 0.372610
O O17 0.200817 0.500000 0.899215
O O18 0.211065 0.752089 0.848107
O O19 0.963357 0.500000 0.136481
O O20 0.842589 0.247736 0.207364
O O21 0.742576 0.500000 0.789418
#
# Coordination Sequence:
#
# PCOD8116405 Si02
#       8
#     8   8   8   8   8   8   8   8
#     4  10  21  37  61  91 122 159 207 257 307 364
#     4  12  24  41  65  93 125 162 206 253 308 366
#     4   9  19  35  58  89 122 159 206 251 300 358
#     4  10  21  37  61  89 120 160 203 253 302 361
#     4  10  20  36  62  89 119 162 205 251 301 361
#     4  11  22  40  65  92 125 161 206 257 308 365
#     4  12  26  42  63  91 124 162 206 255 312 370
#     4  11  24  41  62  90 126 163 206 257 313 369
#
# _framework density 10.243449
#
# number of rings (size 3 to 8) (size 9 to 14) (size 15 to 20)
#    0.000    1.375    2.500    3.375    1.750    2.000 
#    0.000    2.500    0.000    0.750    0.000    0.000 
#    0.000    0.000    0.000    0.000    0.000    0.000 
#
# Total GULP energy -396790.922346 kJ/mol
# GULP energy per Si atom -12399.716323 kJ/mol
# Density = 1.022013 g / cm^3
# Si number density = 10.243449 Si / 1000 Ang^3
#
#
#
# Elastic Constant Matrix: (Units=GPa)
#
#
# Indices 1 2 3 4 5 6 
#
# 1 49.3860 18.2929 36.2441 0.0003 -9.9763 0.0031
# 2 18.2929 99.3778 40.7783 0.0010 -0.7218 0.0037
# 3 36.2441 40.7783 144.2710 0.0001 2.6719 0.0004
# 4 0.0003 0.0010 0.0001 26.2904 -0.0001 1.1170
# 5 -9.9763 -0.7218 2.6719 -0.0001 35.1310 -0.0001
# 6 0.0031 0.0037 0.0004 1.1170 -0.0001 33.3619
#
#
#
# Elastic Compliance Matrix: (Units=1/GPa)
#
#
# Indices 1 2 3 4 5 6 
#
# 1 0.027479 -0.002379 -0.006384 0.000000 0.008240 -0.000002
# 2 -0.002379 0.011597 -0.002676 0.000000 -0.000234 -0.000001
# 3 -0.006384 -0.002676 0.009339 0.000000 -0.002578 0.000001
# 4 0.000000 0.000000 0.000000 0.038091 0.000000 -0.001275
# 5 0.008240 -0.000234 -0.002578 0.000000 0.030996 -0.000001
# 6 -0.000002 -0.000001 0.000001 -0.001275 -0.000001 0.030017
#
#
# Mechanical properties :
#
#
# Convention : Reuss Voigt Hill
#
# Bulk Modulus (GPa) = 39.15667 53.74059 46.44863
# Shear Modulus (GPa) = 27.94717 32.13797 30.04257
#
# Velocity S-wave (km/s) = 3.69744 3.96499 3.83355
# Velocity P-wave (km/s) = 6.11414 6.87387 6.50511
#
# Compressibility (1/GPa) = 0.02553843
#
# Stress axis : x y z
#
# Youngs Moduli (GPa) = 36.39102 86.23051 107.07568
#
# Poissons Ratio (x) = 0.20514 0.68353
# Poissons Ratio (y) = 0.08657 0.28652
# Poissons Ratio (z) = 0.23231 0.23074
#
# Static dielectric constant tensor:
#      x y z
#    x 3.702610 0.000000 -0.062110 
#    y 0.000000 3.612240 0.000000 
#    z -0.062110 0.000000 4.051310 
# 
# 
# High freq. dielectric constant tensor:
#      x y z
#    x 1.794900 0.000000 -0.000700 
#    y 0.000000 1.790230 0.000000 
#    z -0.000700 0.000000 1.821310 
# 
# From -- ./inp_files/378250.got.cif
#   From: 2010.06.25/outbox.ucp.g09.slc.cvg/sg12_190_cif.got.tgz:378250.got - 2010.06.28 13:50:54.
