data_PCOD8116855
_publ_section_title
;
Structure prediction by ZEFSAII (Michael W. Deem and Ramdas Pophale) SiO2 
 PCOD8116855
Probable space group: P 2/C
;
_chemical_formula_sum "Si O2"
_cell_formula_units_Z 28
_cell_length_a 16.514086
_cell_length_b 16.795480
_cell_length_c 9.526918
_cell_angle_alpha 90.000000
_cell_angle_beta 146.757070
_cell_angle_gamma 90.000000
_cell_volume 1448.540104
_symmetry_space_group_name_H-M "P 2/C"
_symmetry_group_IT_number 13
_symmetry_cell_setting 'monoclinic'
loop_
_space_group_symop_operation_xyz
x,y,z
-x,y,1/2-z
-x,-y,-z
x,-y,1/2+z
loop_
_atom_site_type_symbol
_atom_site_label
_atom_site_fract_x
_atom_site_fract_y
_atom_site_fract_z
Si Si1 0.341611 0.793207 0.456859
Si Si2 0.170021 0.243997 0.971541
Si Si3 0.685415 0.639186 0.618488
Si Si4 0.602375 0.530997 0.027256
Si Si5 0.174181 0.070896 0.039005
Si Si6 0.669475 0.024723 0.504017
Si Si7 0.355080 0.324599 0.738288
O O1 0.216560 0.753290 0.375100
O O2 0.321361 0.887622 0.414108
O O3 0.330547 0.758639 0.282828
O O4 0.500000 0.770192 0.750000
O O5 0.215275 0.324098 0.116256
O O6 0.235071 0.161871 0.129901
O O7 0.000000 0.236872 0.750000
O O8 0.707609 0.543289 0.638171
O O9 0.736774 0.673980 0.540670
O O10 0.520633 0.661890 0.424503
O O11 0.692687 0.606414 0.219320
O O12 0.500000 0.559504 0.750000
O O13 0.500000 0.500000 0.000000
O O14 0.219820 0.033299 0.252774
O O15 0.267834 0.022909 0.060992
O O16 0.000000 0.064583 0.750000
O O17 0.500000 0.994148 0.250000
#
# Coordination Sequence:
#
# PCOD8116855 Si02
#       7
#     4   4   4   4   4   4   4
#     4  10  19  34  57  81 107 142 184 225 272 324
#     4  10  22  38  55  77 111 149 180 217 273 330
#     4  10  19  33  51  81 113 136 179 227 269 316
#     4  10  17  29  49  84 113 136 175 227 269 313
#     4  10  21  39  58  79 108 151 188 220 273 343
#     4  10  21  36  55  84 112 138 183 236 281 321
#     4  10  19  31  54  86 107 137 180 229 271 313
#
# _framework density 19.329806999999999
#
# number of rings (size 3 to 8) (size 9 to 14) (size 15 to 20)
#    0.000    2.000    4.286    1.286    2.000    1.143 
#    2.571    0.714    0.000    3.429    0.000    0.000 
#    0.000    0.000    0.000    0.000    0.000    0.000 
#
# Total GULP energy -346981.749994 kJ/mol
# GULP energy per Si atom -12392.205357 kJ/mol
# Density = 1.928581 g / cm^3
# Si number density = 19.329807 Si / 1000 Ang^3
#
#
#
# Elastic Constant Matrix: (Units=GPa)
#
#
# Indices 1 2 3 4 5 6 
#
# 1 77.2237 10.0540 15.8190 0.0000 -4.3019 0.0000
# 2 10.0540 62.0786 15.9287 0.0000 -14.3489 0.0000
# 3 15.8190 15.9287 46.6412 0.0000 -7.6547 0.0000
# 4 0.0000 0.0000 0.0000 27.1829 0.0000 -8.9505
# 5 -4.3019 -14.3489 -7.6547 0.0000 30.8474 0.0000
# 6 0.0000 0.0000 0.0000 -8.9505 0.0000 22.5719
#
#
#
# Elastic Compliance Matrix: (Units=1/GPa)
#
#
# Indices 1 2 3 4 5 6 
#
# 1 0.013995 -0.001070 -0.004318 0.000000 0.000382 0.000000
# 2 -0.001070 0.019318 -0.004987 0.000000 0.007599 0.000000
# 3 -0.004318 -0.004987 0.025153 0.000000 0.003320 0.000000
# 4 0.000000 0.000000 0.000000 0.042312 0.000000 0.016778
# 5 0.000382 0.007599 0.003320 0.000000 0.036829 0.000000
# 6 0.000000 0.000000 0.000000 0.016778 0.000000 0.050956
#
#
# Mechanical properties :
#
#
# Convention : Reuss Voigt Hill
#
# Bulk Modulus (GPa) = 26.51521 29.94967 28.23244
# Shear Modulus (GPa) = 22.53406 25.72990 24.13198
#
# Velocity S-wave (km/s) = 3.41804 3.65238 3.53715
# Velocity P-wave (km/s) = 5.41520 5.77185 5.59636
#
# Compressibility (1/GPa) = 0.03771420
#
# Stress axis : x y z
#
# Youngs Moduli (GPa) = 71.45619 51.76501 39.75683
#
# Poissons Ratio (x) = 0.05540 0.17168
# Poissons Ratio (y) = 0.07647 0.19828
# Poissons Ratio (z) = 0.30857 0.25817
#
# Static dielectric constant tensor:
#      x y z
#    x 3.626040 0.000000 -0.138170 
#    y 0.000000 4.288360 0.000000 
#    z -0.138170 0.000000 3.011460 
# 
# 
# High freq. dielectric constant tensor:
#      x y z
#    x 1.755210 0.000000 -0.022610 
#    y 0.000000 1.756000 0.000000 
#    z -0.022610 0.000000 1.713220 
# 
# From -- ./inp_files/20123.got.cif
#   From: 2010.06.25/outbox.cif.g09.slc.cpg/sg13_11_cif.got.tgz:20123.got - 2010.06.28 04:50:58.
