data_PCOD8116429
_publ_section_title
;
Structure prediction by ZEFSAII (Michael W. Deem and Ramdas Pophale) SiO2 
 PCOD8116429
Probable space group: C 2/M
;
_chemical_formula_sum "Si O2"
_cell_formula_units_Z 32
_cell_length_a 18.000000
_cell_length_b 9.000000
_cell_length_c 30.000000
_cell_angle_alpha 90.000000
_cell_angle_beta 40.000000
_cell_angle_gamma 90.000000
_cell_volume 3123.947783
_symmetry_space_group_name_H-M "C 2/M"
_symmetry_group_IT_number 12
_symmetry_cell_setting 'monoclinic'
loop_
_space_group_symop_operation_xyz
x,y,z
-x,y,-z
-x,-y,-z
x,-y,z
1/2+x,1/2+y,z
1/2-x,1/2+y,-z
1/2-x,1/2-y,-z
1/2+x,1/2-y,z
loop_
_atom_site_type_symbol
_atom_site_label
_atom_site_fract_x
_atom_site_fract_y
_atom_site_fract_z
Si Si1 0.297700 0.326911 0.520530
Si Si2 0.929766 0.827118 0.938018
Si Si3 0.521116 0.163982 0.438467
Si Si4 0.187835 0.331956 0.086061
Si Si5 0.883210 0.673059 0.322742
Si Si6 0.165010 0.675155 0.826733
Si Si7 0.223769 0.825207 0.707353
Si Si8 0.641440 0.832451 0.209788
O O1 0.286859 0.500000 0.519573
O O2 0.250000 0.250000 0.500000
O O3 0.431347 0.284011 0.462103
O O4 0.218765 0.273079 0.597799
O O5 0.890698 0.777825 0.906726
O O6 0.044191 0.739761 0.901013
O O7 0.961183 0.000000 0.922821
O O8 0.824315 0.790723 0.020282
O O9 0.500000 0.150638 0.500000
O O10 0.648719 0.221659 0.368002
O O11 0.500997 0.000000 0.426166
O O12 0.170851 0.500000 0.075840
O O13 0.143778 0.316870 0.155937
O O14 0.870297 0.500000 0.316182
O O15 0.871061 0.771283 0.284258
O O16 0.009950 0.702444 0.285942
O O17 0.153537 0.500000 0.828142
O O18 0.195496 0.743585 0.765575
O O19 0.269868 0.714836 0.811221
O O20 0.213017 0.000000 0.719250
O O21 0.676077 0.000000 0.208653
#
# Coordination Sequence:
#
# PCOD8116429 Si02
#       8
#     8   8   8   8   8   8   8   8
#     4  11  24  39  59  88 122 161 200 244 297 354
#     4  10  20  37  63  93 123 158 201 241 291 353
#     4  10  21  40  63  89 118 153 196 246 300 356
#     4   9  19  37  64  94 123 158 197 245 295 347
#     4  10  22  40  62  88 119 156 197 243 299 358
#     4  12  26  41  58  86 122 158 200 248 298 350
#     4  11  23  40  65  89 116 154 198 247 300 358
#     4  10  22  41  61  84 119 159 197 242 299 354
#
# _framework density 10.243449
#
# number of rings (size 3 to 8) (size 9 to 14) (size 15 to 20)
#    0.000    1.625    1.250    3.000    1.750    4.750 
#    0.000    2.500    0.000    0.000    0.000    0.000 
#    0.000    0.000    0.000    0.000    0.000    0.000 
#
# Total GULP energy -396839.601356 kJ/mol
# GULP energy per Si atom -12401.237542 kJ/mol
# Density = 1.022013 g / cm^3
# Si number density = 10.243449 Si / 1000 Ang^3
#
#
#
# Elastic Constant Matrix: (Units=GPa)
#
#
# Indices 1 2 3 4 5 6 
#
# 1 72.4041 35.7928 18.3739 0.0004 -21.2441 0.0013
# 2 35.7928 82.1172 30.9746 0.0010 -9.9342 0.0004
# 3 18.3739 30.9746 63.9225 -0.0002 -22.8979 -0.0001
# 4 0.0004 0.0010 -0.0002 29.0041 0.0000 -3.8916
# 5 -21.2441 -9.9342 -22.8979 0.0000 33.0227 0.0002
# 6 0.0013 0.0004 -0.0001 -3.8916 0.0002 39.7796
#
#
#
# Elastic Compliance Matrix: (Units=1/GPa)
#
#
# Indices 1 2 3 4 5 6 
#
# 1 0.021222 -0.008727 0.002766 0.000000 0.012945 -0.000001
# 2 -0.008727 0.018503 -0.008614 -0.000001 -0.006021 0.000000
# 3 0.002766 -0.008614 0.024922 0.000000 0.016469 0.000000
# 4 0.000000 -0.000001 0.000000 0.034936 0.000000 0.003418
# 5 0.012945 -0.006021 0.016469 0.000000 0.048218 -0.000001
# 6 -0.000001 0.000000 0.000000 0.003418 -0.000001 0.025473
#
#
# Mechanical properties :
#
#
# Convention : Reuss Voigt Hill
#
# Bulk Modulus (GPa) = 28.17203 43.19182 35.68193
# Shear Modulus (GPa) = 23.33639 29.24812 26.29225
#
# Velocity S-wave (km/s) = 3.37870 3.78252 3.58630
# Velocity P-wave (km/s) = 5.38534 6.34075 5.88247
#
# Compressibility (1/GPa) = 0.03549620
#
# Stress axis : x y z
#
# Youngs Moduli (GPa) = 47.12088 54.04659 40.12447
#
# Poissons Ratio (x) = 0.47169 -0.11099
# Poissons Ratio (y) = 0.41125 0.34563
# Poissons Ratio (z) = -0.13034 0.46556
#
# Static dielectric constant tensor:
#      x y z
#    x 3.759580 0.000020 -0.226040 
#    y 0.000020 3.032340 -0.000020 
#    z -0.226040 -0.000020 3.981970 
# 
# 
# High freq. dielectric constant tensor:
#      x y z
#    x 1.788490 0.000000 -0.016250 
#    y 0.000000 1.798360 0.000000 
#    z -0.016250 0.000000 1.817710 
# 
# From -- ./inp_files/378010.got.cif
#   From: 2010.06.25/outbox.ucp.g09.slc.cvg/sg12_190_cif.got.tgz:378010.got - 2010.06.28 13:50:54.
