data_PCOD8116153
_publ_section_title
;
Structure prediction by ZEFSAII (Michael W. Deem and Ramdas Pophale) SiO2 
 PCOD8116153
Probable space group: C 2/M
;
_chemical_formula_sum "Si O2"
_cell_formula_units_Z 64
_cell_length_a 9.390662
_cell_length_b 19.383244
_cell_length_c 27.590604
_cell_angle_alpha 90.000000
_cell_angle_beta 132.899608
_cell_angle_gamma 90.000000
_cell_volume 3678.914576
_symmetry_space_group_name_H-M "C 2/M"
_symmetry_group_IT_number 12
_symmetry_cell_setting 'monoclinic'
loop_
_space_group_symop_operation_xyz
x,y,z
-x,y,-z
-x,-y,-z
x,-y,z
1/2+x,1/2+y,z
1/2-x,1/2+y,-z
1/2-x,1/2-y,-z
1/2+x,1/2-y,z
loop_
_atom_site_type_symbol
_atom_site_label
_atom_site_fract_x
_atom_site_fract_y
_atom_site_fract_z
Si Si1 0.857487 0.183064 0.761145
Si Si2 0.312905 0.316937 0.238855
Si Si3 0.583991 0.420496 0.874473
Si Si4 0.388140 0.681589 0.610657
Si Si5 0.445512 0.818410 0.389343
Si Si6 0.838707 0.917900 0.000000
Si Si7 0.331454 0.076974 0.500000
Si Si8 0.586100 0.920496 0.125527
O O1 0.818859 0.250000 0.784429
O O2 0.668603 0.161787 0.686202
O O3 0.034850 0.201817 0.767425
O O4 0.908993 0.119731 0.808050
O O5 0.423793 0.338213 0.313798
O O6 0.176790 0.380269 0.191949
O O7 0.520381 0.500000 0.860602
O O8 0.611864 0.390465 0.934905
O O9 0.786549 0.410523 0.893275
O O10 0.427138 0.750000 0.588569
O O11 0.201287 0.696230 0.600643
O O12 0.349602 0.618099 0.565347
O O13 0.588215 0.881900 0.434653
O O14 0.834128 0.000000 0.000000
O O15 0.627758 0.890464 0.934906
O O16 0.000000 0.889764 0.000000
O O17 0.500000 0.070410 0.500000
O O18 0.263631 0.000000 0.500000
O O19 0.577972 0.000000 0.139397
#
# Coordination Sequence:
#
# PCOD8116153 Si02
#       8
#     8   8   8   8   8   8   8   8
#     4   9  18  31  47  68  93 121 153 189 228 270
#     4   9  18  31  47  68  93 121 153 189 228 270
#     4   9  17  30  48  68  90 118 152 189 228 270
#     4   9  17  30  48  68  91 122 157 189 224 270
#     4   9  17  30  48  68  91 122 157 189 224 270
#     4   9  17  29  46  69  94 119 149 185 226 273
#     4   9  17  28  45  71  98 121 150 192 234 267
#     4   9  17  30  48  68  90 118 152 189 228 270
#
# _framework density 17.396435
#
# number of rings (size 3 to 8) (size 9 to 14) (size 15 to 20)
#    0.000    3.000    0.000    0.750    0.000    3.500 
#    0.000    5.625    0.000    1.500    0.000    7.000 
#    0.000    0.000    0.000    0.000    0.000    0.000 
#
# Total GULP energy -396783.347822 kJ/mol
# GULP energy per Si atom -12399.479619 kJ/mol
# Density = 1.735684 g / cm^3
# Si number density = 17.396435 Si / 1000 Ang^3
#
#
#
# Elastic Constant Matrix: (Units=GPa)
#
#
# Indices 1 2 3 4 5 6 
#
# 1 52.8632 43.5361 49.1458 0.0001 0.5825 0.0000
# 2 43.5361 116.2437 82.8104 0.0000 0.6323 0.0000
# 3 49.1458 82.8104 132.3886 0.0002 0.6967 -0.0002
# 4 0.0001 0.0000 0.0002 25.3711 0.0002 0.0288
# 5 0.5825 0.6323 0.6967 0.0002 19.9643 -0.0001
# 6 0.0000 0.0000 -0.0002 0.0288 -0.0001 23.5717
#
#
#
# Elastic Compliance Matrix: (Units=1/GPa)
#
#
# Indices 1 2 3 4 5 6 
#
# 1 0.031177 -0.006189 -0.007700 0.000000 -0.000445 0.000000
# 2 -0.006189 0.016746 -0.008177 0.000000 -0.000064 0.000000
# 3 -0.007700 -0.008177 0.015527 0.000000 -0.000058 0.000000
# 4 0.000000 0.000000 0.000000 0.039415 0.000000 -0.000048
# 5 -0.000445 -0.000064 -0.000058 0.000000 0.050107 0.000000
# 6 0.000000 0.000000 0.000000 -0.000048 0.000000 0.042424
#
#
# Mechanical properties :
#
#
# Convention : Reuss Voigt Hill
#
# Bulk Modulus (GPa) = 51.76421 72.49780 62.13101
# Shear Modulus (GPa) = 20.32789 22.18161 21.25475
#
# Velocity S-wave (km/s) = 3.42205 3.57468 3.49920
# Velocity P-wave (km/s) = 6.74049 7.66826 7.21929
#
# Compressibility (1/GPa) = 0.01931837
#
# Stress axis : x y z
#
# Youngs Moduli (GPa) = 32.07468 59.71576 64.40285
#
# Poissons Ratio (x) = 0.36956 0.49593
# Poissons Ratio (y) = 0.19850 0.52663
# Poissons Ratio (z) = 0.24699 0.48830
#
# Static dielectric constant tensor:
#      x y z
#    x 3.145680 0.000000 0.004390 
#    y 0.000000 3.196340 0.000000 
#    z 0.004390 0.000000 3.418320 
# 
# 
# High freq. dielectric constant tensor:
#      x y z
#    x 1.655630 0.000000 0.000450 
#    y 0.000000 1.652990 0.000000 
#    z 0.000450 0.000000 1.683310 
# 
# From -- ./inp_files/356863.got.cif
#   From: 2010.06.25/outbox.cif.g09.slc.cpg/sg12_179_cif.got.tgz:356863.got - 2010.06.28 00:19:55.
