data_PCOD8116306
_publ_section_title
;
Structure prediction by ZEFSAII (Michael W. Deem and Ramdas Pophale) SiO2 
 PCOD8116306
Probable space group: C 2/M
;
_chemical_formula_sum "Si O2"
_cell_formula_units_Z 32
_cell_length_a 24.000000
_cell_length_b 9.000000
_cell_length_c 30.000000
_cell_angle_alpha 90.000000
_cell_angle_beta 30.000000
_cell_angle_gamma 90.000000
_cell_volume 3240.000000
_symmetry_space_group_name_H-M "C 2/M"
_symmetry_group_IT_number 12
_symmetry_cell_setting 'monoclinic'
loop_
_space_group_symop_operation_xyz
x,y,z
-x,y,-z
-x,-y,-z
x,-y,z
1/2+x,1/2+y,z
1/2-x,1/2+y,-z
1/2-x,1/2-y,-z
1/2+x,1/2-y,z
loop_
_atom_site_type_symbol
_atom_site_label
_atom_site_fract_x
_atom_site_fract_y
_atom_site_fract_z
Si Si1 0.147550 0.826289 0.850643
Si Si2 0.711439 0.322596 0.396127
Si Si3 0.940614 0.172797 0.931679
Si Si4 0.854215 0.326174 0.647876
Si Si5 0.209951 0.325097 0.897280
Si Si6 0.447428 0.325253 0.238168
Si Si7 0.941180 0.675518 0.429414
Si Si8 0.967859 0.825924 0.721378
O O1 0.041206 0.784723 0.894959
O O2 0.250777 0.773908 0.749249
O O3 0.145301 0.742957 0.899593
O O4 0.154331 0.000000 0.856941
O O5 0.703822 0.500000 0.402923
O O6 0.642383 0.263243 0.401030
O O7 0.838353 0.270511 0.303909
O O8 0.665587 0.254633 0.474392
O O9 0.966679 0.214251 0.861816
O O10 0.912092 0.000000 0.954756
O O11 0.835630 0.263559 0.023799
O O12 0.847940 0.500000 0.640012
O O13 0.959988 0.287764 0.604798
O O14 0.192689 0.500000 0.908720
O O15 0.339394 0.280971 0.804652
O O16 0.417694 0.500000 0.256280
O O17 0.495762 0.282051 0.253363
O O18 0.920135 0.500000 0.439455
O O19 0.962529 0.738707 0.364807
O O20 0.987058 0.000000 0.700178
#
# Coordination Sequence:
#
# PCOD8116306 Si02
#       8
#     8   8   8   8   8   8   8   8
#     4  10  19  36  61  88 117 156 202 241 285 353
#     4  12  25  39  61  93 126 156 192 245 306 357
#     4  10  21  38  62  87 115 156 204 245 288 352
#     4  10  20  38  63  90 120 159 201 239 289 356
#     4  11  23  37  57  90 127 156 189 243 308 357
#     4  10  22  44  66  84 114 160 208 250 294 351
#     4  11  23  40  65  91 120 159 202 243 290 356
#     4  10  23  42  63  87 119 157 200 253 305 348
#
# _framework density 9.8765429999999999
#
# number of rings (size 3 to 8) (size 9 to 14) (size 15 to 20)
#    0.000    1.500    2.500    2.625    0.000    7.500 
#    0.000    0.000    0.000    0.000    0.000    0.000 
#    0.000    0.000    0.000    0.000    0.000    0.000 
#
# Total GULP energy -396851.033890 kJ/mol
# GULP energy per Si atom -12401.594809 kJ/mol
# Density = 0.985406 g / cm^3
# Si number density = 9.876543 Si / 1000 Ang^3
#
#
#
# Elastic Constant Matrix: (Units=GPa)
#
#
# Indices 1 2 3 4 5 6 
#
# 1 125.8339 41.3376 30.8700 -0.0315 35.6450 0.0290
# 2 41.3376 91.8850 41.2362 -0.0287 17.5824 0.0332
# 3 30.8700 41.2362 110.7240 0.0087 38.3849 -0.0198
# 4 -0.0315 -0.0287 0.0087 36.1801 0.0003 8.2214
# 5 35.6450 17.5824 38.3849 0.0003 41.9641 -0.0046
# 6 0.0290 0.0332 -0.0198 8.2214 -0.0046 32.8904
#
#
#
# Elastic Compliance Matrix: (Units=1/GPa)
#
#
# Indices 1 2 3 4 5 6 
#
# 1 0.011634 -0.004122 0.001638 0.000008 -0.009653 -0.000009
# 2 -0.004122 0.014592 -0.004949 0.000013 0.001914 -0.000017
# 3 0.001638 -0.004949 0.014909 -0.000009 -0.012955 0.000013
# 4 0.000008 0.000013 -0.000009 0.029304 -0.000006 -0.007325
# 5 -0.009653 0.001914 -0.012955 -0.000006 0.043078 0.000006
# 6 -0.000009 -0.000017 0.000013 -0.007325 0.000006 0.032235
#
#
# Mechanical properties :
#
#
# Convention : Reuss Voigt Hill
#
# Bulk Modulus (GPa) = 38.06638 61.70340 49.88489
# Shear Modulus (GPa) = 29.52054 36.54018 33.03036
#
# Velocity S-wave (km/s) = 3.87004 4.30565 4.09364
# Velocity P-wave (km/s) = 6.26758 7.48487 6.90311
#
# Compressibility (1/GPa) = 0.02626990
#
# Stress axis : x y z
#
# Youngs Moduli (GPa) = 85.95772 68.52983 67.07315
#
# Poissons Ratio (x) = 0.28246 -0.10987
# Poissons Ratio (y) = 0.35429 0.33193
# Poissons Ratio (z) = -0.14080 0.33914
#
# Static dielectric constant tensor:
#      x y z
#    x 3.775920 -0.000090 0.206420 
#    y -0.000090 3.532030 0.000030 
#    z 0.206420 0.000030 3.836430 
# 
# 
# High freq. dielectric constant tensor:
#      x y z
#    x 1.782710 0.000000 0.019710 
#    y 0.000000 1.767390 0.000000 
#    z 0.019710 0.000000 1.789890 
# 
# From -- ./inp_files/382381.got.cif
#   From: 2010.06.25/outbox.ucp.g09.slc.cvg/sg12_192_cif.got.tgz:382381.got - 2010.06.28 13:50:54.
