data_PCOD8116504
_publ_section_title
;
Structure prediction by ZEFSAII (Michael W. Deem and Ramdas Pophale) SiO2 
 PCOD8116504
Probable space group: C 2/M
;
_chemical_formula_sum "Si O2"
_cell_formula_units_Z 32
_cell_length_a 18.000000
_cell_length_b 9.000000
_cell_length_c 30.000000
_cell_angle_alpha 90.000000
_cell_angle_beta 40.000000
_cell_angle_gamma 90.000000
_cell_volume 3123.947783
_symmetry_space_group_name_H-M "C 2/M"
_symmetry_group_IT_number 12
_symmetry_cell_setting 'monoclinic'
loop_
_space_group_symop_operation_xyz
x,y,z
-x,y,-z
-x,-y,-z
x,-y,z
1/2+x,1/2+y,z
1/2-x,1/2+y,-z
1/2-x,1/2-y,-z
1/2+x,1/2-y,z
loop_
_atom_site_type_symbol
_atom_site_label
_atom_site_fract_x
_atom_site_fract_y
_atom_site_fract_z
Si Si1 0.311697 0.334351 0.649822
Si Si2 0.029091 0.328018 0.556206
Si Si3 0.154662 0.322558 0.803357
Si Si4 0.574923 0.669054 0.078625
Si Si5 0.223835 0.330582 0.942156
Si Si6 0.251835 0.832700 0.417717
Si Si7 0.783804 0.321831 0.822390
Si Si8 0.493617 0.173860 0.331955
O O1 0.354093 0.500000 0.642912
O O2 0.419939 0.239730 0.580709
O O3 0.239474 0.267540 0.724550
O O4 0.233004 0.335861 0.642388
O O5 0.040986 0.500000 0.540670
O O6 0.148223 0.256241 0.487454
O O7 0.985326 0.291050 0.626201
O O8 0.155069 0.500000 0.806910
O O9 0.186187 0.245327 0.835410
O O10 0.026903 0.263578 0.851648
O O11 0.536576 0.500000 0.085538
O O12 0.675602 0.669823 0.068177
O O13 0.613977 0.746965 0.014359
O O14 0.189576 0.500000 0.945318
O O15 0.266959 0.242067 0.879191
O O16 0.369923 0.752804 0.378414
O O17 0.240008 0.000000 0.441973
O O18 0.776115 0.500000 0.826685
O O19 0.905182 0.262421 0.745962
O O20 0.484859 0.000000 0.326703
#
# Coordination Sequence:
#
# PCOD8116504 Si02
#       8
#     8   8   8   8   8   8   8   8
#     4  10  22  38  58  83 114 153 195 240 292 352
#     4  11  21  37  58  83 115 150 191 242 298 349
#     4  11  23  39  61  89 121 158 202 250 297 350
#     4  10  22  41  65  93 125 160 196 238 293 352
#     4  10  22  41  64  94 127 157 195 244 290 345
#     4  10  21  38  58  82 111 150 198 241 291 354
#     4  11  22  39  63  88 120 162 201 244 299 357
#     4   9  20  37  58  83 114 151 193 242 292 349
#
# _framework density 10.243449
#
# number of rings (size 3 to 8) (size 9 to 14) (size 15 to 20)
#    0.000    1.750    1.250    2.625    1.750    4.500 
#    0.000    4.375    0.000    0.000    0.000    0.000 
#    0.000    0.000    0.000    0.000    0.000    0.000 
#
# Total GULP energy -396683.694232 kJ/mol
# GULP energy per Si atom -12396.365445 kJ/mol
# Density = 1.022013 g / cm^3
# Si number density = 10.243449 Si / 1000 Ang^3
#
#
#
# Elastic Constant Matrix: (Units=GPa)
#
#
# Indices 1 2 3 4 5 6 
#
# 1 8.0942 17.1406 -2.5717 0.0004 -18.5311 0.0033
# 2 17.1406 107.7148 41.5245 0.0008 -2.4312 0.0036
# 3 -2.5717 41.5245 96.4088 -0.0004 -13.5707 -0.0008
# 4 0.0004 0.0008 -0.0004 37.0625 -0.0004 1.0106
# 5 -18.5311 -2.4312 -13.5707 -0.0004 20.9877 -0.0005
# 6 0.0033 0.0036 -0.0008 1.0106 -0.0005 22.9063
#
#
#
# Elastic Compliance Matrix: (Units=1/GPa)
#
#
# Indices 1 2 3 4 5 6 
#
# 1 -0.062781 0.015220 -0.017365 -0.000001 -0.064898 0.000005
# 2 0.015220 0.007519 -0.000900 0.000000 0.013727 -0.000003
# 3 -0.017365 -0.000900 0.008938 0.000000 -0.009658 0.000003
# 4 -0.000001 0.000000 0.000000 0.027014 0.000000 -0.001192
# 5 -0.064898 0.013727 -0.009658 0.000000 -0.014309 0.000007
# 6 0.000005 -0.000003 0.000003 -0.001192 0.000007 0.043709
#
#
# Mechanical properties :
#
#
# Convention : Reuss Voigt Hill
#
# Bulk Modulus (GPa) = -19.07827 36.04497 8.48335
# Shear Modulus (GPa) = -3868.66049 26.59960 -1921.03045
#
# Velocity S-wave (km/s) = -43.50239 3.60720 -30.65490
# Velocity P-wave (km/s) = 50.32504 5.91452 35.33856
#
# Compressibility (1/GPa) = -0.05241566
#
# Stress axis : x y z
#
# Youngs Moduli (GPa) = -15.92840 133.00218 111.88796
#
# Poissons Ratio (x) = -2.02428 1.94296
# Poissons Ratio (y) = 0.24243 0.10071
# Poissons Ratio (z) = -0.27660 0.11972
#
# Static dielectric constant tensor:
#      x y z
#    x 3.621380 0.000000 -0.004590 
#    y 0.000000 3.760010 0.000000 
#    z -0.004590 0.000000 3.842180 
# 
# 
# High freq. dielectric constant tensor:
#      x y z
#    x 1.791900 0.000000 0.003560 
#    y 0.000000 1.794960 0.000000 
#    z 0.003560 0.000000 1.818990 
# 
# From -- ./inp_files/378177.got.cif
#   From: 2010.06.25/outbox.ucp.g09.slc.cvg/sg12_190_cif.got.tgz:378177.got - 2010.06.28 13:50:54.
