data_PCOD8116874
_publ_section_title
;
Structure prediction by ZEFSAII (Michael W. Deem and Ramdas Pophale) SiO2 
 PCOD8116874
Probable space group: P 2/C
;
_chemical_formula_sum "Si O2"
_cell_formula_units_Z 24
_cell_length_a 13.058472
_cell_length_b 9.124647
_cell_length_c 20.948329
_cell_angle_alpha 90.000000
_cell_angle_beta 34.237024
_cell_angle_gamma 90.000000
_cell_volume 1404.336620
_symmetry_space_group_name_H-M "P 2/C"
_symmetry_group_IT_number 13
_symmetry_cell_setting 'monoclinic'
loop_
_space_group_symop_operation_xyz
x,y,z
-x,y,1/2-z
-x,-y,-z
x,-y,1/2+z
loop_
_atom_site_type_symbol
_atom_site_label
_atom_site_fract_x
_atom_site_fract_y
_atom_site_fract_z
Si Si1 0.791319 0.078157 0.486575
Si Si2 0.129826 0.376504 0.854052
Si Si3 0.024884 0.691934 0.929732
Si Si4 0.383239 0.850550 0.188369
Si Si5 0.303813 0.921456 0.836930
Si Si6 0.033178 0.156971 0.803295
O O1 0.591704 0.120412 0.562425
O O2 0.894130 0.230385 0.446011
O O3 0.791999 0.981713 0.550383
O O4 0.897698 0.981257 0.380027
O O5 0.107409 0.548752 0.852330
O O6 0.336827 0.319846 0.731710
O O7 0.994408 0.283600 0.876691
O O8 0.088038 0.348043 0.949436
O O9 0.189817 0.796897 0.862047
O O10 0.245189 0.895868 0.201951
O O11 0.326676 0.940706 0.279559
O O12 0.500000 0.850565 0.750000
O O13 0.000000 0.222477 0.750000
#
# Coordination Sequence:
#
# PCOD8116874 Si02
#       6
#     4   4   4   4   4   4
#     4  11  18  32  58  79 107 138 177 227 263 316
#     4   9  20  33  48  78 108 140 171 218 269 326
#     4  11  17  33  53  76 108 138 172 212 283 328
#     4   9  19  34  52  81 106 137 175 218 276 304
#     4  10  17  30  52  82 108 131 166 225 265 313
#     4  10  20  37  55  74 106 149 185 222 261 305
#
# _framework density 17.089919999999999
#
# number of rings (size 3 to 8) (size 9 to 14) (size 15 to 20)
#    1.000    1.000    5.000    0.500    0.000    0.667 
#    6.000    0.833    0.000    1.000    0.000    0.000 
#    0.000    0.000    0.000    0.000    0.000    0.000 
#
# Total GULP energy -297361.494066 kJ/mol
# GULP energy per Si atom -12390.062253 kJ/mol
# Density = 1.705102 g / cm^3
# Si number density = 17.089920 Si / 1000 Ang^3
#
#
#
# Elastic Constant Matrix: (Units=GPa)
#
#
# Indices 1 2 3 4 5 6 
#
# 1 84.5612 26.5498 35.3417 0.0000 -17.3647 0.0000
# 2 26.5498 107.7297 45.8454 0.0000 -18.4043 0.0000
# 3 35.3417 45.8454 40.0268 0.0000 -24.2343 0.0000
# 4 0.0000 0.0000 0.0000 3.9254 0.0000 -0.9268
# 5 -17.3647 -18.4043 -24.2343 0.0000 32.5577 0.0000
# 6 0.0000 0.0000 0.0000 -0.9268 0.0000 10.2224
#
#
#
# Elastic Compliance Matrix: (Units=1/GPa)
#
#
# Indices 1 2 3 4 5 6 
#
# 1 0.021126 0.006732 -0.031379 0.000000 -0.008284 0.000000
# 2 0.006732 0.022015 -0.039048 0.000000 -0.013030 0.000000
# 3 -0.031379 -0.039048 0.134557 0.000000 0.061348 0.000000
# 4 0.000000 0.000000 0.000000 0.260326 0.000000 0.023601
# 5 -0.008284 -0.013030 0.061348 0.000000 0.064595 0.000000
# 6 0.000000 0.000000 0.000000 0.023601 0.000000 0.099964
#
#
# Mechanical properties :
#
#
# Convention : Reuss Voigt Hill
#
# Bulk Modulus (GPa) = 19.87805 49.75460 34.81633
# Shear Modulus (GPa) = 6.69577 17.64649 12.17113
#
# Velocity S-wave (km/s) = 1.98153 3.21684 2.67157
# Velocity P-wave (km/s) = 4.10999 6.55546 5.47111
#
# Compressibility (1/GPa) = 0.05030673
#
# Stress axis : x y z
#
# Youngs Moduli (GPa) = 47.33601 45.42443 7.43181
#
# Poissons Ratio (x) = -0.30580 0.23320
# Poissons Ratio (y) = -0.31867 0.29020
# Poissons Ratio (z) = 1.48536 1.77374
#
# Static dielectric constant tensor:
#      x y z
#    x 3.148290 0.000000 -0.339200 
#    y 0.000000 3.179300 0.000000 
#    z -0.339200 0.000000 3.296570 
# 
# 
# High freq. dielectric constant tensor:
#      x y z
#    x 1.649890 0.000000 -0.016580 
#    y 0.000000 1.649510 0.000000 
#    z -0.016580 0.000000 1.636770 
# 
# From -- ./inp_files/77951.got.cif
#   From: 2010.06.25/outbox.cif.g09.slc.cpg/sg13_39_cif.got.tgz:77951.got - 2010.06.28 04:50:58.
