data_PCOD8116595
_publ_section_title
;
Structure prediction by ZEFSAII (Michael W. Deem and Ramdas Pophale) SiO2 
 PCOD8116595
Probable space group: C 2/M
;
_chemical_formula_sum "Si O2"
_cell_formula_units_Z 32
_cell_length_a 18.000000
_cell_length_b 9.000000
_cell_length_c 30.000000
_cell_angle_alpha 90.000000
_cell_angle_beta 40.000000
_cell_angle_gamma 90.000000
_cell_volume 3123.947783
_symmetry_space_group_name_H-M "C 2/M"
_symmetry_group_IT_number 12
_symmetry_cell_setting 'monoclinic'
loop_
_space_group_symop_operation_xyz
x,y,z
-x,y,-z
-x,-y,-z
x,-y,z
1/2+x,1/2+y,z
1/2-x,1/2+y,-z
1/2-x,1/2-y,-z
1/2+x,1/2-y,z
loop_
_atom_site_type_symbol
_atom_site_label
_atom_site_fract_x
_atom_site_fract_y
_atom_site_fract_z
Si Si1 0.956747 0.170884 0.212759
Si Si2 0.729704 0.167450 0.209084
Si Si3 0.370930 0.828040 0.570982
Si Si4 0.627766 0.672132 0.058532
Si Si5 0.298713 0.325008 0.433171
Si Si6 0.766756 0.824320 0.705144
Si Si7 0.978800 0.331991 0.293822
Si Si8 0.545699 0.824608 0.929532
O O1 0.865797 0.272396 0.228321
O O2 0.952383 0.225643 0.264956
O O3 0.079170 0.188116 0.131362
O O4 0.915892 0.000000 0.231553
O O5 0.678937 0.251944 0.275797
O O6 0.616447 0.158719 0.231156
O O7 0.827792 0.255119 0.136634
O O8 0.774249 0.000000 0.199970
O O9 0.500000 0.775590 0.500000
O O10 0.292557 0.797185 0.564206
O O11 0.326115 0.733217 0.633057
O O12 0.368934 0.000000 0.585996
O O13 0.640161 0.500000 0.039532
O O14 0.543143 0.751810 0.063457
O O15 0.750000 0.750000 0.000000
O O16 0.320540 0.500000 0.431355
O O17 0.250000 0.250000 0.500000
O O18 0.418351 0.243015 0.364775
O O19 0.777504 0.000000 0.701828
O O20 0.929245 0.500000 0.310058
O O21 0.553324 0.000000 0.917449
O O22 0.500000 0.789210 0.000000
#
# Coordination Sequence:
#
# PCOD8116595 Si02
#       8
#     8   8   8   8   8   8   8   8
#     4  11  23  42  67  94 127 168 212 264 322 378
#     4  11  25  44  66  94 129 170 214 261 320 382
#     4  10  23  43  66  92 126 171 214 259 319 379
#     4  11  25  43  67  96 130 172 216 264 320 382
#     4  11  24  42  65  92 129 172 210 262 320 379
#     4  12  24  40  67  97 127 165 213 268 318 374
#     4  11  25  43  66  96 128 168 215 265 319 382
#     4  11  25  44  66  95 131 169 213 266 321 379
#
# _framework density 10.243449
#
# number of rings (size 3 to 8) (size 9 to 14) (size 15 to 20)
#    0.000    1.000    2.500    3.375    3.500    5.250 
#    0.000    0.000    0.000    0.000    0.000    0.000 
#    0.000    0.000    0.000    0.000    0.000    0.000 
#
# Total GULP energy -396832.145019 kJ/mol
# GULP energy per Si atom -12401.004532 kJ/mol
# Density = 1.022013 g / cm^3
# Si number density = 10.243449 Si / 1000 Ang^3
#
#
#
# Elastic Constant Matrix: (Units=GPa)
#
#
# Indices 1 2 3 4 5 6 
#
# 1 51.1210 33.2688 32.0492 0.0002 0.3589 0.0004
# 2 33.2688 160.1670 70.6679 0.0013 9.5621 0.0006
# 3 32.0492 70.6679 147.2412 -0.0001 2.3903 0.0000
# 4 0.0002 0.0013 -0.0001 44.5667 0.0000 2.3659
# 5 0.3589 9.5621 2.3903 0.0000 41.5553 0.0011
# 6 0.0004 0.0006 0.0000 2.3659 0.0011 31.7832
#
#
#
# Elastic Compliance Matrix: (Units=1/GPa)
#
#
# Indices 1 2 3 4 5 6 
#
# 1 0.024058 -0.003461 -0.003588 0.000000 0.000795 0.000000
# 2 -0.003461 0.008527 -0.003311 0.000000 -0.001742 0.000000
# 3 -0.003588 -0.003311 0.009157 0.000000 0.000266 0.000000
# 4 0.000000 0.000000 0.000000 0.022527 0.000000 -0.001677
# 5 0.000795 -0.001742 0.000266 0.000000 0.024443 -0.000001
# 6 0.000000 0.000000 0.000000 -0.001677 -0.000001 0.031588
#
#
# Mechanical properties :
#
#
# Convention : Reuss Voigt Hill
#
# Bulk Modulus (GPa) = 47.57031 70.05568 58.81299
# Shear Modulus (GPa) = 33.77712 38.41727 36.09719
#
# Velocity S-wave (km/s) = 4.06485 4.33507 4.20213
# Velocity P-wave (km/s) = 6.73059 7.70238 7.23283
#
# Compressibility (1/GPa) = 0.02102152
#
# Stress axis : x y z
#
# Youngs Moduli (GPa) = 41.56614 117.27051 109.20200
#
# Poissons Ratio (x) = 0.40593 0.39183
# Poissons Ratio (y) = 0.14388 0.36156
# Poissons Ratio (z) = 0.14915 0.38827
#
# Static dielectric constant tensor:
#      x y z
#    x 3.782020 0.000000 -0.012260 
#    y 0.000000 4.029000 -0.000020 
#    z -0.012260 -0.000020 3.960150 
# 
# 
# High freq. dielectric constant tensor:
#      x y z
#    x 1.795140 0.000000 0.003510 
#    y 0.000000 1.822570 0.000000 
#    z 0.003510 0.000000 1.824850 
# 
# From -- ./inp_files/378105.got.cif
#   From: 2010.06.25/outbox.ucp.g09.slc.cvg/sg12_190_cif.got.tgz:378105.got - 2010.06.28 13:50:54.
