data_PCOD8116922
_publ_section_title
;
Structure prediction by ZEFSAII (Michael W. Deem and Ramdas Pophale) SiO2 
 PCOD8116922
Probable space group: P 2/C
;
_chemical_formula_sum "Si O2"
_cell_formula_units_Z 26
_cell_length_a 10.458188
_cell_length_b 9.757544
_cell_length_c 12.606622
_cell_angle_alpha 90.000000
_cell_angle_beta 64.390229
_cell_angle_gamma 90.000000
_cell_volume 1160.075076
_symmetry_space_group_name_H-M "P 2/C"
_symmetry_group_IT_number 13
_symmetry_cell_setting 'monoclinic'
loop_
_space_group_symop_operation_xyz
x,y,z
-x,y,1/2-z
-x,-y,-z
x,-y,1/2+z
loop_
_atom_site_type_symbol
_atom_site_label
_atom_site_fract_x
_atom_site_fract_y
_atom_site_fract_z
Si Si1 0.349987 0.116612 0.266848
Si Si2 0.271841 0.180557 0.071629
Si Si3 0.500000 0.389512 0.750000
Si Si4 0.577801 0.157366 0.874972
Si Si5 0.016825 0.649701 0.124098
Si Si6 0.781775 0.561978 0.051125
Si Si7 0.806174 0.897645 0.462229
O O1 0.500000 0.181582 0.250000
O O2 0.283895 0.205107 0.193732
O O3 0.235454 0.115358 0.400437
O O4 0.375164 0.960985 0.221493
O O5 0.164387 0.055856 0.081799
O O6 0.422137 0.123518 0.975389
O O7 0.223746 0.321344 0.036754
O O8 0.578288 0.298221 0.810157
O O9 0.376150 0.478522 0.850658
O O10 0.685835 0.172697 0.932911
O O11 0.049074 0.812287 0.107278
O O12 0.000000 0.598296 0.250000
O O13 0.871274 0.619820 0.116822
O O14 0.149210 0.572878 0.022110
#
# Coordination Sequence:
#
# PCOD8116922 Si02
#       7
#     4   4   2   4   4   4   4
#     4  11  16  31  57  98 135 165 197 262 321 369
#     4  10  20  35  63  97 131 166 212 265 319 373
#     4  10  18  38  68  96 118 160 216 268 312 382
#     4  10  17  32  58  94 137 169 195 258 336 372
#     4  11  26  48  65  84 131 182 212 251 326 393
#     4  10  24  46  67  92 126 170 212 265 326 379
#     4  11  21  35  61  95 123 170 216 256 310 378
#
# _framework density 22.412341999999999
#
# number of rings (size 3 to 8) (size 9 to 14) (size 15 to 20)
#    0.000    1.538    3.846    2.769    0.000    4.308 
#    1.385    7.692    0.000    0.000    0.000    0.000 
#    0.000    0.000    0.000    0.000    0.000    0.000 
#
# Total GULP energy -322478.699576 kJ/mol
# GULP energy per Si atom -12403.026907 kJ/mol
# Density = 2.236133 g / cm^3
# Si number density = 22.412342 Si / 1000 Ang^3
#
#
#
# Elastic Constant Matrix: (Units=GPa)
#
#
# Indices 1 2 3 4 5 6 
#
# 1 77.6570 23.3309 48.3640 0.0000 14.9495 0.0000
# 2 23.3309 42.4591 10.4589 0.0000 -4.1784 0.0000
# 3 48.3640 10.4589 115.6544 0.0000 22.9595 0.0000
# 4 0.0000 0.0000 0.0000 16.5177 0.0000 -3.5406
# 5 14.9495 -4.1784 22.9595 0.0000 42.2017 0.0000
# 6 0.0000 0.0000 0.0000 -3.5406 0.0000 24.1735
#
#
#
# Elastic Compliance Matrix: (Units=1/GPa)
#
#
# Indices 1 2 3 4 5 6 
#
# 1 0.021303 -0.010446 -0.007018 0.000000 -0.004762 0.000000
# 2 -0.010446 0.029829 0.000392 0.000000 0.006440 0.000000
# 3 -0.007018 0.000392 0.012382 0.000000 -0.004211 0.000000
# 4 0.000000 0.000000 0.000000 0.062504 0.000000 0.009155
# 5 -0.004762 0.006440 -0.004211 0.000000 0.028311 0.000000
# 6 0.000000 0.000000 0.000000 0.009155 0.000000 0.042708
#
#
# Mechanical properties :
#
#
# Convention : Reuss Voigt Hill
#
# Bulk Modulus (GPa) = 34.04821 44.45313 39.25067
# Shear Modulus (GPa) = 20.74930 26.81968 23.78449
#
# Velocity S-wave (km/s) = 3.04599 3.46301 3.26118
# Velocity P-wave (km/s) = 5.25314 5.98892 5.63306
#
# Compressibility (1/GPa) = 0.02937012
#
# Stress axis : x y z
#
# Youngs Moduli (GPa) = 46.94125 33.52429 80.76266
#
# Poissons Ratio (x) = 0.35019 0.56683
# Poissons Ratio (y) = 0.49034 -0.03167
# Poissons Ratio (z) = 0.32946 -0.01315
#
# Static dielectric constant tensor:
#      x y z
#    x 4.107260 0.000000 0.249920 
#    y 0.000000 3.692830 0.000000 
#    z 0.249920 0.000000 4.166600 
# 
# 
# High freq. dielectric constant tensor:
#      x y z
#    x 1.879470 0.000000 0.018250 
#    y 0.000000 1.859130 0.000000 
#    z 0.018250 0.000000 1.893600 
# 
# From -- ./inp_files/49931.got.cif
#   From: 2010.06.25/outbox.cif.g09.slc.cpg/sg13_25_cif.got.tgz:49931.got - 2010.06.28 04:50:58.
