data_PCOD8116033
_publ_section_title
;
Structure prediction by ZEFSAII (Michael W. Deem and Ramdas Pophale) SiO2 
 PCOD8116033
Probable space group: C 2/M
;
_chemical_formula_sum "Si O2"
_cell_formula_units_Z 48
_cell_length_a 23.134921
_cell_length_b 9.174838
_cell_length_c 20.051502
_cell_angle_alpha 90.000000
_cell_angle_beta 42.892624
_cell_angle_gamma 90.000000
_cell_volume 2896.824783
_symmetry_space_group_name_H-M "C 2/M"
_symmetry_group_IT_number 12
_symmetry_cell_setting 'monoclinic'
loop_
_space_group_symop_operation_xyz
x,y,z
-x,y,-z
-x,-y,-z
x,-y,z
1/2+x,1/2+y,z
1/2-x,1/2+y,-z
1/2-x,1/2-y,-z
1/2+x,1/2-y,z
loop_
_atom_site_type_symbol
_atom_site_label
_atom_site_fract_x
_atom_site_fract_y
_atom_site_fract_z
Si Si1 0.135613 0.670245 0.644458
Si Si2 0.294486 0.829661 0.023158
Si Si3 0.169343 0.326996 0.209594
Si Si4 0.207597 0.330086 0.439601
Si Si5 0.905050 0.673161 0.586844
Si Si6 0.551694 0.831295 0.189228
O O1 0.141357 0.500000 0.655879
O O2 0.155829 0.703421 0.550412
O O3 0.201855 0.750289 0.636683
O O4 0.042090 0.737620 0.738294
O O5 0.260543 0.752169 0.119242
O O6 0.271059 0.000000 0.043560
O O7 0.250000 0.750000 0.000000
O O8 0.395735 0.808236 0.924344
O O9 0.183143 0.500000 0.193930
O O10 0.135938 0.274914 0.309274
O O11 0.102710 0.269304 0.210185
O O12 0.225664 0.500000 0.415496
O O13 0.152335 0.267476 0.425152
O O14 0.909691 0.500000 0.579869
O O15 0.000000 0.738012 0.500000
O O16 0.537671 0.000000 0.216905
#
# Coordination Sequence:
#
# PCOD8116033 Si02
#       6
#     8   8   8   8   8   8
#     4   9  16  28  45  62  84 113 142 174 212 252
#     4   9  16  27  43  64  89 114 143 179 218 257
#     4   9  16  27  44  66  90 114 142 178 219 258
#     4   9  17  28  43  65  88 109 139 177 213 251
#     4   9  16  27  46  68  88 114 147 178 210 256
#     4   8  14  25  43  64  83 108 143 176 206 250
#
# _framework density 16.569866000000001
#
# number of rings (size 3 to 8) (size 9 to 14) (size 15 to 20)
#    0.000    3.167    0.000    2.500    0.000    4.000 
#    0.000    5.000    0.000    7.000    0.000    7.000 
#    0.000    0.000    0.000    0.000    0.000    0.000 
#
# Total GULP energy -297427.242960 kJ/mol
# GULP energy per Si atom -12392.801790 kJ/mol
# Density = 1.653215 g / cm^3
# Si number density = 16.569866 Si / 1000 Ang^3
#
#
#
# Elastic Constant Matrix: (Units=GPa)
#
#
# Indices 1 2 3 4 5 6 
#
# 1 113.0557 25.2452 72.8838 0.0005 -10.3990 -0.0001
# 2 25.2452 37.7250 40.6562 0.0042 -5.1349 -0.0028
# 3 72.8838 40.6562 148.4699 0.0011 -13.0584 -0.0008
# 4 0.0005 0.0042 0.0011 24.6690 -0.0007 -2.0203
# 5 -10.3990 -5.1349 -13.0584 -0.0007 27.5677 0.0004
# 6 -0.0001 -0.0028 -0.0008 -2.0203 0.0004 18.9109
#
#
#
# Elastic Compliance Matrix: (Units=1/GPa)
#
#
# Indices 1 2 3 4 5 6 
#
# 1 0.013208 -0.002518 -0.005632 0.000000 0.001845 -0.000001
# 2 -0.002518 0.038216 -0.009064 -0.000006 0.001875 0.000005
# 3 -0.005632 -0.009064 0.012153 0.000001 0.001944 -0.000001
# 4 0.000000 -0.000006 0.000001 0.040894 0.000001 0.004369
# 5 0.001845 0.001875 0.001944 0.000001 0.038241 0.000000
# 6 -0.000001 0.000005 -0.000001 0.004369 0.000000 0.053346
#
#
# Mechanical properties :
#
#
# Convention : Reuss Voigt Hill
#
# Bulk Modulus (GPa) = 34.30593 64.09125 49.19859
# Shear Modulus (GPa) = 20.81579 24.92722 22.87151
#
# Velocity S-wave (km/s) = 3.54820 3.88283 3.71928
# Velocity P-wave (km/s) = 6.12658 7.67237 6.94263
#
# Compressibility (1/GPa) = 0.02914948
#
# Stress axis : x y z
#
# Youngs Moduli (GPa) = 75.71186 26.16710 82.28355
#
# Poissons Ratio (x) = 0.06589 0.46342
# Poissons Ratio (y) = 0.19063 0.74581
# Poissons Ratio (z) = 0.42641 0.23718
#
# Static dielectric constant tensor:
#      x y z
#    x 3.057470 0.000000 -0.137680 
#    y 0.000000 2.893840 0.000000 
#    z -0.137680 0.000000 3.618320 
# 
# 
# High freq. dielectric constant tensor:
#      x y z
#    x 1.609280 0.000000 -0.010680 
#    y 0.000000 1.606050 0.000000 
#    z -0.010680 0.000000 1.650000 
# 
# From -- ./inp_files/164294.got.cif
#   From: 2010.06.25/outbox.cif.g09.slc.cpg/sg12_83_cif.got.tgz:164294.got - 2010.06.28 00:19:55.
