data_PCOD8116432
_publ_section_title
;
Structure prediction by ZEFSAII (Michael W. Deem and Ramdas Pophale) SiO2 
 PCOD8116432
Probable space group: C 2/M
;
_chemical_formula_sum "Si O2"
_cell_formula_units_Z 32
_cell_length_a 30.000000
_cell_length_b 9.000000
_cell_length_c 18.000000
_cell_angle_alpha 90.000000
_cell_angle_beta 40.000000
_cell_angle_gamma 90.000000
_cell_volume 3123.947783
_symmetry_space_group_name_H-M "C 2/M"
_symmetry_group_IT_number 12
_symmetry_cell_setting 'monoclinic'
loop_
_space_group_symop_operation_xyz
x,y,z
-x,y,-z
-x,-y,-z
x,-y,z
1/2+x,1/2+y,z
1/2-x,1/2+y,-z
1/2-x,1/2-y,-z
1/2+x,1/2-y,z
loop_
_atom_site_type_symbol
_atom_site_label
_atom_site_fract_x
_atom_site_fract_y
_atom_site_fract_z
Si Si1 0.010886 0.827587 0.401600
Si Si2 0.890826 0.172857 0.444039
Si Si3 0.145562 0.327041 0.167833
Si Si4 0.712731 0.672211 0.942933
Si Si5 0.388680 0.331697 0.170751
Si Si6 0.016607 0.829326 0.810191
Si Si7 0.756968 0.327368 0.569796
Si Si8 0.387157 0.173303 0.025287
O O1 0.072344 0.730345 0.289922
O O2 0.000000 0.781576 0.500000
O O3 0.938240 0.791679 0.454464
O O4 0.030955 0.000000 0.366586
O O5 0.931673 0.226743 0.319127
O O6 0.819649 0.263866 0.539403
O O7 0.871683 0.000000 0.462821
O O8 0.139553 0.500000 0.155541
O O9 0.205033 0.299524 0.154031
O O10 0.168160 0.240371 0.066261
O O11 0.695256 0.500000 0.961308
O O12 0.686384 0.750854 0.901454
O O13 0.392765 0.500000 0.134893
O O14 0.446132 0.306725 0.159375
O O15 0.312737 0.295413 0.296959
O O16 0.407405 0.217261 0.082545
O O17 0.995816 0.000000 0.822644
O O18 0.947486 0.731091 0.893435
O O19 0.768955 0.500000 0.540175
O O20 0.750000 0.250000 0.500000
O O21 0.379298 0.000000 0.026656
#
# Coordination Sequence:
#
# PCOD8116432 Si02
#       8
#     8   8   8   8   8   8   8   8
#     4  10  22  39  60  88 125 166 203 242 298 364
#     4  10  21  39  62  89 119 158 204 245 295 356
#     4  10  21  38  63  91 116 148 198 252 298 348
#     4  10  21  39  62  87 118 157 192 236 299 364
#     4  10  22  40  59  82 115 159 200 237 297 365
#     4  10  20  38  61  82 114 160 201 241 297 365
#     4  11  22  39  63  89 117 151 198 249 297 353
#     4  12  25  37  55  88 122 153 197 248 294 346
#
# _framework density 10.243449
#
# number of rings (size 3 to 8) (size 9 to 14) (size 15 to 20)
#    0.000    1.625    1.250    3.375    0.000    7.750 
#    0.000    2.500    0.000    0.000    0.000    0.000 
#    0.000    0.000    0.000    0.000    0.000    0.000 
#
# Total GULP energy -396916.222123 kJ/mol
# GULP energy per Si atom -12403.631941 kJ/mol
# Density = 1.022013 g / cm^3
# Si number density = 10.243449 Si / 1000 Ang^3
#
#
#
# Elastic Constant Matrix: (Units=GPa)
#
#
# Indices 1 2 3 4 5 6 
#
# 1 62.3396 25.1856 12.7528 0.0210 -12.8537 -0.0088
# 2 25.1856 90.9671 29.9141 0.0432 -11.7640 -0.0230
# 3 12.7528 29.9141 43.6650 0.0296 -14.0313 -0.0177
# 4 0.0210 0.0432 0.0296 26.4063 -0.0074 -5.3840
# 5 -12.8537 -11.7640 -14.0313 -0.0074 29.8249 0.0044
# 6 -0.0088 -0.0230 -0.0177 -5.3840 0.0044 29.9571
#
#
#
# Elastic Compliance Matrix: (Units=1/GPa)
#
#
# Indices 1 2 3 4 5 6 
#
# 1 0.019202 -0.004290 -0.000652 -0.000006 0.006277 0.000000
# 2 -0.004290 0.015185 -0.009212 -0.000010 -0.000193 0.000003
# 3 -0.000652 -0.009212 0.033158 -0.000017 0.011685 0.000008
# 4 -0.000006 -0.000010 -0.000017 0.039310 -0.000006 0.007065
# 5 0.006277 -0.000193 0.011685 -0.000006 0.041655 0.000001
# 6 0.000000 0.000003 0.000008 0.007065 0.000001 0.034651
#
#
# Mechanical properties :
#
#
# Convention : Reuss Voigt Hill
#
# Bulk Modulus (GPa) = 25.48672 36.96410 31.22541
# Shear Modulus (GPa) = 22.26685 25.84560 24.05623
#
# Velocity S-wave (km/s) = 3.30037 3.55571 3.43041
# Velocity P-wave (km/s) = 5.19526 5.91095 5.56463
#
# Compressibility (1/GPa) = 0.03923613
#
# Stress axis : x y z
#
# Youngs Moduli (GPa) = 52.07790 65.85366 30.15866
#
# Poissons Ratio (x) = 0.28253 0.01967
# Poissons Ratio (y) = 0.22343 0.27783
# Poissons Ratio (z) = 0.03396 0.60666
#
# Static dielectric constant tensor:
#      x y z
#    x 3.974460 -0.000050 -0.130200 
#    y -0.000050 3.689260 0.000060 
#    z -0.130200 0.000060 3.571300 
# 
# 
# High freq. dielectric constant tensor:
#      x y z
#    x 1.815530 0.000000 -0.012330 
#    y 0.000000 1.793880 0.000000 
#    z -0.012330 0.000000 1.791220 
# 
# From -- ./inp_files/295667.got.cif
#   From: 2010.06.25/outbox.ucp.g09.slc.cvg/sg12_148_cif.got.tgz:295667.got - 2010.06.28 13:50:54.
