data_PCOD8116661
_publ_section_title
;
Structure prediction by ZEFSAII (Michael W. Deem and Ramdas Pophale) SiO2 
 PCOD8116661
Probable space group: P 2/C
;
_chemical_formula_sum "Si O2"
_cell_formula_units_Z 22
_cell_length_a 9.318339
_cell_length_b 21.919347
_cell_length_c 5.189291
_cell_angle_alpha 90.000000
_cell_angle_beta 81.491576
_cell_angle_gamma 90.000000
_cell_volume 1048.257198
_symmetry_space_group_name_H-M "P 2/C"
_symmetry_group_IT_number 13
_symmetry_cell_setting 'monoclinic'
loop_
_space_group_symop_operation_xyz
x,y,z
-x,y,1/2-z
-x,-y,-z
x,-y,1/2+z
loop_
_atom_site_type_symbol
_atom_site_label
_atom_site_fract_x
_atom_site_fract_y
_atom_site_fract_z
Si Si1 0.000000 0.873892 0.750000
Si Si2 0.789095 0.959836 0.576845
Si Si3 0.154313 0.211441 0.843968
Si Si4 0.094268 0.338910 0.977725
Si Si5 0.408915 0.855318 0.013552
Si Si6 0.164186 0.473633 0.969664
O O1 0.928688 0.914656 0.539667
O O2 0.131918 0.834186 0.592512
O O3 0.642984 0.921700 0.568622
O O4 0.795451 0.011134 0.358958
O O5 0.200218 0.280099 0.916397
O O6 0.273085 0.187879 0.611760
O O7 0.000000 0.217942 0.750000
O O8 0.180095 0.401217 0.007189
O O9 0.000000 0.351443 0.750000
O O10 0.000000 0.322286 0.250000
O O11 0.500000 0.826503 0.750000
O O12 0.500000 0.863005 0.250000
O O13 0.245053 0.493996 0.687498
O O14 0.000000 0.500000 0.000000
#
# Coordination Sequence:
#
# PCOD8116661 Si02
#       6
#     2   4   4   4   4   4
#     4  12  22  42  66  96 130 162 200 258 320 378
#     4  12  26  43  67  95 124 158 203 255 314 385
#     4  11  24  41  66  92 126 161 213 256 310 370
#     4  11  19  30  50  83 116 160 198 247 294 361
#     4  12  27  47  68  92 126 165 204 258 323 378
#     4  10  15  25  42  69 118 163 187 228 302 360
#
# _framework density 20.987216
#
# number of rings (size 3 to 8) (size 9 to 14) (size 15 to 20)
#    0.000    0.727    6.364    3.818    0.000    2.182 
#    0.000    0.000    0.000    0.000    0.000    0.000 
#    0.000    4.364    0.000    0.000    0.000    0.000 
#
# Total GULP energy -272695.962409 kJ/mol
# GULP energy per Si atom -12395.271019 kJ/mol
# Density = 2.093945 g / cm^3
# Si number density = 20.987216 Si / 1000 Ang^3
#
#
#
# Elastic Constant Matrix: (Units=GPa)
#
#
# Indices 1 2 3 4 5 6 
#
# 1 68.3959 39.3880 36.5835 0.0000 -5.0676 0.0000
# 2 39.3880 152.4638 47.5601 0.0000 -11.5251 0.0000
# 3 36.5835 47.5601 156.4604 0.0000 -2.7020 0.0000
# 4 0.0000 0.0000 0.0000 31.7166 0.0000 0.1040
# 5 -5.0676 -11.5251 -2.7020 0.0000 34.9213 0.0000
# 6 0.0000 0.0000 0.0000 0.1040 0.0000 2.4645
#
#
#
# Elastic Compliance Matrix: (Units=1/GPa)
#
#
# Indices 1 2 3 4 5 6 
#
# 1 0.018551 -0.003705 -0.003190 0.000000 0.001222 0.000000
# 2 -0.003705 0.008163 -0.001580 0.000000 0.002034 0.000000
# 3 -0.003190 -0.001580 0.007611 0.000000 -0.000395 0.000000
# 4 0.000000 0.000000 0.000000 0.031534 0.000000 -0.001330
# 5 0.001222 0.002034 -0.000395 0.000000 0.029454 0.000000
# 6 0.000000 0.000000 0.000000 -0.001330 0.000000 0.405819
#
#
# Mechanical properties :
#
#
# Convention : Reuss Voigt Hill
#
# Bulk Modulus (GPa) = 57.55563 69.37593 63.46578
# Shear Modulus (GPa) = 9.54430 30.73969 20.14199
#
# Velocity S-wave (km/s) = 2.13484 3.83127 3.10131
# Velocity P-wave (km/s) = 5.79313 7.25945 6.56734
#
# Compressibility (1/GPa) = 0.01737450
#
# Stress axis : x y z
#
# Youngs Moduli (GPa) = 53.90413 122.50879 131.39299
#
# Poissons Ratio (x) = 0.45390 0.41919
# Poissons Ratio (y) = 0.19972 0.20758
# Poissons Ratio (z) = 0.17197 0.19354
#
# Static dielectric constant tensor:
#      x y z
#    x 3.455620 0.000000 0.318810 
#    y 0.000000 4.149800 0.000000 
#    z 0.318810 0.000000 5.231150 
# 
# 
# High freq. dielectric constant tensor:
#      x y z
#    x 1.754770 0.000000 0.018160 
#    y 0.000000 1.833130 0.000000 
#    z 0.018160 0.000000 1.850420 
# 
# From -- ./inp_files/2105.got.cif
#   From: 2010.06.25/outbox.cif.g09.slc.cpg/sg13_2_cif.got.tgz:2105.got - 2010.06.28 04:50:58.
