data_PCOD8116282
_publ_section_title
;
Structure prediction by ZEFSAII (Michael W. Deem and Ramdas Pophale) SiO2 
 PCOD8116282
Probable space group: C 2/M
;
_chemical_formula_sum "Si O2"
_cell_formula_units_Z 32
_cell_length_a 21.000000
_cell_length_b 18.000000
_cell_length_c 24.000000
_cell_angle_alpha 90.000000
_cell_angle_beta 20.000000
_cell_angle_gamma 90.000000
_cell_volume 3102.806740
_symmetry_space_group_name_H-M "C 2/M"
_symmetry_group_IT_number 12
_symmetry_cell_setting 'monoclinic'
loop_
_space_group_symop_operation_xyz
x,y,z
-x,y,-z
-x,-y,-z
x,-y,z
1/2+x,1/2+y,z
1/2-x,1/2+y,-z
1/2-x,1/2-y,-z
1/2+x,1/2-y,z
loop_
_atom_site_type_symbol
_atom_site_label
_atom_site_fract_x
_atom_site_fract_y
_atom_site_fract_z
Si Si1 0.690394 0.196321 0.631724
Si Si2 0.294912 0.583583 0.277043
Si Si3 0.922525 0.416166 0.652022
Si Si4 0.542266 0.584665 0.527167
Si Si5 0.932139 0.192661 0.889573
Si Si6 0.048197 0.698780 0.630955
Si Si7 0.837491 0.415575 0.093956
Si Si8 0.691061 0.310778 0.126988
O O1 0.798140 0.133916 0.576988
O O2 0.517217 0.223616 0.811407
O O3 0.783126 0.279225 0.549206
O O4 0.623011 0.163882 0.627397
O O5 0.373811 0.500000 0.208910
O O6 0.225800 0.608974 0.272728
O O7 0.460081 0.636769 0.159667
O O8 0.128146 0.586392 0.457714
O O9 0.878680 0.500000 0.708458
O O10 0.911765 0.359988 0.712902
O O11 0.500000 0.614571 0.500000
O O12 0.615754 0.500000 0.464096
O O13 0.356592 0.589819 0.715393
O O14 0.876770 0.154207 0.876078
O O15 0.752156 0.222806 0.070207
O O16 0.980976 0.786338 0.692365
O O17 0.884438 0.500000 0.037969
O O18 0.829095 0.367219 0.044516
O O19 0.000000 0.383894 0.000000
#
# Coordination Sequence:
#
# PCOD8116282 Si02
#       8
#     8   8   8   8   8   8   8   8
#     4  10  20  34  56  80 105 141 180 223 272 319
#     4   9  18  33  54  81 108 138 178 217 263 321
#     4   9  18  32  53  82 111 137 172 221 268 315
#     4  10  22  38  56  82 112 142 183 231 275 324
#     4  10  21  37  56  80 111 145 180 224 269 317
#     4  10  19  35  54  79 110 138 178 224 270 320
#     4  10  22  39  57  79 110 147 185 225 274 331
#     4  10  22  38  54  79 112 144 182 223 268 324
#
# _framework density 10.313243
#
# number of rings (size 3 to 8) (size 9 to 14) (size 15 to 20)
#    0.000    2.250    2.500    0.750    1.750    3.000 
#    0.000    3.125    0.000    6.000    0.000    0.000 
#    0.000    0.000    0.000    0.000    0.000    0.000 
#
# Total GULP energy -396475.914769 kJ/mol
# GULP energy per Si atom -12389.872337 kJ/mol
# Density = 1.028977 g / cm^3
# Si number density = 10.313243 Si / 1000 Ang^3
#
#
#
# Elastic Constant Matrix: (Units=GPa)
#
#
# Indices 1 2 3 4 5 6 
#
# 1 173.6848 85.4071 20.3719 -0.0303 -28.5502 0.0334
# 2 85.4071 86.5274 12.4889 -0.0193 -17.1388 -0.0445
# 3 20.3719 12.4889 7.0045 0.0431 -14.7511 -0.1057
# 4 -0.0303 -0.0193 0.0431 19.6925 0.0178 -6.9095
# 5 -28.5502 -17.1388 -14.7511 0.0178 30.4422 -0.0851
# 6 0.0334 -0.0445 -0.1057 -6.9095 -0.0851 35.5855
#
#
#
# Elastic Compliance Matrix: (Units=1/GPa)
#
#
# Indices 1 2 3 4 5 6 
#
# 1 0.009529 -0.012452 0.070885 -0.000096 0.036276 0.000254
# 2 -0.012452 0.021308 0.053830 -0.000052 0.026403 0.000251
# 3 0.070885 0.053830 -2.163825 0.002897 -0.951741 -0.008139
# 4 -0.000096 -0.000052 0.002897 0.054489 0.001282 0.010592
# 5 0.036276 0.026403 -0.951741 0.001282 -0.379451 -0.003486
# 6 0.000254 0.000251 -0.008139 0.010592 -0.003486 0.030125
#
#
# Mechanical properties :
#
#
# Convention : Reuss Voigt Hill
#
# Bulk Modulus (GPa) = -0.52398 55.97249 27.72426
# Shear Modulus (GPa) = -1.52045 27.07399 12.77677
#
# Velocity S-wave (km/s) = -0.85950 3.62689 2.49155
# Velocity P-wave (km/s) = 1.11336 6.68837 4.66340
#
# Compressibility (1/GPa) = -1.90846086
#
# Stress axis : x y z
#
# Youngs Moduli (GPa) = 104.94290 46.93150 -0.46214
#
# Poissons Ratio (x) = 0.58437 0.03276
# Poissons Ratio (y) = 1.30670 0.02488
# Poissons Ratio (z) = -7.43893 -2.52631
#
# Static dielectric constant tensor:
#      x y z
#    x 3.714690 -0.000090 -0.047600 
#    y -0.000090 3.521270 0.000830 
#    z -0.047600 0.000830 3.698370 
# 
# 
# High freq. dielectric constant tensor:
#      x y z
#    x 1.812020 -0.000010 -0.002470 
#    y -0.000010 1.783670 0.000060 
#    z -0.002470 0.000060 1.808300 
# 
# From -- ./inp_files/99137.got.cif
#   From: 2010.06.25/outbox.ucp.g09.slc.cvg/sg12_50_cif.got.tgz:99137.got - 2010.06.28 13:50:54.
