data_PCOD8116493
_publ_section_title
;
Structure prediction by ZEFSAII (Michael W. Deem and Ramdas Pophale) SiO2 
 PCOD8116493
Probable space group: C 2/M
;
_chemical_formula_sum "Si O2"
_cell_formula_units_Z 32
_cell_length_a 30.000000
_cell_length_b 9.000000
_cell_length_c 18.000000
_cell_angle_alpha 90.000000
_cell_angle_beta 40.000000
_cell_angle_gamma 90.000000
_cell_volume 3123.947783
_symmetry_space_group_name_H-M "C 2/M"
_symmetry_group_IT_number 12
_symmetry_cell_setting 'monoclinic'
loop_
_space_group_symop_operation_xyz
x,y,z
-x,y,-z
-x,-y,-z
x,-y,z
1/2+x,1/2+y,z
1/2-x,1/2+y,-z
1/2-x,1/2-y,-z
1/2+x,1/2-y,z
loop_
_atom_site_type_symbol
_atom_site_label
_atom_site_fract_x
_atom_site_fract_y
_atom_site_fract_z
Si Si1 0.695325 0.826482 0.210579
Si Si2 0.585534 0.167803 0.972668
Si Si3 0.090611 0.826266 0.248942
Si Si4 0.942915 0.827470 0.379796
Si Si5 0.308486 0.828262 0.612698
Si Si6 0.441183 0.827308 0.227991
Si Si7 0.329990 0.171712 0.984999
Si Si8 0.659139 0.326040 0.748011
O O1 0.621034 0.757460 0.282303
O O2 0.707965 0.796494 0.280733
O O3 0.754271 0.744035 0.088003
O O4 0.696985 0.000000 0.189395
O O5 0.504620 0.201909 0.090582
O O6 0.593681 0.000000 0.931076
O O7 0.628982 0.187878 0.991341
O O8 0.614303 0.283341 0.876912
O O9 0.007791 0.798340 0.351905
O O10 0.107366 0.000000 0.232820
O O11 0.126575 0.760039 0.130656
O O12 0.872601 0.770513 0.506211
O O13 0.959622 0.745117 0.282374
O O14 0.934240 0.000000 0.373267
O O15 0.239778 0.781954 0.654788
O O16 0.327330 0.000000 0.575253
O O17 0.370435 0.758372 0.285991
O O18 0.428909 0.000000 0.257512
O O19 0.322079 0.000000 0.971382
O O20 0.651116 0.500000 0.745670
#
# Coordination Sequence:
#
# PCOD8116493 Si02
#       8
#     8   8   8   8   8   8   8   8
#     4  11  23  41  64  92 124 162 205 249 302 363
#     4  10  21  37  61  92 125 162 200 244 303 365
#     4  11  24  41  62  92 126 160 200 251 307 365
#     4  11  25  43  65  90 119 158 207 257 306 358
#     4  10  24  44  64  87 120 161 206 253 302 360
#     4  11  23  41  64  92 126 162 203 248 302 366
#     4  11  21  37  63  93 125 163 201 246 304 363
#     4  11  23  40  63  93 126 161 203 250 303 360
#
# _framework density 10.243449
#
# number of rings (size 3 to 8) (size 9 to 14) (size 15 to 20)
#    0.000    1.250    2.500    3.000    0.000    7.500 
#    0.000    2.500    0.000    0.000    0.000    0.000 
#    0.000    0.000    0.000    0.000    0.000    0.000 
#
# Total GULP energy -396963.340261 kJ/mol
# GULP energy per Si atom -12405.104383 kJ/mol
# Density = 1.022013 g / cm^3
# Si number density = 10.243449 Si / 1000 Ang^3
#
#
#
# Elastic Constant Matrix: (Units=GPa)
#
#
# Indices 1 2 3 4 5 6 
#
# 1 101.7151 49.9986 20.6678 0.0030 -29.2806 -0.0015
# 2 49.9986 100.4334 36.0922 0.0179 -20.5080 -0.0151
# 3 20.6678 36.0922 69.5091 0.0101 -26.5362 -0.0074
# 4 0.0030 0.0179 0.0101 37.5351 0.0003 -0.2224
# 5 -29.2806 -20.5080 -26.5362 0.0003 31.3972 -0.0006
# 6 -0.0015 -0.0151 -0.0074 -0.2224 -0.0006 38.6097
#
#
#
# Elastic Compliance Matrix: (Units=1/GPa)
#
#
# Indices 1 2 3 4 5 6 
#
# 1 0.016453 -0.006720 0.004103 0.000001 0.014422 -0.000001
# 2 -0.006720 0.015314 -0.006684 -0.000005 -0.001914 0.000004
# 3 0.004103 -0.006684 0.024259 -0.000004 0.019964 0.000003
# 4 0.000001 -0.000005 -0.000004 0.026643 -0.000006 0.000153
# 5 0.014422 -0.001914 0.019964 -0.000006 0.060922 0.000005
# 6 -0.000001 0.000004 0.000003 0.000153 0.000005 0.025901
#
#
# Mechanical properties :
#
#
# Convention : Reuss Voigt Hill
#
# Bulk Modulus (GPa) = 26.72164 53.90833 40.31498
# Shear Modulus (GPa) = 24.92934 32.50168 28.71551
#
# Velocity S-wave (km/s) = 3.49211 3.98736 3.74793
# Velocity P-wave (km/s) = 5.41585 6.89706 6.20084
#
# Compressibility (1/GPa) = 0.03742285
#
# Stress axis : x y z
#
# Youngs Moduli (GPa) = 60.78056 65.30169 41.22263
#
# Poissons Ratio (x) = 0.43884 -0.16915
# Poissons Ratio (y) = 0.40846 0.27553
# Poissons Ratio (z) = -0.24940 0.43647
#
# Static dielectric constant tensor:
#      x y z
#    x 4.028980 -0.000020 -0.192760 
#    y -0.000020 3.820180 0.000020 
#    z -0.192760 0.000020 3.575800 
# 
# 
# High freq. dielectric constant tensor:
#      x y z
#    x 1.821800 0.000000 -0.012410 
#    y 0.000000 1.811670 0.000000 
#    z -0.012410 0.000000 1.791590 
# 
# From -- ./inp_files/295527.got.cif
#   From: 2010.06.25/outbox.ucp.g09.slc.cvg/sg12_148_cif.got.tgz:295527.got - 2010.06.28 13:50:54.
