data_PCOD8116380
_publ_section_title
;
Structure prediction by ZEFSAII (Michael W. Deem and Ramdas Pophale) SiO2 
 PCOD8116380
Probable space group: C 2/M
;
_chemical_formula_sum "Si O2"
_cell_formula_units_Z 20
_cell_length_a 21.000000
_cell_length_b 9.000000
_cell_length_c 30.000000
_cell_angle_alpha 90.000000
_cell_angle_beta 160.000000
_cell_angle_gamma 90.000000
_cell_volume 1939.254213
_symmetry_space_group_name_H-M "C 2/M"
_symmetry_group_IT_number 12
_symmetry_cell_setting 'monoclinic'
loop_
_space_group_symop_operation_xyz
x,y,z
-x,y,-z
-x,-y,-z
x,-y,z
1/2+x,1/2+y,z
1/2-x,1/2+y,-z
1/2-x,1/2-y,-z
1/2+x,1/2-y,z
loop_
_atom_site_type_symbol
_atom_site_label
_atom_site_fract_x
_atom_site_fract_y
_atom_site_fract_z
Si Si1 0.077195 0.676119 0.914501
Si Si2 0.894080 0.333644 0.531653
Si Si3 0.875013 0.823153 0.960580
Si Si4 0.346195 0.327467 0.362298
Si Si5 0.044863 0.665810 0.323788
O O1 0.114199 0.500000 0.937806
O O2 0.863552 0.713735 0.757673
O O3 0.250000 0.750000 0.000000
O O4 0.058580 0.736605 0.952250
O O5 0.882910 0.500000 0.505039
O O6 0.694936 0.253254 0.391776
O O7 0.079259 0.257425 0.632845
O O8 0.908827 0.334310 0.594123
O O9 0.662429 0.768402 0.815815
O O10 0.890264 0.000000 0.977737
O O11 0.000000 0.775748 0.000000
O O12 0.500000 0.284312 0.500000
O O13 0.350576 0.500000 0.352993
O O14 0.048322 0.500000 0.306308
#
# Coordination Sequence:
#
# PCOD8116380 Si02
#       5
#     8   8   8   8   8
#     4  11  25  43  64  92 127 165 206 258 311 369
#     4  10  20  35  58  89 119 150 198 253 297 347
#     4  10  21  39  64  90 122 165 208 251 307 372
#     4  10  23  42  62  83 115 161 204 242 300 367
#     4   9  19  35  57  85 121 160 193 238 303 366
#
# _framework density 10.313243
#
# number of rings (size 3 to 8) (size 9 to 14) (size 15 to 20)
#    0.000    2.000    0.000    2.400    2.800    5.600 
#    0.000    0.000    0.000    0.000    0.000    0.000 
#    0.000    0.000    0.000    0.000    0.000    0.000 
#
# Total GULP energy -247784.334362 kJ/mol
# GULP energy per Si atom -12389.216718 kJ/mol
# Density = 1.028977 g / cm^3
# Si number density = 10.313243 Si / 1000 Ang^3
#
#
#
# Elastic Constant Matrix: (Units=GPa)
#
#
# Indices 1 2 3 4 5 6 
#
# 1 122.6357 50.1068 49.2980 -0.0249 37.3110 0.0051
# 2 50.1068 91.1630 46.1155 -0.0442 20.0862 0.0122
# 3 49.2980 46.1155 155.2014 -0.0860 42.8943 0.0753
# 4 -0.0249 -0.0442 -0.0860 26.9280 -0.0276 10.7007
# 5 37.3110 20.0862 42.8943 -0.0276 48.6965 0.0112
# 6 0.0051 0.0122 0.0753 10.7007 0.0112 38.9611
#
#
#
# Elastic Compliance Matrix: (Units=1/GPa)
#
#
# Indices 1 2 3 4 5 6 
#
# 1 0.012608 -0.005100 -0.000530 -0.000008 -0.007090 0.000005
# 2 -0.005100 0.015221 -0.002971 0.000012 0.000246 -0.000002
# 3 -0.000530 -0.002971 0.009310 0.000027 -0.006569 -0.000022
# 4 -0.000008 0.000012 0.000027 0.041686 0.000004 -0.011449
# 5 -0.007090 0.000246 -0.006569 0.000004 0.031652 0.000003
# 6 0.000005 -0.000002 -0.000022 -0.011449 0.000003 0.028811
#
#
# Mechanical properties :
#
#
# Convention : Reuss Voigt Hill
#
# Bulk Modulus (GPa) = 50.15550 73.33786 61.74668
# Shear Modulus (GPa) = 30.64947 37.81578 34.23262
#
# Velocity S-wave (km/s) = 3.85896 4.28642 4.07829
# Velocity P-wave (km/s) = 6.65013 7.75437 7.22338
#
# Compressibility (1/GPa) = 0.01993799
#
# Stress axis : x y z
#
# Youngs Moduli (GPa) = 79.31542 65.69909 107.41245
#
# Poissons Ratio (x) = 0.33504 0.05694
# Poissons Ratio (y) = 0.40447 0.31909
# Poissons Ratio (z) = 0.04204 0.19517
#
# Static dielectric constant tensor:
#      x y z
#    x 3.872450 0.000010 0.427390 
#    y 0.000010 3.891710 -0.000040 
#    z 0.427390 -0.000040 4.260380 
# 
# 
# High freq. dielectric constant tensor:
#      x y z
#    x 1.821580 0.000000 0.030260 
#    y 0.000000 1.803730 0.000000 
#    z 0.030260 0.000000 1.828160 
# 
# From -- ./inp_files/380510.got.cif
#   From: 2010.06.25/outbox.ucp.g09.slc.cvg/sg12_191_cif.got.tgz:380510.got - 2010.06.28 13:50:54.
