data_PCOD8116668
_publ_section_title
;
Structure prediction by ZEFSAII (Michael W. Deem and Ramdas Pophale) SiO2 
 PCOD8116668
Probable space group: P 2/C
;
_chemical_formula_sum "Si O2"
_cell_formula_units_Z 26
_cell_length_a 10.905855
_cell_length_b 8.479282
_cell_length_c 21.905048
_cell_angle_alpha 90.000000
_cell_angle_beta 44.115762
_cell_angle_gamma 90.000000
_cell_volume 1410.071333
_symmetry_space_group_name_H-M "P 2/C"
_symmetry_group_IT_number 13
_symmetry_cell_setting 'monoclinic'
loop_
_space_group_symop_operation_xyz
x,y,z
-x,y,1/2-z
-x,-y,-z
x,-y,1/2+z
loop_
_atom_site_type_symbol
_atom_site_label
_atom_site_fract_x
_atom_site_fract_y
_atom_site_fract_z
Si Si1 0.492360 0.209155 0.366494
Si Si2 0.130489 0.678087 0.757737
Si Si3 0.614359 0.081998 0.761834
Si Si4 0.500000 0.432202 0.250000
Si Si5 0.891399 0.804190 0.479478
Si Si6 0.812800 0.378612 0.693756
Si Si7 0.921053 0.881076 0.606738
O O1 0.675240 0.262013 0.333078
O O2 0.462677 0.318906 0.319239
O O3 0.310859 0.230744 0.469253
O O4 0.503291 0.020530 0.349553
O O5 0.134972 0.490796 0.768673
O O6 0.055197 0.758711 0.846211
O O7 0.000000 0.719088 0.750000
O O8 0.500000 0.166099 0.750000
O O9 0.724360 0.221265 0.754965
O O10 0.730838 0.957874 0.682565
O O11 0.325031 0.535432 0.301850
O O12 0.923316 0.792182 0.541075
O O13 0.014619 0.672027 0.405385
O O14 0.932994 0.981582 0.441966
#
# Coordination Sequence:
#
# PCOD8116668 Si02
#       7
#     4   4   4   2   4   4   4
#     4  10  18  32  56  76 105 143 179 223 264 318
#     4  10  22  41  54  71 106 157 192 211 248 322
#     4  10  15  30  50  79 110 135 172 213 266 327
#     4  10  18  30  48  80 110 146 172 206 274 328
#     4  10  18  33  53  91 112 128 166 235 292 312
#     4  10  21  30  53  82 112 138 176 221 270 325
#     4   9  19  31  56  82 112 138 166 221 276 325
#
# _framework density 18.438782
#
# number of rings (size 3 to 8) (size 9 to 14) (size 15 to 20)
#    0.000    2.154    3.077    1.846    0.000    2.462 
#    0.000   10.000    0.000    0.000    0.000    0.000 
#    0.000    0.000    0.000    0.000    0.000    0.000 
#
# Total GULP energy -322165.437484 kJ/mol
# GULP energy per Si atom -12390.978365 kJ/mol
# Density = 1.839681 g / cm^3
# Si number density = 18.438782 Si / 1000 Ang^3
#
#
#
# Elastic Constant Matrix: (Units=GPa)
#
#
# Indices 1 2 3 4 5 6 
#
# 1 87.3085 32.8097 36.3835 0.0000 -16.7735 0.0000
# 2 32.8097 96.7812 36.8350 0.0000 -7.8762 0.0000
# 3 36.3835 36.8350 84.8972 0.0000 -28.3182 0.0000
# 4 0.0000 0.0000 0.0000 23.0099 0.0000 0.0129
# 5 -16.7735 -7.8762 -28.3182 0.0000 27.7263 0.0000
# 6 0.0000 0.0000 0.0000 0.0129 0.0000 8.0409
#
#
#
# Elastic Compliance Matrix: (Units=1/GPa)
#
#
# Indices 1 2 3 4 5 6 
#
# 1 0.015058 -0.003426 -0.003417 0.000000 0.004646 0.000000
# 2 -0.003426 0.013321 -0.005673 0.000000 -0.004083 0.000000
# 3 -0.003417 -0.005673 0.021959 0.000000 0.018749 0.000000
# 4 0.000000 0.000000 0.000000 0.043460 0.000000 -0.000070
# 5 0.004646 -0.004083 0.018749 0.000000 0.056867 0.000000
# 6 0.000000 0.000000 0.000000 -0.000070 0.000000 0.124365
#
#
# Mechanical properties :
#
#
# Convention : Reuss Voigt Hill
#
# Bulk Modulus (GPa) = 39.51805 53.44924 46.48365
# Shear Modulus (GPa) = 16.20768 22.61932 19.41350
#
# Velocity S-wave (km/s) = 2.96801 3.50626 3.24830
# Velocity P-wave (km/s) = 5.76403 6.74108 6.27161
#
# Compressibility (1/GPa) = 0.02530489
#
# Stress axis : x y z
#
# Youngs Moduli (GPa) = 66.41149 75.06900 45.54032
#
# Poissons Ratio (x) = 0.25720 0.15560
# Poissons Ratio (y) = 0.22754 0.25837
# Poissons Ratio (z) = 0.22691 0.42589
#
# Static dielectric constant tensor:
#      x y z
#    x 3.082760 0.000000 -0.382070 
#    y 0.000000 3.618850 0.000000 
#    z -0.382070 0.000000 3.534400 
# 
# 
# High freq. dielectric constant tensor:
#      x y z
#    x 1.677620 0.000000 -0.037890 
#    y 0.000000 1.728880 0.000000 
#    z -0.037890 0.000000 1.700480 
# 
# From -- ./inp_files/65713.got.cif
#   From: 2010.06.25/outbox.cif.g09.slc.cpg/sg13_33_cif.got.tgz:65713.got - 2010.06.28 04:50:58.
