data_PCOD8116750
_publ_section_title
;
Structure prediction by ZEFSAII (Michael W. Deem and Ramdas Pophale) SiO2 
 PCOD8116750
Probable space group: P 2/C
;
_chemical_formula_sum "Si O2"
_cell_formula_units_Z 26
_cell_length_a 22.271440
_cell_length_b 12.656745
_cell_length_c 5.285466
_cell_angle_alpha 90.000000
_cell_angle_beta 110.849629
_cell_angle_gamma 90.000000
_cell_volume 1392.326727
_symmetry_space_group_name_H-M "P 2/C"
_symmetry_group_IT_number 13
_symmetry_cell_setting 'monoclinic'
loop_
_space_group_symop_operation_xyz
x,y,z
-x,y,1/2-z
-x,-y,-z
x,-y,1/2+z
loop_
_atom_site_type_symbol
_atom_site_label
_atom_site_fract_x
_atom_site_fract_y
_atom_site_fract_z
Si Si1 0.776973 0.536092 0.415500
Si Si2 0.139235 0.070527 0.456416
Si Si3 0.660638 0.207674 0.241001
Si Si4 0.741834 0.779360 0.362821
Si Si5 0.000000 0.931723 0.750000
Si Si6 0.472693 0.118425 0.459047
Si Si7 0.637064 0.553525 0.705517
O O1 0.816770 0.499955 0.725147
O O2 0.756689 0.656352 0.385236
O O3 0.713680 0.462277 0.320428
O O4 0.190682 0.162457 0.536646
O O5 0.068649 0.129425 0.352566
O O6 0.148055 0.998435 0.717111
O O7 0.702750 0.189526 0.554273
O O8 0.604695 0.119785 0.157022
O O9 0.625288 0.321236 0.187779
O O10 0.702852 0.189425 0.054479
O O11 0.000000 0.000000 0.500000
O O12 0.500000 0.177227 0.250000
O O13 0.500000 0.000000 0.500000
O O14 0.500000 0.177225 0.750000
O O15 0.606014 0.499984 0.408968
#
# Coordination Sequence:
#
# PCOD8116750 Si02
#       7
#     4   4   4   4   2   4   4
#     4  10  16  30  49  77 116 138 170 206 277 341
#     4  10  21  38  51  82 120 145 193 225 266 330
#     4  12  21  35  60  80 106 142 173 232 280 313
#     4  12  21  33  55  92 112 138 175 235 287 312
#     4   8  16  34  60  68 102 166 184 222 268 310
#     4  10  23  45  59  72  96 139 195 213 254 345
#     4  10  16  30  51  79 107 132 170 207 277 337
#
# _framework density 18.673780000000001
#
# number of rings (size 3 to 8) (size 9 to 14) (size 15 to 20)
#    0.000    1.538    6.154    1.846    0.000    0.000 
#   16.615    0.000    0.000    2.769    0.000    1.077 
#    0.000    0.000    0.000    0.000    0.000    0.000 
#
# Total GULP energy -322141.119090 kJ/mol
# GULP energy per Si atom -12390.043042 kJ/mol
# Density = 1.863128 g / cm^3
# Si number density = 18.673780 Si / 1000 Ang^3
#
#
#
# Elastic Constant Matrix: (Units=GPa)
#
#
# Indices 1 2 3 4 5 6 
#
# 1 112.0314 40.8578 76.6759 0.0000 2.5924 0.0000
# 2 40.8578 58.7576 25.4458 0.0000 13.5767 0.0000
# 3 76.6759 25.4458 159.5996 0.0000 -30.8596 0.0000
# 4 0.0000 0.0000 0.0000 11.4942 0.0000 -3.5319
# 5 2.5924 13.5767 -30.8596 0.0000 39.9692 0.0000
# 6 0.0000 0.0000 0.0000 -3.5319 0.0000 6.8670
#
#
#
# Elastic Compliance Matrix: (Units=1/GPa)
#
#
# Indices 1 2 3 4 5 6 
#
# 1 0.017227 -0.007393 -0.008026 0.000000 -0.004803 0.000000
# 2 -0.007393 0.025575 -0.002483 0.000000 -0.010125 0.000000
# 3 -0.008026 -0.002483 0.012673 0.000000 0.011149 0.000000
# 4 0.000000 0.000000 0.000000 0.103330 0.000000 0.053145
# 5 -0.004803 -0.010125 0.011149 0.000000 0.037378 0.000000
# 6 0.000000 0.000000 0.000000 0.053145 0.000000 0.172957
#
#
# Mechanical properties :
#
#
# Convention : Reuss Voigt Hill
#
# Bulk Modulus (GPa) = 50.83992 68.48307 59.66149
# Shear Modulus (GPa) = 12.15061 24.16004 18.15532
#
# Velocity S-wave (km/s) = 2.55361 3.60084 3.12145
# Velocity P-wave (km/s) = 5.99824 7.35126 6.70895
#
# Compressibility (1/GPa) = 0.01966958
#
# Stress axis : x y z
#
# Youngs Moduli (GPa) = 58.04962 39.10060 78.90617
#
# Poissons Ratio (x) = 0.28908 0.63330
# Poissons Ratio (y) = 0.42917 0.19596
# Poissons Ratio (z) = 0.46591 0.09710
#
# Static dielectric constant tensor:
#      x y z
#    x 3.884200 0.000000 -1.037590 
#    y 0.000000 2.574130 0.000000 
#    z -1.037590 0.000000 5.288070 
# 
# 
# High freq. dielectric constant tensor:
#      x y z
#    x 1.702010 0.000000 -0.036960 
#    y 0.000000 1.696320 0.000000 
#    z -0.036960 0.000000 1.752210 
# 
# From -- ./inp_files/6873.got.cif
#   From: 2010.06.25/outbox.cif.g09.slc.cpg/sg13_4_cif.got.tgz:6873.got - 2010.06.28 04:50:58.
