data_PCOD8116990
_publ_section_title
;
Structure prediction by ZEFSAII (Michael W. Deem and Ramdas Pophale) SiO2 
 PCOD8116990
Probable space group: P 2/C
;
_chemical_formula_sum "Si O2"
_cell_formula_units_Z 26
_cell_length_a 8.790565
_cell_length_b 11.475451
_cell_length_c 14.498015
_cell_angle_alpha 90.000000
_cell_angle_beta 127.825011
_cell_angle_gamma 90.000000
_cell_volume 1155.208237
_symmetry_space_group_name_H-M "P 2/C"
_symmetry_group_IT_number 13
_symmetry_cell_setting 'monoclinic'
loop_
_space_group_symop_operation_xyz
x,y,z
-x,y,1/2-z
-x,-y,-z
x,-y,1/2+z
loop_
_atom_site_type_symbol
_atom_site_label
_atom_site_fract_x
_atom_site_fract_y
_atom_site_fract_z
Si Si1 0.803358 0.841108 0.934826
Si Si2 0.000000 0.918957 0.750000
Si Si3 0.926337 0.539249 0.572003
Si Si4 0.590547 0.298760 0.992629
Si Si5 0.807346 0.080539 0.003621
Si Si6 0.239391 0.280893 0.254163
Si Si7 0.828650 0.301142 0.626392
O O1 0.681523 0.761059 0.816967
O O2 0.029338 0.845334 0.989647
O O3 0.778271 0.781269 0.023079
O O4 0.723225 0.974870 0.910275
O O5 0.099748 0.987708 0.871786
O O6 0.157262 0.837604 0.762932
O O7 0.722555 0.607304 0.488206
O O8 0.903442 0.426247 0.624485
O O9 0.000000 0.500000 0.500000
O O10 0.079228 0.620079 0.681528
O O11 0.644297 0.169382 0.976651
O O12 0.608498 0.319927 0.111080
O O13 0.366205 0.316686 0.885160
O O14 0.000000 0.243069 0.750000
#
# Coordination Sequence:
#
# PCOD8116990 Si02
#       7
#     4   2   4   4   4   4   4
#     4  10  20  38  62  96 126 164 208 270 330 387
#     4   8  14  30  62  94 112 162 206 260 308 386
#     4  12  21  42  68  96 130 166 216 269 332 389
#     4  11  22  42  68  95 127 174 222 269 319 393
#     4   9  18  36  67  92 122 163 218 264 330 383
#     4  10  17  38  68  92 123 160 219 265 320 384
#     4  12  27  41  59  92 137 176 218 263 331 384
#
# _framework density 22.506765000000001
#
# number of rings (size 3 to 8) (size 9 to 14) (size 15 to 20)
#    0.000    1.538    6.154    1.385    1.077    1.231 
#    0.000    4.615    6.769    0.000    0.000    0.000 
#    0.000    0.000    0.000    0.000    0.000    0.000 
#
# Total GULP energy -322098.900261 kJ/mol
# GULP energy per Si atom -12388.419241 kJ/mol
# Density = 2.245554 g / cm^3
# Si number density = 22.506765 Si / 1000 Ang^3
#
#
#
# Elastic Constant Matrix: (Units=GPa)
#
#
# Indices 1 2 3 4 5 6 
#
# 1 109.3219 33.6825 60.2634 0.0000 3.7026 0.0000
# 2 33.6825 70.2727 14.6901 0.0000 -5.9496 0.0000
# 3 60.2634 14.6901 59.3461 0.0000 2.4714 0.0000
# 4 0.0000 0.0000 0.0000 31.7526 0.0000 -19.3537
# 5 3.7026 -5.9496 2.4714 0.0000 31.4092 0.0000
# 6 0.0000 0.0000 0.0000 -19.3537 0.0000 31.0456
#
#
#
# Elastic Compliance Matrix: (Units=1/GPa)
#
#
# Indices 1 2 3 4 5 6 
#
# 1 0.023507 -0.006849 -0.022078 0.000000 -0.002331 0.000000
# 2 -0.006849 0.017319 0.002506 0.000000 0.003891 0.000000
# 3 -0.022078 0.002506 0.038647 0.000000 0.000036 0.000000
# 4 0.000000 0.000000 0.000000 0.050793 0.000000 0.031664
# 5 -0.002331 0.003891 0.000036 0.000000 0.032847 0.000000
# 6 0.000000 0.000000 0.000000 0.031664 0.000000 0.051950
#
#
# Mechanical properties :
#
#
# Convention : Reuss Voigt Hill
#
# Bulk Modulus (GPa) = 37.54978 50.69033 44.12006
# Shear Modulus (GPa) = 18.06480 27.52847 22.79664
#
# Velocity S-wave (km/s) = 2.83616 3.50111 3.18603
# Velocity P-wave (km/s) = 5.23881 6.23817 5.76020
#
# Compressibility (1/GPa) = 0.02663131
#
# Stress axis : x y z
#
# Youngs Moduli (GPa) = 42.54098 57.74103 25.87506
#
# Poissons Ratio (x) = 0.39548 0.57126
# Poissons Ratio (y) = 0.29137 -0.06485
# Poissons Ratio (z) = 0.93920 -0.14471
#
# Static dielectric constant tensor:
#      x y z
#    x 4.084480 0.000000 -0.432650 
#    y 0.000000 4.056630 0.000000 
#    z -0.432650 0.000000 4.398450 
# 
# 
# High freq. dielectric constant tensor:
#      x y z
#    x 1.883180 0.000000 -0.022110 
#    y 0.000000 1.885930 0.000000 
#    z -0.022110 0.000000 1.868840 
# 
# From -- ./inp_files/47044.got.cif
#   From: 2010.06.25/outbox.cif.g09.slc.cpg/sg13_24_cif.got.tgz:47044.got - 2010.06.28 04:50:58.
