data_PCOD8116175
_publ_section_title
;
Structure prediction by ZEFSAII (Michael W. Deem and Ramdas Pophale) SiO2 
 PCOD8116175
Probable space group: C 2/M
;
_chemical_formula_sum "Si O2"
_cell_formula_units_Z 28
_cell_length_a 18.000000
_cell_length_b 21.000000
_cell_length_c 24.000000
_cell_angle_alpha 90.000000
_cell_angle_beta 20.000000
_cell_angle_gamma 90.000000
_cell_volume 3102.806740
_symmetry_space_group_name_H-M "C 2/M"
_symmetry_group_IT_number 12
_symmetry_cell_setting 'monoclinic'
loop_
_space_group_symop_operation_xyz
x,y,z
-x,y,-z
-x,-y,-z
x,-y,z
1/2+x,1/2+y,z
1/2-x,1/2+y,-z
1/2-x,1/2-y,-z
1/2+x,1/2-y,z
loop_
_atom_site_type_symbol
_atom_site_label
_atom_site_fract_x
_atom_site_fract_y
_atom_site_fract_z
Si Si1 0.692633 0.000000 0.287747
Si Si2 0.908692 0.575279 0.348302
Si Si3 0.752033 0.871833 0.181096
Si Si4 0.442251 0.360243 0.476574
Si Si5 0.061350 0.708486 0.522069
Si Si6 0.757348 0.923518 0.824068
Si Si7 0.601833 0.612463 0.664964
Si Si8 0.691169 0.500000 0.673274
O O1 0.757396 0.061469 0.208257
O O2 0.439830 0.000000 0.479458
O O3 0.836495 0.000000 0.241476
O O4 0.952194 0.500000 0.306149
O O5 0.787218 0.607542 0.380728
O O6 0.760567 0.582039 0.507344
O O7 0.130860 0.614371 0.206796
O O8 0.629405 0.818845 0.304570
O O9 0.000000 0.847486 0.000000
O O10 0.500000 0.373960 0.500000
O O11 0.423976 0.284304 0.478450
O O12 0.635857 0.393983 0.306452
O O13 0.290799 0.676346 0.382367
O O14 0.000000 0.693044 0.500000
O O15 0.865185 0.883744 0.800585
O O16 0.804640 0.000000 0.795561
O O17 0.500000 0.910640 0.000000
O O18 0.570146 0.562820 0.737123
#
# Coordination Sequence:
#
# PCOD8116175 Si02
#       8
#     4   8   8   8   8   8   8   4
#     4  11  19  28  50  80 116 145 175 213 268 326
#     4  10  18  33  56  80 107 140 182 223 266 323
#     4  11  21  34  54  81 118 147 172 215 274 331
#     4  10  22  39  58  78 106 144 187 232 272 313
#     4  10  21  37  56  81 109 143 186 224 264 325
#     4  10  21  37  59  83 111 139 180 232 273 318
#     4  10  16  31  55  81 107 138 181 225 262 314
#     4  11  16  28  53  82 106 147 180 217 264 314
#
# _framework density 9.0240880000000008
#
# number of rings (size 3 to 8) (size 9 to 14) (size 15 to 20)
#    0.000    1.714    5.000    2.357    0.000    6.857 
#    0.000    2.857    0.000    3.429    0.000    0.000 
#    0.000    0.000    0.000    0.000    0.000    0.000 
#
# Total GULP energy -346933.199189 kJ/mol
# GULP energy per Si atom -12390.471400 kJ/mol
# Density = 0.900355 g / cm^3
# Si number density = 9.024088 Si / 1000 Ang^3
#
#
#
# Elastic Constant Matrix: (Units=GPa)
#
#
# Indices 1 2 3 4 5 6 
#
# 1 169.7151 54.4429 49.1655 0.3211 -28.2164 0.1765
# 2 54.4429 113.2297 31.1741 1.1634 -9.3440 0.3336
# 3 49.1655 31.1741 88.6102 0.9955 -30.4745 0.0839
# 4 0.3211 1.1634 0.9955 1.7454 0.3110 -16.2838
# 5 -28.2164 -9.3440 -30.4745 0.3110 34.5372 -0.1084
# 6 0.1765 0.3336 0.0839 -16.2838 -0.1084 30.8632
#
#
#
# Elastic Compliance Matrix: (Units=1/GPa)
#
#
# Indices 1 2 3 4 5 6 
#
# 1 0.008120 -0.003001 -0.002073 -0.000262 0.003995 -0.000133
# 2 -0.003001 0.010883 -0.002893 0.001432 -0.002070 0.000655
# 3 -0.002073 -0.002893 0.018040 0.002546 0.013423 0.001385
# 4 -0.000262 0.001432 0.002546 -0.145289 0.003487 -0.076665
# 5 0.003995 -0.002070 0.013423 0.003487 0.043477 0.001956
# 6 -0.000133 0.000655 0.001385 -0.076665 0.001956 -0.008051
#
#
# Mechanical properties :
#
#
# Convention : Reuss Voigt Hill
#
# Bulk Modulus (GPa) = 47.36895 71.23556 59.30225
# Shear Modulus (GPa) = -100.29966 29.21401 -35.54283
#
# Velocity S-wave (km/s) = -7.46284 4.02763 -4.44253
# Velocity P-wave (km/s) = 6.92501 7.82205 2.57184
#
# Compressibility (1/GPa) = 0.02111088
#
# Stress axis : x y z
#
# Youngs Moduli (GPa) = 123.14967 91.88316 55.43386
#
# Poissons Ratio (x) = 0.27573 0.11489
# Poissons Ratio (y) = 0.36956 0.16035
# Poissons Ratio (z) = 0.25524 0.26578
#
# Static dielectric constant tensor:
#      x y z
#    x 3.955760 -0.000150 -0.393040 
#    y -0.000150 3.525070 0.000710 
#    z -0.393040 0.000710 3.282620 
# 
# 
# High freq. dielectric constant tensor:
#      x y z
#    x 1.730450 0.000010 -0.025320 
#    y 0.000010 1.709900 0.000070 
#    z -0.025320 0.000070 1.672960 
# 
# From -- ./inp_files/344776.got.cif
#   From: 2010.06.25/outbox.ucp.g09.slc.cvg/sg12_173_cif.got.tgz:344776.got - 2010.06.28 13:50:54.
