data_PCOD8116624
_publ_section_title
;
Structure prediction by ZEFSAII (Michael W. Deem and Ramdas Pophale) SiO2 
 PCOD8116624
Probable space group: C 2/M
;
_chemical_formula_sum "Si O2"
_cell_formula_units_Z 32
_cell_length_a 9.000000
_cell_length_b 18.000000
_cell_length_c 30.000000
_cell_angle_alpha 90.000000
_cell_angle_beta 140.000000
_cell_angle_gamma 90.000000
_cell_volume 3123.947783
_symmetry_space_group_name_H-M "C 2/M"
_symmetry_group_IT_number 12
_symmetry_cell_setting 'monoclinic'
loop_
_space_group_symop_operation_xyz
x,y,z
-x,y,-z
-x,-y,-z
x,-y,z
1/2+x,1/2+y,z
1/2-x,1/2+y,-z
1/2-x,1/2-y,-z
1/2+x,1/2-y,z
loop_
_atom_site_type_symbol
_atom_site_label
_atom_site_fract_x
_atom_site_fract_y
_atom_site_fract_z
Si Si1 0.860086 0.587712 0.078797
Si Si2 0.922060 0.339895 0.651092
Si Si3 0.506589 0.413774 0.414267
Si Si4 0.153083 0.827550 0.192965
Si Si5 0.518514 0.412191 0.076027
Si Si6 0.313918 0.326985 0.197225
Si Si7 0.025389 0.587252 0.426915
Si Si8 0.589794 0.665786 0.348835
O O1 0.860140 0.500000 0.078181
O O2 0.733266 0.615202 0.094899
O O3 0.122555 0.614275 0.138068
O O4 0.718180 0.615656 0.002425
O O5 0.705167 0.395672 0.601885
O O6 0.028670 0.360531 0.627967
O O7 0.852416 0.253151 0.636549
O O8 0.102053 0.358069 0.732226
O O9 0.507451 0.500000 0.400381
O O10 0.738681 0.392435 0.493944
O O11 0.445311 0.358958 0.358971
O O12 0.040105 0.881966 0.131029
O O13 0.183752 0.749342 0.176184
O O14 0.990203 0.816210 0.197712
O O15 0.517259 0.500000 0.079703
O O16 0.447166 0.355484 0.271836
O O17 0.012084 0.500000 0.412520
O O18 0.812835 0.613054 0.408731
#
# Coordination Sequence:
#
# PCOD8116624 Si02
#       8
#     8   8   8   8   8   8   8   8
#     4   9  20  40  65  94 128 165 206 252 302 363
#     4  11  24  41  63  91 123 164 211 259 309 374
#     4  11  25  41  63  91 124 163 206 257 321 380
#     4  11  24  41  63  90 124 164 205 258 311 365
#     4   9  20  40  65  94 128 165 206 252 302 363
#     4  11  24  41  63  90 124 164 205 258 311 365
#     4  11  23  43  63  89 126 161 204 263 317 372
#     4  11  24  41  63  91 123 164 211 259 309 374
#
# _framework density 10.243449
#
# number of rings (size 3 to 8) (size 9 to 14) (size 15 to 20)
#    0.000    1.500    1.250    3.750    7.000    8.500 
#    0.000    1.250    0.000    0.000    0.000    0.000 
#    0.000    0.000    0.000    0.000    0.000    0.000 
#
# Total GULP energy -396783.544877 kJ/mol
# GULP energy per Si atom -12399.485777 kJ/mol
# Density = 1.022013 g / cm^3
# Si number density = 10.243449 Si / 1000 Ang^3
#
#
#
# Elastic Constant Matrix: (Units=GPa)
#
#
# Indices 1 2 3 4 5 6 
#
# 1 48.6134 27.2251 32.2148 0.0002 -4.2848 0.0002
# 2 27.2251 72.9320 58.4358 0.0000 -4.8709 0.0001
# 3 32.2148 58.4358 124.3785 0.0004 -6.1658 0.0005
# 4 0.0002 0.0000 0.0004 36.6334 0.0001 -0.8160
# 5 -4.2848 -4.8709 -6.1658 0.0001 40.8978 0.0002
# 6 0.0002 0.0001 0.0005 -0.8160 0.0002 36.5958
#
#
#
# Elastic Compliance Matrix: (Units=1/GPa)
#
#
# Indices 1 2 3 4 5 6 
#
# 1 0.027071 -0.007134 -0.003588 0.000000 0.001446 0.000000
# 2 -0.007134 0.023915 -0.009354 0.000000 0.000691 0.000000
# 3 -0.003588 -0.009354 0.013390 0.000000 0.000529 0.000000
# 4 0.000000 0.000000 0.000000 0.027311 0.000000 0.000609
# 5 0.001446 0.000691 0.000529 0.000000 0.024765 0.000000
# 6 0.000000 0.000000 0.000000 0.000609 0.000000 0.027339
#
#
# Mechanical properties :
#
#
# Convention : Reuss Voigt Hill
#
# Bulk Modulus (GPa) = 41.28077 53.51948 47.40012
# Shear Modulus (GPa) = 26.03920 31.36195 28.70057
#
# Velocity S-wave (km/s) = 3.56900 3.91683 3.74695
# Velocity P-wave (km/s) = 6.09732 6.82904 6.47353
#
# Compressibility (1/GPa) = 0.02422435
#
# Stress axis : x y z
#
# Youngs Moduli (GPa) = 36.94002 41.81420 74.68101
#
# Poissons Ratio (x) = 0.29830 0.26797
# Poissons Ratio (y) = 0.26352 0.69857
# Poissons Ratio (z) = 0.13255 0.39113
#
# Static dielectric constant tensor:
#      x y z
#    x 3.763620 0.000000 -0.013100 
#    y 0.000000 3.508990 0.000000 
#    z -0.013100 0.000000 3.839840 
# 
# 
# High freq. dielectric constant tensor:
#      x y z
#    x 1.807640 0.000000 -0.004330 
#    y 0.000000 1.794820 0.000000 
#    z -0.004330 0.000000 1.815310 
# 
# From -- ./inp_files/373025.got.cif
#   From: 2010.06.25/outbox.ucp.g09.slc.cvg/sg12_187_cif.got.tgz:373025.got - 2010.06.28 13:50:54.
