data_PCOD8116404
_publ_section_title
;
Structure prediction by ZEFSAII (Michael W. Deem and Ramdas Pophale) SiO2 
 PCOD8116404
Probable space group: C 2/M
;
_chemical_formula_sum "Si O2"
_cell_formula_units_Z 32
_cell_length_a 18.000000
_cell_length_b 9.000000
_cell_length_c 30.000000
_cell_angle_alpha 90.000000
_cell_angle_beta 40.000000
_cell_angle_gamma 90.000000
_cell_volume 3123.947783
_symmetry_space_group_name_H-M "C 2/M"
_symmetry_group_IT_number 12
_symmetry_cell_setting 'monoclinic'
loop_
_space_group_symop_operation_xyz
x,y,z
-x,y,-z
-x,-y,-z
x,-y,z
1/2+x,1/2+y,z
1/2-x,1/2+y,-z
1/2-x,1/2-y,-z
1/2+x,1/2-y,z
loop_
_atom_site_type_symbol
_atom_site_label
_atom_site_fract_x
_atom_site_fract_y
_atom_site_fract_z
Si Si1 0.468370 0.327165 0.564817
Si Si2 0.531854 0.828454 0.934495
Si Si3 0.127608 0.676782 0.562152
Si Si4 0.372710 0.323690 0.936485
Si Si5 0.275274 0.163689 0.285566
Si Si6 0.970976 0.329108 0.711232
Si Si7 0.524613 0.832827 0.195390
Si Si8 0.719387 0.330712 0.802525
O O1 0.500000 0.287271 0.500000
O O2 0.493392 0.500000 0.563473
O O3 0.546377 0.223740 0.559293
O O4 0.334586 0.284358 0.635080
O O5 0.452426 0.725529 0.940597
O O6 0.662863 0.772227 0.866827
O O7 0.518621 0.000000 0.926263
O O8 0.500000 0.803979 0.000000
O O9 0.138060 0.500000 0.557902
O O10 0.250000 0.750000 0.500000
O O11 0.073958 0.737296 0.633649
O O12 0.359986 0.500000 0.941936
O O13 0.427704 0.272151 0.864880
O O14 0.250000 0.250000 0.000000
O O15 0.386740 0.155977 0.265253
O O16 0.320359 0.277784 0.227553
O O17 0.249521 0.000000 0.276488
O O18 0.998980 0.500000 0.708318
O O19 0.943559 0.256186 0.771878
O O20 0.855662 0.308889 0.735949
O O21 0.576243 0.000000 0.164587
O O22 0.681924 0.500000 0.828478
#
# Coordination Sequence:
#
# PCOD8116404 Si02
#       8
#     8   8   8   8   8   8   8   8
#     4  10  22  39  62  92 123 163 209 253 305 367
#     4  11  25  44  65  93 126 162 204 254 307 360
#     4  11  23  41  62  88 124 164 205 255 309 367
#     4  12  26  44  65  92 126 164 204 251 305 366
#     4  10  20  36  62  89 119 159 205 255 305 359
#     4   9  21  39  62  90 122 161 203 249 305 363
#     4  10  21  40  64  90 121 163 206 249 303 362
#     4  11  21  38  63  91 122 159 204 253 305 362
#
# _framework density 10.243449
#
# number of rings (size 3 to 8) (size 9 to 14) (size 15 to 20)
#    0.000    1.500    2.500    2.250    3.500    1.250 
#    0.000    1.875    0.000    0.000    0.000    0.000 
#    0.000    0.000    0.000    0.000    0.000    0.000 
#
# Total GULP energy -396630.097948 kJ/mol
# GULP energy per Si atom -12394.690561 kJ/mol
# Density = 1.022013 g / cm^3
# Si number density = 10.243449 Si / 1000 Ang^3
#
#
#
# Elastic Constant Matrix: (Units=GPa)
#
#
# Indices 1 2 3 4 5 6 
#
# 1 64.3359 36.3792 45.0670 0.0007 11.0599 0.0030
# 2 36.3792 104.4098 61.6411 0.0020 7.0988 0.0054
# 3 45.0670 61.6411 161.7392 -0.0001 7.2526 -0.0002
# 4 0.0007 0.0020 -0.0001 27.7459 0.0000 -7.1041
# 5 11.0599 7.0988 7.2526 0.0000 29.6753 0.0017
# 6 0.0030 0.0054 -0.0002 -7.1041 0.0017 21.3955
#
#
#
# Elastic Compliance Matrix: (Units=1/GPa)
#
#
# Indices 1 2 3 4 5 6 
#
# 1 0.022214 -0.004944 -0.004031 -0.000001 -0.006111 -0.000002
# 2 -0.004944 0.013557 -0.003768 -0.000002 -0.000480 -0.000003
# 3 -0.004031 -0.003768 0.008730 0.000001 0.000270 0.000002
# 4 -0.000001 -0.000002 0.000001 0.039390 0.000000 0.013079
# 5 -0.006111 -0.000480 0.000270 0.000000 0.036024 -0.000002
# 6 -0.000002 -0.000003 0.000002 0.013079 -0.000002 0.051081
#
#
# Mechanical properties :
#
#
# Convention : Reuss Voigt Hill
#
# Bulk Modulus (GPa) = 52.59217 68.51773 60.55495
# Shear Modulus (GPa) = 24.65225 28.25652 26.45439
#
# Velocity S-wave (km/s) = 3.47265 3.71785 3.59734
# Velocity P-wave (km/s) = 6.46575 7.20744 6.84664
#
# Compressibility (1/GPa) = 0.01901424
#
# Stress axis : x y z
#
# Youngs Moduli (GPa) = 45.01740 73.76054 114.54952
#
# Poissons Ratio (x) = 0.36470 0.46177
# Poissons Ratio (y) = 0.22259 0.43159
# Poissons Ratio (z) = 0.18147 0.27791
#
# Static dielectric constant tensor:
#      x y z
#    x 3.550850 -0.000010 -0.058420 
#    y -0.000010 3.752550 -0.000030 
#    z -0.058420 -0.000030 3.889180 
# 
# 
# High freq. dielectric constant tensor:
#      x y z
#    x 1.789260 0.000000 -0.001210 
#    y 0.000000 1.787270 0.000000 
#    z -0.001210 0.000000 1.820040 
# 
# From -- ./inp_files/378172.got.cif
#   From: 2010.06.25/outbox.ucp.g09.slc.cvg/sg12_190_cif.got.tgz:378172.got - 2010.06.28 13:50:54.
