data_PCOD8116970
_publ_section_title
;
Structure prediction by ZEFSAII (Michael W. Deem and Ramdas Pophale) SiO2 
 PCOD8116970
Probable space group: P 2/C
;
_chemical_formula_sum "Si O2"
_cell_formula_units_Z 28
_cell_length_a 26.587771
_cell_length_b 8.231913
_cell_length_c 21.382353
_cell_angle_alpha 90.000000
_cell_angle_beta 19.049480
_cell_angle_gamma 90.000000
_cell_volume 1527.452869
_symmetry_space_group_name_H-M "P 2/C"
_symmetry_group_IT_number 13
_symmetry_cell_setting 'monoclinic'
loop_
_space_group_symop_operation_xyz
x,y,z
-x,y,1/2-z
-x,-y,-z
x,-y,1/2+z
loop_
_atom_site_type_symbol
_atom_site_label
_atom_site_fract_x
_atom_site_fract_y
_atom_site_fract_z
Si Si1 0.758221 0.263860 0.707540
Si Si2 0.357139 0.195830 0.454487
Si Si3 0.328920 0.010769 0.103399
Si Si4 0.885731 0.772340 0.715255
Si Si5 0.704742 0.479341 0.889134
Si Si6 0.562372 0.715859 0.319905
Si Si7 0.674138 0.122577 0.568994
O O1 0.730999 0.396713 0.792015
O O2 0.671735 0.332634 0.748511
O O3 0.934521 0.230720 0.482829
O O4 0.693394 0.091191 0.807440
O O5 0.500000 0.272936 0.250000
O O6 0.263698 0.349930 0.591338
O O7 0.412498 0.092774 0.450327
O O8 0.274761 0.068300 0.502438
O O9 0.164792 0.072857 0.267872
O O10 0.434776 0.161756 0.996630
O O11 0.840084 0.609052 0.733147
O O12 0.791801 0.769112 0.890832
O O13 0.531880 0.559221 0.095947
O O14 0.674691 0.806597 0.138279
O O15 0.500000 0.143627 0.750000
#
# Coordination Sequence:
#
# PCOD8116970 Si02
#       7
#     4   4   4   4   4   4   4
#     4  11  22  34  51  85 115 143 177 219 273 319
#     4   9  16  30  56  82  95 124 187 228 252 300
#     4   9  18  35  56  78 104 143 182 217 256 318
#     4  10  20  35  57  79 107 145 183 221 261 320
#     4  10  21  33  55  79 107 147 177 220 264 324
#     4  11  20  35  56  82 112 142 178 225 269 317
#     4  10  17  36  58  78 101 136 186 226 260 318
#
# _framework density 18.33117
#
# number of rings (size 3 to 8) (size 9 to 14) (size 15 to 20)
#    0.000    2.000    5.714    1.714    2.000    0.571 
#    0.000    0.000    0.000    0.000    0.000    0.000 
#    0.000    0.000    0.000    0.000    0.000    0.000 
#
# Total GULP energy -346896.691829 kJ/mol
# GULP energy per Si atom -12389.167565 kJ/mol
# Density = 1.828945 g / cm^3
# Si number density = 18.331170 Si / 1000 Ang^3
#
#
#
# Elastic Constant Matrix: (Units=GPa)
#
#
# Indices 1 2 3 4 5 6 
#
# 1 56.0895 21.0310 40.6781 0.0000 7.1029 0.0000
# 2 21.0310 78.0432 31.5279 0.0000 11.2304 0.0000
# 3 40.6781 31.5279 79.9098 0.0000 6.5842 0.0000
# 4 0.0000 0.0000 0.0000 17.7501 0.0000 5.9582
# 5 7.1029 11.2304 6.5842 0.0000 25.8086 0.0000
# 6 0.0000 0.0000 0.0000 5.9582 0.0000 15.7454
#
#
#
# Elastic Compliance Matrix: (Units=1/GPa)
#
#
# Indices 1 2 3 4 5 6 
#
# 1 0.028896 -0.001706 -0.013731 0.000000 -0.003707 0.000000
# 2 -0.001706 0.016061 -0.005037 0.000000 -0.005234 0.000000
# 3 -0.013731 -0.005037 0.021450 0.000000 0.000498 0.000000
# 4 0.000000 0.000000 0.000000 0.064535 0.000000 -0.024421
# 5 -0.003707 -0.005234 0.000498 0.000000 0.041918 0.000000
# 6 0.000000 0.000000 0.000000 -0.024421 0.000000 0.072752
#
#
# Mechanical properties :
#
#
# Convention : Reuss Voigt Hill
#
# Bulk Modulus (GPa) = 39.27888 44.50182 41.89035
# Shear Modulus (GPa) = 16.94649 19.91451 18.43050
#
# Velocity S-wave (km/s) = 3.04380 3.29960 3.17427
# Velocity P-wave (km/s) = 5.81608 6.23263 6.02796
#
# Compressibility (1/GPa) = 0.02545898
#
# Stress axis : x y z
#
# Youngs Moduli (GPa) = 34.60683 62.26145 46.62002
#
# Poissons Ratio (x) = 0.10624 0.64013
# Poissons Ratio (y) = 0.05905 0.23482
# Poissons Ratio (z) = 0.47518 0.31361
#
# Static dielectric constant tensor:
#      x y z
#    x 3.190690 0.000000 0.261730 
#    y 0.000000 3.615380 0.000000 
#    z 0.261730 0.000000 3.303850 
# 
# 
# High freq. dielectric constant tensor:
#      x y z
#    x 1.681310 0.000000 0.027970 
#    y 0.000000 1.717450 0.000000 
#    z 0.027970 0.000000 1.698620 
# 
# From -- ./inp_files/82213.got.cif
#   From: 2010.06.25/outbox.cif.g09.slc.cpg/sg13_42_cif.got.tgz:82213.got - 2010.06.28 04:50:58.
