data_PCOD8116731
_publ_section_title
;
Structure prediction by ZEFSAII (Michael W. Deem and Ramdas Pophale) SiO2 
 PCOD8116731
Probable space group: P 2/C
;
_chemical_formula_sum "Si O2"
_cell_formula_units_Z 24
_cell_length_a 15.303523
_cell_length_b 15.011802
_cell_length_c 9.929525
_cell_angle_alpha 90.000000
_cell_angle_beta 147.311211
_cell_angle_gamma 90.000000
_cell_volume 1231.990392
_symmetry_space_group_name_H-M "P 2/C"
_symmetry_group_IT_number 13
_symmetry_cell_setting 'monoclinic'
loop_
_space_group_symop_operation_xyz
x,y,z
-x,y,1/2-z
-x,-y,-z
x,-y,1/2+z
loop_
_atom_site_type_symbol
_atom_site_label
_atom_site_fract_x
_atom_site_fract_y
_atom_site_fract_z
Si Si1 0.806410 0.578405 0.986705
Si Si2 0.683992 0.931291 0.832827
Si Si3 0.838287 0.444013 0.819511
Si Si4 0.074112 0.753579 0.990347
Si Si5 0.142986 0.764278 0.540231
Si Si6 0.300819 0.915166 0.344589
O O1 0.737099 0.567079 0.048910
O O2 0.000000 0.574590 0.250000
O O3 0.738261 0.500089 0.801521
O O4 0.758016 0.672902 0.858609
O O5 0.734141 0.843482 0.819313
O O6 0.492901 0.919736 0.589313
O O7 0.756654 0.013632 0.841602
O O8 0.756180 0.940241 0.077559
O O9 0.869427 0.347930 0.923581
O O10 0.000000 0.500000 0.000000
O O11 0.226888 0.818584 0.213966
O O12 0.000000 0.773144 0.750000
O O13 0.927622 0.769768 0.902366
O O14 0.000000 0.773607 0.250000
#
# Coordination Sequence:
#
# PCOD8116731 Si02
#       6
#     4   4   4   4   4   4
#     4   9  16  27  47  75 108 141 175 215 266 327
#     4  10  22  41  61  76 109 148 181 227 273 339
#     4  10  16  29  48  77 112 143 174 220 271 323
#     4  12  23  34  54  88 114 140 185 236 269 317
#     4  11  19  36  55  82 111 141 184 226 279 318
#     4  10  23  41  58  81 107 147 188 217 279 334
#
# _framework density 19.480671999999998
#
# number of rings (size 3 to 8) (size 9 to 14) (size 15 to 20)
#    0.000    1.667    6.667    1.500    2.333    1.333 
#    0.000    0.000    0.000    1.000    0.000    0.000 
#    0.000    0.000    0.000    0.000    0.000    0.000 
#
# Total GULP energy -297438.260824 kJ/mol
# GULP energy per Si atom -12393.260868 kJ/mol
# Density = 1.943633 g / cm^3
# Si number density = 19.480672 Si / 1000 Ang^3
#
#
#
# Elastic Constant Matrix: (Units=GPa)
#
#
# Indices 1 2 3 4 5 6 
#
# 1 59.4202 39.3928 30.2010 0.0000 -31.4686 0.0000
# 2 39.3928 156.8846 30.5683 0.0000 -13.1178 0.0000
# 3 30.2010 30.5683 51.6548 0.0000 -32.9507 0.0000
# 4 0.0000 0.0000 0.0000 19.0031 0.0000 -24.0142
# 5 -31.4686 -13.1178 -32.9507 0.0000 29.9703 0.0000
# 6 0.0000 0.0000 0.0000 -24.0142 0.0000 -1.0292
#
#
#
# Elastic Compliance Matrix: (Units=1/GPa)
#
#
# Indices 1 2 3 4 5 6 
#
# 1 0.054579 -0.012287 0.028415 0.000000 0.083171 0.000000
# 2 -0.012287 0.010215 -0.014193 0.000000 -0.024034 0.000000
# 3 0.028415 -0.014193 0.087773 0.000000 0.120124 0.000000
# 4 0.000000 0.000000 0.000000 0.001726 0.000000 -0.040276
# 5 0.083171 -0.024034 0.120124 0.000000 0.242245 0.000000
# 6 0.000000 0.000000 0.000000 -0.040276 0.000000 -0.031872
#
#
# Mechanical properties :
#
#
# Convention : Reuss Voigt Hill
#
# Bulk Modulus (GPa) = 6.39233 52.03156 29.21194
# Shear Modulus (GPa) = 12.10823 20.77535 16.44179
#
# Velocity S-wave (km/s) = 2.49580 3.26921 2.90833
# Velocity P-wave (km/s) = 3.40497 6.40450 5.12891
#
# Compressibility (1/GPa) = 0.15643759
#
# Stress axis : x y z
#
# Youngs Moduli (GPa) = 18.32196 97.89458 11.39307
#
# Poissons Ratio (x) = 1.20281 -0.32373
# Poissons Ratio (y) = 0.22512 0.16170
# Poissons Ratio (z) = -0.52062 1.38940
#
# Static dielectric constant tensor:
#      x y z
#    x 3.862810 0.000000 -0.800420 
#    y 0.000000 3.910940 0.000000 
#    z -0.800420 0.000000 3.536890 
# 
# 
# High freq. dielectric constant tensor:
#      x y z
#    x 1.755380 0.000000 -0.042890 
#    y 0.000000 1.775320 0.000000 
#    z -0.042890 0.000000 1.723830 
# 
# From -- ./inp_files/19760.got.cif
#   From: 2010.06.25/outbox.cif.g09.slc.cpg/sg13_10_cif.got.tgz:19760.got - 2010.06.28 04:50:58.
