data_PCOD8116352
_publ_section_title
;
Structure prediction by ZEFSAII (Michael W. Deem and Ramdas Pophale) SiO2 
 PCOD8116352
Probable space group: C 2/M
;
_chemical_formula_sum "Si O2"
_cell_formula_units_Z 28
_cell_length_a 18.000000
_cell_length_b 9.000000
_cell_length_c 27.000000
_cell_angle_alpha 90.000000
_cell_angle_beta 140.000000
_cell_angle_gamma 90.000000
_cell_volume 2811.553005
_symmetry_space_group_name_H-M "C 2/M"
_symmetry_group_IT_number 12
_symmetry_cell_setting 'monoclinic'
loop_
_space_group_symop_operation_xyz
x,y,z
-x,y,-z
-x,-y,-z
x,-y,z
1/2+x,1/2+y,z
1/2-x,1/2+y,-z
1/2-x,1/2-y,-z
1/2+x,1/2-y,z
loop_
_atom_site_type_symbol
_atom_site_label
_atom_site_fract_x
_atom_site_fract_y
_atom_site_fract_z
Si Si1 0.510276 0.662136 0.865765
Si Si2 0.948148 0.831333 0.423584
Si Si3 0.130153 0.169090 0.431458
Si Si4 0.566070 0.826332 0.305413
Si Si5 0.714735 0.674593 0.302296
Si Si6 0.156353 0.672514 0.869696
Si Si7 0.095203 0.165785 0.016981
O O1 0.523391 0.500000 0.846893
O O2 0.380709 0.720118 0.787766
O O3 0.611286 0.768652 0.898701
O O4 0.529091 0.651354 0.932408
O O5 0.837781 0.739265 0.348430
O O6 0.000000 0.761035 0.500000
O O7 0.054850 0.823619 0.441621
O O8 0.906255 0.000000 0.410688
O O9 0.250000 0.250000 0.500000
O O10 0.056361 0.260496 0.354527
O O11 0.152153 0.000000 0.425773
O O12 0.671785 0.746086 0.331711
O O13 0.440283 0.788848 0.219702
O O14 0.592868 0.000000 0.319070
O O15 0.728728 0.500000 0.316116
O O16 0.178818 0.500000 0.888486
O O17 0.280239 0.747822 0.920031
O O18 0.114424 0.000000 0.049299
O O19 0.000000 0.256653 0.000000
#
# Coordination Sequence:
#
# PCOD8116352 Si02
#       7
#     8   8   8   8   8   8   8
#     4   9  18  32  52  77 104 135 171 217 265 309
#     4  10  22  39  57  78 106 139 173 213 263 315
#     4  11  23  38  58  83 110 141 177 217 263 315
#     4  10  20  35  55  79 109 142 178 221 266 315
#     4  10  20  34  55  82 108 137 177 222 268 318
#     4   9  18  32  53  77 100 136 179 215 257 312
#     4   9  17  30  49  74 104 137 175 218 262 308
#
# _framework density 9.9589090000000002
#
# number of rings (size 3 to 8) (size 9 to 14) (size 15 to 20)
#    0.000    2.286    0.000    2.571    0.000    4.857 
#    0.000    2.857    0.000    1.714    0.000    0.000 
#    0.000    0.000    0.000    0.000    0.000    0.000 
#
# Total GULP energy -346980.319808 kJ/mol
# GULP energy per Si atom -12392.154279 kJ/mol
# Density = 0.993624 g / cm^3
# Si number density = 9.958909 Si / 1000 Ang^3
#
#
#
# Elastic Constant Matrix: (Units=GPa)
#
#
# Indices 1 2 3 4 5 6 
#
# 1 87.5052 36.0833 64.0696 0.0000 28.1134 0.0000
# 2 36.0833 38.0755 45.5250 0.0000 10.0991 0.0000
# 3 64.0696 45.5250 81.5875 0.0000 27.0476 0.0000
# 4 0.0000 0.0000 0.0000 8.5152 0.0000 -9.6321
# 5 28.1134 10.0991 27.0476 0.0000 32.8140 0.0000
# 6 0.0000 0.0000 0.0000 -9.6321 0.0000 11.2889
#
#
#
# Elastic Compliance Matrix: (Units=1/GPa)
#
#
# Indices 1 2 3 4 5 6 
#
# 1 0.028620 -0.004362 -0.017003 0.000000 -0.009162 0.000000
# 2 -0.004362 0.086668 -0.051367 0.000005 0.019404 0.000004
# 3 -0.017003 -0.051367 0.060821 -0.000002 -0.019756 -0.000002
# 4 0.000000 0.000005 -0.000002 3.370873 0.000000 2.876159
# 5 -0.009162 0.019404 -0.019756 0.000000 0.048637 0.000000
# 6 0.000000 0.000004 -0.000002 2.876159 0.000000 2.542632
#
#
# Mechanical properties :
#
#
# Convention : Reuss Voigt Hill
#
# Bulk Modulus (GPa) = 32.63305 55.39158 44.01231
# Shear Modulus (GPa) = 0.79442 14.62296 7.70869
#
# Velocity S-wave (km/s) = 0.63223 2.71249 1.96943
# Velocity P-wave (km/s) = 4.11733 6.13845 5.22651
#
# Compressibility (1/GPa) = 0.03064378
#
# Stress axis : x y z
#
# Youngs Moduli (GPa) = 34.94101 11.53833 16.44173
#
# Poissons Ratio (x) = 0.05033 0.27956
# Poissons Ratio (y) = 0.15242 0.84456
# Poissons Ratio (z) = 0.59411 0.59269
#
# Static dielectric constant tensor:
#      x y z
#    x 3.559260 0.000000 0.154800 
#    y 0.000000 3.595720 0.000000 
#    z 0.154800 0.000000 3.593600 
# 
# 
# High freq. dielectric constant tensor:
#      x y z
#    x 1.761410 0.000000 0.017180 
#    y 0.000000 1.753200 0.000000 
#    z 0.017180 0.000000 1.781020 
# 
# From -- ./inp_files/342483.got.cif
#   From: 2010.06.25/outbox.ucp.g09.slc.cvg/sg12_172_cif.got.tgz:342483.got - 2010.06.28 13:50:54.
