data_PCOD8116253
_publ_section_title
;
Structure prediction by ZEFSAII (Michael W. Deem and Ramdas Pophale) SiO2 
 PCOD8116253
Probable space group: C 2/M
;
_chemical_formula_sum "Si O2"
_cell_formula_units_Z 28
_cell_length_a 30.000000
_cell_length_b 9.000000
_cell_length_c 21.000000
_cell_angle_alpha 90.000000
_cell_angle_beta 150.000000
_cell_angle_gamma 90.000000
_cell_volume 2835.000000
_symmetry_space_group_name_H-M "C 2/M"
_symmetry_group_IT_number 12
_symmetry_cell_setting 'monoclinic'
loop_
_space_group_symop_operation_xyz
x,y,z
-x,y,-z
-x,-y,-z
x,-y,z
1/2+x,1/2+y,z
1/2-x,1/2+y,-z
1/2-x,1/2-y,-z
1/2+x,1/2-y,z
loop_
_atom_site_type_symbol
_atom_site_label
_atom_site_fract_x
_atom_site_fract_y
_atom_site_fract_z
Si Si1 0.492037 0.825390 0.703957
Si Si2 0.650009 0.170368 0.577643
Si Si3 0.340719 0.325975 0.765800
Si Si4 0.808956 0.171323 0.248419
Si Si5 0.835195 0.177586 0.136788
Si Si6 0.610583 0.173244 0.049432
Si Si7 0.452654 0.674988 0.783290
O O1 0.433223 0.795134 0.569389
O O2 0.582849 0.738637 0.802959
O O3 0.439822 0.760614 0.700683
O O4 0.510448 0.000000 0.737709
O O5 0.737605 0.220154 0.646450
O O6 0.634588 0.252173 0.625651
O O7 0.659019 0.000000 0.606790
O O8 0.357651 0.500000 0.799978
O O9 0.395234 0.230785 0.885143
O O10 0.372970 0.284685 0.734255
O O11 0.837920 0.229509 0.214350
O O12 0.705448 0.203061 0.134009
O O13 0.831638 0.000000 0.281346
O O14 0.830668 0.000000 0.126065
O O15 0.750000 0.250000 0.000000
O O16 0.584621 0.000000 0.015566
O O17 0.544866 0.271319 0.926692
O O18 0.456059 0.500000 0.774180
#
# Coordination Sequence:
#
# PCOD8116253 Si02
#       7
#     8   8   8   8   8   8   8
#     4  11  24  40  57  81 113 147 188 235 279 331
#     4   9  20  39  60  81 109 147 188 230 278 332
#     4   9  19  36  56  80 111 147 189 233 279 337
#     4   9  20  37  58  83 111 144 182 227 275 328
#     4  11  23  40  62  88 117 149 184 225 277 332
#     4  10  19  33  55  84 115 145 182 229 282 339
#     4  11  22  35  54  80 111 150 191 233 284 336
#
# _framework density 9.8765429999999999
#
# number of rings (size 3 to 8) (size 9 to 14) (size 15 to 20)
#    0.000    2.000    0.000    3.000    0.000    8.000 
#    0.000    2.857    0.000    0.000    0.000    0.000 
#    0.000    0.000    0.000    0.000    0.000    0.000 
#
# Total GULP energy -347212.102867 kJ/mol
# GULP energy per Si atom -12400.432245 kJ/mol
# Density = 0.985406 g / cm^3
# Si number density = 9.876543 Si / 1000 Ang^3
#
#
#
# Elastic Constant Matrix: (Units=GPa)
#
#
# Indices 1 2 3 4 5 6 
#
# 1 134.6849 43.5317 23.4677 0.0000 -24.0696 0.0000
# 2 43.5317 79.7470 31.4331 0.0000 -11.8297 0.0000
# 3 23.4677 31.4331 54.0704 0.0000 -11.7454 0.0000
# 4 0.0000 0.0000 0.0000 29.0740 0.0000 -6.2509
# 5 -24.0696 -11.8297 -11.7454 0.0000 26.4309 0.0000
# 6 0.0000 0.0000 0.0000 -6.2509 0.0000 38.0592
#
#
#
# Elastic Compliance Matrix: (Units=1/GPa)
#
#
# Indices 1 2 3 4 5 6 
#
# 1 0.010172 -0.004362 -0.000322 0.000000 0.007168 0.000000
# 2 -0.004362 0.018420 -0.008730 0.000000 0.000392 0.000000
# 3 -0.000322 -0.008730 0.025232 0.000000 0.007013 0.000000
# 4 0.000000 0.000000 0.000000 0.035654 0.000000 0.005856
# 5 0.007168 0.000392 0.007013 0.000000 0.047654 0.000000
# 6 0.000000 0.000000 0.000000 0.005856 0.000000 0.027237
#
#
# Mechanical properties :
#
#
# Convention : Reuss Voigt Hill
#
# Bulk Modulus (GPa) = 37.04206 51.70746 44.37476
# Shear Modulus (GPa) = 24.97572 30.05081 27.51327
#
# Velocity S-wave (km/s) = 3.55969 3.90464 3.73615
# Velocity P-wave (km/s) = 5.97398 6.82364 6.41290
#
# Compressibility (1/GPa) = 0.02699634
#
# Stress axis : x y z
#
# Youngs Moduli (GPa) = 98.31212 54.28875 39.63191
#
# Poissons Ratio (x) = 0.23683 0.01275
# Poissons Ratio (y) = 0.42888 0.34597
# Poissons Ratio (z) = 0.03163 0.47392
#
# Static dielectric constant tensor:
#      x y z
#    x 3.986800 0.000000 -0.009110 
#    y 0.000000 3.684240 0.000000 
#    z -0.009110 0.000000 3.653230 
# 
# 
# High freq. dielectric constant tensor:
#      x y z
#    x 1.793150 0.000000 -0.005650 
#    y 0.000000 1.775840 0.000000 
#    z -0.005650 0.000000 1.758390 
# 
# From -- ./inp_files/281012.got.cif
#   From: 2010.06.25/outbox.ucp.g09.slc.cvg/sg12_141_cif.got.tgz:281012.got - 2010.06.28 13:50:54.
