data_PCOD8116327
_publ_section_title
;
Structure prediction by ZEFSAII (Michael W. Deem and Ramdas Pophale) SiO2 
 PCOD8116327
Probable space group: C 2/M
;
_chemical_formula_sum "Si O2"
_cell_formula_units_Z 28
_cell_length_a 30.000000
_cell_length_b 9.000000
_cell_length_c 18.000000
_cell_angle_alpha 90.000000
_cell_angle_beta 140.000000
_cell_angle_gamma 90.000000
_cell_volume 3123.947783
_symmetry_space_group_name_H-M "C 2/M"
_symmetry_group_IT_number 12
_symmetry_cell_setting 'monoclinic'
loop_
_space_group_symop_operation_xyz
x,y,z
-x,y,-z
-x,-y,-z
x,-y,z
1/2+x,1/2+y,z
1/2-x,1/2+y,-z
1/2-x,1/2-y,-z
1/2+x,1/2-y,z
loop_
_atom_site_type_symbol
_atom_site_label
_atom_site_fract_x
_atom_site_fract_y
_atom_site_fract_z
Si Si1 0.073512 0.173365 0.057420
Si Si2 0.778424 0.333909 0.924392
Si Si3 0.282956 0.830904 0.753745
Si Si4 0.583915 0.672563 0.896727
Si Si5 0.490898 0.174746 0.325850
Si Si6 0.858914 0.324538 0.419103
Si Si7 0.124624 0.177097 0.718121
O O1 0.143401 0.255469 0.177925
O O2 0.083587 0.000000 0.088104
O O3 0.068626 0.203187 0.963376
O O4 0.000000 0.229448 0.000000
O O5 0.796241 0.500000 0.975346
O O6 0.778466 0.330108 0.835959
O O7 0.700701 0.286845 0.852215
O O8 0.838395 0.222736 0.028976
O O9 0.212259 0.745551 0.636140
O O10 0.281896 0.000000 0.721488
O O11 0.577160 0.500000 0.867513
O O12 0.526589 0.766461 0.778873
O O13 0.572656 0.207858 0.443466
O O14 0.439171 0.260125 0.315811
O O15 0.475953 0.000000 0.313808
O O16 0.846058 0.500000 0.393486
O O17 0.878130 0.253621 0.365094
O O18 0.116527 0.000000 0.698452
#
# Coordination Sequence:
#
# PCOD8116327 Si02
#       7
#     8   8   8   8   8   8   8
#     4   9  18  34  57  83 107 129 156 196 248 305
#     4   8  16  31  48  68  97 129 161 201 248 295
#     4   9  17  30  51  78 103 129 163 204 247 290
#     4  10  20  33  51  74  99 130 165 201 247 300
#     4  11  23  35  48  68  99 138 173 209 251 294
#     4  10  20  34  51  71  98 135 175 210 248 292
#     4  10  20  33  51  74  98 129 172 218 255 288
#
# _framework density 8.9630179999999999
#
# number of rings (size 3 to 8) (size 9 to 14) (size 15 to 20)
#    0.000    2.429    0.000    3.429    0.000    9.429 
#    0.000    0.000    0.000    0.857    0.000    0.000 
#    0.000    0.000    0.000    0.000    0.000    0.000 
#
# Total GULP energy -347015.469664 kJ/mol
# GULP energy per Si atom -12393.409631 kJ/mol
# Density = 0.894262 g / cm^3
# Si number density = 8.963018 Si / 1000 Ang^3
#
#
#
# Elastic Constant Matrix: (Units=GPa)
#
#
# Indices 1 2 3 4 5 6 
#
# 1 94.0709 42.4169 48.8135 0.0000 38.0277 0.0000
# 2 42.4169 122.3517 59.9590 0.0000 22.4342 0.0000
# 3 48.8135 59.9590 127.6422 0.0000 36.4250 0.0000
# 4 0.0000 0.0000 0.0000 35.4835 0.0000 8.0775
# 5 38.0277 22.4342 36.4250 0.0000 39.3888 0.0000
# 6 0.0000 0.0000 0.0000 8.0775 0.0000 28.4242
#
#
#
# Elastic Compliance Matrix: (Units=1/GPa)
#
#
# Indices 1 2 3 4 5 6 
#
# 1 0.018889 -0.003052 -0.001470 0.000000 -0.015139 0.000000
# 2 -0.003052 0.011222 -0.004240 0.000000 0.000476 0.000000
# 3 -0.001470 -0.004240 0.012626 0.000000 -0.007842 0.000000
# 4 0.000000 0.000000 0.000000 0.030131 0.000000 -0.008563
# 5 -0.015139 0.000476 -0.007842 0.000000 0.046984 0.000000
# 6 0.000000 0.000000 0.000000 -0.008563 0.000000 0.037615
#
#
# Mechanical properties :
#
#
# Convention : Reuss Voigt Hill
#
# Bulk Modulus (GPa) = 39.66254 71.82705 55.74480
# Shear Modulus (GPa) = 27.26349 33.51766 30.39058
#
# Velocity S-wave (km/s) = 3.90409 4.32878 4.12191
# Velocity P-wave (km/s) = 6.51891 8.07094 7.33608
#
# Compressibility (1/GPa) = 0.02521271
#
# Stress axis : x y z
#
# Youngs Moduli (GPa) = 52.94096 89.11182 79.20124
#
# Poissons Ratio (x) = 0.27201 0.11640
# Poissons Ratio (y) = 0.16160 0.33581
# Poissons Ratio (z) = 0.07780 0.37784
#
# Static dielectric constant tensor:
#      x y z
#    x 3.359740 0.000000 0.438850 
#    y 0.000000 3.584140 0.000000 
#    z 0.438850 0.000000 3.585430 
# 
# 
# High freq. dielectric constant tensor:
#      x y z
#    x 1.679340 0.000000 0.035830 
#    y 0.000000 1.714020 0.000000 
#    z 0.035830 0.000000 1.700880 
# 
# From -- ./inp_files/281638.got.cif
#   From: 2010.06.25/outbox.ucp.g09.slc.cvg/sg12_141_cif.got.tgz:281638.got - 2010.06.28 13:50:54.
