data_PCOD8116425
_publ_section_title
;
Structure prediction by ZEFSAII (Michael W. Deem and Ramdas Pophale) SiO2 
 PCOD8116425
Probable space group: C 2/M
;
_chemical_formula_sum "Si O2"
_cell_formula_units_Z 32
_cell_length_a 15.000000
_cell_length_b 18.000000
_cell_length_c 24.000000
_cell_angle_alpha 90.000000
_cell_angle_beta 150.000000
_cell_angle_gamma 90.000000
_cell_volume 3240.000000
_symmetry_space_group_name_H-M "C 2/M"
_symmetry_group_IT_number 12
_symmetry_cell_setting 'monoclinic'
loop_
_space_group_symop_operation_xyz
x,y,z
-x,y,-z
-x,-y,-z
x,-y,z
1/2+x,1/2+y,z
1/2-x,1/2+y,-z
1/2-x,1/2-y,-z
1/2+x,1/2-y,z
loop_
_atom_site_type_symbol
_atom_site_label
_atom_site_fract_x
_atom_site_fract_y
_atom_site_fract_z
Si Si1 0.162174 0.155410 0.750223
Si Si2 0.316877 0.413806 0.116489
Si Si3 0.510080 0.088023 0.745241
Si Si4 0.989267 0.412560 0.863385
Si Si5 0.114925 0.916501 0.191859
Si Si6 0.209395 0.088747 0.491593
Si Si7 0.010697 0.584873 0.445810
Si Si8 0.828045 0.189668 0.870318
O O1 0.170366 0.127163 0.817915
O O2 0.309083 0.115702 0.792821
O O3 0.213238 0.242585 0.781719
O O4 0.973381 0.136687 0.616268
O O5 0.283455 0.500000 0.111113
O O6 0.505937 0.399676 0.189019
O O7 0.159465 0.381901 0.990999
O O8 0.487518 0.111405 0.797633
O O9 0.324902 0.106134 0.610784
O O10 0.683230 0.134470 0.819707
O O11 0.551995 0.000000 0.760605
O O12 0.994583 0.500000 0.869926
O O13 0.324508 0.908165 0.314260
O O14 0.064853 0.856262 0.118748
O O15 0.067065 0.000000 0.145434
O O16 0.334279 0.117829 0.508863
O O17 0.166096 0.000000 0.465659
O O18 0.064080 0.500000 0.485348
O O19 0.000000 0.626257 0.500000
O O20 0.000000 0.216649 0.000000
#
# Coordination Sequence:
#
# PCOD8116425 Si02
#       8
#     8   8   8   8   8   8   8   8
#     4  12  25  39  58  88 127 170 209 247 305 369
#     4  10  20  37  63  92 119 155 209 267 316 359
#     4  10  22  42  66  93 121 158 210 260 311 365
#     4  10  21  39  63  88 119 161 213 266 303 353
#     4  10  20  37  62  92 120 151 199 257 313 368
#     4  10  20  38  64  90 122 161 205 259 307 361
#     4   9  16  30  56  89 120 148 187 245 309 364
#     4  12  25  40  61  89 127 169 202 249 312 374
#
# _framework density 9.8765429999999999
#
# number of rings (size 3 to 8) (size 9 to 14) (size 15 to 20)
#    0.000    1.625    1.250    4.125    0.000    7.000 
#    0.000    4.375    0.000    0.000    0.000    0.000 
#    0.000    0.000    0.000    0.000    0.000    0.000 
#
# Total GULP energy -396528.391064 kJ/mol
# GULP energy per Si atom -12391.512221 kJ/mol
# Density = 0.985406 g / cm^3
# Si number density = 9.876543 Si / 1000 Ang^3
#
#
#
# Elastic Constant Matrix: (Units=GPa)
#
#
# Indices 1 2 3 4 5 6 
#
# 1 103.4973 13.3020 36.8393 0.0008 -5.2115 0.0004
# 2 13.3020 25.9060 34.8516 0.0026 -6.5328 0.0002
# 3 36.8393 34.8516 141.8196 0.0069 2.8814 0.0013
# 4 0.0008 0.0026 0.0069 31.0859 0.0013 -7.1121
# 5 -5.2115 -6.5328 2.8814 0.0013 44.6341 0.0008
# 6 0.0004 0.0002 0.0013 -7.1121 0.0008 0.6187
#
#
#
# Elastic Compliance Matrix: (Units=1/GPa)
#
#
# Indices 1 2 3 4 5 6 
#
# 1 0.010815 -0.002195 -0.002292 0.000000 0.001089 -0.000001
# 2 -0.002195 0.062307 -0.014941 0.000001 0.009828 0.000016
# 3 -0.002292 -0.014941 0.011383 0.000003 -0.003189 0.000016
# 4 0.000000 0.000001 0.000003 -0.019736 0.000005 -0.226867
# 5 0.001089 0.009828 -0.003189 0.000005 0.024176 0.000025
# 6 -0.000001 0.000016 0.000016 -0.226867 0.000025 -0.991607
#
#
# Mechanical properties :
#
#
# Convention : Reuss Voigt Hill
#
# Bulk Modulus (GPa) = 21.90648 49.02318 35.46483
# Shear Modulus (GPa) = -5.89213 27.68308 10.89547
#
# Velocity S-wave (km/s) = -1.72898 3.74766 2.35113
# Velocity P-wave (km/s) = 2.66991 6.60292 5.03621
#
# Compressibility (1/GPa) = 0.04564860
#
# Stress axis : x y z
#
# Youngs Moduli (GPa) = 92.46515 16.04961 87.84938
#
# Poissons Ratio (x) = 0.03523 0.20135
# Poissons Ratio (y) = 0.20295 1.31257
# Poissons Ratio (z) = 0.21193 0.23980
#
# Static dielectric constant tensor:
#      x y z
#    x 3.869030 0.000000 -0.097580 
#    y 0.000000 3.520400 0.000000 
#    z -0.097580 0.000000 4.042050 
# 
# 
# High freq. dielectric constant tensor:
#      x y z
#    x 1.787020 0.000000 -0.000350 
#    y 0.000000 1.748870 0.000000 
#    z -0.000350 0.000000 1.800170 
# 
# From -- ./inp_files/340842.got.cif
#   From: 2010.06.25/outbox.ucp.g09.slc.cvg/sg12_171_cif.got.tgz:340842.got - 2010.06.28 13:50:54.
