data_PCOD8116597
_publ_section_title
;
Structure prediction by ZEFSAII (Michael W. Deem and Ramdas Pophale) SiO2 
 PCOD8116597
Probable space group: C 2/M
;
_chemical_formula_sum "Si O2"
_cell_formula_units_Z 28
_cell_length_a 27.000000
_cell_length_b 9.000000
_cell_length_c 18.000000
_cell_angle_alpha 90.000000
_cell_angle_beta 40.000000
_cell_angle_gamma 90.000000
_cell_volume 2811.553005
_symmetry_space_group_name_H-M "C 2/M"
_symmetry_group_IT_number 12
_symmetry_cell_setting 'monoclinic'
loop_
_space_group_symop_operation_xyz
x,y,z
-x,y,-z
-x,-y,-z
x,-y,z
1/2+x,1/2+y,z
1/2-x,1/2+y,-z
1/2-x,1/2-y,-z
1/2+x,1/2-y,z
loop_
_atom_site_type_symbol
_atom_site_label
_atom_site_fract_x
_atom_site_fract_y
_atom_site_fract_z
Si Si1 0.019439 0.825540 0.561852
Si Si2 0.616366 0.175917 0.196536
Si Si3 0.966473 0.674109 0.122229
Si Si4 0.261354 0.171814 0.829436
Si Si5 0.710754 0.823293 0.619309
Si Si6 0.403501 0.325708 0.934179
Si Si7 0.823115 0.322203 0.605529
O O1 0.090985 0.731020 0.510777
O O2 0.000000 0.783754 0.500000
O O3 0.948870 0.774300 0.691661
O O4 0.035518 0.000000 0.553891
O O5 0.697304 0.224964 0.142028
O O6 0.618062 0.223896 0.110124
O O7 0.599756 0.000000 0.222645
O O8 0.979358 0.500000 0.121177
O O9 0.018808 0.770349 0.117150
O O10 0.877924 0.715908 0.250003
O O11 0.000000 0.712690 0.000000
O O12 0.303204 0.241234 0.710123
O O13 0.277928 0.000000 0.804073
O O14 0.170288 0.203404 0.928493
O O15 0.750000 0.750000 0.500000
O O16 0.763542 0.763097 0.623168
O O17 0.716809 0.000000 0.602053
O O18 0.411489 0.500000 0.904237
O O19 0.816079 0.500000 0.603111
#
# Coordination Sequence:
#
# PCOD8116597 Si02
#       7
#     8   8   8   8   8   8   8
#     4  11  23  39  60  91 126 162 207 256 306 366
#     4  11  22  39  61  87 125 168 209 251 304 369
#     4  10  23  45  69  93 123 164 216 267 320 383
#     4   9  20  38  61  91 125 164 206 250 306 371
#     4  11  25  44  66  94 128 165 212 268 326 383
#     4  11  23  39  62  93 127 161 204 258 313 368
#     4  11  22  40  66  92 123 164 208 254 312 378
#
# _framework density 9.9589090000000002
#
# number of rings (size 3 to 8) (size 9 to 14) (size 15 to 20)
#    0.000    1.429    1.429    3.429    2.000    2.000 
#    0.000    4.286    0.000    0.000    0.000    0.000 
#    0.000    0.000    0.000    0.000    0.000    0.000 
#
# Total GULP energy -346884.780661 kJ/mol
# GULP energy per Si atom -12388.742166 kJ/mol
# Density = 0.993624 g / cm^3
# Si number density = 9.958909 Si / 1000 Ang^3
#
#
#
# Elastic Constant Matrix: (Units=GPa)
#
#
# Indices 1 2 3 4 5 6 
#
# 1 127.3104 39.9257 45.1004 0.0104 -16.1775 -0.0116
# 2 39.9257 73.0678 32.0125 0.0108 -6.0540 -0.0087
# 3 45.1004 32.0125 121.3451 -0.0222 -11.8965 -0.0028
# 4 0.0104 0.0108 -0.0222 45.3486 0.0008 -2.2998
# 5 -16.1775 -6.0540 -11.8965 0.0008 41.5289 0.0058
# 6 -0.0116 -0.0087 -0.0028 -2.2998 0.0058 36.1115
#
#
#
# Elastic Compliance Matrix: (Units=1/GPa)
#
#
# Indices 1 2 3 4 5 6 
#
# 1 0.010454 -0.004411 -0.002455 -0.000003 0.002726 0.000002
# 2 -0.004411 0.017386 -0.002950 -0.000004 -0.000029 0.000002
# 3 -0.002455 -0.002950 0.010079 0.000006 0.001501 -0.000001
# 4 -0.000003 -0.000004 0.000006 0.022123 0.000000 0.001409
# 5 0.002726 -0.000029 0.001501 0.000000 0.025567 -0.000003
# 6 0.000002 0.000002 -0.000001 0.001409 -0.000003 0.027782
#
#
# Mechanical properties :
#
#
# Convention : Reuss Voigt Hill
#
# Bulk Modulus (GPa) = 54.68157 61.75560 58.21859
# Shear Modulus (GPa) = 35.94061 38.24345 37.09203
#
# Velocity S-wave (km/s) = 4.25248 4.38661 4.32007
# Velocity P-wave (km/s) = 7.18503 7.53186 7.36049
#
# Compressibility (1/GPa) = 0.01828770
#
# Stress axis : x y z
#
# Youngs Moduli (GPa) = 95.65609 57.51645 99.21958
#
# Poissons Ratio (x) = 0.25371 0.24353
# Poissons Ratio (y) = 0.42195 0.29271
# Poissons Ratio (z) = 0.23479 0.16968
#
# Static dielectric constant tensor:
#      x y z
#    x -2.070670 -0.001690 -13.123980 
#    y -0.001690 3.669550 -0.003630 
#    z -13.123980 -0.003630 -24.950470 
# 
# 
# High freq. dielectric constant tensor:
#      x y z
#    x 1.786890 0.000000 -0.006870 
#    y 0.000000 1.782370 0.000000 
#    z -0.006870 0.000000 1.805300 
# 
# From -- ./inp_files/292376.got.cif
#   From: 2010.06.25/outbox.ucp.g09.slc.cvg/sg12_147_cif.got.tgz:292376.got - 2010.06.28 13:50:54.
