data_PCOD8116702
_publ_section_title
;
Structure prediction by ZEFSAII (Michael W. Deem and Ramdas Pophale) SiO2 
 PCOD8116702
Probable space group: P 2/C
;
_chemical_formula_sum "Si O2"
_cell_formula_units_Z 20
_cell_length_a 22.929804
_cell_length_b 6.923236
_cell_length_c 5.332028
_cell_angle_alpha 90.000000
_cell_angle_beta 76.555856
_cell_angle_gamma 90.000000
_cell_volume 823.255882
_symmetry_space_group_name_H-M "P 2/C"
_symmetry_group_IT_number 13
_symmetry_cell_setting 'monoclinic'
loop_
_space_group_symop_operation_xyz
x,y,z
-x,y,1/2-z
-x,-y,-z
x,-y,1/2+z
loop_
_atom_site_type_symbol
_atom_site_label
_atom_site_fract_x
_atom_site_fract_y
_atom_site_fract_z
Si Si1 0.025321 0.216656 0.474653
Si Si2 0.846912 0.371758 0.158530
Si Si3 0.717819 0.781360 0.773024
Si Si4 0.332692 0.213168 0.676452
Si Si5 0.525347 0.785255 0.474694
O O1 0.097151 0.225160 0.403054
O O2 0.000000 0.322559 0.250000
O O3 0.000000 0.000000 0.500000
O O4 0.000000 0.322497 0.750000
O O5 0.847817 0.493077 0.413697
O O6 0.789266 0.233731 0.211116
O O7 0.688783 0.678689 0.048025
O O8 0.696599 0.001795 0.783496
O O9 0.692707 0.677862 0.545131
O O10 0.403652 0.205318 0.594398
O O11 0.500000 0.678461 0.250000
O O12 0.500000 0.000000 0.500000
O O13 0.500000 0.678387 0.750000
#
# Coordination Sequence:
#
# PCOD8116702 Si02
#       5
#     4   4   4   4   4
#     4  10  23  42  67  94 120 152 195 239 292 350
#     4  12  26  42  61  87 120 157 198 244 293 348
#     4  10  20  35  54  78 114 150 191 237 289 344
#     4  10  19  32  54  83 114 149 191 241 294 358
#     4  10  16  25  43  74 118 146 173 228 300 370
#
# _framework density 24.293786000000001
#
# number of rings (size 3 to 8) (size 9 to 14) (size 15 to 20)
#    0.000    1.600    0.000    8.400    0.000    8.800 
#    0.000    0.000    0.000    0.000    0.000    0.000 
#    0.000  195.200    0.000    0.000    0.000    0.000 
#
# Total GULP energy -247841.472144 kJ/mol
# GULP energy per Si atom -12392.073607 kJ/mol
# Density = 2.423849 g / cm^3
# Si number density = 24.293786 Si / 1000 Ang^3
#
#
#
# Elastic Constant Matrix: (Units=GPa)
#
#
# Indices 1 2 3 4 5 6 
#
# 1 197.8441 10.5335 45.9516 0.0000 -20.7339 0.0000
# 2 10.5335 51.4787 -20.0737 0.0000 -11.5682 0.0000
# 3 45.9516 -20.0737 223.9029 0.0000 29.8778 0.0000
# 4 0.0000 0.0000 0.0000 -15.4278 0.0000 -8.5335
# 5 -20.7339 -11.5682 29.8778 0.0000 67.1604 0.0000
# 6 0.0000 0.0000 0.0000 -8.5335 0.0000 9.7937
#
#
#
# Elastic Compliance Matrix: (Units=1/GPa)
#
#
# Indices 1 2 3 4 5 6 
#
# 1 0.005729 -0.001286 -0.001592 0.000000 0.002255 0.000000
# 2 -0.001286 0.020938 0.001821 0.000000 0.002399 0.000000
# 3 -0.001592 0.001821 0.005294 0.000000 -0.002533 0.000000
# 4 0.000000 0.000000 0.000000 -0.043738 0.000000 -0.038110
# 5 0.002255 0.002399 -0.002533 0.000000 0.017126 0.000000
# 6 0.000000 0.000000 0.000000 -0.038110 0.000000 0.068900
#
#
# Mechanical properties :
#
#
# Convention : Reuss Voigt Hill
#
# Bulk Modulus (GPa) = 33.50469 60.67208 47.08838
# Shear Modulus (GPa) = 57.92869 41.42619 49.67744
#
# Velocity S-wave (km/s) = 4.88844 4.13391 4.52692
# Velocity P-wave (km/s) = 6.75898 6.91478 6.83732
#
# Compressibility (1/GPa) = 0.02984657
#
# Stress axis : x y z
#
# Youngs Moduli (GPa) = 174.54719 47.76018 188.88454
#
# Poissons Ratio (x) = 0.06143 0.30072
# Poissons Ratio (y) = 0.22451 -0.34395
# Poissons Ratio (z) = 0.27789 -0.08697
#
# Static dielectric constant tensor:
#      x y z
#    x 1.901880 0.000000 -6.786350 
#    y 0.000000 3.456670 0.000000 
#    z -6.786350 0.000000 -14.241120 
# 
# 
# High freq. dielectric constant tensor:
#      x y z
#    x 1.975120 0.000000 0.013440 
#    y 0.000000 1.933880 0.000000 
#    z 0.013440 0.000000 2.011050 
# 
# From -- ./inp_files/6656.got.cif
#   From: 2010.06.25/outbox.cif.g09.slc.cpg/sg13_4_cif.got.tgz:6656.got - 2010.06.28 04:50:58.
