data_PCOD8116957
_publ_section_title
;
Structure prediction by ZEFSAII (Michael W. Deem and Ramdas Pophale) SiO2 
 PCOD8116957
Probable space group: P 2/C
;
_chemical_formula_sum "Si O2"
_cell_formula_units_Z 32
_cell_length_a 13.333832
_cell_length_b 15.275735
_cell_length_c 19.035792
_cell_angle_alpha 90.000000
_cell_angle_beta 25.762567
_cell_angle_gamma 90.000000
_cell_volume 1685.235260
_symmetry_space_group_name_H-M "P 2/C"
_symmetry_group_IT_number 13
_symmetry_cell_setting 'monoclinic'
loop_
_space_group_symop_operation_xyz
x,y,z
-x,y,1/2-z
-x,-y,-z
x,-y,1/2+z
loop_
_atom_site_type_symbol
_atom_site_label
_atom_site_fract_x
_atom_site_fract_y
_atom_site_fract_z
Si Si1 0.457313 0.704308 0.701646
Si Si2 0.446600 0.141897 0.114832
Si Si3 0.985650 0.067756 0.445576
Si Si4 0.721724 0.239216 0.659616
Si Si5 0.021773 0.401473 0.509249
Si Si6 0.107942 0.052524 0.608786
Si Si7 0.958818 0.648882 0.350279
Si Si8 0.742120 0.811436 0.302534
O O1 0.500000 0.751858 0.750000
O O2 0.349082 0.771951 0.715070
O O3 0.282356 0.625267 0.826971
O O4 0.689744 0.668488 0.521965
O O5 0.239065 0.073280 0.249708
O O6 0.664956 0.108630 0.021111
O O7 0.518094 0.161747 0.989518
O O8 0.888944 0.162190 0.527818
O O9 0.000000 0.000000 0.500000
O O10 0.825830 0.028427 0.483876
O O11 0.500000 0.247365 0.750000
O O12 0.648052 0.216793 0.785801
O O13 0.851369 0.333123 0.577733
O O14 0.970338 0.404652 0.625273
O O15 0.000000 0.500000 0.500000
O O16 0.000000 0.019117 0.750000
O O17 0.920423 0.108652 0.683468
O O18 0.000000 0.597914 0.250000
O O19 0.115884 0.735694 0.247486
#
# Coordination Sequence:
#
# PCOD8116957 Si02
#       8
#     4   4   4   4   4   4   4   4
#     4  10  19  33  63  94 117 149 196 251 309 354
#     4  11  22  37  64  86 123 157 209 260 302 360
#     4  12  26  38  56  89 126 166 215 248 298 369
#     4  11  25  42  62  85 125 167 204 252 315 370
#     4  10  23  42  65  90 125 158 204 251 307 383
#     4  10  22  37  59  88 123 161 208 256 301 351
#     4  10  17  34  66  99 119 145 194 259 316 359
#     4  10  19  39  61  91 122 159 202 258 310 355
#
# _framework density 18.988447000000001
#
# number of rings (size 3 to 8) (size 9 to 14) (size 15 to 20)
#    0.000    1.500    5.000    0.375    3.500    4.500 
#    0.000    0.625    2.750    0.000    0.000    0.000 
#    0.000    0.000    0.000    0.000    0.000    0.000 
#
# Total GULP energy -396661.558227 kJ/mol
# GULP energy per Si atom -12395.673695 kJ/mol
# Density = 1.894523 g / cm^3
# Si number density = 18.988447 Si / 1000 Ang^3
#
#
#
# Elastic Constant Matrix: (Units=GPa)
#
#
# Indices 1 2 3 4 5 6 
#
# 1 124.6029 51.5537 51.5684 0.0000 9.8956 0.0000
# 2 51.5537 111.7813 39.1212 0.0000 11.4945 0.0000
# 3 51.5684 39.1212 114.3492 0.0000 13.7905 0.0000
# 4 0.0000 0.0000 0.0000 15.6244 0.0000 2.5777
# 5 9.8956 11.4945 13.7905 0.0000 26.6285 0.0000
# 6 0.0000 0.0000 0.0000 2.5777 0.0000 23.8418
#
#
#
# Elastic Compliance Matrix: (Units=1/GPa)
#
#
# Indices 1 2 3 4 5 6 
#
# 1 0.011162 -0.003805 -0.003659 0.000000 -0.000611 0.000000
# 2 -0.003805 0.011653 -0.001957 0.000000 -0.002603 0.000000
# 3 -0.003659 -0.001957 0.011518 0.000000 -0.003761 0.000000
# 4 0.000000 0.000000 0.000000 0.065165 0.000000 -0.007045
# 5 -0.000611 -0.002603 -0.003761 0.000000 0.040852 0.000000
# 6 0.000000 0.000000 0.000000 -0.007045 0.000000 0.042705
#
#
# Mechanical properties :
#
#
# Convention : Reuss Voigt Hill
#
# Bulk Modulus (GPa) = 64.54523 70.58001 67.56262
# Shear Modulus (GPa) = 24.14748 27.11828 25.63288
#
# Velocity S-wave (km/s) = 3.56995 3.78318 3.67811
# Velocity P-wave (km/s) = 7.14551 7.50559 7.32777
#
# Compressibility (1/GPa) = 0.01549301
#
# Stress axis : x y z
#
# Youngs Moduli (GPa) = 89.58659 85.81160 86.81963
#
# Poissons Ratio (x) = 0.32650 0.31763
# Poissons Ratio (y) = 0.34086 0.16991
# Poissons Ratio (z) = 0.32775 0.16794
#
# Static dielectric constant tensor:
#      x y z
#    x 3.527860 0.000000 0.156880 
#    y 0.000000 3.233570 0.000000 
#    z 0.156880 0.000000 3.603080 
# 
# 
# High freq. dielectric constant tensor:
#      x y z
#    x 1.739920 0.000000 0.014660 
#    y 0.000000 1.711390 0.000000 
#    z 0.014660 0.000000 1.744460 
# 
# From -- ./inp_files/66893.got.cif
#   From: 2010.06.25/outbox.cif.g09.slc.cpg/sg13_34_cif.got.tgz:66893.got - 2010.06.28 04:50:58.
