data_PCOD8116993
_publ_section_title
;
Structure prediction by ZEFSAII (Michael W. Deem and Ramdas Pophale) SiO2 
 PCOD8116993
Probable space group: P 2/C
;
_chemical_formula_sum "Si O2"
_cell_formula_units_Z 26
_cell_length_a 11.339500
_cell_length_b 8.205877
_cell_length_c 14.682527
_cell_angle_alpha 90.000000
_cell_angle_beta 121.155447
_cell_angle_gamma 90.000000
_cell_volume 1169.163259
_symmetry_space_group_name_H-M "P 2/C"
_symmetry_group_IT_number 13
_symmetry_cell_setting 'monoclinic'
loop_
_space_group_symop_operation_xyz
x,y,z
-x,y,1/2-z
-x,-y,-z
x,-y,1/2+z
loop_
_atom_site_type_symbol
_atom_site_label
_atom_site_fract_x
_atom_site_fract_y
_atom_site_fract_z
Si Si1 0.762686 0.858197 0.039287
Si Si2 0.657318 0.033642 0.823926
Si Si3 0.000000 0.639012 0.750000
Si Si4 0.513457 0.803621 0.501049
Si Si5 0.612279 0.373056 0.860326
Si Si6 0.112123 0.543543 0.468101
Si Si7 0.224767 0.118062 0.302871
O O1 0.714813 0.983372 0.944041
O O2 0.633045 0.741963 0.017953
O O3 0.881400 0.738181 0.048448
O O4 0.815229 0.974146 0.142104
O O5 0.500000 0.974381 0.750000
O O6 0.752573 0.960746 0.785035
O O7 0.673164 0.228234 0.822469
O O8 0.924699 0.534144 0.643252
O O9 0.895768 0.754939 0.761332
O O10 0.533931 0.718036 0.412198
O O11 0.645908 0.768101 0.615861
O O12 0.500000 0.000000 0.500000
O O13 0.500000 0.466056 0.750000
O O14 0.735421 0.490556 0.938614
O O15 0.000000 0.500000 0.500000
#
# Coordination Sequence:
#
# PCOD8116993 Si02
#       7
#     4   4   2   4   4   4   4
#     4  11  22  41  68 101 132 173 228 280 338 403
#     4  11  19  36  70 100 130 169 218 292 341 383
#     4  12  26  48  66  90 144 190 224 276 336 404
#     4  10  17  39  68  99 130 157 220 291 329 383
#     4  11  22  42  69 102 138 177 225 283 343 398
#     4  12  29  48  64  96 148 187 224 274 338 419
#     4  11  22  41  68  99 129 175 232 280 329 396
#
# _framework density 22.238125
#
# number of rings (size 3 to 8) (size 9 to 14) (size 15 to 20)
#    0.000    0.923    6.154    3.692    0.000    5.538 
#    2.769    3.077    0.000    0.000    0.000    0.000 
#    0.000    0.000    0.000    0.000    0.000    0.000 
#
# Total GULP energy -322244.920255 kJ/mol
# GULP energy per Si atom -12394.035394 kJ/mol
# Density = 2.218751 g / cm^3
# Si number density = 22.238125 Si / 1000 Ang^3
#
#
#
# Elastic Constant Matrix: (Units=GPa)
#
#
# Indices 1 2 3 4 5 6 
#
# 1 60.7984 20.6413 21.9765 0.0000 -3.7332 0.0000
# 2 20.6413 54.6660 11.4150 0.0000 10.0972 0.0000
# 3 21.9765 11.4150 98.4998 0.0000 6.2402 0.0000
# 4 0.0000 0.0000 0.0000 5.7281 0.0000 3.0590
# 5 -3.7332 10.0972 6.2402 0.0000 37.8097 0.0000
# 6 0.0000 0.0000 0.0000 3.0590 0.0000 30.0861
#
#
#
# Elastic Compliance Matrix: (Units=1/GPa)
#
#
# Indices 1 2 3 4 5 6 
#
# 1 0.020908 -0.007945 -0.004052 0.000000 0.004855 0.000000
# 2 -0.007945 0.022629 -0.000422 0.000000 -0.006758 0.000000
# 3 -0.004052 -0.000422 0.011241 0.000000 -0.002143 0.000000
# 4 0.000000 0.000000 0.000000 0.184601 0.000000 -0.018769
# 5 0.004855 -0.006758 -0.002143 0.000000 0.029086 0.000000
# 6 0.000000 0.000000 0.000000 -0.018769 0.000000 0.035146
#
#
# Mechanical properties :
#
#
# Convention : Reuss Voigt Hill
#
# Bulk Modulus (GPa) = 33.39906 35.78108 34.59007
# Shear Modulus (GPa) = 14.77415 25.38688 20.08052
#
# Velocity S-wave (km/s) = 2.58032 3.38241 3.00822
# Velocity P-wave (km/s) = 4.89171 5.60171 5.25871
#
# Compressibility (1/GPa) = 0.02994096
#
# Stress axis : x y z
#
# Youngs Moduli (GPa) = 47.82886 44.19058 88.96103
#
# Poissons Ratio (x) = 0.35111 0.36043
# Poissons Ratio (y) = 0.38001 0.03751
# Poissons Ratio (z) = 0.19378 0.01863
#
# Static dielectric constant tensor:
#      x y z
#    x 4.559840 0.000000 0.078570 
#    y 0.000000 3.860860 0.000000 
#    z 0.078570 0.000000 4.194190 
# 
# 
# High freq. dielectric constant tensor:
#      x y z
#    x 1.873460 0.000000 -0.006320 
#    y 0.000000 1.858130 0.000000 
#    z -0.006320 0.000000 1.887870 
# 
# From -- ./inp_files/50162.got.cif
#   From: 2010.06.25/outbox.cif.g09.slc.cpg/sg13_26_cif.got.tgz:50162.got - 2010.06.28 04:50:58.
