data_PCOD8116068
_publ_section_title
;
Structure prediction by ZEFSAII (Michael W. Deem and Ramdas Pophale) SiO2 
 PCOD8116068
Probable space group: C 2/M
;
_chemical_formula_sum "Si O2"
_cell_formula_units_Z 40
_cell_length_a 27.433237
_cell_length_b 9.331243
_cell_length_c 10.333381
_cell_angle_alpha 90.000000
_cell_angle_beta 92.082442
_cell_angle_gamma 90.000000
_cell_volume 2643.455988
_symmetry_space_group_name_H-M "C 2/M"
_symmetry_group_IT_number 12
_symmetry_cell_setting 'monoclinic'
loop_
_space_group_symop_operation_xyz
x,y,z
-x,y,-z
-x,-y,-z
x,-y,z
1/2+x,1/2+y,z
1/2-x,1/2+y,-z
1/2-x,1/2-y,-z
1/2+x,1/2-y,z
loop_
_atom_site_type_symbol
_atom_site_label
_atom_site_fract_x
_atom_site_fract_y
_atom_site_fract_z
Si Si1 0.868642 0.830844 0.647975
Si Si2 0.148983 0.661850 0.590537
Si Si3 0.190541 0.166160 0.105841
Si Si4 0.802328 0.332544 0.144138
Si Si5 0.552035 0.161970 0.462131
O O1 0.835176 0.761609 0.529943
O O2 0.845328 0.789121 0.782390
O O3 0.923274 0.761788 0.646783
O O4 0.871311 0.000000 0.627501
O O5 0.168998 0.500000 0.570633
O O6 0.170207 0.725362 0.725508
O O7 0.089451 0.660977 0.588493
O O8 0.245415 0.204736 0.153855
O O9 0.185826 0.000000 0.071439
O O10 0.174929 0.253552 0.977515
O O11 0.811707 0.500000 0.126164
O O12 0.500000 0.226835 0.500000
O O13 0.544964 0.000000 0.407665
#
# Coordination Sequence:
#
# PCOD8116068 Si02
#       5
#     8   8   8   8   8
#     4   9  17  28  43  66  91 114 141 176 218 258
#     4   8  16  29  44  65  87 111 146 183 214 249
#     4   9  18  30  43  63  91 119 146 177 212 253
#     4   9  17  30  46  62  86 120 151 178 210 250
#     4   8  15  29  47  65  86 111 141 179 219 256
#
# _framework density 15.131707
#
# number of rings (size 3 to 8) (size 9 to 14) (size 15 to 20)
#    1.200    2.200    0.000    0.000    0.000    3.600 
#    0.000    0.000    0.000    1.200    0.000    8.400 
#    0.000    0.000    0.000    0.000    0.000    0.000 
#
# Total GULP energy -247773.309002 kJ/mol
# GULP energy per Si atom -12388.665450 kJ/mol
# Density = 1.509727 g / cm^3
# Si number density = 15.131707 Si / 1000 Ang^3
#
#
#
# Elastic Constant Matrix: (Units=GPa)
#
#
# Indices 1 2 3 4 5 6 
#
# 1 58.5531 27.9032 36.5874 0.0000 -22.9414 0.0000
# 2 27.9032 58.4964 47.5564 0.0000 -16.3061 0.0000
# 3 36.5874 47.5564 89.4390 0.0000 -26.9860 0.0000
# 4 0.0000 0.0000 0.0000 28.3847 0.0000 -3.5917
# 5 -22.9414 -16.3061 -26.9860 0.0000 19.3119 0.0000
# 6 0.0000 0.0000 0.0000 -3.5917 0.0000 18.8094
#
#
#
# Elastic Compliance Matrix: (Units=1/GPa)
#
#
# Indices 1 2 3 4 5 6 
#
# 1 0.033702 -0.006525 0.000173 0.000000 0.034769 0.000000
# 2 -0.006525 0.031689 -0.014603 0.000000 -0.001400 0.000000
# 3 0.000173 -0.014603 0.026309 0.000000 0.024639 0.000000
# 4 0.000000 0.000000 0.000000 0.036103 0.000000 0.006894
# 5 0.034769 -0.001400 0.024639 0.000000 0.126333 0.000000
# 6 0.000000 0.000000 0.000000 0.006894 0.000000 0.054481
#
#
# Mechanical properties :
#
#
# Convention : Reuss Voigt Hill
#
# Bulk Modulus (GPa) = 20.08394 47.84248 33.96321
# Shear Modulus (GPa) = 13.61937 19.59729 16.60833
#
# Velocity S-wave (km/s) = 3.00335 3.60267 3.31658
# Velocity P-wave (km/s) = 5.03273 6.99941 6.09590
#
# Compressibility (1/GPa) = 0.04979103
#
# Stress axis : x y z
#
# Youngs Moduli (GPa) = 29.67147 31.55648 38.01012
#
# Poissons Ratio (x) = 0.20591 -0.00659
# Poissons Ratio (y) = 0.19361 0.55506
# Poissons Ratio (z) = -0.00515 0.46082
#
# Static dielectric constant tensor:
#      x y z
#    x 2.770910 0.000000 -0.006480 
#    y 0.000000 2.870620 0.000000 
#    z -0.006480 0.000000 2.809310 
# 
# 
# High freq. dielectric constant tensor:
#      x y z
#    x 1.558140 0.000000 -0.002920 
#    y 0.000000 1.581390 0.000000 
#    z -0.002920 0.000000 1.562830 
# 
# From -- ./inp_files/101640.got.cif
#   From: 2010.06.25/outbox.cif.g09.slc.cpg/sg12_51_cif.got.tgz:101640.got - 2010.06.28 00:19:55.
