data_PCOD8116029
_publ_section_title
;
Structure prediction by ZEFSAII (Michael W. Deem and Ramdas Pophale) SiO2 
 PCOD8116029
Probable space group: C 2/M
;
_chemical_formula_sum "Si O2"
_cell_formula_units_Z 48
_cell_length_a 9.123960
_cell_length_b 31.030049
_cell_length_c 20.745157
_cell_angle_alpha 90.000000
_cell_angle_beta 28.405240
_cell_angle_gamma 90.000000
_cell_volume 2793.958568
_symmetry_space_group_name_H-M "C 2/M"
_symmetry_group_IT_number 12
_symmetry_cell_setting 'monoclinic'
loop_
_space_group_symop_operation_xyz
x,y,z
-x,y,-z
-x,-y,-z
x,-y,z
1/2+x,1/2+y,z
1/2-x,1/2+y,-z
1/2-x,1/2-y,-z
1/2+x,1/2-y,z
loop_
_atom_site_type_symbol
_atom_site_label
_atom_site_fract_x
_atom_site_fract_y
_atom_site_fract_z
Si Si1 0.487785 0.208490 0.838734
Si Si2 0.984930 0.877033 0.843674
Si Si3 0.359612 0.877033 0.156337
Si Si4 0.022293 0.047790 0.651796
Si Si5 0.870486 0.547790 0.651812
Si Si6 0.842737 0.208490 0.161263
O O1 0.668646 0.165542 0.789285
O O2 0.436102 0.208537 0.781945
O O3 0.690841 0.250000 0.779576
O O4 0.165382 0.210396 0.999998
O O5 0.855790 0.869987 0.822103
O O6 0.219331 0.917241 0.757824
O O7 0.174186 0.834458 0.789293
O O8 0.709473 0.886349 0.000006
O O9 0.250592 0.917241 0.242196
O O10 0.185635 0.047701 0.657181
O O11 0.272789 0.059644 0.499989
O O12 0.884817 0.000000 0.691603
O O13 0.848714 0.500000 0.691628
#
# Coordination Sequence:
#
# PCOD8116029 Si02
#       6
#     8   8   8   8   8   8
#     4   9  16  26  41  61  86 114 141 170 207 251
#     4   9  16  25  40  64  89 110 137 175 213 245
#     4   9  16  25  40  64  89 110 137 175 213 245
#     4   8  14  25  41  61  85 113 143 173 207 248
#     4   8  14  25  41  61  85 113 143 173 207 248
#     4   9  16  26  41  61  86 114 141 170 207 251
#
# _framework density 17.179925000000001
#
# number of rings (size 3 to 8) (size 9 to 14) (size 15 to 20)
#    0.000    3.333    0.000    2.000    0.000    4.667 
#    0.000    3.333    0.000    3.000    0.000    7.000 
#    0.000    0.000    0.000    0.000    0.000    0.000 
#
# Total GULP energy -297486.907835 kJ/mol
# GULP energy per Si atom -12395.287826 kJ/mol
# Density = 1.714082 g / cm^3
# Si number density = 17.179925 Si / 1000 Ang^3
#
#
#
# Elastic Constant Matrix: (Units=GPa)
#
#
# Indices 1 2 3 4 5 6 
#
# 1 60.1886 55.9196 25.8866 0.0002 -0.1944 0.0000
# 2 55.9196 191.8161 74.7254 0.0002 0.1697 0.0000
# 3 25.8866 74.7254 59.1330 0.0043 0.1817 0.0001
# 4 0.0002 0.0002 0.0043 8.8265 0.0000 -0.1368
# 5 -0.1944 0.1697 0.1817 0.0000 6.7416 0.0003
# 6 0.0000 0.0000 0.0001 -0.1368 0.0003 23.4369
#
#
#
# Elastic Compliance Matrix: (Units=1/GPa)
#
#
# Indices 1 2 3 4 5 6 
#
# 1 0.023086 -0.005501 -0.003158 0.000001 0.000889 0.000000
# 2 -0.005501 0.011579 -0.012224 0.000006 -0.000121 0.000000
# 3 -0.003158 -0.012224 0.033743 -0.000016 -0.000693 0.000000
# 4 0.000001 0.000006 -0.000016 0.113305 0.000001 0.000661
# 5 0.000889 -0.000121 -0.000693 0.000001 0.148379 -0.000002
# 6 0.000000 0.000000 0.000000 0.000661 -0.000002 0.042672
#
#
# Mechanical properties :
#
#
# Convention : Reuss Voigt Hill
#
# Bulk Modulus (GPa) = 37.53346 69.35564 53.44455
# Shear Modulus (GPa) = 11.80889 18.10810 14.95849
#
# Velocity S-wave (km/s) = 2.62461 3.25010 2.95396
# Velocity P-wave (km/s) = 5.57490 7.38526 6.54299
#
# Compressibility (1/GPa) = 0.02664289
#
# Stress axis : x y z
#
# Youngs Moduli (GPa) = 43.31605 86.36255 29.63611
#
# Poissons Ratio (x) = 0.47507 0.09358
# Poissons Ratio (y) = 0.23828 0.36227
# Poissons Ratio (z) = 0.13678 1.05568
#
# Static dielectric constant tensor:
#      x y z
#    x 2.955960 0.000000 0.000120 
#    y 0.000000 3.574650 0.000010 
#    z 0.000120 0.000010 2.973190 
# 
# 
# High freq. dielectric constant tensor:
#      x y z
#    x 1.630400 0.000000 -0.000090 
#    y 0.000000 1.679180 0.000000 
#    z -0.000090 0.000000 1.621040 
# 
# From -- ./inp_files/178603.got.cif
#   From: 2010.06.25/outbox.cif.g09.slc.cpg/sg12_90_cif.got.tgz:178603.got - 2010.06.28 00:19:55.
