data_PCOD8116075
_publ_section_title
;
Structure prediction by ZEFSAII (Michael W. Deem and Ramdas Pophale) SiO2 
 PCOD8116075
Probable space group: C 2/M
;
_chemical_formula_sum "Si O2"
_cell_formula_units_Z 40
_cell_length_a 23.963584
_cell_length_b 13.173531
_cell_length_c 9.961298
_cell_angle_alpha 90.000000
_cell_angle_beta 114.562451
_cell_angle_gamma 90.000000
_cell_volume 2860.070719
_symmetry_space_group_name_H-M "C 2/M"
_symmetry_group_IT_number 12
_symmetry_cell_setting 'monoclinic'
loop_
_space_group_symop_operation_xyz
x,y,z
-x,y,-z
-x,-y,-z
x,-y,z
1/2+x,1/2+y,z
1/2-x,1/2+y,-z
1/2-x,1/2-y,-z
1/2+x,1/2-y,z
loop_
_atom_site_type_symbol
_atom_site_label
_atom_site_fract_x
_atom_site_fract_y
_atom_site_fract_z
Si Si1 0.331364 0.274447 0.478409
Si Si2 0.207926 0.383823 0.052404
Si Si3 0.668636 0.725553 0.815681
Si Si4 0.792074 0.383823 0.636552
Si Si5 0.930254 0.879764 0.430254
O O1 0.314739 0.227288 0.314739
O O2 0.277840 0.352818 0.467134
O O3 0.338090 0.185197 0.594184
O O4 0.395467 0.336682 0.528642
O O5 0.198631 0.500000 0.000728
O O6 0.277840 0.352818 0.088547
O O7 0.191737 0.367465 0.191737
O O8 0.161910 0.314804 0.918003
O O9 0.604533 0.663319 0.737708
O O10 0.801370 0.500000 0.603468
O O11 0.000000 0.840945 0.500000
O O12 0.926493 0.000000 0.426492
#
# Coordination Sequence:
#
# PCOD8116075 Si02
#       5
#     8   8   8   8   8
#     4   8  16  26  40  65  86 108 142 176 207 246
#     4   9  15  25  42  62  89 116 134 168 216 257
#     4   8  16  26  40  65  86 108 142 176 207 246
#     4   9  15  25  42  62  89 116 134 168 216 257
#     4   9  16  28  47  65  83 111 143 176 214 250
#
# _framework density 13.985668
#
# number of rings (size 3 to 8) (size 9 to 14) (size 15 to 20)
#    1.200    2.200    0.000    1.200    0.000    0.800 
#    0.000    0.000    0.000    7.200    0.000    5.600 
#    0.000    0.000    0.000    0.000    0.000    0.000 
#
# Total GULP energy -247763.607509 kJ/mol
# GULP energy per Si atom -12388.180375 kJ/mol
# Density = 1.395384 g / cm^3
# Si number density = 13.985668 Si / 1000 Ang^3
#
#
#
# Elastic Constant Matrix: (Units=GPa)
#
#
# Indices 1 2 3 4 5 6 
#
# 1 79.9541 43.0793 29.5933 0.0000 9.0228 0.0000
# 2 43.0793 104.9029 52.3553 0.0000 -3.2601 0.0000
# 3 29.5933 52.3553 53.1287 0.0000 0.4065 0.0000
# 4 0.0000 0.0000 0.0000 28.3612 0.0000 -2.9259
# 5 9.0228 -3.2601 0.4065 0.0000 15.3742 0.0000
# 6 0.0000 0.0000 0.0000 -2.9259 0.0000 20.0370
#
#
#
# Elastic Compliance Matrix: (Units=1/GPa)
#
#
# Indices 1 2 3 4 5 6 
#
# 1 0.018675 -0.005702 -0.004691 0.000000 -0.012045 0.000000
# 2 -0.005702 0.020811 -0.017395 0.000000 0.008220 0.000000
# 3 -0.004691 -0.017395 0.038592 0.000000 -0.001956 0.000000
# 4 0.000000 0.000000 0.000000 0.035799 0.000000 0.005227
# 5 -0.012045 0.008220 -0.001956 0.000000 0.073908 0.000000
# 6 0.000000 0.000000 0.000000 0.005227 0.000000 0.050671
#
#
# Mechanical properties :
#
#
# Convention : Reuss Voigt Hill
#
# Bulk Modulus (GPa) = 44.44049 54.22685 49.33367
# Shear Modulus (GPa) = 16.58193 20.28497 18.43345
#
# Velocity S-wave (km/s) = 3.44704 3.81256 3.63440
# Velocity P-wave (km/s) = 6.90562 7.63139 7.27756
#
# Compressibility (1/GPa) = 0.02250200
#
# Stress axis : x y z
#
# Youngs Moduli (GPa) = 53.54726 48.05067 25.91221
#
# Poissons Ratio (x) = 0.27400 0.12155
# Poissons Ratio (y) = 0.30535 0.45074
# Poissons Ratio (z) = 0.25118 0.83584
#
# Static dielectric constant tensor:
#      x y z
#    x 2.555800 0.000000 -0.032570 
#    y 0.000000 2.709250 0.000000 
#    z -0.032570 0.000000 2.648470 
# 
# 
# High freq. dielectric constant tensor:
#      x y z
#    x 1.502480 0.000000 -0.005050 
#    y 0.000000 1.533050 0.000000 
#    z -0.005050 0.000000 1.516860 
# 
# From -- ./inp_files/84682.got.cif
#   From: 2010.06.25/outbox.cif.g09.slc.cpg/sg12_43_cif.got.tgz:84682.got - 2010.06.28 00:19:55.
