data_PCOD8116799
_publ_section_title
;
Structure prediction by ZEFSAII (Michael W. Deem and Ramdas Pophale) SiO2 
 PCOD8116799
Probable space group: P 2/C
;
_chemical_formula_sum "Si O2"
_cell_formula_units_Z 30
_cell_length_a 15.717286
_cell_length_b 11.960086
_cell_length_c 12.641819
_cell_angle_alpha 90.000000
_cell_angle_beta 39.452428
_cell_angle_gamma 90.000000
_cell_volume 1510.059818
_symmetry_space_group_name_H-M "P 2/C"
_symmetry_group_IT_number 13
_symmetry_cell_setting 'monoclinic'
loop_
_space_group_symop_operation_xyz
x,y,z
-x,y,1/2-z
-x,-y,-z
x,-y,1/2+z
loop_
_atom_site_type_symbol
_atom_site_label
_atom_site_fract_x
_atom_site_fract_y
_atom_site_fract_z
Si Si1 0.312907 0.881386 0.366839
Si Si2 0.062022 0.902494 0.299165
Si Si3 0.508170 0.603075 0.069187
Si Si4 0.656640 0.033678 0.973249
Si Si5 0.000000 0.326870 0.250000
Si Si6 0.022088 0.861228 0.566474
Si Si7 0.706336 0.361191 0.556370
Si Si8 0.465139 0.154043 0.020083
O O1 0.340312 0.991375 0.409303
O O2 0.178543 0.890447 0.427694
O O3 0.302922 0.772585 0.453065
O O4 0.437079 0.872452 0.171036
O O5 0.988340 0.851037 0.473229
O O6 0.000000 0.852775 0.250000
O O7 0.219812 0.879841 0.157020
O O8 0.057030 0.037830 0.302855
O O9 0.361073 0.615177 0.264299
O O10 0.621467 0.576642 0.047824
O O11 0.556436 0.712506 0.956604
O O12 0.500000 0.500000 0.000000
O O13 0.527564 0.110971 0.070718
O O14 0.662426 0.925562 0.886115
O O15 0.978603 0.252199 0.165677
O O16 0.863610 0.399536 0.398718
#
# Coordination Sequence:
#
# PCOD8116799 Si02
#       8
#     4   4   4   4   2   4   4   4
#     4  10  16  33  51  78 112 145 198 235 277 335
#     4  11  19  30  44  72 114 163 192 228 290 345
#     4  10  20  38  63  85 114 151 196 249 301 357
#     4  11  19  30  50  79 116 144 192 232 278 337
#     4  10  18  36  60  90 108 140 210 256 284 334
#     4  10  19  28  48  75 111 151 196 243 271 345
#     4   9  19  35  63  90 107 145 198 248 291 344
#     4  10  21  32  52  80 109 151 191 238 290 342
#
# _framework density 19.866762999999999
#
# number of rings (size 3 to 8) (size 9 to 14) (size 15 to 20)
#    0.000    1.867    4.667    1.200    0.000    0.000 
#    0.000    0.667   11.733    0.000    1.733    0.000 
#    0.000    0.000    0.000    0.000    0.000    0.000 
#
# Total GULP energy -371765.064789 kJ/mol
# GULP energy per Si atom -12392.168826 kJ/mol
# Density = 1.982155 g / cm^3
# Si number density = 19.866763 Si / 1000 Ang^3
#
#
#
# Elastic Constant Matrix: (Units=GPa)
#
#
# Indices 1 2 3 4 5 6 
#
# 1 103.4944 22.4532 36.1120 0.0000 9.9629 0.0000
# 2 22.4532 65.8557 10.4387 0.0000 8.9408 0.0000
# 3 36.1120 10.4387 65.0984 0.0000 -3.1530 0.0000
# 4 0.0000 0.0000 0.0000 20.2279 0.0000 7.4996
# 5 9.9629 8.9408 -3.1530 0.0000 39.7512 0.0000
# 6 0.0000 0.0000 0.0000 7.4996 0.0000 26.5462
#
#
#
# Elastic Compliance Matrix: (Units=1/GPa)
#
#
# Indices 1 2 3 4 5 6 
#
# 1 0.013005 -0.002912 -0.006900 0.000000 -0.003152 0.000000
# 2 -0.002912 0.016800 -0.001231 0.000000 -0.003146 0.000000
# 3 -0.006900 -0.001231 0.019559 0.000000 0.003558 0.000000
# 4 0.000000 0.000000 0.000000 0.055221 0.000000 -0.015600
# 5 -0.003152 -0.003146 0.003558 0.000000 0.026936 0.000000
# 6 0.000000 0.000000 0.000000 -0.015600 0.000000 0.042077
#
#
# Mechanical properties :
#
#
# Convention : Reuss Voigt Hill
#
# Bulk Modulus (GPa) = 36.66025 41.38404 39.02214
# Shear Modulus (GPa) = 24.41681 28.33469 26.37575
#
# Velocity S-wave (km/s) = 3.50955 3.78065 3.64762
# Velocity P-wave (km/s) = 5.90895 6.31932 6.11758
#
# Compressibility (1/GPa) = 0.02727750
#
# Stress axis : x y z
#
# Youngs Moduli (GPa) = 76.89211 59.52401 51.12824
#
# Poissons Ratio (x) = 0.17336 0.35279
# Poissons Ratio (y) = 0.22395 0.06292
# Poissons Ratio (z) = 0.53056 0.07325
#
# Static dielectric constant tensor:
#      x y z
#    x 3.951280 0.000000 -0.201510 
#    y 0.000000 3.138710 0.000000 
#    z -0.201510 0.000000 3.611560 
# 
# 
# High freq. dielectric constant tensor:
#      x y z
#    x 1.787350 0.000000 -0.004300 
#    y 0.000000 1.704030 0.000000 
#    z -0.004300 0.000000 1.768520 
# 
# From -- ./inp_files/37159.got.cif
#   From: 2010.06.25/outbox.cif.g09.slc.cpg/sg13_19_cif.got.tgz:37159.got - 2010.06.28 04:50:58.
