data_PCOD8116066
_publ_section_title
;
Structure prediction by ZEFSAII (Michael W. Deem and Ramdas Pophale) SiO2 
 PCOD8116066
Probable space group: C 2/M
;
_chemical_formula_sum "Si O2"
_cell_formula_units_Z 28
_cell_length_a 7.223472
_cell_length_b 23.330716
_cell_length_c 11.461023
_cell_angle_alpha 90.000000
_cell_angle_beta 59.168481
_cell_angle_gamma 90.000000
_cell_volume 1658.547160
_symmetry_space_group_name_H-M "C 2/M"
_symmetry_group_IT_number 12
_symmetry_cell_setting 'monoclinic'
loop_
_space_group_symop_operation_xyz
x,y,z
-x,y,-z
-x,-y,-z
x,-y,z
1/2+x,1/2+y,z
1/2-x,1/2+y,-z
1/2-x,1/2-y,-z
1/2+x,1/2-y,z
loop_
_atom_site_type_symbol
_atom_site_label
_atom_site_fract_x
_atom_site_fract_y
_atom_site_fract_z
Si Si1 0.725319 0.179176 0.887316
Si Si2 0.163176 0.000000 0.660783
Si Si3 0.129841 0.907455 0.340151
Si Si4 0.500000 0.289530 0.000000
Si Si5 0.075822 0.500000 0.660404
O O1 0.806811 0.152321 0.740177
O O2 0.903384 0.169799 0.930979
O O3 0.500000 0.149475 0.000000
O O4 0.687383 0.248001 0.884589
O O5 0.316395 0.000000 0.726056
O O6 0.308113 0.000000 0.500173
O O7 0.015021 0.056619 0.704676
O O8 0.000000 0.893718 0.500000
O O9 0.347848 0.943110 0.296065
#
# Coordination Sequence:
#
# PCOD8116066 Si02
#       5
#     8   4   8   4   4
#     4   9  17  33  51  66  88 125 157 185 229 277
#     4   8  15  29  44  68  98 126 148 176 224 284
#     4   9  17  29  49  73  94 117 152 192 226 265
#     4   8  18  34  52  62  88 128 160 180 228 284
#     4   8  15  29  46  65  98 129 147 174 228 281
#
# _framework density 16.882245000000001
#
# number of rings (size 3 to 8) (size 9 to 14) (size 15 to 20)
#    0.857    2.571    0.000    1.714    0.000    2.286 
#    0.000    4.286    0.000    5.143    0.000    0.000 
#    0.000    0.000    0.000    0.000    0.000    0.000 
#
# Total GULP energy -173442.146550 kJ/mol
# GULP energy per Si atom -12388.724754 kJ/mol
# Density = 1.684382 g / cm^3
# Si number density = 16.882245 Si / 1000 Ang^3
#
#
#
# Elastic Constant Matrix: (Units=GPa)
#
#
# Indices 1 2 3 4 5 6 
#
# 1 148.6128 28.8849 32.9155 0.0000 12.4944 0.0000
# 2 28.8849 57.7082 41.1890 0.0000 11.4236 0.0000
# 3 32.9155 41.1890 68.5333 0.0000 7.4495 0.0000
# 4 0.0000 0.0000 0.0000 24.9405 0.0000 10.0342
# 5 12.4944 11.4236 7.4495 0.0000 16.9398 0.0000
# 6 0.0000 0.0000 0.0000 10.0342 0.0000 9.6529
#
#
#
# Elastic Compliance Matrix: (Units=1/GPa)
#
#
# Indices 1 2 3 4 5 6 
#
# 1 0.007877 -0.001384 -0.002543 0.000000 -0.003759 0.000000
# 2 -0.001384 0.033619 -0.018050 0.000000 -0.013713 0.000000
# 3 -0.002543 -0.018050 0.026396 0.000000 0.002440 0.000000
# 4 0.000000 0.000000 0.000000 0.068918 0.000000 -0.071641
# 5 -0.003759 -0.013713 0.002440 0.000000 0.069980 0.000000
# 6 0.000000 0.000000 0.000000 -0.071641 0.000000 0.178067
#
#
# Mechanical properties :
#
#
# Convention : Reuss Voigt Hill
#
# Bulk Modulus (GPa) = 41.77419 53.42590 47.60004
# Shear Modulus (GPa) = 11.44716 21.76430 16.60573
#
# Velocity S-wave (km/s) = 2.60678 3.59441 3.13968
# Velocity P-wave (km/s) = 5.81881 6.99581 6.43428
#
# Compressibility (1/GPa) = 0.02393823
#
# Stress axis : x y z
#
# Youngs Moduli (GPa) = 126.95065 29.74525 37.88472
#
# Poissons Ratio (x) = 0.04115 0.09635
# Poissons Ratio (y) = 0.17564 0.68382
# Poissons Ratio (z) = 0.32286 0.53690
#
# Static dielectric constant tensor:
#      x y z
#    x 3.806480 0.000000 -0.039920 
#    y 0.000000 2.794030 0.000000 
#    z -0.039920 0.000000 2.666440 
# 
# 
# High freq. dielectric constant tensor:
#      x y z
#    x 1.670830 0.000000 0.001940 
#    y 0.000000 1.620940 0.000000 
#    z 0.001940 0.000000 1.606030 
# 
# From -- ./inp_files/121016.got.cif
#   From: 2010.06.25/outbox.cif.g09.slc.cpg/sg12_61_cif.got.tgz:121016.got - 2010.06.28 00:19:55.
