data_PCOD8116244
_publ_section_title
;
Structure prediction by ZEFSAII (Michael W. Deem and Ramdas Pophale) SiO2 
 PCOD8116244
Probable space group: C 2/M
;
_chemical_formula_sum "Si O2"
_cell_formula_units_Z 20
_cell_length_a 15.000000
_cell_length_b 27.000000
_cell_length_c 15.000000
_cell_angle_alpha 90.000000
_cell_angle_beta 160.000000
_cell_angle_gamma 90.000000
_cell_volume 2077.772371
_symmetry_space_group_name_H-M "C 2/M"
_symmetry_group_IT_number 12
_symmetry_cell_setting 'monoclinic'
loop_
_space_group_symop_operation_xyz
x,y,z
-x,y,-z
-x,-y,-z
x,-y,z
1/2+x,1/2+y,z
1/2-x,1/2+y,-z
1/2-x,1/2-y,-z
1/2+x,1/2-y,z
loop_
_atom_site_type_symbol
_atom_site_label
_atom_site_fract_x
_atom_site_fract_y
_atom_site_fract_z
Si Si1 0.231744 0.715164 0.397961
Si Si2 0.176984 0.942599 0.974281
Si Si3 0.130297 0.587679 0.531626
Si Si4 0.612767 0.311902 0.203456
Si Si5 0.689323 0.660428 0.908031
O O1 0.250000 0.750000 0.500000
O O2 0.225340 0.755303 0.310653
O O3 0.488533 0.680091 0.642655
O O4 0.978060 0.679929 0.156738
O O5 0.172461 0.900213 0.892192
O O6 0.915733 0.937000 0.788381
O O7 0.192474 0.000000 0.953454
O O8 0.439026 0.929957 0.274278
O O9 0.161690 0.647729 0.561923
O O10 0.000000 0.568578 0.500000
O O11 0.386251 0.318434 0.064997
O O12 0.500000 0.323840 0.000000
#
# Coordination Sequence:
#
# PCOD8116244 Si02
#       5
#     8   8   8   8   8
#     4  10  19  33  51  70  96 131 162 195 248 301
#     4  11  22  35  51  69  93 130 175 215 245 283
#     4  11  22  34  47  70 102 134 167 204 244 286
#     4  10  20  33  52  75 101 132 167 199 240 296
#     4  10  20  35  49  69  99 130 163 203 249 291
#
# _framework density 9.6256939999999993
#
# number of rings (size 3 to 8) (size 9 to 14) (size 15 to 20)
#    0.000    1.600    0.000    9.600    0.000    5.600 
#    0.000    0.000    0.000    0.000    0.000    0.000 
#    0.000    4.800    0.000    0.000    0.000    0.000 
#
# Total GULP energy -247856.025127 kJ/mol
# GULP energy per Si atom -12392.801256 kJ/mol
# Density = 0.960378 g / cm^3
# Si number density = 9.625694 Si / 1000 Ang^3
#
#
#
# Elastic Constant Matrix: (Units=GPa)
#
#
# Indices 1 2 3 4 5 6 
#
# 1 17.3463 15.7010 12.5547 -0.0018 1.3825 -0.0019
# 2 15.7010 192.3084 56.5093 0.0001 -2.1818 -0.0005
# 3 12.5547 56.5093 141.6501 -0.0017 12.7586 -0.0034
# 4 -0.0018 0.0001 -0.0017 39.5352 -0.0018 -2.2137
# 5 1.3825 -2.1818 12.7586 -0.0018 23.5680 -0.0020
# 6 -0.0019 -0.0005 -0.0034 -2.2137 -0.0020 20.0255
#
#
#
# Elastic Compliance Matrix: (Units=1/GPa)
#
#
# Indices 1 2 3 4 5 6 
#
# 1 0.064361 -0.004142 -0.003866 0.000003 -0.002066 0.000005
# 2 -0.004142 0.006240 -0.002309 0.000000 0.002070 0.000000
# 3 -0.003866 -0.002309 0.008749 0.000000 -0.004723 0.000001
# 4 0.000003 0.000000 0.000000 0.025451 0.000002 0.002814
# 5 -0.002066 0.002070 -0.004723 0.000002 0.045300 0.000004
# 6 0.000005 0.000000 0.000001 0.002814 0.000004 0.050247
#
#
# Mechanical properties :
#
#
# Convention : Reuss Voigt Hill
#
# Bulk Modulus (GPa) = 17.03107 57.87054 37.45080
# Shear Modulus (GPa) = 20.78532 34.39507 27.59020
#
# Velocity S-wave (km/s) = 3.28941 4.23144 3.78981
# Velocity P-wave (km/s) = 4.82627 7.34841 6.21659
#
# Compressibility (1/GPa) = 0.05871621
#
# Stress axis : x y z
#
# Youngs Moduli (GPa) = 15.53736 160.25420 114.30216
#
# Poissons Ratio (x) = 0.66381 0.44187
# Poissons Ratio (y) = 0.06436 0.26390
# Poissons Ratio (z) = 0.06006 0.36999
#
# Static dielectric constant tensor:
#      x y z
#    x 3.207370 -0.000010 -0.047440 
#    y -0.000010 4.247830 -0.000040 
#    z -0.047440 -0.000040 3.976340 
# 
# 
# High freq. dielectric constant tensor:
#      x y z
#    x 1.682600 0.000000 0.012750 
#    y 0.000000 1.768880 0.000000 
#    z 0.012750 0.000000 1.782880 
# 
# From -- ./inp_files/219006.got.cif
#   From: 2010.06.25/outbox.ucp.g09.slc.cvg/sg12_110_cif.got.tgz:219006.got - 2010.06.28 13:50:54.
