data_PCOD8116788
_publ_section_title
;
Structure prediction by ZEFSAII (Michael W. Deem and Ramdas Pophale) SiO2 
 PCOD8116788
Probable space group: P 2/C
;
_chemical_formula_sum "Si O2"
_cell_formula_units_Z 26
_cell_length_a 11.278585
_cell_length_b 11.283253
_cell_length_c 20.838568
_cell_angle_alpha 90.000000
_cell_angle_beta 144.973527
_cell_angle_gamma 90.000000
_cell_volume 1522.069733
_symmetry_space_group_name_H-M "P 2/C"
_symmetry_group_IT_number 13
_symmetry_cell_setting 'monoclinic'
loop_
_space_group_symop_operation_xyz
x,y,z
-x,y,1/2-z
-x,-y,-z
x,-y,1/2+z
loop_
_atom_site_type_symbol
_atom_site_label
_atom_site_fract_x
_atom_site_fract_y
_atom_site_fract_z
Si Si1 0.682331 0.037683 0.488027
Si Si2 0.670031 0.110429 0.626350
Si Si3 0.452472 0.791588 0.801126
Si Si4 0.000000 0.729605 0.750000
Si Si5 0.409530 0.392189 0.390910
Si Si6 0.918275 0.077490 0.310956
Si Si7 0.756057 0.371515 0.648725
O O1 0.538455 0.920691 0.427304
O O2 0.911726 0.994470 0.574279
O O3 0.644792 0.106450 0.538380
O O4 0.637057 0.130007 0.411634
O O5 0.739103 0.243261 0.675367
O O6 0.835309 0.011417 0.719514
O O7 0.500000 0.753696 0.750000
O O8 0.422915 0.671426 0.828243
O O9 0.252743 0.876603 0.715294
O O10 0.213551 0.656194 0.844913
O O11 0.981277 0.809514 0.678562
O O12 0.627501 0.374410 0.524582
O O13 0.356194 0.530845 0.355802
O O14 0.000000 0.401310 0.750000
#
# Coordination Sequence:
#
# PCOD8116788 Si02
#       7
#     4   4   4   2   4   4   4
#     4  10  17  31  51  79 109 136 162 213 261 321
#     4  10  18  28  50  87 109 127 157 212 282 313
#     4  10  22  36  51  73 104 146 183 206 246 316
#     4  10  16  32  50  82 110 134 166 210 276 320
#     4  10  21  34  52  77 106 138 173 222 258 314
#     4  10  18  29  55  79 106 132 165 215 269 312
#     4  11  20  32  52  83 107 130 168 223 279 309
#
# _framework density 17.082001999999999
#
# number of rings (size 3 to 8) (size 9 to 14) (size 15 to 20)
#    0.000    1.846    3.846    1.846    0.000    0.615 
#    0.000    0.000    0.000    4.615    0.000    0.000 
#    0.000    0.000    0.000    0.000    0.000    0.000 
#
# Total GULP energy -322240.892293 kJ/mol
# GULP energy per Si atom -12393.880473 kJ/mol
# Density = 1.704312 g / cm^3
# Si number density = 17.082002 Si / 1000 Ang^3
#
#
#
# Elastic Constant Matrix: (Units=GPa)
#
#
# Indices 1 2 3 4 5 6 
#
# 1 70.2887 35.3143 50.2983 0.0000 -3.7807 0.0000
# 2 35.3143 104.9348 31.5782 0.0000 -5.0091 0.0000
# 3 50.2983 31.5782 85.0338 0.0000 13.2161 0.0000
# 4 0.0000 0.0000 0.0000 22.0156 0.0000 2.2137
# 5 -3.7807 -5.0091 13.2161 0.0000 29.3092 0.0000
# 6 0.0000 0.0000 0.0000 2.2137 0.0000 18.7528
#
#
#
# Elastic Compliance Matrix: (Units=1/GPa)
#
#
# Indices 1 2 3 4 5 6 
#
# 1 0.029515 -0.004090 -0.017660 0.000000 0.011072 0.000000
# 2 -0.004090 0.011727 -0.002329 0.000000 0.002527 0.000000
# 3 -0.017660 -0.002329 0.025257 0.000000 -0.014065 0.000000
# 4 0.000000 0.000000 0.000000 0.045968 0.000000 -0.005426
# 5 0.011072 0.002527 -0.014065 0.000000 0.042321 0.000000
# 6 0.000000 0.000000 0.000000 -0.005426 0.000000 0.053966
#
#
# Mechanical properties :
#
#
# Convention : Reuss Voigt Hill
#
# Bulk Modulus (GPa) = 54.52013 54.95988 54.74000
# Shear Modulus (GPa) = 19.00947 23.55327 21.28137
#
# Velocity S-wave (km/s) = 3.33954 3.71730 3.53347
# Velocity P-wave (km/s) = 6.84515 7.11817 6.98299
#
# Compressibility (1/GPa) = 0.01834185
#
# Stress axis : x y z
#
# Youngs Moduli (GPa) = 33.88095 85.26981 39.59271
#
# Poissons Ratio (x) = 0.34874 0.69923
# Poissons Ratio (y) = 0.13857 0.09220
# Poissons Ratio (z) = 0.59835 0.19857
#
# Static dielectric constant tensor:
#      x y z
#    x 2.924980 0.000000 0.421590 
#    y 0.000000 3.360200 0.000000 
#    z 0.421590 0.000000 3.183270 
# 
# 
# High freq. dielectric constant tensor:
#      x y z
#    x 1.625490 0.000000 0.040170 
#    y 0.000000 1.670150 0.000000 
#    z 0.040170 0.000000 1.646520 
# 
# From -- ./inp_files/50589.got.cif
#   From: 2010.06.25/outbox.cif.g09.slc.cpg/sg13_26_cif.got.tgz:50589.got - 2010.06.28 04:50:58.
