data_PCOD8116042
_publ_section_title
;
Structure prediction by ZEFSAII (Michael W. Deem and Ramdas Pophale) SiO2 
 PCOD8116042
Probable space group: C 2/M
;
_chemical_formula_sum "Si O2"
_cell_formula_units_Z 64
_cell_length_a 19.558811
_cell_length_b 9.777964
_cell_length_c 20.842681
_cell_angle_alpha 90.000000
_cell_angle_beta 75.827991
_cell_angle_gamma 90.000000
_cell_volume 3864.750207
_symmetry_space_group_name_H-M "C 2/M"
_symmetry_group_IT_number 12
_symmetry_cell_setting 'monoclinic'
loop_
_space_group_symop_operation_xyz
x,y,z
-x,y,-z
-x,-y,-z
x,-y,z
1/2+x,1/2+y,z
1/2-x,1/2+y,-z
1/2-x,1/2-y,-z
1/2+x,1/2-y,z
loop_
_atom_site_type_symbol
_atom_site_label
_atom_site_fract_x
_atom_site_fract_y
_atom_site_fract_z
Si Si1 0.536270 0.337330 0.555247
Si Si2 0.970408 0.657573 0.817154
Si Si3 0.658283 0.349360 0.697499
Si Si4 0.692730 0.660813 0.548959
Si Si5 0.128328 0.341930 0.813810
Si Si6 0.495047 0.652507 0.700313
Si Si7 0.833682 0.342798 0.926005
Si Si8 0.708692 0.842116 0.922625
O O1 0.500000 0.274938 0.500000
O O2 0.536811 0.500000 0.553572
O O3 0.616756 0.286639 0.541368
O O4 0.490404 0.291981 0.628113
O O5 0.968349 0.500000 0.796561
O O6 0.912018 0.691325 0.883854
O O7 0.045700 0.696178 0.830665
O O8 0.953984 0.745856 0.757311
O O9 0.681748 0.500000 0.715936
O O10 0.700601 0.309902 0.623307
O O11 0.673050 0.241546 0.750653
O O12 0.576569 0.352104 0.699250
O O13 0.703387 0.500000 0.532042
O O14 0.750000 0.750000 0.500000
O O15 0.140805 0.500000 0.795146
O O16 0.155691 0.302718 0.877855
O O17 0.462300 0.500000 0.714187
O O18 0.813558 0.500000 0.917196
O O19 0.778554 0.249058 0.900482
O O20 0.832067 0.309735 0.001985
O O21 0.731828 0.000000 0.913566
#
# Coordination Sequence:
#
# PCOD8116042 Si02
#       8
#     8   8   8   8   8   8   8   8
#     4   8  14  27  47  67  86 112 148 184 216 255
#     4   9  17  29  46  68  91 114 143 180 222 264
#     4   8  15  28  44  63  89 120 149 176 215 267
#     4   9  17  29  46  67  90 117 148 182 220 262
#     4   9  17  29  47  70  90 110 144 189 226 255
#     4   8  14  26  45  66  87 114 146 179 216 257
#     4   9  18  32  48  65  89 122 150 174 216 269
#     4   9  18  32  48  66  89 117 150 184 216 257
#
# _framework density 16.559930999999999
#
# number of rings (size 3 to 8) (size 9 to 14) (size 15 to 20)
#    0.000    3.375    0.000    1.500    0.000    2.000 
#    0.000    5.625    0.000    6.000    0.000    7.000 
#    0.000    0.000    0.000    0.000    0.000    0.000 
#
# Total GULP energy -396664.802986 kJ/mol
# GULP energy per Si atom -12395.775093 kJ/mol
# Density = 1.652224 g / cm^3
# Si number density = 16.559931 Si / 1000 Ang^3
#
#
#
# Elastic Constant Matrix: (Units=GPa)
#
#
# Indices 1 2 3 4 5 6 
#
# 1 69.7157 43.1407 61.9329 0.0000 0.8965 0.0000
# 2 43.1407 66.4890 64.2542 0.0000 -2.4419 0.0000
# 3 61.9329 64.2542 128.7584 0.0000 3.3833 0.0000
# 4 0.0000 0.0000 0.0000 30.4637 0.0000 -3.5997
# 5 0.8965 -2.4419 3.3833 0.0000 28.1414 0.0000
# 6 0.0000 0.0000 0.0000 -3.5997 0.0000 20.7748
#
#
#
# Elastic Compliance Matrix: (Units=1/GPa)
#
#
# Indices 1 2 3 4 5 6 
#
# 1 0.028123 -0.010085 -0.008475 0.000000 -0.000752 0.000000
# 2 -0.010085 0.033188 -0.011832 0.000000 0.004624 0.000000
# 3 -0.008475 -0.011832 0.017824 0.000000 -0.002900 0.000000
# 4 0.000000 0.000000 0.000000 0.033512 0.000000 0.005807
# 5 -0.000752 0.004624 -0.002900 0.000000 0.036309 0.000000
# 6 0.000000 0.000000 0.000000 0.005807 0.000000 0.049141
#
#
# Mechanical properties :
#
#
# Convention : Reuss Voigt Hill
#
# Bulk Modulus (GPa) = 54.49436 67.06874 60.78155
# Shear Modulus (GPa) = 18.86804 22.25167 20.55986
#
# Velocity S-wave (km/s) = 3.37913 3.66964 3.52738
# Velocity P-wave (km/s) = 6.94287 7.65137 7.30572
#
# Compressibility (1/GPa) = 0.01835052
#
# Stress axis : x y z
#
# Youngs Moduli (GPa) = 35.55810 30.13108 56.10501
#
# Poissons Ratio (x) = 0.30388 0.47547
# Poissons Ratio (y) = 0.35861 0.66386
# Poissons Ratio (z) = 0.30134 0.35652
#
# Static dielectric constant tensor:
#      x y z
#    x 2.925250 0.000000 0.092550 
#    y 0.000000 3.139880 0.000000 
#    z 0.092550 0.000000 3.386240 
# 
# 
# High freq. dielectric constant tensor:
#      x y z
#    x 1.608380 0.000000 -0.000370 
#    y 0.000000 1.626270 0.000000 
#    z -0.000370 0.000000 1.645260 
# 
# From -- ./inp_files/315732.got.cif
#   From: 2010.06.25/outbox.cif.g09.slc.cpg/sg12_158_cif.got.tgz:315732.got - 2010.06.28 00:19:55.
