data_PCOD8116278
_publ_section_title
;
Structure prediction by ZEFSAII (Michael W. Deem and Ramdas Pophale) SiO2 
 PCOD8116278
Probable space group: C 2/M
;
_chemical_formula_sum "Si O2"
_cell_formula_units_Z 32
_cell_length_a 18.000000
_cell_length_b 9.000000
_cell_length_c 30.000000
_cell_angle_alpha 90.000000
_cell_angle_beta 40.000000
_cell_angle_gamma 90.000000
_cell_volume 3123.947783
_symmetry_space_group_name_H-M "C 2/M"
_symmetry_group_IT_number 12
_symmetry_cell_setting 'monoclinic'
loop_
_space_group_symop_operation_xyz
x,y,z
-x,y,-z
-x,-y,-z
x,-y,z
1/2+x,1/2+y,z
1/2-x,1/2+y,-z
1/2-x,1/2-y,-z
1/2+x,1/2-y,z
loop_
_atom_site_type_symbol
_atom_site_label
_atom_site_fract_x
_atom_site_fract_y
_atom_site_fract_z
Si Si1 0.623319 0.164669 0.777359
Si Si2 0.246867 0.166494 0.872962
Si Si3 0.106697 0.159991 0.336347
Si Si4 0.647035 0.670099 0.681095
Si Si5 0.554806 0.170719 0.905096
Si Si6 0.899801 0.659702 0.580219
Si Si7 0.708370 0.171527 0.974934
Si Si8 0.968576 0.662817 0.711073
O O1 0.756585 0.161810 0.728550
O O2 0.599881 0.291008 0.752017
O O3 0.554372 0.209640 0.853048
O O4 0.584781 0.000000 0.777963
O O5 0.141667 0.227219 0.892064
O O6 0.278775 0.263552 0.901306
O O7 0.366026 0.170521 0.792830
O O8 0.213070 0.000000 0.902671
O O9 0.054048 0.228909 0.404692
O O10 0.059448 0.238521 0.316475
O O11 0.051993 0.000000 0.360094
O O12 0.618021 0.500000 0.684023
O O13 0.780708 0.713989 0.613143
O O14 0.588027 0.779265 0.674442
O O15 0.591374 0.000000 0.896637
O O16 0.423769 0.201407 0.979469
O O17 0.871578 0.500000 0.615690
O O18 0.000000 0.641035 0.500000
O O19 0.734143 0.000000 0.969784
O O20 0.750000 0.250000 0.000000
O O21 0.989910 0.500000 0.683144
#
# Coordination Sequence:
#
# PCOD8116278 Si02
#       8
#     8   8   8   8   8   8   8   8
#     4   9  18  34  56  82 112 146 183 230 285 338
#     4  11  24  40  60  84 112 150 194 238 288 346
#     4  10  19  34  59  88 116 147 188 235 279 331
#     4  10  21  35  56  86 117 149 190 234 280 332
#     4  10  21  39  61  83 111 148 189 234 289 347
#     4   9  19  38  62  87 119 156 190 227 276 335
#     4  11  25  42  60  83 114 150 191 239 291 346
#     4  11  23  38  57  83 118 154 190 236 290 341
#
# _framework density 10.243449
#
# number of rings (size 3 to 8) (size 9 to 14) (size 15 to 20)
#    0.000    1.875    1.250    2.250    1.750    5.750 
#    0.000    0.625    0.000    0.000    0.000    0.000 
#    0.000    0.000    0.000    0.000    0.000    0.000 
#
# Total GULP energy -396595.086511 kJ/mol
# GULP energy per Si atom -12393.596453 kJ/mol
# Density = 1.022013 g / cm^3
# Si number density = 10.243449 Si / 1000 Ang^3
#
#
#
# Elastic Constant Matrix: (Units=GPa)
#
#
# Indices 1 2 3 4 5 6 
#
# 1 97.1869 100.1497 26.0573 0.0025 -12.0217 0.0035
# 2 100.1497 156.7184 61.4801 0.0044 -0.8049 0.0023
# 3 26.0573 61.4801 37.7531 0.0002 5.2824 -0.0003
# 4 0.0025 0.0044 0.0002 32.6497 0.0004 1.4985
# 5 -12.0217 -0.8049 5.2824 0.0004 -8.8373 0.0000
# 6 0.0035 0.0023 -0.0003 1.4985 0.0000 39.1883
#
#
#
# Elastic Compliance Matrix: (Units=1/GPa)
#
#
# Indices 1 2 3 4 5 6 
#
# 1 0.042265 -0.046929 0.050477 0.000003 -0.023048 -0.000001
# 2 -0.046929 0.067297 -0.078694 -0.000005 0.010672 0.000000
# 3 0.050477 -0.078694 0.118495 0.000006 0.009330 0.000001
# 4 0.000003 -0.000005 0.000006 0.030682 0.000001 -0.001173
# 5 -0.023048 0.010672 0.009330 0.000001 -0.077199 0.000001
# 6 -0.000001 0.000000 0.000001 -0.001173 0.000001 0.025563
#
#
# Mechanical properties :
#
#
# Convention : Reuss Voigt Hill
#
# Bulk Modulus (GPa) = 12.85948 74.11472 43.48710
# Shear Modulus (GPa) = 13.04404 19.53156 16.28780
#
# Velocity S-wave (km/s) = 2.52603 3.09102 2.82270
# Velocity P-wave (km/s) = 3.84686 6.99960 5.64768
#
# Compressibility (1/GPa) = 0.07776366
#
# Stress axis : x y z
#
# Youngs Moduli (GPa) = 23.66032 14.85950 8.43919
#
# Poissons Ratio (x) = 0.69735 -0.42599
# Poissons Ratio (y) = 1.11036 0.66412
# Poissons Ratio (z) = -1.19430 1.16936
#
# Static dielectric constant tensor:
#      x y z
#    x 3.010020 -0.000030 -0.049660 
#    y -0.000030 3.873460 0.000000 
#    z -0.049660 0.000000 3.410010 
# 
# 
# High freq. dielectric constant tensor:
#      x y z
#    x 1.786900 0.000000 -0.001290 
#    y 0.000000 1.797090 0.000000 
#    z -0.001290 0.000000 1.771980 
# 
# From -- ./inp_files/377984.got.cif
#   From: 2010.06.25/outbox.ucp.g09.slc.cvg/sg12_189_cif.got.tgz:377984.got - 2010.06.28 13:50:54.
