data_PCOD8116320
_publ_section_title
;
Structure prediction by ZEFSAII (Michael W. Deem and Ramdas Pophale) SiO2 
 PCOD8116320
Probable space group: C 2/M
;
_chemical_formula_sum "Si O2"
_cell_formula_units_Z 32
_cell_length_a 30.000000
_cell_length_b 9.000000
_cell_length_c 18.000000
_cell_angle_alpha 90.000000
_cell_angle_beta 40.000000
_cell_angle_gamma 90.000000
_cell_volume 3123.947783
_symmetry_space_group_name_H-M "C 2/M"
_symmetry_group_IT_number 12
_symmetry_cell_setting 'monoclinic'
loop_
_space_group_symop_operation_xyz
x,y,z
-x,y,-z
-x,-y,-z
x,-y,z
1/2+x,1/2+y,z
1/2-x,1/2+y,-z
1/2-x,1/2-y,-z
1/2+x,1/2-y,z
loop_
_atom_site_type_symbol
_atom_site_label
_atom_site_fract_x
_atom_site_fract_y
_atom_site_fract_z
Si Si1 0.675569 0.831544 0.903787
Si Si2 0.680000 0.832472 0.072031
Si Si3 0.452436 0.167095 0.489604
Si Si4 0.203553 0.673102 0.331232
Si Si5 0.466236 0.168603 0.973937
Si Si6 0.545097 0.327549 0.261651
Si Si7 0.044745 0.333328 0.731314
Si Si8 0.199658 0.676005 0.504695
O O1 0.743141 0.744807 0.793137
O O2 0.685072 0.000000 0.865208
O O3 0.665665 0.824589 0.003802
O O4 0.605851 0.755889 0.959514
O O5 0.615782 0.754559 0.195700
O O6 0.685115 0.000000 0.095398
O O7 0.750000 0.750000 0.000000
O O8 0.500000 0.175118 0.500000
O O9 0.372615 0.213456 0.603463
O O10 0.482637 0.287817 0.395836
O O11 0.454455 0.000000 0.453198
O O12 0.216182 0.500000 0.312381
O O13 0.216768 0.728526 0.398889
O O14 0.530269 0.165828 0.836208
O O15 0.445880 0.000000 0.021061
O O16 0.500000 0.255726 0.000000
O O17 0.561230 0.500000 0.240245
O O18 0.516563 0.272262 0.219566
O O19 0.037741 0.500000 0.706126
O O20 0.121263 0.269757 0.619599
O O21 0.205570 0.500000 0.506552
O O22 0.250000 0.750000 0.500000
#
# Coordination Sequence:
#
# PCOD8116320 Si02
#       8
#     8   8   8   8   8   8   8   8
#     4  10  22  39  61  88 120 155 196 249 298 351
#     4  11  24  43  64  90 123 162 205 250 301 360
#     4  10  22  42  66  89 116 160 206 245 300 364
#     4  10  22  40  59  85 122 159 198 245 300 361
#     4   9  18  34  60  89 113 149 200 246 295 354
#     4  12  24  39  63  93 123 158 200 254 306 356
#     4  10  19  39  64  84 116 159 203 252 298 358
#     4  10  22  38  60  87 119 159 201 247 299 358
#
# _framework density 10.243449
#
# number of rings (size 3 to 8) (size 9 to 14) (size 15 to 20)
#    0.000    1.750    2.500    1.500    3.500    2.750 
#    0.000    0.000    0.000    0.750    0.000    0.000 
#    0.000    0.000    0.000    0.000    0.000    0.000 
#
# Total GULP energy -396602.401709 kJ/mol
# GULP energy per Si atom -12393.825053 kJ/mol
# Density = 1.022013 g / cm^3
# Si number density = 10.243449 Si / 1000 Ang^3
#
#
#
# Elastic Constant Matrix: (Units=GPa)
#
#
# Indices 1 2 3 4 5 6 
#
# 1 70.0713 24.6130 12.1891 -0.0010 -15.7055 0.0012
# 2 24.6130 72.1948 24.1302 -0.0261 -11.4388 0.0092
# 3 12.1891 24.1302 81.3388 -0.0091 -20.0927 0.0046
# 4 -0.0010 -0.0261 -0.0091 29.2961 0.0048 -5.4182
# 5 -15.7055 -11.4388 -20.0927 0.0048 32.4744 -0.0011
# 6 0.0012 0.0092 0.0046 -5.4182 -0.0011 27.3568
#
#
#
# Elastic Compliance Matrix: (Units=1/GPa)
#
#
# Indices 1 2 3 4 5 6 
#
# 1 0.017528 -0.005062 0.000624 -0.000005 0.007080 0.000000
# 2 -0.005062 0.017101 -0.004050 0.000013 0.001069 -0.000002
# 3 0.000624 -0.004050 0.015492 0.000000 0.008461 -0.000001
# 4 -0.000005 0.000013 0.000000 0.035432 -0.000003 0.007018
# 5 0.007080 0.001069 0.008461 -0.000003 0.039829 -0.000001
# 6 0.000000 -0.000002 -0.000001 0.007018 -0.000001 0.037944
#
#
# Mechanical properties :
#
#
# Convention : Reuss Voigt Hill
#
# Bulk Modulus (GPa) = 30.17219 38.38547 34.27883
# Shear Modulus (GPa) = 26.13006 28.67029 27.40018
#
# Velocity S-wave (km/s) = 3.57522 3.74497 3.66108
# Velocity P-wave (km/s) = 5.63937 6.12185 5.88556
#
# Compressibility (1/GPa) = 0.03314310
#
# Stress axis : x y z
#
# Youngs Moduli (GPa) = 57.05257 58.47776 64.54816
#
# Poissons Ratio (x) = 0.29604 -0.04029
# Poissons Ratio (y) = 0.28883 0.26144
# Poissons Ratio (z) = -0.03561 0.23686
#
# Static dielectric constant tensor:
#      x y z
#    x 5.225510 -0.000110 0.419510 
#    y -0.000110 3.481060 -0.000020 
#    z 0.419510 -0.000020 3.894440 
# 
# 
# High freq. dielectric constant tensor:
#      x y z
#    x 1.806460 0.000000 -0.012140 
#    y 0.000000 1.764120 0.000000 
#    z -0.012140 0.000000 1.801770 
# 
# From -- ./inp_files/295603.got.cif
#   From: 2010.06.25/outbox.ucp.g09.slc.cvg/sg12_148_cif.got.tgz:295603.got - 2010.06.28 13:50:54.
