data_PCOD8116150
_publ_section_title
;
Structure prediction by ZEFSAII (Michael W. Deem and Ramdas Pophale) SiO2 
 PCOD8116150
Probable space group: C 2/M
;
_chemical_formula_sum "Si O2"
_cell_formula_units_Z 48
_cell_length_a 23.704118
_cell_length_b 13.540398
_cell_length_c 25.611439
_cell_angle_alpha 90.000000
_cell_angle_beta 22.251402
_cell_angle_gamma 90.000000
_cell_volume 3112.802460
_symmetry_space_group_name_H-M "C 2/M"
_symmetry_group_IT_number 12
_symmetry_cell_setting 'monoclinic'
loop_
_space_group_symop_operation_xyz
x,y,z
-x,y,-z
-x,-y,-z
x,-y,z
1/2+x,1/2+y,z
1/2-x,1/2+y,-z
1/2-x,1/2-y,-z
1/2+x,1/2-y,z
loop_
_atom_site_type_symbol
_atom_site_label
_atom_site_fract_x
_atom_site_fract_y
_atom_site_fract_z
Si Si1 0.142628 0.389808 0.092589
Si Si2 0.172198 0.389807 0.592586
Si Si3 0.080449 0.802080 0.090203
Si Si4 0.856732 0.614377 0.591117
Si Si5 0.538956 0.385624 0.908891
Si Si6 0.760860 0.197917 0.409792
O O1 0.144698 0.500000 0.066741
O O2 0.126923 0.312340 0.058455
O O3 0.005428 0.376338 0.250001
O O4 0.292367 0.373137 0.996762
O O5 0.221822 0.500000 0.566739
O O6 0.256168 0.312338 0.558455
O O7 0.214116 0.373137 0.496757
O O8 0.059101 0.821126 0.047119
O O9 0.929673 0.829304 0.249997
O O10 0.872554 0.500000 0.561517
O O11 0.713784 0.631460 0.750005
O O12 0.846653 0.678868 0.547127
O O13 0.000000 0.651732 0.500000
O O14 0.495568 0.500000 0.938497
O O15 0.500000 0.348272 0.000000
#
# Coordination Sequence:
#
# PCOD8116150 Si02
#       6
#     8   8   8   8   8   8
#     4   9  17  28  43  64  87 110 137 169 205 245
#     4   9  17  28  43  64  87 110 137 169 205 245
#     4   9  17  29  44  62  85 112 139 168 205 247
#     4   9  17  28  42  60  81 106 136 169 205 244
#     4   9  17  28  42  60  81 106 136 169 205 244
#     4   9  17  29  44  62  85 112 139 168 205 247
#
# _framework density 15.420188
#
# number of rings (size 3 to 8) (size 9 to 14) (size 15 to 20)
#    0.000    3.000    0.000    1.000    0.000    3.333 
#    0.000    3.333    0.000    1.000    0.000    0.000 
#    0.000    0.000    0.000    0.000    0.000    0.000 
#
# Total GULP energy -297580.591435 kJ/mol
# GULP energy per Si atom -12399.191310 kJ/mol
# Density = 1.538509 g / cm^3
# Si number density = 15.420188 Si / 1000 Ang^3
#
#
#
# Elastic Constant Matrix: (Units=GPa)
#
#
# Indices 1 2 3 4 5 6 
#
# 1 137.3943 60.1586 60.2452 0.0010 1.5082 -0.0006
# 2 60.1586 91.0785 37.4702 0.0087 1.8357 -0.0049
# 3 60.2452 37.4702 55.5528 0.0155 5.1096 -0.0066
# 4 0.0010 0.0087 0.0155 18.4417 -0.0017 0.1575
# 5 1.5082 1.8357 5.1096 -0.0017 28.9606 0.0012
# 6 -0.0006 -0.0049 -0.0066 0.1575 0.0012 20.3339
#
#
#
# Elastic Compliance Matrix: (Units=1/GPa)
#
#
# Indices 1 2 3 4 5 6 
#
# 1 0.015192 -0.004461 -0.013641 0.000013 0.001898 -0.000005
# 2 -0.004461 0.016527 -0.006338 -0.000002 0.000303 0.000002
# 3 -0.013641 -0.006338 0.037577 -0.000028 -0.005518 0.000011
# 4 0.000013 -0.000002 -0.000028 0.054228 0.000008 -0.000420
# 5 0.001898 0.000303 -0.005518 0.000008 0.035385 -0.000004
# 6 -0.000005 0.000002 0.000011 -0.000420 -0.000004 0.049182
#
#
# Mechanical properties :
#
#
# Convention : Reuss Voigt Hill
#
# Bulk Modulus (GPa) = 48.98028 66.64150 57.81089
# Shear Modulus (GPa) = 18.95543 21.95736 20.45639
#
# Velocity S-wave (km/s) = 3.50989 3.77760 3.64620
# Velocity P-wave (km/s) = 6.94683 7.89544 7.43627
#
# Compressibility (1/GPa) = 0.02041638
#
# Stress axis : x y z
#
# Youngs Moduli (GPa) = 65.82394 60.50593 26.61235
#
# Poissons Ratio (x) = 0.26990 0.36302
# Poissons Ratio (y) = 0.29363 0.16867
# Poissons Ratio (z) = 0.89791 0.38348
#
# Static dielectric constant tensor:
#      x y z
#    x 2.863610 0.000000 -0.012920 
#    y 0.000000 3.000780 0.000010 
#    z -0.012920 0.000010 3.023370 
# 
# 
# High freq. dielectric constant tensor:
#      x y z
#    x 1.574980 0.000000 -0.001710 
#    y 0.000000 1.582740 0.000000 
#    z -0.001710 0.000000 1.596140 
# 
# From -- ./inp_files/95342.got.cif
#   From: 2010.06.25/outbox.cif.g09.slc.cpg/sg12_48_cif.got.tgz:95342.got - 2010.06.28 00:19:55.
