data_PCOD8116509
_publ_section_title
;
Structure prediction by ZEFSAII (Michael W. Deem and Ramdas Pophale) SiO2 
 PCOD8116509
Probable space group: C 2/M
;
_chemical_formula_sum "Si O2"
_cell_formula_units_Z 24
_cell_length_a 24.000000
_cell_length_b 9.000000
_cell_length_c 24.000000
_cell_angle_alpha 90.000000
_cell_angle_beta 30.000000
_cell_angle_gamma 90.000000
_cell_volume 2592.000000
_symmetry_space_group_name_H-M "C 2/M"
_symmetry_group_IT_number 12
_symmetry_cell_setting 'monoclinic'
loop_
_space_group_symop_operation_xyz
x,y,z
-x,y,-z
-x,-y,-z
x,-y,z
1/2+x,1/2+y,z
1/2-x,1/2+y,-z
1/2-x,1/2-y,-z
1/2+x,1/2-y,z
loop_
_atom_site_type_symbol
_atom_site_label
_atom_site_fract_x
_atom_site_fract_y
_atom_site_fract_z
Si Si1 0.755821 0.821724 0.775918
Si Si2 0.554589 0.177041 0.314896
Si Si3 0.918120 0.832887 0.994592
Si Si4 0.705471 0.175568 0.480580
Si Si5 0.169412 0.175693 0.743051
Si Si6 0.223539 0.664028 0.077502
O O1 0.873415 0.757276 0.698400
O O2 0.746432 0.763937 0.720455
O O3 0.760583 0.000000 0.773714
O O4 0.641947 0.768376 0.906294
O O5 0.423461 0.223844 0.423398
O O6 0.618357 0.228418 0.203187
O O7 0.566481 0.000000 0.314145
O O8 0.039781 0.777375 0.867143
O O9 0.929085 0.000000 0.009751
O O10 0.837846 0.832709 0.011831
O O11 0.750000 0.250000 0.500000
O O12 0.787019 0.217954 0.357594
O O13 0.707413 0.000000 0.489435
O O14 0.185221 0.000000 0.738093
O O15 0.190314 0.500000 0.087913
O O16 0.250000 0.750000 0.000000
#
# Coordination Sequence:
#
# PCOD8116509 Si02
#       6
#     8   8   8   8   8   8
#     4  11  22  36  58  89 117 145 188 244 293 331
#     4   9  20  40  59  79 113 154 191 230 281 344
#     4   9  19  36  56  81 116 153 188 227 281 350
#     4  10  23  41  62  86 114 152 195 236 281 336
#     4  10  21  38  60  84 114 157 194 226 281 350
#     4   9  18  31  51  78 108 145 186 228 275 327
#
# _framework density 9.2592590000000001
#
# number of rings (size 3 to 8) (size 9 to 14) (size 15 to 20)
#    0.000    2.333    0.000    3.000    2.333    7.333 
#    0.000    3.333    0.000    0.000    0.000    0.000 
#    0.000    0.000    0.000    0.000    0.000    0.000 
#
# Total GULP energy -297335.465923 kJ/mol
# GULP energy per Si atom -12388.977747 kJ/mol
# Density = 0.923818 g / cm^3
# Si number density = 9.259259 Si / 1000 Ang^3
#
#
#
# Elastic Constant Matrix: (Units=GPa)
#
#
# Indices 1 2 3 4 5 6 
#
# 1 124.4675 48.8620 74.4628 0.0013 5.4698 -0.0002
# 2 48.8620 80.7674 36.3693 0.0009 5.1777 -0.0004
# 3 74.4628 36.3693 151.1979 0.0007 -11.3436 -0.0023
# 4 0.0013 0.0009 0.0007 28.7576 0.0013 4.2188
# 5 5.4698 5.1777 -11.3436 0.0013 43.2539 -0.0012
# 6 -0.0002 -0.0004 -0.0023 4.2188 -0.0012 35.3682
#
#
#
# Elastic Compliance Matrix: (Units=1/GPa)
#
#
# Indices 1 2 3 4 5 6 
#
# 1 0.013683 -0.005603 -0.005580 0.000000 -0.002523 0.000000
# 2 -0.005603 0.016470 -0.001323 0.000000 -0.001610 0.000000
# 3 -0.005580 -0.001323 0.009941 0.000000 0.003471 0.000001
# 4 0.000000 0.000000 0.000000 0.035393 -0.000001 -0.004222
# 5 -0.002523 -0.001610 0.003471 -0.000001 0.024541 0.000001
# 6 0.000000 0.000000 0.000001 -0.004222 0.000001 0.028778
#
#
# Mechanical properties :
#
#
# Convention : Reuss Voigt Hill
#
# Bulk Modulus (GPa) = 66.30947 75.09122 70.70035
# Shear Modulus (GPa) = 31.47710 34.59186 33.03448
#
# Velocity S-wave (km/s) = 4.12729 4.32668 4.22816
# Velocity P-wave (km/s) = 7.65490 8.09923 7.88020
#
# Compressibility (1/GPa) = 0.01508080
#
# Stress axis : x y z
#
# Youngs Moduli (GPa) = 73.08230 60.71625 100.59714
#
# Poissons Ratio (x) = 0.34022 0.56135
# Poissons Ratio (y) = 0.40951 0.13308
# Poissons Ratio (z) = 0.40781 0.08032
#
# Static dielectric constant tensor:
#      x y z
#    x 3.604750 0.000000 -0.099090 
#    y 0.000000 3.426700 0.000010 
#    z -0.099090 0.000010 3.908960 
# 
# 
# High freq. dielectric constant tensor:
#      x y z
#    x 1.737310 0.000000 -0.005940 
#    y 0.000000 1.710500 0.000000 
#    z -0.005940 0.000000 1.746290 
# 
# From -- ./inp_files/172401.got.cif
#   From: 2010.06.25/outbox.ucp.g09.slc.cvg/sg12_87_cif.got.tgz:172401.got - 2010.06.28 13:50:54.
