data_PCOD8116019
_publ_section_title
;
Structure prediction by ZEFSAII (Michael W. Deem and Ramdas Pophale) SiO2 
 PCOD8116019
Probable space group: C 2/M
;
_chemical_formula_sum "Si O2"
_cell_formula_units_Z 56
_cell_length_a 18.974625
_cell_length_b 9.433097
_cell_length_c 26.273502
_cell_angle_alpha 90.000000
_cell_angle_beta 136.236004
_cell_angle_gamma 90.000000
_cell_volume 3252.794623
_symmetry_space_group_name_H-M "C 2/M"
_symmetry_group_IT_number 12
_symmetry_cell_setting 'monoclinic'
loop_
_space_group_symop_operation_xyz
x,y,z
-x,y,-z
-x,-y,-z
x,-y,z
1/2+x,1/2+y,z
1/2-x,1/2+y,-z
1/2-x,1/2-y,-z
1/2+x,1/2-y,z
loop_
_atom_site_type_symbol
_atom_site_label
_atom_site_fract_x
_atom_site_fract_y
_atom_site_fract_z
Si Si1 0.735556 0.165085 0.416243
Si Si2 0.132510 0.167992 0.710926
Si Si3 0.596931 0.665085 0.416244
Si Si4 0.017744 0.334054 0.840615
Si Si5 0.681079 0.160424 0.000000
Si Si6 0.789343 0.332008 0.710927
Si Si7 0.163484 0.165946 0.840614
O O1 0.642922 0.250000 0.392922
O O2 0.841497 0.199023 0.500000
O O3 0.747267 0.215066 0.364203
O O4 0.707520 0.000000 0.405206
O O5 0.211583 0.234767 0.711583
O O6 0.159468 0.225258 0.781219
O O7 0.018861 0.215064 0.635795
O O8 0.142080 0.000000 0.715036
O O9 0.602894 0.500000 0.405207
O O10 0.019802 0.500000 0.826833
O O11 0.082189 0.250000 0.832190
O O12 0.902970 0.274743 0.781221
O O13 0.063595 0.309472 0.922218
O O14 0.719162 0.190528 0.077784
O O15 0.707192 0.000000 0.000000
O O16 0.750000 0.250000 0.000000
O O17 0.787991 0.500000 0.715035
O O18 0.133861 0.000000 0.826832
#
# Coordination Sequence:
#
# PCOD8116019 Si02
#       7
#     8   8   8   8   8   8   8
#     4   9  17  29  46  66  85 107 137 172 207 243
#     4   9  17  28  42  62  87 112 138 169 205 244
#     4   9  17  29  46  66  85 107 137 172 207 243
#     4   9  16  27  44  63  83 108 138 172 207 243
#     4   8  14  24  39  61  83 103 133 170 206 242
#     4   9  17  28  42  62  87 112 138 169 205 244
#     4   9  16  27  44  63  83 108 138 172 207 243
#
# _framework density 17.215965000000001
#
# number of rings (size 3 to 8) (size 9 to 14) (size 15 to 20)
#    0.000    3.143    0.000    0.857    0.000    0.571 
#    0.000    3.571    0.000    7.714    0.000    4.000 
#    0.000   11.429    0.000    0.000    0.000    0.000 
#
# Total GULP energy -346906.007304 kJ/mol
# GULP energy per Si atom -12389.500261 kJ/mol
# Density = 1.717678 g / cm^3
# Si number density = 17.215965 Si / 1000 Ang^3
#
#
#
# Elastic Constant Matrix: (Units=GPa)
#
#
# Indices 1 2 3 4 5 6 
#
# 1 133.1944 25.6342 94.3059 0.0000 -1.1349 0.0000
# 2 25.6342 24.4474 24.6565 0.0000 -0.0706 0.0000
# 3 94.3059 24.6565 158.9170 0.0000 3.0078 0.0000
# 4 0.0000 0.0000 0.0000 15.9670 0.0000 -0.0817
# 5 -1.1349 -0.0706 3.0078 0.0000 11.9145 0.0000
# 6 0.0000 0.0000 0.0000 -0.0817 0.0000 17.0913
#
#
#
# Elastic Compliance Matrix: (Units=1/GPa)
#
#
# Indices 1 2 3 4 5 6 
#
# 1 0.014129 -0.007456 -0.007287 0.000000 0.003141 0.000000
# 2 -0.007456 0.052485 -0.003729 0.000000 0.000542 0.000000
# 3 -0.007287 -0.003729 0.011263 0.000000 -0.003560 0.000000
# 4 0.000000 0.000000 0.000000 0.062631 0.000000 0.000299
# 5 0.003141 0.000542 -0.003560 0.000000 0.085132 0.000000
# 6 0.000000 0.000000 0.000000 0.000299 0.000000 0.058511
#
#
# Mechanical properties :
#
#
# Convention : Reuss Voigt Hill
#
# Bulk Modulus (GPa) = 24.43065 67.30578 45.86822
# Shear Modulus (GPa) = 14.93701 20.45872 17.69787
#
# Velocity S-wave (km/s) = 2.94874 3.45100 3.20971
# Velocity P-wave (km/s) = 5.08084 7.42018 6.35901
#
# Compressibility (1/GPa) = 0.04093219
#
# Stress axis : x y z
#
# Youngs Moduli (GPa) = 70.77526 19.05323 88.78693
#
# Poissons Ratio (x) = 0.14207 0.64701
# Poissons Ratio (y) = 0.52773 0.33105
# Poissons Ratio (z) = 0.51576 0.07104
#
# Static dielectric constant tensor:
#      x y z
#    x 2.985010 0.000000 0.064900 
#    y 0.000000 2.924580 0.000000 
#    z 0.064900 0.000000 3.878870 
# 
# 
# High freq. dielectric constant tensor:
#      x y z
#    x 1.634040 0.000000 0.004270 
#    y 0.000000 1.631270 0.000000 
#    z 0.004270 0.000000 1.692880 
# 
# From -- ./inp_files/276113.got.cif
#   From: 2010.06.25/outbox.cif.g09.slc.cpg/sg12_139_cif.got.tgz:276113.got - 2010.06.28 00:19:55.
