data_PCOD8116007
_publ_section_title
;
Structure prediction by ZEFSAII (Michael W. Deem and Ramdas Pophale) SiO2 
 PCOD8116007
Probable space group: C 2/M
;
_chemical_formula_sum "Si O2"
_cell_formula_units_Z 48
_cell_length_a 19.299366
_cell_length_b 9.298451
_cell_length_c 16.197881
_cell_angle_alpha 90.000000
_cell_angle_beta 74.126567
_cell_angle_gamma 90.000000
_cell_volume 2795.937354
_symmetry_space_group_name_H-M "C 2/M"
_symmetry_group_IT_number 12
_symmetry_cell_setting 'monoclinic'
loop_
_space_group_symop_operation_xyz
x,y,z
-x,y,-z
-x,-y,-z
x,-y,z
1/2+x,1/2+y,z
1/2-x,1/2+y,-z
1/2-x,1/2-y,-z
1/2+x,1/2-y,z
loop_
_atom_site_type_symbol
_atom_site_label
_atom_site_fract_x
_atom_site_fract_y
_atom_site_fract_z
Si Si1 0.780513 0.836321 0.565876
Si Si2 0.688302 0.337874 0.913855
Si Si3 0.740497 0.166504 0.755643
Si Si4 0.613271 0.168680 0.258654
Si Si5 0.350408 0.159359 0.927708
Si Si6 0.935218 0.168051 0.581720
O O1 0.750000 0.750000 0.500000
O O2 0.726193 0.819079 0.662042
O O3 0.860970 0.783483 0.562217
O O4 0.784556 0.000000 0.535841
O O5 0.662738 0.500000 0.905691
O O6 0.680553 0.247842 0.830922
O O7 0.770172 0.329972 0.917319
O O8 0.637301 0.270806 0.001771
O O9 0.816507 0.239350 0.745967
O O10 0.743648 0.000000 0.781827
O O11 0.594896 0.189069 0.166873
O O12 0.552667 0.237322 0.338515
O O13 0.625578 0.000000 0.274097
O O14 0.363223 0.000000 0.959493
O O15 0.000000 0.205511 0.500000
O O16 0.933226 0.000000 0.606259
#
# Coordination Sequence:
#
# PCOD8116007 Si02
#       6
#     8   8   8   8   8   8
#     4   9  18  30  45  64  85 113 145 178 215 253
#     4   9  15  21  32  51  73 101 137 172 205 244
#     4   9  16  26  38  53  77 109 140 169 210 257
#     4   9  16  25  38  57  79 105 139 175 211 249
#     4   8  14  22  31  47  74 105 133 164 204 250
#     4   9  18  32  47  63  86 116 147 177 214 259
#
# _framework density 17.167766
#
# number of rings (size 3 to 8) (size 9 to 14) (size 15 to 20)
#    0.000    3.167    0.000    3.500    0.000    8.333 
#    0.000    0.000    0.000    0.000    0.000    0.000 
#    0.000    1.333    0.000   15.000    0.000   18.667 
#
# Total GULP energy -297340.626619 kJ/mol
# GULP energy per Si atom -12389.192776 kJ/mol
# Density = 1.712869 g / cm^3
# Si number density = 17.167766 Si / 1000 Ang^3
#
#
#
# Elastic Constant Matrix: (Units=GPa)
#
#
# Indices 1 2 3 4 5 6 
#
# 1 20.9028 17.0405 30.1337 0.0000 -2.0967 0.0000
# 2 17.0405 126.1906 90.2635 0.0000 -3.7193 0.0000
# 3 30.1337 90.2635 164.0020 0.0000 -11.1966 0.0000
# 4 0.0000 0.0000 0.0000 40.3907 0.0000 0.8185
# 5 -2.0967 -3.7193 -11.1966 0.0000 13.4047 0.0000
# 6 0.0000 0.0000 0.0000 0.8185 0.0000 11.5680
#
#
#
# Elastic Compliance Matrix: (Units=1/GPa)
#
#
# Indices 1 2 3 4 5 6 
#
# 1 0.065091 -0.000396 -0.011723 0.000000 0.000279 0.000000
# 2 -0.000396 0.013154 -0.007340 0.000000 -0.002544 0.000000
# 3 -0.011723 -0.007340 0.012754 0.000000 0.006783 0.000000
# 4 0.000000 0.000000 0.000000 0.024794 0.000000 -0.001754
# 5 0.000279 -0.002544 0.006783 0.000000 0.079604 0.000000
# 6 0.000000 0.000000 0.000000 -0.001754 0.000000 0.086569
#
#
# Mechanical properties :
#
#
# Convention : Reuss Voigt Hill
#
# Bulk Modulus (GPa) = 19.20101 65.10786 42.15444
# Shear Modulus (GPa) = 14.78218 24.64987 19.71603
#
# Velocity S-wave (km/s) = 2.93754 3.79334 3.39253
# Velocity P-wave (km/s) = 4.76593 7.56258 6.32087
#
# Compressibility (1/GPa) = 0.05208058
#
# Stress axis : x y z
#
# Youngs Moduli (GPa) = 15.36308 76.02519 78.40409
#
# Poissons Ratio (x) = 0.03014 0.91910
# Poissons Ratio (y) = 0.00609 0.57551
# Poissons Ratio (z) = 0.18009 0.55805
#
# Static dielectric constant tensor:
#      x y z
#    x 2.456240 0.000000 -0.184100 
#    y 0.000000 3.387780 0.000000 
#    z -0.184100 0.000000 3.976540 
# 
# 
# High freq. dielectric constant tensor:
#      x y z
#    x 1.563750 0.000000 -0.009190 
#    y 0.000000 1.675310 0.000000 
#    z -0.009190 0.000000 1.689340 
# 
# From -- ./inp_files/236610.got.cif
#   From: 2010.06.25/outbox.cif.g09.slc.cpg/sg12_119_cif.got.tgz:236610.got - 2010.06.28 00:19:55.
