data_PCOD8116185
_publ_section_title
;
Structure prediction by ZEFSAII (Michael W. Deem and Ramdas Pophale) SiO2 
 PCOD8116185
Probable space group: C 2/M
;
_chemical_formula_sum "Si O2"
_cell_formula_units_Z 24
_cell_length_a 27.000000
_cell_length_b 9.000000
_cell_length_c 21.000000
_cell_angle_alpha 90.000000
_cell_angle_beta 30.000000
_cell_angle_gamma 90.000000
_cell_volume 2551.500000
_symmetry_space_group_name_H-M "C 2/M"
_symmetry_group_IT_number 12
_symmetry_cell_setting 'monoclinic'
loop_
_space_group_symop_operation_xyz
x,y,z
-x,y,-z
-x,-y,-z
x,-y,z
1/2+x,1/2+y,z
1/2-x,1/2+y,-z
1/2-x,1/2-y,-z
1/2+x,1/2-y,z
loop_
_atom_site_type_symbol
_atom_site_label
_atom_site_fract_x
_atom_site_fract_y
_atom_site_fract_z
Si Si1 0.935797 0.173802 0.509606
Si Si2 0.053833 0.669469 0.125121
Si Si3 0.221131 0.174795 0.121070
Si Si4 0.779079 0.328670 0.752345
Si Si5 0.458292 0.828217 0.722665
Si Si6 0.952654 0.830289 0.990348
O O1 0.833668 0.266909 0.628665
O O2 0.000000 0.215805 0.500000
O O3 0.984585 0.223695 0.389419
O O4 0.913802 0.000000 0.529842
O O5 0.055692 0.500000 0.101184
O O6 0.996517 0.690292 0.256120
O O7 0.004318 0.759110 0.122496
O O8 0.165948 0.725132 0.010753
O O9 0.181394 0.223896 0.234823
O O10 0.155741 0.271664 0.144813
O O11 0.203451 0.000000 0.130581
O O12 0.806736 0.500000 0.734707
O O13 0.663255 0.307604 0.872492
O O14 0.461464 0.000000 0.697854
O O15 0.985501 0.000000 0.950189
O O16 0.000000 0.753943 0.000000
#
# Coordination Sequence:
#
# PCOD8116185 Si02
#       6
#     8   8   8   8   8   8
#     4  11  22  34  49  71 103 141 177 213 248 292
#     4   9  20  34  49  74 104 133 168 209 254 303
#     4  10  18  30  47  70 103 137 169 206 247 296
#     4  10  19  32  52  76 102 134 171 210 250 297
#     4  11  21  32  48  71 102 139 175 208 246 298
#     4   9  19  36  58  82 104 128 163 210 262 309
#
# _framework density 9.4062319999999993
#
# number of rings (size 3 to 8) (size 9 to 14) (size 15 to 20)
#    0.000    2.000    1.667    2.500    0.000    3.667 
#    0.000    0.000    0.000    1.000    0.000    0.000 
#    0.000    0.000    0.000    0.000    0.000    0.000 
#
# Total GULP energy -297481.793146 kJ/mol
# GULP energy per Si atom -12395.074714 kJ/mol
# Density = 0.938482 g / cm^3
# Si number density = 9.406232 Si / 1000 Ang^3
#
#
#
# Elastic Constant Matrix: (Units=GPa)
#
#
# Indices 1 2 3 4 5 6 
#
# 1 98.6623 37.5882 25.7225 -0.0013 25.1920 -0.0010
# 2 37.5882 64.4791 24.7141 0.0158 7.4994 -0.0018
# 3 25.7225 24.7141 43.4947 0.0038 22.5789 -0.0021
# 4 -0.0013 0.0158 0.0038 24.2587 -0.0016 6.0762
# 5 25.1920 7.4994 22.5789 -0.0016 18.0887 0.0006
# 6 -0.0010 -0.0018 -0.0021 6.0762 0.0006 23.3318
#
#
#
# Elastic Compliance Matrix: (Units=1/GPa)
#
#
# Indices 1 2 3 4 5 6 
#
# 1 0.026371 -0.018861 0.028770 0.000004 -0.064819 0.000003
# 2 -0.018861 0.035241 -0.042388 -0.000013 0.064567 0.000000
# 3 0.028770 -0.042388 0.118570 -0.000004 -0.170498 0.000014
# 4 0.000004 -0.000013 -0.000004 0.044099 0.000009 -0.011485
# 5 -0.064819 0.064567 -0.170498 0.000009 0.331608 -0.000024
# 6 0.000003 0.000000 0.000014 -0.011485 -0.000024 0.045851
#
#
# Mechanical properties :
#
#
# Convention : Reuss Voigt Hill
#
# Bulk Modulus (GPa) = 8.67872 42.52063 25.59967
# Shear Modulus (GPa) = 7.09112 21.04326 14.06719
#
# Velocity S-wave (km/s) = 1.94359 3.34815 2.73748
# Velocity P-wave (km/s) = 3.10806 6.13174 4.86098
#
# Compressibility (1/GPa) = 0.11522442
#
# Stress axis : x y z
#
# Youngs Moduli (GPa) = 37.92003 28.37580 8.43382
#
# Poissons Ratio (x) = 0.53521 -0.24264
# Poissons Ratio (y) = 0.71523 0.35749
# Poissons Ratio (z) = -1.09097 1.20279
#
# Static dielectric constant tensor:
#      x y z
#    x 3.373820 0.000000 0.230290 
#    y 0.000000 3.416740 0.000010 
#    z 0.230290 0.000010 3.322260 
# 
# 
# High freq. dielectric constant tensor:
#      x y z
#    x 1.702400 0.000000 0.030080 
#    y 0.000000 1.734590 0.000000 
#    z 0.030080 0.000000 1.711200 
# 
# From -- ./inp_files/287957.got.cif
#   From: 2010.06.25/outbox.ucp.g09.slc.cvg/sg12_144_cif.got.tgz:287957.got - 2010.06.28 13:50:54.
