data_PCOD8116458
_publ_section_title
;
Structure prediction by ZEFSAII (Michael W. Deem and Ramdas Pophale) SiO2 
 PCOD8116458
Probable space group: C 2/M
;
_chemical_formula_sum "Si O2"
_cell_formula_units_Z 32
_cell_length_a 18.000000
_cell_length_b 9.000000
_cell_length_c 30.000000
_cell_angle_alpha 90.000000
_cell_angle_beta 40.000000
_cell_angle_gamma 90.000000
_cell_volume 3123.947783
_symmetry_space_group_name_H-M "C 2/M"
_symmetry_group_IT_number 12
_symmetry_cell_setting 'monoclinic'
loop_
_space_group_symop_operation_xyz
x,y,z
-x,y,-z
-x,-y,-z
x,-y,z
1/2+x,1/2+y,z
1/2-x,1/2+y,-z
1/2-x,1/2-y,-z
1/2+x,1/2-y,z
loop_
_atom_site_type_symbol
_atom_site_label
_atom_site_fract_x
_atom_site_fract_y
_atom_site_fract_z
Si Si1 0.682730 0.673028 0.991430
Si Si2 0.271660 0.169314 0.264242
Si Si3 0.789072 0.669830 0.357010
Si Si4 0.015575 0.832878 0.372317
Si Si5 0.589149 0.824763 0.496506
Si Si6 0.758658 0.675647 0.128284
Si Si7 0.586788 0.671806 0.870933
Si Si8 0.993063 0.831288 0.723514
O O1 0.713780 0.500000 0.975294
O O2 0.722737 0.745980 0.927196
O O3 0.750000 0.750000 0.000000
O O4 0.548631 0.698448 0.062942
O O5 0.240990 0.196498 0.329859
O O6 0.148337 0.205367 0.299305
O O7 0.368393 0.276417 0.198469
O O8 0.311572 0.000000 0.236979
O O9 0.785448 0.500000 0.373786
O O10 0.714822 0.760169 0.427287
O O11 0.920264 0.723785 0.290836
O O12 0.962081 0.817676 0.348050
O O13 0.952359 0.723885 0.435531
O O14 0.004811 0.000000 0.396595
O O15 0.500000 0.766909 0.500000
O O16 0.598810 0.000000 0.491911
O O17 0.769257 0.500000 0.117000
O O18 0.856319 0.728980 0.117181
O O19 0.636047 0.722120 0.205943
O O20 0.619038 0.500000 0.863216
O O21 0.007771 0.000000 0.733464
#
# Coordination Sequence:
#
# PCOD8116458 Si02
#       8
#     8   8   8   8   8   8   8   8
#     4  11  26  45  64  95 132 169 211 258 313 370
#     4  10  21  39  63  92 122 159 211 258 307 368
#     4  11  24  40  62  91 123 163 206 254 312 372
#     4  10  20  40  65  88 120 161 204 255 305 363
#     4  11  23  38  60  91 123 159 204 256 311 368
#     4  11  23  43  69  95 126 168 211 257 313 372
#     4  11  24  41  65  95 128 166 210 259 310 369
#     4  10  23  42  63  90 126 161 201 254 311 367
#
# _framework density 10.243449
#
# number of rings (size 3 to 8) (size 9 to 14) (size 15 to 20)
#    0.000    1.375    2.500    2.250    1.750    7.500 
#    0.000    0.000    0.000    0.000    0.000    0.000 
#    0.000    0.000    0.000    0.000    0.000    0.000 
#
# Total GULP energy -396809.189598 kJ/mol
# GULP energy per Si atom -12400.287175 kJ/mol
# Density = 1.022013 g / cm^3
# Si number density = 10.243449 Si / 1000 Ang^3
#
#
#
# Elastic Constant Matrix: (Units=GPa)
#
#
# Indices 1 2 3 4 5 6 
#
# 1 35.1988 31.2807 29.1235 0.0012 -12.5353 0.0050
# 2 31.2807 99.1436 62.5243 0.0021 -4.5479 0.0042
# 3 29.1235 62.5243 135.0267 0.0000 9.0719 -0.0002
# 4 0.0012 0.0021 0.0000 43.2615 0.0002 1.6366
# 5 -12.5353 -4.5479 9.0719 0.0002 25.6227 0.0028
# 6 0.0050 0.0042 -0.0002 1.6366 0.0028 26.2322
#
#
#
# Elastic Compliance Matrix: (Units=1/GPa)
#
#
# Indices 1 2 3 4 5 6 
#
# 1 0.055223 -0.010469 -0.008967 -0.000001 0.028333 -0.000012
# 2 -0.010469 0.016881 -0.005548 -0.000001 -0.000161 -0.000001
# 3 -0.008967 -0.005548 0.012569 0.000000 -0.009822 0.000004
# 4 -0.000001 -0.000001 0.000000 0.023170 -0.000001 -0.001446
# 5 0.028333 -0.000161 -0.009822 -0.000001 0.056338 -0.000011
# 6 -0.000012 -0.000001 0.000004 -0.001446 -0.000011 0.038211
#
#
# Mechanical properties :
#
#
# Convention : Reuss Voigt Hill
#
# Bulk Modulus (GPa) = 28.81390 57.24735 43.03063
# Shear Modulus (GPa) = 18.94465 28.78600 23.86532
#
# Velocity S-wave (km/s) = 3.04422 3.75252 3.41678
# Velocity P-wave (km/s) = 5.14310 6.83954 6.05106
#
# Compressibility (1/GPa) = 0.03470547
#
# Stress axis : x y z
#
# Youngs Moduli (GPa) = 18.10844 59.23933 79.56220
#
# Poissons Ratio (x) = 0.62016 0.71342
# Poissons Ratio (y) = 0.18957 0.44140
# Poissons Ratio (z) = 0.16238 0.32865
#
# Static dielectric constant tensor:
#      x y z
#    x 3.418530 0.000010 -0.162060 
#    y 0.000010 3.705610 0.000010 
#    z -0.162060 0.000010 3.618200 
# 
# 
# High freq. dielectric constant tensor:
#      x y z
#    x 1.794650 0.000000 0.004010 
#    y 0.000000 1.802040 0.000000 
#    z 0.004010 0.000000 1.818770 
# 
# From -- ./inp_files/378090.got.cif
#   From: 2010.06.25/outbox.ucp.g09.slc.cvg/sg12_190_cif.got.tgz:378090.got - 2010.06.28 13:50:54.
