data_PCOD8116656
_publ_section_title
;
Structure prediction by ZEFSAII (Michael W. Deem and Ramdas Pophale) SiO2 
 PCOD8116656
Probable space group: P 2/C
;
_chemical_formula_sum "Si O2"
_cell_formula_units_Z 24
_cell_length_a 16.811032
_cell_length_b 8.023213
_cell_length_c 16.270076
_cell_angle_alpha 90.000000
_cell_angle_beta 34.255844
_cell_angle_gamma 90.000000
_cell_volume 1235.251020
_symmetry_space_group_name_H-M "P 2/C"
_symmetry_group_IT_number 13
_symmetry_cell_setting 'monoclinic'
loop_
_space_group_symop_operation_xyz
x,y,z
-x,y,1/2-z
-x,-y,-z
x,-y,1/2+z
loop_
_atom_site_type_symbol
_atom_site_label
_atom_site_fract_x
_atom_site_fract_y
_atom_site_fract_z
Si Si1 0.408691 0.530634 0.496858
Si Si2 0.234702 0.841366 0.602079
Si Si3 0.000000 0.630969 0.750000
Si Si4 0.125851 0.649908 0.227985
Si Si5 0.242041 0.859953 0.990618
Si Si6 0.009996 0.960171 0.398346
Si Si7 0.500000 0.371864 0.250000
O O1 0.500000 0.500000 0.500000
O O2 0.645612 0.276568 0.459640
O O3 0.282735 0.402595 0.617934
O O4 0.484714 0.486332 0.344791
O O5 0.143232 0.736255 0.613077
O O6 0.308708 0.998762 0.494546
O O7 0.115087 0.905303 0.767784
O O8 0.025532 0.512703 0.807766
O O9 0.131790 0.743840 0.134328
O O10 0.071849 0.773710 0.343329
O O11 0.148283 0.957808 0.003757
O O12 0.366002 0.747721 0.847267
O O13 0.000000 0.000000 0.500000
#
# Coordination Sequence:
#
# PCOD8116656 Si02
#       7
#     4   4   2   4   4   4   2
#     4  10  23  42  62  87 129 157 206 252 301 370
#     4  10  20  37  62  88 113 158 202 255 303 343
#     4  10  14  32  62  80 106 146 194 234 300 354
#     4   9  18  37  61  81 112 164 190 243 310 348
#     4  10  19  40  61  82 122 152 211 238 293 376
#     4  11  21  36  59  93 119 151 202 256 300 357
#     4  10  24  42  64  88 116 184 194 238 316 368
#
# _framework density 19.429248999999999
#
# number of rings (size 3 to 8) (size 9 to 14) (size 15 to 20)
#    0.000    2.000    3.333    1.000    2.333    0.667 
#    6.000    5.833    0.000    0.000    0.000    0.000 
#    0.000    0.000    0.000    0.000    0.000    0.000 
#
# Total GULP energy -297384.293048 kJ/mol
# GULP energy per Si atom -12391.012210 kJ/mol
# Density = 1.938503 g / cm^3
# Si number density = 19.429249 Si / 1000 Ang^3
#
#
#
# Elastic Constant Matrix: (Units=GPa)
#
#
# Indices 1 2 3 4 5 6 
#
# 1 115.4116 32.9522 43.7394 0.0000 6.5820 0.0000
# 2 32.9522 103.1279 42.4692 0.0000 1.2671 0.0000
# 3 43.7394 42.4692 89.6715 0.0000 5.6447 0.0000
# 4 0.0000 0.0000 0.0000 32.6131 0.0000 -11.0544
# 5 6.5820 1.2671 5.6447 0.0000 26.2103 0.0000
# 6 0.0000 0.0000 0.0000 -11.0544 0.0000 27.0352
#
#
#
# Elastic Compliance Matrix: (Units=1/GPa)
#
#
# Indices 1 2 3 4 5 6 
#
# 1 0.010912 -0.001637 -0.004440 0.000000 -0.001705 0.000000
# 2 -0.001637 0.012303 -0.005085 0.000000 0.000912 0.000000
# 3 -0.004440 -0.005085 0.015855 0.000000 -0.002054 0.000000
# 4 0.000000 0.000000 0.000000 0.035596 0.000000 0.014555
# 5 -0.001705 0.000912 -0.002054 0.000000 0.038979 0.000000
# 6 0.000000 0.000000 0.000000 0.014555 0.000000 0.042940
#
#
# Mechanical properties :
#
#
# Convention : Reuss Voigt Hill
#
# Bulk Modulus (GPa) = 59.71980 60.72584 60.22282
# Shear Modulus (GPa) = 27.10140 29.77508 28.43824
#
# Velocity S-wave (km/s) = 3.73886 3.91895 3.82996
# Velocity P-wave (km/s) = 7.03154 7.19724 7.11487
#
# Compressibility (1/GPa) = 0.01674487
#
# Stress axis : x y z
#
# Youngs Moduli (GPa) = 91.64226 81.28135 63.07061
#
# Poissons Ratio (x) = 0.13309 0.28002
# Poissons Ratio (y) = 0.15005 0.32075
# Poissons Ratio (z) = 0.40687 0.41336
#
# Static dielectric constant tensor:
#      x y z
#    x 3.356920 0.000000 -0.174020 
#    y 0.000000 4.052720 0.000000 
#    z -0.174020 0.000000 3.357860 
# 
# 
# High freq. dielectric constant tensor:
#      x y z
#    x 1.741310 0.000000 -0.019110 
#    y 0.000000 1.779700 0.000000 
#    z -0.019110 0.000000 1.730230 
# 
# From -- ./inp_files/52943.got.cif
#   From: 2010.06.25/outbox.cif.g09.slc.cpg/sg13_27_cif.got.tgz:52943.got - 2010.06.28 04:50:58.
