data_PCOD8116325
_publ_section_title
;
Structure prediction by ZEFSAII (Michael W. Deem and Ramdas Pophale) SiO2 
 PCOD8116325
Probable space group: C 2/M
;
_chemical_formula_sum "Si O2"
_cell_formula_units_Z 28
_cell_length_a 27.000000
_cell_length_b 9.000000
_cell_length_c 18.000000
_cell_angle_alpha 90.000000
_cell_angle_beta 40.000000
_cell_angle_gamma 90.000000
_cell_volume 2811.553005
_symmetry_space_group_name_H-M "C 2/M"
_symmetry_group_IT_number 12
_symmetry_cell_setting 'monoclinic'
loop_
_space_group_symop_operation_xyz
x,y,z
-x,y,-z
-x,-y,-z
x,-y,z
1/2+x,1/2+y,z
1/2-x,1/2+y,-z
1/2-x,1/2-y,-z
1/2+x,1/2-y,z
loop_
_atom_site_type_symbol
_atom_site_label
_atom_site_fract_x
_atom_site_fract_y
_atom_site_fract_z
Si Si1 0.374277 0.170685 0.030313
Si Si2 0.238428 0.173998 0.301165
Si Si3 0.542460 0.827680 0.800846
Si Si4 0.008210 0.829575 0.285663
Si Si5 0.932645 0.827558 0.527135
Si Si6 0.174749 0.830485 0.058751
Si Si7 0.705741 0.677028 0.620054
O O1 0.316269 0.203041 0.164706
O O2 0.365533 0.000000 0.014352
O O3 0.466166 0.201834 0.941261
O O4 0.346972 0.279261 0.997965
O O5 0.156770 0.223666 0.355809
O O6 0.244470 0.276072 0.366334
O O7 0.233071 0.000000 0.329223
O O8 0.518162 0.786655 0.745606
O O9 0.617893 0.732880 0.734847
O O10 0.566176 0.000000 0.778005
O O11 0.099663 0.805747 0.197954
O O12 0.955622 0.794120 0.416330
O O13 0.995503 0.000000 0.273127
O O14 0.000000 0.749401 0.500000
O O15 0.935269 0.000000 0.543009
O O16 0.198522 0.000000 0.028090
O O17 0.250000 0.750000 0.000000
O O18 0.704654 0.500000 0.611371
O O19 0.750000 0.750000 0.500000
#
# Coordination Sequence:
#
# PCOD8116325 Si02
#       7
#     8   8   8   8   8   8   8
#     4   9  20  37  58  85 119 157 194 239 293 356
#     4  10  21  38  61  88 120 155 196 243 294 353
#     4  10  20  37  60  86 118 153 193 238 294 352
#     4   9  18  33  54  81 110 144 192 244 293 347
#     4   9  18  32  55  83 109 144 189 238 288 343
#     4  10  20  32  52  79 110 149 196 248 298 354
#     4  12  25  41  63  89 118 152 197 244 295 351
#
# _framework density 9.9589090000000002
#
# number of rings (size 3 to 8) (size 9 to 14) (size 15 to 20)
#    0.000    2.143    0.000    3.000    2.000    3.429 
#    0.000    2.857    0.000    0.857    0.000    0.000 
#    0.000    0.000    0.000    0.000    0.000    0.000 
#
# Total GULP energy -346949.911563 kJ/mol
# GULP energy per Si atom -12391.068270 kJ/mol
# Density = 0.993624 g / cm^3
# Si number density = 9.958909 Si / 1000 Ang^3
#
#
#
# Elastic Constant Matrix: (Units=GPa)
#
#
# Indices 1 2 3 4 5 6 
#
# 1 99.6233 35.4335 49.5021 0.0001 -30.0028 -0.0003
# 2 35.4335 93.0075 41.1517 -0.0286 -10.0620 0.0125
# 3 49.5021 41.1517 150.2085 -0.0175 -30.8283 0.0081
# 4 0.0001 -0.0286 -0.0175 27.7983 0.0098 -4.7683
# 5 -30.0028 -10.0620 -30.8283 0.0098 29.5644 -0.0037
# 6 -0.0003 0.0125 0.0081 -4.7683 -0.0037 34.6739
#
#
#
# Elastic Compliance Matrix: (Units=1/GPa)
#
#
# Indices 1 2 3 4 5 6 
#
# 1 0.016334 -0.004101 -0.001455 -0.000010 0.013663 0.000002
# 2 -0.004101 0.013281 -0.002816 0.000012 -0.002578 -0.000003
# 3 -0.001455 -0.002816 0.009426 0.000000 0.007394 0.000000
# 4 -0.000010 0.000012 0.000000 0.036843 -0.000017 0.005067
# 5 0.013663 -0.002578 0.007394 -0.000017 0.054523 0.000003
# 6 0.000002 -0.000003 0.000000 0.005067 0.000003 0.029537
#
#
# Mechanical properties :
#
#
# Convention : Reuss Voigt Hill
#
# Bulk Modulus (GPa) = 44.84972 66.11267 55.48119
# Shear Modulus (GPa) = 27.15601 32.85744 30.00673
#
# Velocity S-wave (km/s) = 3.69643 4.06600 3.88561
# Velocity P-wave (km/s) = 6.38627 7.43693 6.93153
#
# Compressibility (1/GPa) = 0.02229668
#
# Stress axis : x y z
#
# Youngs Moduli (GPa) = 61.22018 75.29374 106.08931
#
# Poissons Ratio (x) = 0.30877 0.15440
# Poissons Ratio (y) = 0.25106 0.29877
# Poissons Ratio (z) = 0.08910 0.21205
#
# Static dielectric constant tensor:
#      x y z
#    x 3.752370 -0.000040 -0.523380 
#    y -0.000040 3.516590 0.000050 
#    z -0.523380 0.000050 4.200200 
# 
# 
# High freq. dielectric constant tensor:
#      x y z
#    x 1.772000 0.000000 -0.030960 
#    y 0.000000 1.762110 0.000000 
#    z -0.030960 0.000000 1.805130 
# 
# From -- ./inp_files/292437.got.cif
#   From: 2010.06.25/outbox.ucp.g09.slc.cvg/sg12_147_cif.got.tgz:292437.got - 2010.06.28 13:50:54.
