data_PCOD8116162
_publ_section_title
;
Structure prediction by ZEFSAII (Michael W. Deem and Ramdas Pophale) SiO2 
 PCOD8116162
Probable space group: C 2/M
;
_chemical_formula_sum "Si O2"
_cell_formula_units_Z 56
_cell_length_a 16.842086
_cell_length_b 13.862661
_cell_length_c 13.978485
_cell_angle_alpha 90.000000
_cell_angle_beta 102.465268
_cell_angle_gamma 90.000000
_cell_volume 3186.708818
_symmetry_space_group_name_H-M "C 2/M"
_symmetry_group_IT_number 12
_symmetry_cell_setting 'monoclinic'
loop_
_space_group_symop_operation_xyz
x,y,z
-x,y,-z
-x,-y,-z
x,-y,z
1/2+x,1/2+y,z
1/2-x,1/2+y,-z
1/2-x,1/2-y,-z
1/2+x,1/2-y,z
loop_
_atom_site_type_symbol
_atom_site_label
_atom_site_fract_x
_atom_site_fract_y
_atom_site_fract_z
Si Si1 0.092414 0.609798 0.519554
Si Si2 0.153419 0.890952 0.235452
Si Si3 0.120616 0.717991 0.966223
Si Si4 0.551085 0.218144 0.155706
Si Si5 0.275158 0.609184 0.949563
Si Si6 0.738230 0.224062 0.606271
Si Si7 0.658993 0.107710 0.323101
O O1 0.098466 0.500000 0.560998
O O2 0.146743 0.683232 0.598418
O O3 0.125462 0.613820 0.421154
O O4 0.000000 0.646836 0.500000
O O5 0.074750 0.824797 0.198198
O O6 0.214249 0.878772 0.161579
O O7 0.200122 0.860032 0.344249
O O8 0.122487 0.000000 0.239197
O O9 0.182837 0.635633 0.950274
O O10 0.046391 0.716136 0.872258
O O11 0.089190 0.693838 0.063284
O O12 0.162957 0.823056 0.975506
O O13 0.584372 0.137045 0.235887
O O14 0.293137 0.500000 0.986576
O O15 0.750000 0.250000 0.500000
O O16 0.762914 0.320951 0.672169
O O17 0.688123 0.000000 0.305418
#
# Coordination Sequence:
#
# PCOD8116162 Si02
#       7
#     8   8   8   8   8   8   8
#     4   9  17  29  47  71  94 115 144 186 234 277
#     4   9  17  30  49  72  93 115 150 193 234 272
#     4   9  18  32  47  66  93 123 157 190 226 273
#     4   9  18  31  47  67  92 122 154 192 229 266
#     4   9  18  31  47  68  94 123 153 189 231 272
#     4   9  17  30  47  67  92 121 148 179 225 276
#     4   9  18  31  46  66  91 120 154 187 223 271
#
# _framework density 17.572989
#
# number of rings (size 3 to 8) (size 9 to 14) (size 15 to 20)
#    0.000    3.000    0.000    0.429    0.000    3.429 
#    0.000    7.143    0.000    0.429    0.000   12.000 
#    0.000    0.000    0.000    0.000    0.000    0.000 
#
# Total GULP energy -347057.959169 kJ/mol
# GULP energy per Si atom -12394.927113 kJ/mol
# Density = 1.753299 g / cm^3
# Si number density = 17.572989 Si / 1000 Ang^3
#
#
#
# Elastic Constant Matrix: (Units=GPa)
#
#
# Indices 1 2 3 4 5 6 
#
# 1 92.0628 40.0292 21.2030 0.0000 30.4445 0.0000
# 2 40.0292 116.2386 31.5337 0.0000 19.1772 0.0000
# 3 21.2030 31.5337 62.6081 0.0000 26.9118 0.0000
# 4 0.0000 0.0000 0.0000 21.7378 0.0000 -0.4067
# 5 30.4445 19.1772 26.9118 0.0000 29.1040 0.0000
# 6 0.0000 0.0000 0.0000 -0.4067 0.0000 21.5757
#
#
#
# Elastic Compliance Matrix: (Units=1/GPa)
#
#
# Indices 1 2 3 4 5 6 
#
# 1 0.018589 -0.004246 0.004977 0.000000 -0.021250 0.000000
# 2 -0.004246 0.011117 -0.004849 0.000000 0.001600 0.000000
# 3 0.004977 -0.004849 0.029200 0.000000 -0.029012 0.000000
# 4 0.000000 0.000000 0.000000 0.046019 0.000000 0.000868
# 5 -0.021250 0.001600 -0.029012 0.000000 0.082360 0.000000
# 6 0.000000 0.000000 0.000000 0.000868 0.000000 0.046365
#
#
# Mechanical properties :
#
#
# Convention : Reuss Voigt Hill
#
# Bulk Modulus (GPa) = 19.73549 50.71570 35.22560
# Shear Modulus (GPa) = 19.32179 26.35974 22.84076
#
# Velocity S-wave (km/s) = 3.31949 3.87720 3.60914
# Velocity P-wave (km/s) = 5.09382 6.99759 6.12018
#
# Compressibility (1/GPa) = 0.05067015
#
# Stress axis : x y z
#
# Youngs Moduli (GPa) = 53.79444 89.95528 34.24704
#
# Poissons Ratio (x) = 0.38195 -0.17046
# Poissons Ratio (y) = 0.22841 0.16607
# Poissons Ratio (z) = -0.26776 0.43620
#
# Static dielectric constant tensor:
#      x y z
#    x 3.216890 0.000000 0.230550 
#    y 0.000000 3.508640 0.000000 
#    z 0.230550 0.000000 3.298740 
# 
# 
# High freq. dielectric constant tensor:
#      x y z
#    x 1.657870 0.000000 0.016800 
#    y 0.000000 1.683150 0.000000 
#    z 0.016800 0.000000 1.676410 
# 
# From -- ./inp_files/223373.got.cif
#   From: 2010.06.25/outbox.cif.g09.slc.cpg/sg12_112_cif.got.tgz:223373.got - 2010.06.28 00:19:55.
