data_PCOD8117516
_publ_section_title
;
Structure prediction by ZEFSAII (Michael W. Deem and Ramdas Pophale) SiO2 
 PCOD8117516
Probable space group: P 2/C
;
_chemical_formula_sum "Si O2"
_cell_formula_units_Z 32
_cell_length_a 15.961146
_cell_length_b 9.172094
_cell_length_c 24.715370
_cell_angle_alpha 90.000000
_cell_angle_beta 24.965688
_cell_angle_gamma 90.000000
_cell_volume 1527.178363
_symmetry_space_group_name_H-M "P 2/C"
_symmetry_group_IT_number 13
_symmetry_cell_setting 'monoclinic'
loop_
_space_group_symop_operation_xyz
x,y,z
-x,y,1/2-z
-x,-y,-z
x,-y,1/2+z
loop_
_atom_site_type_symbol
_atom_site_label
_atom_site_fract_x
_atom_site_fract_y
_atom_site_fract_z
Si Si1 0.654439 0.969157 0.203877
Si Si2 0.126749 0.331162 0.274361
Si Si3 0.985126 0.109480 0.074473
Si Si4 0.098631 0.599462 0.137499
Si Si5 0.498714 0.504203 0.566187
Si Si6 0.920560 0.127721 0.694908
Si Si7 0.287686 0.067735 0.109950
Si Si8 0.504318 0.812998 0.103997
O O1 0.500000 0.034397 0.250000
O O2 0.518537 0.862570 0.320516
O O3 0.768801 0.095301 0.171121
O O4 0.833137 0.873481 0.073465
O O5 0.012455 0.250779 0.389349
O O6 0.287812 0.435368 0.208412
O O7 0.244024 0.221386 0.165930
O O8 0.969685 0.434670 0.335919
O O9 0.028727 0.967327 0.085709
O O10 0.000000 0.652338 0.250000
O O11 0.038169 0.720477 0.128784
O O12 0.332525 0.611697 0.010441
O O13 0.500000 0.500000 0.500000
O O14 0.542032 0.356508 0.573016
O O15 0.695741 0.150560 0.809757
O O16 0.894985 0.039727 0.767168
O O17 0.306381 0.102211 0.034541
O O18 0.500000 0.000000 0.000000
#
# Coordination Sequence:
#
# PCOD8117516 Si02
#       8
#     4   4   4   4   4   4   4   4
#     4  10  22  41  67  89 124 167 220 265 315 368
#     4  11  22  41  64  94 129 167 208 258 317 387
#     4   9  22  44  66  92 123 167 214 271 318 364
#     4  12  23  36  60  95 131 174 202 248 318 388
#     4  12  22  38  63  89 136 167 206 251 317 387
#     4   9  19  38  59  93 127 157 206 256 316 376
#     4   9  18  34  63  90 126 160 203 250 316 379
#     4  10  18  37  63  90 122 169 203 260 313 370
#
# _framework density 20.953673999999999
#
# number of rings (size 3 to 8) (size 9 to 14) (size 15 to 20)
#    0.000    1.750    3.750    0.750    3.500    1.000 
#    2.250    1.875    0.000    0.750    0.000    0.000 
#    0.000    0.000    0.000    0.000    0.000    0.000 
#
# Total GULP energy -396487.895367 kJ/mol
# GULP energy per Si atom -12390.246730 kJ/mol
# Density = 2.090598 g / cm^3
# Si number density = 20.953674 Si / 1000 Ang^3
#
#
#
# Elastic Constant Matrix: (Units=GPa)
#
#
# Indices 1 2 3 4 5 6 
#
# 1 84.7961 31.4903 28.4437 0.0000 4.1793 0.0000
# 2 31.4903 86.2855 15.4788 0.0000 7.8852 0.0000
# 3 28.4437 15.4788 79.2409 0.0000 14.8609 0.0000
# 4 0.0000 0.0000 0.0000 19.8282 0.0000 0.9492
# 5 4.1793 7.8852 14.8609 0.0000 36.5066 0.0000
# 6 0.0000 0.0000 0.0000 0.9492 0.0000 5.2456
#
#
#
# Elastic Compliance Matrix: (Units=1/GPa)
#
#
# Indices 1 2 3 4 5 6 
#
# 1 0.015085 -0.004772 -0.004712 0.000000 0.001222 0.000000
# 2 -0.004772 0.013627 -0.000541 0.000000 -0.002177 0.000000
# 3 -0.004712 -0.000541 0.015475 0.000000 -0.005643 0.000000
# 4 0.000000 0.000000 0.000000 0.050874 0.000000 -0.009206
# 5 0.001222 -0.002177 -0.005643 0.000000 0.030020 0.000000
# 6 0.000000 0.000000 0.000000 -0.009206 0.000000 0.192302
#
#
# Mechanical properties :
#
#
# Convention : Reuss Voigt Hill
#
# Bulk Modulus (GPa) = 41.42795 44.57203 42.99999
# Shear Modulus (GPa) = 14.47270 23.97672 19.22471
#
# Velocity S-wave (km/s) = 2.63097 3.38638 3.03229
# Velocity P-wave (km/s) = 5.38920 6.05045 5.72937
#
# Compressibility (1/GPa) = 0.02413830
#
# Stress axis : x y z
#
# Youngs Moduli (GPa) = 66.28906 73.38431 64.61990
#
# Poissons Ratio (x) = 0.35018 0.30449
# Poissons Ratio (y) = 0.31632 0.03494
# Poissons Ratio (z) = 0.31235 0.03968
#
# Static dielectric constant tensor:
#      x y z
#    x 3.622160 0.000000 0.032020 
#    y 0.000000 4.098910 0.000000 
#    z 0.032020 0.000000 3.835140 
# 
# 
# High freq. dielectric constant tensor:
#      x y z
#    x 1.809100 0.000000 -0.010980 
#    y 0.000000 1.807450 0.000000 
#    z -0.010980 0.000000 1.823970 
# 
# From -- ./inp_files/87413.got.cif
#   From: 2010.06.25/outbox.cif.g09.slc.cpg/sg13_44_cif.got.tgz:87413.got - 2010.06.28 04:50:58.
