data_PCOD8117941
_publ_section_title
;
Structure prediction by ZEFSAII (Michael W. Deem and Ramdas Pophale) SiO2 
 PCOD8117941
Probable space group: P 2/C
;
_chemical_formula_sum "Si O2"
_cell_formula_units_Z 24
_cell_length_a 16.161525
_cell_length_b 8.006761
_cell_length_c 21.949073
_cell_angle_alpha 90.000000
_cell_angle_beta 20.831260
_cell_angle_gamma 90.000000
_cell_volume 1010.038267
_symmetry_space_group_name_H-M "P 2/C"
_symmetry_group_IT_number 13
_symmetry_cell_setting 'monoclinic'
loop_
_space_group_symop_operation_xyz
x,y,z
-x,y,1/2-z
-x,-y,-z
x,-y,1/2+z
loop_
_atom_site_type_symbol
_atom_site_label
_atom_site_fract_x
_atom_site_fract_y
_atom_site_fract_z
Si Si1 0.323331 0.529951 0.980540
Si Si2 0.362027 0.242026 0.766430
Si Si3 0.126020 0.395521 0.239285
Si Si4 0.207218 0.115688 0.749750
Si Si5 0.175939 0.113335 0.014902
Si Si6 0.521649 0.226492 0.427247
O O1 0.269682 0.426523 0.079285
O O2 0.079165 0.536301 0.110153
O O3 0.520997 0.426029 0.808742
O O4 0.410852 0.715439 0.938780
O O5 0.216473 0.225779 0.804403
O O6 0.188988 0.215698 0.941885
O O7 0.569270 0.101704 0.629452
O O8 0.304266 0.377456 0.172856
O O9 0.994971 0.216424 0.322966
O O10 0.316617 0.217319 0.618526
O O11 0.351018 0.948250 0.666431
O O12 0.939866 0.068180 0.917474
#
# Coordination Sequence:
#
# PCOD8117941 Si02
#       6
#     4   4   4   4   4   4
#     4  10  19  34  59  81 107 145 190 232 280 327
#     4  10  19  36  60  80 109 149 189 234 277 339
#     4   9  18  34  55  80 108 142 186 231 273 328
#     4  10  20  36  57  82 116 149 186 228 281 343
#     4   9  20  36  57  81 111 149 189 225 286 338
#     4  10  20  36  55  86 115 145 186 238 281 331
#
# _framework density 23.761476999999999
#
# number of rings (size 3 to 8) (size 9 to 14) (size 15 to 20)
#    0.000    2.333    1.667    1.000    0.000    0.000 
#    6.000    3.333    3.667    2.000    0.000    0.000 
#    0.000    0.000    0.000    0.000    0.000    0.000 
#
# Total GULP energy -297375.995909 kJ/mol
# GULP energy per Si atom -12390.666496 kJ/mol
# Density = 2.370739 g / cm^3
# Si number density = 23.761477 Si / 1000 Ang^3
#
#
#
# Elastic Constant Matrix: (Units=GPa)
#
#
# Indices 1 2 3 4 5 6 
#
# 1 50.9260 16.9476 7.5707 0.0000 -14.4704 0.0000
# 2 16.9476 45.9598 16.1835 0.0000 -11.9309 0.0000
# 3 7.5707 16.1835 60.2566 0.0000 -6.0577 0.0000
# 4 0.0000 0.0000 0.0000 21.3229 0.0000 -2.6476
# 5 -14.4704 -11.9309 -6.0577 0.0000 34.4281 0.0000
# 6 0.0000 0.0000 0.0000 -2.6476 0.0000 32.3938
#
#
#
# Elastic Compliance Matrix: (Units=1/GPa)
#
#
# Indices 1 2 3 4 5 6 
#
# 1 0.024142 -0.006738 -0.000446 0.000000 0.007734 0.000000
# 2 -0.006738 0.027872 -0.006060 0.000000 0.005761 0.000000
# 3 -0.000446 -0.006060 0.018374 0.000000 0.000945 0.000000
# 4 0.000000 0.000000 0.000000 0.047379 0.000000 0.003872
# 5 0.007734 0.005761 0.000945 0.000000 0.034459 0.000000
# 6 0.000000 0.000000 0.000000 0.003872 0.000000 0.031187
#
#
# Mechanical properties :
#
#
# Convention : Reuss Voigt Hill
#
# Bulk Modulus (GPa) = 22.77858 26.50509 24.64183
# Shear Modulus (GPa) = 22.26824 25.39168 23.82996
#
# Velocity S-wave (km/s) = 3.06462 3.27250 3.17027
# Velocity P-wave (km/s) = 4.70422 5.04558 4.87789
#
# Compressibility (1/GPa) = 0.04390090
#
# Stress axis : x y z
#
# Youngs Moduli (GPa) = 41.42083 35.87833 54.42360
#
# Poissons Ratio (x) = 0.24174 0.02428
# Poissons Ratio (y) = 0.27908 0.32981
# Poissons Ratio (z) = 0.01848 0.21743
#
# Static dielectric constant tensor:
#      x y z
#    x 4.330170 0.000000 -0.352660 
#    y 0.000000 3.874290 0.000000 
#    z -0.352660 0.000000 4.316960 
# 
# 
# High freq. dielectric constant tensor:
#      x y z
#    x 1.930580 0.000000 -0.018150 
#    y 0.000000 1.906860 0.000000 
#    z -0.018150 0.000000 1.935870 
# 
# From -- ./inp_files/87860.got.cif
#   From: 2010.06.25/outbox.cif.g09.slc.cpg/sg13_44_cif.got.tgz:87860.got - 2010.06.28 04:50:58.
