data_PCOD8117712
_publ_section_title
;
Structure prediction by ZEFSAII (Michael W. Deem and Ramdas Pophale) SiO2 
 PCOD8117712
Probable space group: P 2/C
;
_chemical_formula_sum "Si O2"
_cell_formula_units_Z 32
_cell_length_a 12.858944
_cell_length_b 24.526015
_cell_length_c 5.195876
_cell_angle_alpha 90.000000
_cell_angle_beta 75.000376
_cell_angle_gamma 90.000000
_cell_volume 1582.834889
_symmetry_space_group_name_H-M "P 2/C"
_symmetry_group_IT_number 13
_symmetry_cell_setting 'monoclinic'
loop_
_space_group_symop_operation_xyz
x,y,z
-x,y,1/2-z
-x,-y,-z
x,-y,1/2+z
loop_
_atom_site_type_symbol
_atom_site_label
_atom_site_fract_x
_atom_site_fract_y
_atom_site_fract_z
Si Si1 0.625338 0.967250 0.153681
Si Si2 0.872874 0.828738 0.331026
Si Si3 0.236812 0.135829 0.106422
Si Si4 0.555223 0.802984 0.965943
Si Si5 0.873240 0.653666 0.803737
Si Si6 0.538338 0.315250 0.977517
Si Si7 0.128362 0.468899 0.160798
Si Si8 0.787446 0.709218 0.355085
O O1 0.500000 0.951383 0.250000
O O2 0.653844 0.985832 0.425571
O O3 0.694281 0.916810 0.008883
O O4 0.834049 0.869003 0.586681
O O5 0.815629 0.770840 0.405808
O O6 0.000000 0.820719 0.250000
O O7 0.843390 0.853658 0.075837
O O8 0.317761 0.186207 0.102768
O O9 0.500000 0.830298 0.750000
O O10 0.500000 0.830313 0.250000
O O11 0.539099 0.738153 0.975062
O O12 0.827669 0.592812 0.878300
O O13 0.838902 0.670902 0.539451
O O14 0.000000 0.654052 0.750000
O O15 0.830156 0.694543 0.046040
O O16 0.500000 0.348889 0.750000
O O17 0.660341 0.297628 0.919697
O O18 0.500000 0.350130 0.250000
O O19 0.173311 0.499105 0.384702
O O20 0.000000 0.468957 0.250000
#
# Coordination Sequence:
#
# PCOD8117712 Si02
#       8
#     4   4   4   4   4   4   4   4
#     4  10  22  40  64  95 123 144 175 230 300 365
#     4  12  25  40  58  83 116 158 207 242 265 318
#     4  12  23  40  64  85 115 155 191 233 288 342
#     4  10  19  32  52  81 108 137 179 220 271 333
#     4  11  22  36  54  80 118 159 195 230 281 347
#     4  10  19  34  52  75 107 140 182 230 275 328
#     4   9  17  31  52  77 106 143 188 240 290 334
#     4  12  23  37  55  81 118 159 193 231 286 338
#
# _framework density 20.216889999999999
#
# number of rings (size 3 to 8) (size 9 to 14) (size 15 to 20)
#    0.000    1.250    0.000    8.625    0.000    3.500 
#    0.000    0.000    0.000    7.500    0.000    0.000 
#    0.000   35.000    0.000    0.000    0.000    0.000 
#
# Total GULP energy -396678.400614 kJ/mol
# GULP energy per Si atom -12396.200019 kJ/mol
# Density = 2.017088 g / cm^3
# Si number density = 20.216890 Si / 1000 Ang^3
#
#
#
# Elastic Constant Matrix: (Units=GPa)
#
#
# Indices 1 2 3 4 5 6 
#
# 1 81.4254 1.9266 38.0377 0.0000 12.6290 0.0000
# 2 1.9266 62.1091 13.0833 0.0000 0.4710 0.0000
# 3 38.0377 13.0833 150.6702 0.0000 18.6702 0.0000
# 4 0.0000 0.0000 0.0000 26.2541 0.0000 3.1514
# 5 12.6290 0.4710 18.6702 0.0000 38.4454 0.0000
# 6 0.0000 0.0000 0.0000 3.1514 0.0000 15.7724
#
#
#
# Elastic Compliance Matrix: (Units=1/GPa)
#
#
# Indices 1 2 3 4 5 6 
#
# 1 0.014272 0.000263 -0.003240 0.000000 -0.003118 0.000000
# 2 0.000263 0.016415 -0.001550 0.000000 0.000465 0.000000
# 3 -0.003240 -0.001550 0.007933 0.000000 -0.002769 0.000000
# 4 0.000000 0.000000 0.000000 0.039025 0.000000 -0.007797
# 5 -0.003118 0.000465 -0.002769 0.000000 0.028374 0.000000
# 6 0.000000 0.000000 0.000000 -0.007797 0.000000 0.064960
#
#
# Mechanical properties :
#
#
# Convention : Reuss Voigt Hill
#
# Bulk Modulus (GPa) = 33.81978 44.47779 39.14879
# Shear Modulus (GPa) = 26.33149 32.17153 29.25151
#
# Velocity S-wave (km/s) = 3.61286 3.99346 3.80792
# Velocity P-wave (km/s) = 5.84538 6.58116 6.22416
#
# Compressibility (1/GPa) = 0.02956849
#
# Stress axis : x y z
#
# Youngs Moduli (GPa) = 70.06770 60.91839 126.06315
#
# Poissons Ratio (x) = -0.01604 0.40838
# Poissons Ratio (y) = -0.01845 0.19534
# Poissons Ratio (z) = 0.22699 0.09439
#
# Static dielectric constant tensor:
#      x y z
#    x 3.748920 0.000000 0.653880 
#    y 0.000000 3.441620 0.000000 
#    z 0.653880 0.000000 5.396290 
# 
# 
# High freq. dielectric constant tensor:
#      x y z
#    x 1.779410 0.000000 0.016050 
#    y 0.000000 1.752000 0.000000 
#    z 0.016050 0.000000 1.821710 
# 
# From -- ./inp_files/4425.got.cif
#   From: 2010.06.25/outbox.cif.g09.slc.cpg/sg13_3_cif.got.tgz:4425.got - 2010.06.28 04:50:58.
