data_PCOD8117706
_publ_section_title
;
Structure prediction by ZEFSAII (Michael W. Deem and Ramdas Pophale) SiO2 
 PCOD8117706
Probable space group: P 2/C
;
_chemical_formula_sum "Si O2"
_cell_formula_units_Z 28
_cell_length_a 9.478745
_cell_length_b 32.969859
_cell_length_c 5.090671
_cell_angle_alpha 90.000000
_cell_angle_beta 71.539008
_cell_angle_gamma 90.000000
_cell_volume 1509.031702
_symmetry_space_group_name_H-M "P 2/C"
_symmetry_group_IT_number 13
_symmetry_cell_setting 'monoclinic'
loop_
_space_group_symop_operation_xyz
x,y,z
-x,y,1/2-z
-x,-y,-z
x,-y,1/2+z
loop_
_atom_site_type_symbol
_atom_site_label
_atom_site_fract_x
_atom_site_fract_y
_atom_site_fract_z
Si Si1 0.895610 0.402220 0.060255
Si Si2 0.100326 0.314484 0.439888
Si Si3 0.672411 0.474305 0.137882
Si Si4 0.824271 0.977390 0.889766
Si Si5 0.329438 0.897103 0.335126
Si Si6 0.896475 0.226746 0.061281
Si Si7 0.329298 0.845069 0.830272
O O1 0.812812 0.357578 0.093338
O O2 0.763678 0.434111 0.143357
O O3 0.000000 0.407689 0.250000
O O4 0.000000 0.409197 0.750000
O O5 0.185849 0.271182 0.359032
O O6 0.000000 0.320419 0.250000
O O7 0.000000 0.309399 0.750000
O O8 0.500000 0.462209 0.250000
O O9 0.713409 0.508242 0.328847
O O10 0.000000 0.977783 0.750000
O O11 0.762384 0.989588 0.638913
O O12 0.776108 0.933970 0.025004
O O13 0.500000 0.911921 0.250000
O O14 0.297318 0.861931 0.561197
O O15 0.289890 0.879390 0.071176
O O16 0.768605 0.194595 0.082871
O O17 0.000000 0.216455 0.250000
O O18 0.000000 0.226087 0.750000
O O19 0.500000 0.831620 0.750000
#
# Coordination Sequence:
#
# PCOD8117706 Si02
#       7
#     4   4   4   4   4   4   4
#     4  10  19  32  52  75  98 128 168 211 251 295
#     4   8  16  30  48  72 101 128 159 206 253 292
#     4  10  21  35  49  69 101 135 165 206 258 304
#     4  10  21  36  53  75 102 130 163 207 251 289
#     4  10  21  36  54  75 102 136 169 203 246 297
#     4  10  19  33  54  78 102 133 172 205 245 303
#     4  10  21  36  52  76 108 135 165 209 253 289
#
# _framework density 18.554946000000001
#
# number of rings (size 3 to 8) (size 9 to 14) (size 15 to 20)
#    0.000    2.286    0.000    2.571    0.000    4.000 
#    0.000    0.714    0.000    0.000    0.000   18.000 
#    0.000    0.000    0.000    0.000    0.000    0.000 
#
# Total GULP energy -346912.492450 kJ/mol
# GULP energy per Si atom -12389.731873 kJ/mol
# Density = 1.851271 g / cm^3
# Si number density = 18.554946 Si / 1000 Ang^3
#
#
#
# Elastic Constant Matrix: (Units=GPa)
#
#
# Indices 1 2 3 4 5 6 
#
# 1 53.8979 48.2578 34.8706 0.0000 7.8765 0.0000
# 2 48.2578 126.5985 29.8487 0.0000 -19.4556 0.0000
# 3 34.8706 29.8487 98.5096 0.0000 13.8282 0.0000
# 4 0.0000 0.0000 0.0000 14.7360 0.0000 7.1800
# 5 7.8765 -19.4556 13.8282 0.0000 23.2850 0.0000
# 6 0.0000 0.0000 0.0000 7.1800 0.0000 4.0152
#
#
#
# Elastic Compliance Matrix: (Units=1/GPa)
#
#
# Indices 1 2 3 4 5 6 
#
# 1 0.043971 -0.019731 -0.005656 0.000000 -0.028001 0.000000
# 2 -0.019731 0.019800 -0.002481 0.000000 0.024691 0.000000
# 3 -0.005656 -0.002481 0.014103 0.000000 -0.008535 0.000000
# 4 0.000000 0.000000 0.000000 0.527211 0.000000 -0.942762
# 5 -0.028001 0.024691 -0.008535 0.000000 0.078117 0.000000
# 6 0.000000 0.000000 0.000000 -0.942762 0.000000 1.934909
#
#
# Mechanical properties :
#
#
# Convention : Reuss Voigt Hill
#
# Bulk Modulus (GPa) = 45.17012 56.10672 50.63842
# Shear Modulus (GPa) = 1.86482 19.47584 10.67033
#
# Velocity S-wave (km/s) = 1.00360 3.24331 2.40066
# Velocity P-wave (km/s) = 5.07344 6.65802 5.91900
#
# Compressibility (1/GPa) = 0.02213853
#
# Stress axis : x y z
#
# Youngs Moduli (GPa) = 22.74226 50.50591 70.90595
#
# Poissons Ratio (x) = 0.99653 0.40103
# Poissons Ratio (y) = 0.44873 0.17591
# Poissons Ratio (z) = 0.12862 0.12530
#
# Static dielectric constant tensor:
#      x y z
#    x 3.229430 0.000000 0.311570 
#    y 0.000000 3.749550 0.000000 
#    z 0.311570 0.000000 3.731490 
# 
# 
# High freq. dielectric constant tensor:
#      x y z
#    x 1.689230 0.000000 0.027500 
#    y 0.000000 1.733990 0.000000 
#    z 0.027500 0.000000 1.739020 
# 
# From -- ./inp_files/2671.got.cif
#   From: 2010.06.25/outbox.cif.g09.slc.cpg/sg13_2_cif.got.tgz:2671.got - 2010.06.28 04:50:58.
