data_PCOD8117803
_publ_section_title
;
Structure prediction by ZEFSAII (Michael W. Deem and Ramdas Pophale) SiO2 
 PCOD8117803
Probable space group: P 2/C
;
_chemical_formula_sum "Si O2"
_cell_formula_units_Z 30
_cell_length_a 12.956771
_cell_length_b 14.936770
_cell_length_c 9.051790
_cell_angle_alpha 90.000000
_cell_angle_beta 71.266362
_cell_angle_gamma 90.000000
_cell_volume 1659.006019
_symmetry_space_group_name_H-M "P 2/C"
_symmetry_group_IT_number 13
_symmetry_cell_setting 'monoclinic'
loop_
_space_group_symop_operation_xyz
x,y,z
-x,y,1/2-z
-x,-y,-z
x,-y,1/2+z
loop_
_atom_site_type_symbol
_atom_site_label
_atom_site_fract_x
_atom_site_fract_y
_atom_site_fract_z
Si Si1 0.612470 0.408082 0.277641
Si Si2 0.819084 0.289791 0.520493
Si Si3 0.383538 0.588828 0.374632
Si Si4 0.865607 0.922551 0.666140
Si Si5 0.041870 0.379219 0.483667
Si Si6 0.000000 0.497364 0.250000
Si Si7 0.111462 0.097329 0.001798
Si Si8 0.213062 0.261197 0.303819
O O1 0.500000 0.387931 0.250000
O O2 0.662336 0.497311 0.178375
O O3 0.600234 0.425204 0.457791
O O4 0.679674 0.318006 0.212929
O O5 0.702582 0.331870 0.618608
O O6 0.831969 0.189422 0.578763
O O7 0.831309 0.279287 0.339798
O O8 0.914040 0.354280 0.537914
O O9 0.500000 0.615205 0.250000
O O10 0.868906 0.929334 0.839415
O O11 0.775653 0.845200 0.669129
O O12 0.981241 0.895117 0.539024
O O13 0.831756 0.019472 0.621015
O O14 0.072256 0.439564 0.611101
O O15 0.117003 0.292625 0.457700
O O16 0.075131 0.435765 0.321055
#
# Coordination Sequence:
#
# PCOD8117803 Si02
#       8
#     4   4   4   4   4   2   4   4
#     4  10  21  36  53  75 100 137 176 213 253 298
#     4  10  19  33  56  74 102 137 172 206 257 311
#     4  10  21  36  53  75 100 137 176 213 253 298
#     4   9  17  32  51  74 103 135 164 204 253 308
#     4  11  20  36  45  76 103 138 170 205 251 305
#     4  10  24  30  48  66 112 140 168 202 250 308
#     4   9  17  32  51  74 103 135 164 204 253 308
#     4  10  19  33  56  74 102 137 172 206 257 311
#
# _framework density 18.083116
#
# number of rings (size 3 to 8) (size 9 to 14) (size 15 to 20)
#    0.000    2.133    2.667    1.600    3.733    0.000 
#    4.800    0.000    0.000    0.800    0.000    5.600 
#    0.000    0.000    0.000    0.000    0.000    0.000 
#
# Total GULP energy -371748.322603 kJ/mol
# GULP energy per Si atom -12391.610753 kJ/mol
# Density = 1.804196 g / cm^3
# Si number density = 18.083116 Si / 1000 Ang^3
#
#
#
# Elastic Constant Matrix: (Units=GPa)
#
#
# Indices 1 2 3 4 5 6 
#
# 1 65.1345 56.1487 31.4255 0.0000 -4.1936 0.0000
# 2 56.1487 164.6525 49.2428 0.0000 -5.0221 0.0000
# 3 31.4255 49.2428 74.4955 0.0000 1.5960 0.0000
# 4 0.0000 0.0000 0.0000 11.8702 0.0000 -0.7368
# 5 -4.1936 -5.0221 1.5960 0.0000 18.6648 0.0000
# 6 0.0000 0.0000 0.0000 -0.7368 0.0000 29.9312
#
#
#
# Elastic Compliance Matrix: (Units=1/GPa)
#
#
# Indices 1 2 3 4 5 6 
#
# 1 0.023905 -0.006207 -0.006071 0.000000 0.004220 0.000000
# 2 -0.006207 0.009297 -0.003557 0.000000 0.001411 0.000000
# 3 -0.006071 -0.003557 0.018420 0.000000 -0.003896 0.000000
# 4 0.000000 0.000000 0.000000 0.084373 0.000000 0.002077
# 5 0.004220 0.001411 -0.003896 0.000000 0.055238 0.000000
# 6 0.000000 0.000000 0.000000 0.002077 0.000000 0.033461
#
#
# Mechanical properties :
#
#
# Convention : Reuss Voigt Hill
#
# Bulk Modulus (GPa) = 50.12613 64.21296 57.16954
# Shear Modulus (GPa) = 19.01029 23.25761 21.13395
#
# Velocity S-wave (km/s) = 3.24585 3.59018 3.42235
# Velocity P-wave (km/s) = 6.46741 7.26450 6.87751
#
# Compressibility (1/GPa) = 0.01994968
#
# Stress axis : x y z
#
# Youngs Moduli (GPa) = 41.83258 107.56046 54.28987
#
# Poissons Ratio (x) = 0.66767 0.32961
# Poissons Ratio (y) = 0.25967 0.19312
# Poissons Ratio (z) = 0.25398 0.38262
#
# Static dielectric constant tensor:
#      x y z
#    x 3.054960 0.000000 0.076130 
#    y 0.000000 3.608170 0.000000 
#    z 0.076130 0.000000 3.294950 
# 
# 
# High freq. dielectric constant tensor:
#      x y z
#    x 1.662830 0.000000 0.008960 
#    y 0.000000 1.709460 0.000000 
#    z 0.008960 0.000000 1.692720 
# 
# From -- ./inp_files/19349.got.cif
#   From: 2010.06.25/outbox.cif.g09.slc.cpg/sg13_10_cif.got.tgz:19349.got - 2010.06.28 04:50:58.
