data_PCOD8117744
_publ_section_title
;
Structure prediction by ZEFSAII (Michael W. Deem and Ramdas Pophale) SiO2 
 PCOD8117744
Probable space group: P 2/C
;
_chemical_formula_sum "Si O2"
_cell_formula_units_Z 32
_cell_length_a 19.949900
_cell_length_b 15.584884
_cell_length_c 8.829815
_cell_angle_alpha 90.000000
_cell_angle_beta 39.728288
_cell_angle_gamma 90.000000
_cell_volume 1754.676536
_symmetry_space_group_name_H-M "P 2/C"
_symmetry_group_IT_number 13
_symmetry_cell_setting 'monoclinic'
loop_
_space_group_symop_operation_xyz
x,y,z
-x,y,1/2-z
-x,-y,-z
x,-y,1/2+z
loop_
_atom_site_type_symbol
_atom_site_label
_atom_site_fract_x
_atom_site_fract_y
_atom_site_fract_z
Si Si1 0.899068 0.903104 0.776836
Si Si2 0.377255 0.895722 0.454083
Si Si3 0.872498 0.399937 0.309619
Si Si4 0.881726 0.855772 0.123154
Si Si5 0.879853 0.430385 0.632153
Si Si6 0.210415 0.768325 0.707830
Si Si7 0.727435 0.036347 0.062655
Si Si8 0.102840 0.290964 0.674665
O O1 0.860052 0.853301 0.696248
O O2 0.022407 0.926040 0.541379
O O3 0.874005 0.834583 0.957685
O O4 0.833375 0.988089 0.930964
O O5 0.500000 0.882363 0.250000
O O6 0.329379 0.803881 0.481169
O O7 0.330740 0.919740 0.697852
O O8 0.352992 0.972286 0.379313
O O9 0.828613 0.413088 0.556737
O O10 0.842348 0.474520 0.243164
O O11 0.821202 0.311702 0.341873
O O12 0.997700 0.406013 0.092493
O O13 0.769755 0.890515 0.374784
O O14 0.925132 0.775567 0.143337
O O15 0.843308 0.371926 0.836471
O O16 0.193981 0.745674 0.911400
O O17 0.000000 0.313801 0.750000
#
# Coordination Sequence:
#
# PCOD8117744 Si02
#       8
#     4   4   4   4   4   4   4   4
#     4  10  21  33  50  77 109 151 179 215 272 335
#     4  11  24  41  60  78 102 142 191 250 296 329
#     4  10  19  33  49  81 113 155 182 217 254 322
#     4  11  20  33  50  76 115 146 178 217 270 338
#     4  10  20  30  52  78 121 151 184 208 256 320
#     4  11  21  35  54  76 111 143 189 230 278 330
#     4  11  21  38  55  79 105 136 186 233 283 341
#     4  12  20  31  50  78 112 149 187 219 266 324
#
# _framework density 18.236979000000002
#
# number of rings (size 3 to 8) (size 9 to 14) (size 15 to 20)
#    0.000    1.250    5.000    2.250    1.750    2.000 
#    2.250    0.000    0.000    0.000    0.000    3.500 
#    0.000    0.000    0.000    0.000    0.000    0.000 
#
# Total GULP energy -396436.570854 kJ/mol
# GULP energy per Si atom -12388.642839 kJ/mol
# Density = 1.819547 g / cm^3
# Si number density = 18.236979 Si / 1000 Ang^3
#
#
#
# Elastic Constant Matrix: (Units=GPa)
#
#
# Indices 1 2 3 4 5 6 
#
# 1 54.9412 17.0923 28.1612 0.0000 -0.3132 0.0000
# 2 17.0923 72.2747 24.1834 0.0000 -6.2697 0.0000
# 3 28.1612 24.1834 69.4105 0.0000 0.3677 0.0000
# 4 0.0000 0.0000 0.0000 20.4376 0.0000 4.7830
# 5 -0.3132 -6.2697 0.3677 0.0000 36.4248 0.0000
# 6 0.0000 0.0000 0.0000 4.7830 0.0000 24.7025
#
#
#
# Elastic Compliance Matrix: (Units=1/GPa)
#
#
# Indices 1 2 3 4 5 6 
#
# 1 0.023428 -0.002689 -0.008567 0.000000 -0.000175 0.000000
# 2 -0.002689 0.016251 -0.004586 0.000000 0.002820 0.000000
# 3 -0.008567 -0.004586 0.019486 0.000000 -0.001060 0.000000
# 4 0.000000 0.000000 0.000000 0.051252 0.000000 -0.009924
# 5 -0.000175 0.002820 -0.001060 0.000000 0.027948 0.000000
# 6 0.000000 0.000000 0.000000 -0.009924 0.000000 0.042403
#
#
# Mechanical properties :
#
#
# Convention : Reuss Voigt Hill
#
# Bulk Modulus (GPa) = 36.38903 37.27781 36.83342
# Shear Modulus (GPa) = 22.56164 24.79227 23.67696
#
# Velocity S-wave (km/s) = 3.52111 3.69107 3.60709
# Velocity P-wave (km/s) = 6.04382 6.21695 6.13100
#
# Compressibility (1/GPa) = 0.02748081
#
# Stress axis : x y z
#
# Youngs Moduli (GPa) = 42.68346 61.53385 51.31763
#
# Poissons Ratio (x) = 0.16547 0.43966
# Poissons Ratio (y) = 0.11478 0.23535
# Poissons Ratio (z) = 0.36569 0.28220
#
# Static dielectric constant tensor:
#      x y z
#    x 3.478210 0.000000 0.403630 
#    y 0.000000 3.384760 0.000000 
#    z 0.403630 0.000000 3.288940 
# 
# 
# High freq. dielectric constant tensor:
#      x y z
#    x 1.691880 0.000000 0.046520 
#    y 0.000000 1.702970 0.000000 
#    z 0.046520 0.000000 1.683060 
# 
# From -- ./inp_files/23534.got.cif
#   From: 2010.06.25/outbox.cif.g09.slc.cpg/sg13_12_cif.got.tgz:23534.got - 2010.06.28 04:50:58.
