data_PCOD8117963
_publ_section_title
;
Structure prediction by ZEFSAII (Michael W. Deem and Ramdas Pophale) SiO2 
 PCOD8117963
Probable space group: P 2/C
;
_chemical_formula_sum "Si O2"
_cell_formula_units_Z 20
_cell_length_a 7.628204
_cell_length_b 9.098657
_cell_length_c 24.567961
_cell_angle_alpha 90.000000
_cell_angle_beta 34.213057
_cell_angle_gamma 90.000000
_cell_volume 958.771340
_symmetry_space_group_name_H-M "P 2/C"
_symmetry_group_IT_number 13
_symmetry_cell_setting 'monoclinic'
loop_
_space_group_symop_operation_xyz
x,y,z
-x,y,1/2-z
-x,-y,-z
x,-y,1/2+z
loop_
_atom_site_type_symbol
_atom_site_label
_atom_site_fract_x
_atom_site_fract_y
_atom_site_fract_z
Si Si1 0.386369 0.338338 0.516443
Si Si2 0.616684 0.180388 0.558267
Si Si3 0.262132 0.742850 0.357168
Si Si4 0.166098 0.070629 0.353817
Si Si5 0.240332 0.895439 0.642276
O O1 0.500000 0.500000 0.500000
O O2 0.383353 0.252346 0.574491
O O3 0.602940 0.255527 0.417283
O O4 0.048066 0.347375 0.575987
O O5 0.611916 0.282620 0.613596
O O6 0.974303 0.177303 0.443751
O O7 0.492666 0.013441 0.599571
O O8 0.500000 0.689953 0.250000
O O9 0.219038 0.917244 0.369525
O O10 0.500000 0.141747 0.250000
O O11 0.950359 0.031919 0.357916
O O12 0.000000 0.848763 0.750000
#
# Coordination Sequence:
#
# PCOD8117963 Si02
#       5
#     4   4   4   4   4
#     4  11  25  45  60  91 136 174 210 255 318 391
#     4  11  22  40  67  93 128 162 215 272 321 372
#     4  11  22  38  66  95 122 164 213 264 320 377
#     4  10  19  34  61  99 125 155 208 272 322 373
#     4  11  21  39  64  98 125 165 214 271 322 373
#
# _framework density 20.860030999999999
#
# number of rings (size 3 to 8) (size 9 to 14) (size 15 to 20)
#    0.000    1.200    4.000    4.200    2.800    0.800 
#    3.600    4.000    0.000    0.000    0.000    0.000 
#    0.000    0.000    0.000    0.000    0.000    0.000 
#
# Total GULP energy -247965.376153 kJ/mol
# GULP energy per Si atom -12398.268808 kJ/mol
# Density = 2.081255 g / cm^3
# Si number density = 20.860031 Si / 1000 Ang^3
#
#
#
# Elastic Constant Matrix: (Units=GPa)
#
#
# Indices 1 2 3 4 5 6 
#
# 1 114.6905 26.5974 60.9432 0.0000 3.8223 0.0000
# 2 26.5974 88.2981 35.6682 0.0000 -1.1474 0.0000
# 3 60.9432 35.6682 148.1831 0.0000 5.6947 0.0000
# 4 0.0000 0.0000 0.0000 8.8325 0.0000 -4.3521
# 5 3.8223 -1.1474 5.6947 0.0000 38.2453 0.0000
# 6 0.0000 0.0000 0.0000 -4.3521 0.0000 25.6376
#
#
#
# Elastic Compliance Matrix: (Units=1/GPa)
#
#
# Indices 1 2 3 4 5 6 
#
# 1 0.011396 -0.001723 -0.004251 0.000000 -0.000558 0.000000
# 2 -0.001723 0.012832 -0.002415 0.000000 0.000917 0.000000
# 3 -0.004251 -0.002415 0.009117 0.000000 -0.001005 0.000000
# 4 0.000000 0.000000 0.000000 0.123553 0.000000 0.020974
# 5 -0.000558 0.000917 -0.001005 0.000000 0.026380 0.000000
# 6 0.000000 0.000000 0.000000 0.020974 0.000000 0.042566
#
#
# Mechanical properties :
#
#
# Convention : Reuss Voigt Hill
#
# Bulk Modulus (GPa) = 60.36251 66.39883 63.38067
# Shear Modulus (GPa) = 20.14972 29.74061 24.94516
#
# Velocity S-wave (km/s) = 3.11134 3.77997 3.46184
# Velocity P-wave (km/s) = 6.47356 7.13797 6.81387
#
# Compressibility (1/GPa) = 0.01656657
#
# Stress axis : x y z
#
# Youngs Moduli (GPa) = 87.75062 77.93115 109.69029
#
# Poissons Ratio (x) = 0.13427 0.46626
# Poissons Ratio (y) = 0.15119 0.26494
# Poissons Ratio (z) = 0.37300 0.18823
#
# Static dielectric constant tensor:
#      x y z
#    x 4.037730 0.000000 -0.000470 
#    y 0.000000 3.228480 0.000000 
#    z -0.000470 0.000000 4.109270 
# 
# 
# High freq. dielectric constant tensor:
#      x y z
#    x 1.835690 0.000000 0.001800 
#    y 0.000000 1.761420 0.000000 
#    z 0.001800 0.000000 1.825520 
# 
# From -- ./inp_files/67898.got.cif
#   From: 2010.06.25/outbox.cif.g09.slc.cpg/sg13_34_cif.got.tgz:67898.got - 2010.06.28 04:50:58.
