data_PCOD8117945
_publ_section_title
;
Structure prediction by ZEFSAII (Michael W. Deem and Ramdas Pophale) SiO2 
 PCOD8117945
Probable space group: P 2/C
;
_chemical_formula_sum "Si O2"
_cell_formula_units_Z 26
_cell_length_a 11.761914
_cell_length_b 11.386457
_cell_length_c 11.359984
_cell_angle_alpha 90.000000
_cell_angle_beta 119.856926
_cell_angle_gamma 90.000000
_cell_volume 1319.469281
_symmetry_space_group_name_H-M "P 2/C"
_symmetry_group_IT_number 13
_symmetry_cell_setting 'monoclinic'
loop_
_space_group_symop_operation_xyz
x,y,z
-x,y,1/2-z
-x,-y,-z
x,-y,1/2+z
loop_
_atom_site_type_symbol
_atom_site_label
_atom_site_fract_x
_atom_site_fract_y
_atom_site_fract_z
Si Si1 0.171335 0.743303 0.057255
Si Si2 0.112748 0.656403 0.606971
Si Si3 0.719754 0.305836 0.523040
Si Si4 0.144066 0.109227 0.768989
Si Si5 0.153985 0.153591 0.308254
Si Si6 0.500000 0.382707 0.250000
Si Si7 0.288332 0.455728 0.757474
O O1 0.135544 0.846492 0.130440
O O2 0.280454 0.655646 0.165087
O O3 0.224915 0.802239 0.964731
O O4 0.042636 0.666727 0.962280
O O5 0.155571 0.663529 0.493327
O O6 0.187380 0.759585 0.718172
O O7 0.154528 0.531148 0.682031
O O8 0.749323 0.184397 0.603977
O O9 0.588512 0.297796 0.376666
O O10 0.698203 0.412241 0.602528
O O11 0.000000 0.119703 0.750000
O O12 0.200024 0.977190 0.798623
O O13 0.000000 0.151507 0.250000
O O14 0.588851 0.464941 0.213826
#
# Coordination Sequence:
#
# PCOD8117945 Si02
#       7
#     4   4   4   4   4   2   4
#     4  10  20  36  53  87 120 149 184 225 291 333
#     4  10  20  34  55  86 119 149 179 230 285 340
#     4  10  21  37  59  84 109 151 189 233 279 337
#     4  10  19  34  59  84 116 149 186 230 278 338
#     4   9  21  32  53  84 120 155 181 221 276 349
#     4  10  22  40  58  82 110 148 194 236 284 330
#     4  10  22  36  60  81 111 149 189 240 277 339
#
# _framework density 19.704892999999998
#
# number of rings (size 3 to 8) (size 9 to 14) (size 15 to 20)
#    0.000    2.154    1.538    0.923    6.462    1.846 
#    2.769    0.000    0.000    4.615    0.000    0.000 
#    0.000    0.000    0.000    0.000    0.000    0.000 
#
# Total GULP energy -322409.432944 kJ/mol
# GULP energy per Si atom -12400.362806 kJ/mol
# Density = 1.966004 g / cm^3
# Si number density = 19.704893 Si / 1000 Ang^3
#
#
#
# Elastic Constant Matrix: (Units=GPa)
#
#
# Indices 1 2 3 4 5 6 
#
# 1 44.9588 14.1663 19.6493 0.0000 -10.7229 0.0000
# 2 14.1663 102.1315 37.6976 0.0000 -8.5536 0.0000
# 3 19.6493 37.6976 99.8099 0.0000 -16.0773 0.0000
# 4 0.0000 0.0000 0.0000 23.5173 0.0000 -2.3525
# 5 -10.7229 -8.5536 -16.0773 0.0000 27.2998 0.0000
# 6 0.0000 0.0000 0.0000 -2.3525 0.0000 17.4254
#
#
#
# Elastic Compliance Matrix: (Units=1/GPa)
#
#
# Indices 1 2 3 4 5 6 
#
# 1 0.026062 -0.001780 -0.003203 0.000000 0.007793 0.000000
# 2 -0.001780 0.011531 -0.003906 0.000000 0.000614 0.000000
# 3 -0.003203 -0.003906 0.012954 0.000000 0.005147 0.000000
# 4 0.000000 0.000000 0.000000 0.043104 0.000000 0.005819
# 5 0.007793 0.000614 0.005147 0.000000 0.042914 0.000000
# 6 0.000000 0.000000 0.000000 0.005819 0.000000 0.058173
#
#
# Mechanical properties :
#
#
# Convention : Reuss Voigt Hill
#
# Bulk Modulus (GPa) = 30.51688 43.32518 36.92103
# Shear Modulus (GPa) = 22.37734 25.34096 23.85915
#
# Velocity S-wave (km/s) = 3.37356 3.59001 3.48346
# Velocity P-wave (km/s) = 5.54032 6.26250 5.91245
#
# Compressibility (1/GPa) = 0.03276875
#
# Stress axis : x y z
#
# Youngs Moduli (GPa) = 38.36997 86.72019 77.19623
#
# Poissons Ratio (x) = 0.15436 0.24728
# Poissons Ratio (y) = 0.06830 0.30153
# Poissons Ratio (z) = 0.12291 0.33874
#
# Static dielectric constant tensor:
#      x y z
#    x 3.277500 0.000000 -0.257210 
#    y 0.000000 3.743890 0.000000 
#    z -0.257210 0.000000 3.745370 
# 
# 
# High freq. dielectric constant tensor:
#      x y z
#    x 1.735760 0.000000 -0.024380 
#    y 0.000000 1.769780 0.000000 
#    z -0.024380 0.000000 1.774640 
# 
# From -- ./inp_files/33966.got.cif
#   From: 2010.06.25/outbox.cif.g09.slc.cpg/sg13_17_cif.got.tgz:33966.got - 2010.06.28 04:50:58.
