data_PCOD8117436
_publ_section_title
;
Structure prediction by ZEFSAII (Michael W. Deem and Ramdas Pophale) SiO2 
 PCOD8117436
Probable space group: P 2/C
;
_chemical_formula_sum "Si O2"
_cell_formula_units_Z 18
_cell_length_a 18.254652
_cell_length_b 8.880871
_cell_length_c 13.296515
_cell_angle_alpha 90.000000
_cell_angle_beta 155.445673
_cell_angle_gamma 90.000000
_cell_volume 895.769697
_symmetry_space_group_name_H-M "P 2/C"
_symmetry_group_IT_number 13
_symmetry_cell_setting 'monoclinic'
loop_
_space_group_symop_operation_xyz
x,y,z
-x,y,1/2-z
-x,-y,-z
x,-y,1/2+z
loop_
_atom_site_type_symbol
_atom_site_label
_atom_site_fract_x
_atom_site_fract_y
_atom_site_fract_z
Si Si1 0.949137 0.297880 0.550612
Si Si2 0.233549 0.696382 0.880067
Si Si3 0.000000 0.575093 0.750000
Si Si4 0.289729 0.202751 0.083848
Si Si5 0.500000 0.449427 0.250000
Si Si6 0.500000 0.051168 0.750000
O O1 0.919468 0.300638 0.394594
O O2 0.932444 0.466350 0.575944
O O3 0.797625 0.197586 0.415145
O O4 0.138590 0.222212 0.809183
O O5 0.148190 0.683476 0.885465
O O6 0.354839 0.550996 0.012832
O O7 0.349682 0.846031 0.012570
O O8 0.416777 0.347152 0.233625
O O9 0.404113 0.052144 0.213295
#
# Coordination Sequence:
#
# PCOD8117436 Si02
#       6
#     4   4   2   4   2   2
#     4  10  20  38  66  86 108 164 197 229 286 362
#     4  11  22  37  61  90 117 148 202 238 293 332
#     4  10  20  38  58  92 116 150 188 256 280 344
#     4   9  20  40  59  81 122 155 191 232 293 343
#     4  10  18  36  56  86 122 148 182 254 280 336
#     4  10  24  40  54  88 124 152 186 252 284 336
#
# _framework density 20.094449999999998
#
# number of rings (size 3 to 8) (size 9 to 14) (size 15 to 20)
#    0.000    2.222    4.444    0.667    0.000    4.444 
#    0.000    0.000    0.000    0.000    0.000    0.000 
#    0.000    0.000    0.000    0.000    0.000    0.000 
#
# Total GULP energy -223117.081114 kJ/mol
# GULP energy per Si atom -12395.393395 kJ/mol
# Density = 2.004871 g / cm^3
# Si number density = 20.094450 Si / 1000 Ang^3
#
#
#
# Elastic Constant Matrix: (Units=GPa)
#
#
# Indices 1 2 3 4 5 6 
#
# 1 86.8230 42.7026 47.0650 0.0000 17.4622 0.0000
# 2 42.7026 119.4413 36.9740 0.0000 15.3261 0.0000
# 3 47.0650 36.9740 81.8667 0.0000 8.4840 0.0000
# 4 0.0000 0.0000 0.0000 10.4536 0.0000 7.8034
# 5 17.4622 15.3261 8.4840 0.0000 38.9894 0.0000
# 6 0.0000 0.0000 0.0000 7.8034 0.0000 19.8930
#
#
#
# Elastic Compliance Matrix: (Units=1/GPa)
#
#
# Indices 1 2 3 4 5 6 
#
# 1 0.019058 -0.003388 -0.008880 0.000000 -0.005271 0.000000
# 2 -0.003388 0.010675 -0.002656 0.000000 -0.002101 0.000000
# 3 -0.008880 -0.002656 0.018414 0.000000 0.001014 0.000000
# 4 0.000000 0.000000 0.000000 0.135271 0.000000 -0.053063
# 5 -0.005271 -0.002101 0.001014 0.000000 0.028614 0.000000
# 6 0.000000 0.000000 0.000000 -0.053063 0.000000 0.071084
#
#
# Mechanical properties :
#
#
# Convention : Reuss Voigt Hill
#
# Bulk Modulus (GPa) = 54.64515 60.17936 57.41225
# Shear Modulus (GPa) = 15.67083 24.62650 20.14866
#
# Velocity S-wave (km/s) = 2.79562 3.50457 3.16998
# Velocity P-wave (km/s) = 6.13790 6.81096 6.48317
#
# Compressibility (1/GPa) = 0.01829989
#
# Stress axis : x y z
#
# Youngs Moduli (GPa) = 52.47155 93.67332 54.30566
#
# Poissons Ratio (x) = 0.31740 0.48222
# Poissons Ratio (y) = 0.17779 0.14422
# Poissons Ratio (z) = 0.46594 0.24877
#
# Static dielectric constant tensor:
#      x y z
#    x 3.603240 0.000000 0.409240 
#    y 0.000000 3.708340 0.000000 
#    z 0.409240 0.000000 3.583370 
# 
# 
# High freq. dielectric constant tensor:
#      x y z
#    x 1.771900 0.000000 0.031820 
#    y 0.000000 1.778370 0.000000 
#    z 0.031820 0.000000 1.773640 
# 
# From -- ./inp_files/27704.got.cif
#   From: 2010.06.25/outbox.cif.g09.slc.cpg/sg13_14_cif.got.tgz:27704.got - 2010.06.28 04:50:58.
