data_PCOD8117361
_publ_section_title
;
Structure prediction by ZEFSAII (Michael W. Deem and Ramdas Pophale) SiO2 
 PCOD8117361
Probable space group: P 2/C
;
_chemical_formula_sum "Si O2"
_cell_formula_units_Z 32
_cell_length_a 15.093945
_cell_length_b 8.656162
_cell_length_c 24.795194
_cell_angle_alpha 90.000000
_cell_angle_beta 151.688241
_cell_angle_gamma 90.000000
_cell_volume 1536.456604
_symmetry_space_group_name_H-M "P 2/C"
_symmetry_group_IT_number 13
_symmetry_cell_setting 'monoclinic'
loop_
_space_group_symop_operation_xyz
x,y,z
-x,y,1/2-z
-x,-y,-z
x,-y,1/2+z
loop_
_atom_site_type_symbol
_atom_site_label
_atom_site_fract_x
_atom_site_fract_y
_atom_site_fract_z
Si Si1 0.527892 0.154045 0.980532
Si Si2 0.531784 0.996133 0.880479
Si Si3 0.225436 0.648943 0.265171
Si Si4 0.987118 0.180922 0.486707
Si Si5 0.115996 0.819850 0.456503
Si Si6 0.839539 0.655118 0.705463
Si Si7 0.131340 0.123052 0.186898
Si Si8 0.620204 0.265216 0.767118
O O1 0.659557 0.279936 0.078494
O O2 0.327026 0.232100 0.860156
O O3 0.500000 0.000000 0.000000
O O4 0.623880 0.105994 0.975270
O O5 0.344769 0.927956 0.806536
O O6 0.481246 0.099913 0.800933
O O7 0.671078 0.851473 0.946434
O O8 0.233367 0.481607 0.295699
O O9 0.333139 0.646774 0.264383
O O10 0.005624 0.697371 0.143147
O O11 0.193058 0.245963 0.599312
O O12 0.869541 0.244712 0.474610
O O13 0.891238 0.229694 0.378887
O O14 0.000000 0.000000 0.500000
O O15 0.003530 0.979152 0.392939
O O16 0.927798 0.785516 0.791401
O O17 0.000000 0.600753 0.750000
O O18 0.500000 0.351723 0.750000
#
# Coordination Sequence:
#
# PCOD8117361 Si02
#       8
#     4   4   4   4   4   4   4   4
#     4  11  21  42  66  90 121 165 213 276 325 358
#     4  11  20  32  66  96 126 161 209 270 325 378
#     4  10  23  43  60  91 133 165 218 265 313 400
#     4   9  16  31  56  89 128 157 195 264 311 376
#     4  10  19  37  61  94 127 160 208 261 325 378
#     4  12  26  43  64  88 127 176 217 261 326 384
#     4  11  20  39  59  94 128 159 218 266 311 391
#     4  10  18  34  63  96 126 172 212 258 332 384
#
# _framework density 20.827143
#
# number of rings (size 3 to 8) (size 9 to 14) (size 15 to 20)
#    0.000    1.500    6.250    2.625    0.000    2.000 
#    2.250    3.125    2.750    0.000    0.000    0.000 
#    0.000    0.000    0.000    0.000    0.000    0.000 
#
# Total GULP energy -396435.482098 kJ/mol
# GULP energy per Si atom -12388.608816 kJ/mol
# Density = 2.077974 g / cm^3
# Si number density = 20.827143 Si / 1000 Ang^3
#
#
#
# Elastic Constant Matrix: (Units=GPa)
#
#
# Indices 1 2 3 4 5 6 
#
# 1 103.0568 34.5388 30.8153 0.0000 -4.6599 0.0000
# 2 34.5388 53.4091 23.3937 0.0000 -4.2977 0.0000
# 3 30.8153 23.3937 74.3113 0.0000 -21.1274 0.0000
# 4 0.0000 0.0000 0.0000 22.1619 0.0000 0.1174
# 5 -4.6599 -4.2977 -21.1274 0.0000 35.5975 0.0000
# 6 0.0000 0.0000 0.0000 0.1174 0.0000 28.7954
#
#
#
# Elastic Compliance Matrix: (Units=1/GPa)
#
#
# Indices 1 2 3 4 5 6 
#
# 1 0.013053 -0.006977 -0.003573 0.000000 -0.001254 0.000000
# 2 -0.006977 0.025536 -0.005448 0.000000 -0.001064 0.000000
# 3 -0.003573 -0.005448 0.019649 0.000000 0.010537 0.000000
# 4 0.000000 0.000000 0.000000 0.045124 0.000000 -0.000184
# 5 -0.001254 -0.001064 0.010537 0.000000 0.034053 0.000000
# 6 0.000000 0.000000 0.000000 -0.000184 0.000000 0.034729
#
#
# Mechanical properties :
#
#
# Convention : Reuss Voigt Hill
#
# Bulk Modulus (GPa) = 38.10684 45.36364 41.73524
# Shear Modulus (GPa) = 23.48650 26.77958 25.13304
#
# Velocity S-wave (km/s) = 3.36175 3.58970 3.47759
# Velocity P-wave (km/s) = 5.77970 6.24576 6.01724
#
# Compressibility (1/GPa) = 0.02624201
#
# Stress axis : x y z
#
# Youngs Moduli (GPa) = 76.60795 39.16005 50.89231
#
# Poissons Ratio (x) = 0.27323 0.18184
# Poissons Ratio (y) = 0.53452 0.27727
# Poissons Ratio (z) = 0.27373 0.21335
#
# Static dielectric constant tensor:
#      x y z
#    x 4.058960 0.000000 -0.400100 
#    y 0.000000 3.365420 0.000000 
#    z -0.400100 0.000000 4.202560 
# 
# 
# High freq. dielectric constant tensor:
#      x y z
#    x 1.817260 0.000000 -0.017810 
#    y 0.000000 1.771460 0.000000 
#    z -0.017810 0.000000 1.830440 
# 
# From -- ./inp_files/58811.got.cif
#   From: 2010.06.25/outbox.cif.g09.slc.cpg/sg13_30_cif.got.tgz:58811.got - 2010.06.28 04:50:58.
