data_PCOD8117505
_publ_section_title
;
Structure prediction by ZEFSAII (Michael W. Deem and Ramdas Pophale) SiO2 
 PCOD8117505
Probable space group: P 2/C
;
_chemical_formula_sum "Si O2"
_cell_formula_units_Z 30
_cell_length_a 5.428081
_cell_length_b 14.542942
_cell_length_c 17.349558
_cell_angle_alpha 90.000000
_cell_angle_beta 71.454851
_cell_angle_gamma 90.000000
_cell_volume 1298.461073
_symmetry_space_group_name_H-M "P 2/C"
_symmetry_group_IT_number 13
_symmetry_cell_setting 'monoclinic'
loop_
_space_group_symop_operation_xyz
x,y,z
-x,y,1/2-z
-x,-y,-z
x,-y,1/2+z
loop_
_atom_site_type_symbol
_atom_site_label
_atom_site_fract_x
_atom_site_fract_y
_atom_site_fract_z
Si Si1 0.291252 0.477193 0.210093
Si Si2 0.775637 0.321318 0.723402
Si Si3 0.792846 0.973273 0.625212
Si Si4 0.521154 0.368691 0.444489
Si Si5 0.796458 0.123042 0.513864
Si Si6 0.000000 0.918489 0.750000
Si Si7 0.413358 0.823805 0.613039
Si Si8 0.937489 0.323183 0.534331
O O1 0.500000 0.434708 0.250000
O O2 0.277721 0.586547 0.221956
O O3 0.394994 0.458158 0.112749
O O4 0.000000 0.434738 0.250000
O O5 0.500000 0.265681 0.750000
O O6 0.856825 0.346022 0.629028
O O7 0.000000 0.267201 0.750000
O O8 0.828818 0.987042 0.713720
O O9 0.619237 0.883115 0.637763
O O10 0.055924 0.951621 0.553256
O O11 0.681440 0.068429 0.599754
O O12 0.551510 0.284658 0.380703
O O13 0.715874 0.361096 0.498279
O O14 0.215711 0.372844 0.496144
O O15 0.562938 0.156654 0.481797
O O16 0.966862 0.212029 0.521763
O O17 0.862953 0.850907 0.824066
#
# Coordination Sequence:
#
# PCOD8117505 Si02
#       8
#     4   4   4   4   4   2   4   4
#     4  10  22  41  62  93 129 166 204 257 329 391
#     4  10  22  44  66  90 130 167 204 260 333 382
#     4  10  18  37  54  83 120 159 201 259 308 374
#     4  11  23  39  66  97 125 161 222 261 318 379
#     4   9  20  35  59  83 115 158 211 253 314 354
#     4  10  22  32  50  86 120 160 200 250 318 376
#     4  10  20  35  57  83 122 160 206 263 313 364
#     4  11  22  43  65  98 122 168 218 268 304 389
#
# _framework density 23.104272999999999
#
# number of rings (size 3 to 8) (size 9 to 14) (size 15 to 20)
#    0.000    1.867    1.333    2.400    0.933    1.067 
#    1.200   17.333    0.000    0.000    0.000    0.000 
#    0.000    0.000    0.000    0.000    0.000    0.000 
#
# Total GULP energy -371673.261105 kJ/mol
# GULP energy per Si atom -12389.108704 kJ/mol
# Density = 2.305169 g / cm^3
# Si number density = 23.104273 Si / 1000 Ang^3
#
#
#
# Elastic Constant Matrix: (Units=GPa)
#
#
# Indices 1 2 3 4 5 6 
#
# 1 169.1122 -4.5471 42.4088 0.0000 13.3417 0.0000
# 2 -4.5471 46.6162 13.1516 0.0000 13.2963 0.0000
# 3 42.4088 13.1516 97.2793 0.0000 15.2930 0.0000
# 4 0.0000 0.0000 0.0000 14.1786 0.0000 -0.5861
# 5 13.3417 13.2963 15.2930 0.0000 40.6868 0.0000
# 6 0.0000 0.0000 0.0000 -0.5861 0.0000 12.8344
#
#
#
# Elastic Compliance Matrix: (Units=1/GPa)
#
#
# Indices 1 2 3 4 5 6 
#
# 1 0.006856 0.002020 -0.002981 0.000000 -0.001788 0.000000
# 2 0.002020 0.024665 -0.003022 0.000000 -0.007587 0.000000
# 3 -0.002981 -0.003022 0.012412 0.000000 -0.002700 0.000000
# 4 0.000000 0.000000 0.000000 0.070662 0.000000 0.003227
# 5 -0.001788 -0.007587 -0.002700 0.000000 0.028659 0.000000
# 6 0.000000 0.000000 0.000000 0.003227 0.000000 0.078063
#
#
# Mechanical properties :
#
#
# Convention : Reuss Voigt Hill
#
# Bulk Modulus (GPa) = 27.80352 46.11489 36.95921
# Shear Modulus (GPa) = 20.72334 31.00625 25.86479
#
# Velocity S-wave (km/s) = 2.99816 3.66732 3.34949
# Velocity P-wave (km/s) = 4.90360 6.15915 5.56689
#
# Compressibility (1/GPa) = 0.03596667
#
# Stress axis : x y z
#
# Youngs Moduli (GPa) = 145.85513 40.54255 80.56518
#
# Poissons Ratio (x) = -0.08188 0.24016
# Poissons Ratio (y) = -0.29458 0.24350
# Poissons Ratio (z) = 0.43478 0.12254
#
# Static dielectric constant tensor:
#      x y z
#    x 4.786620 0.000000 0.229700 
#    y 0.000000 4.011690 0.000000 
#    z 0.229700 0.000000 4.412050 
# 
# 
# High freq. dielectric constant tensor:
#      x y z
#    x 1.923600 0.000000 0.014620 
#    y 0.000000 1.878740 0.000000 
#    z 0.014620 0.000000 1.914420 
# 
# From -- ./inp_files/44435.got.cif
#   From: 2010.06.25/outbox.cif.g09.slc.cpg/sg13_23_cif.got.tgz:44435.got - 2010.06.28 04:50:58.
