data_PCOD8117149
_publ_section_title
;
Structure prediction by ZEFSAII (Michael W. Deem and Ramdas Pophale) SiO2 
 PCOD8117149
Probable space group: P 2/C
;
_chemical_formula_sum "Si O2"
_cell_formula_units_Z 20
_cell_length_a 24.493872
_cell_length_b 7.255983
_cell_length_c 5.288848
_cell_angle_alpha 90.000000
_cell_angle_beta 108.220564
_cell_angle_gamma 90.000000
_cell_volume 892.841432
_symmetry_space_group_name_H-M "P 2/C"
_symmetry_group_IT_number 13
_symmetry_cell_setting 'monoclinic'
loop_
_space_group_symop_operation_xyz
x,y,z
-x,y,1/2-z
-x,-y,-z
x,-y,1/2+z
loop_
_atom_site_type_symbol
_atom_site_label
_atom_site_fract_x
_atom_site_fract_y
_atom_site_fract_z
Si Si1 0.932562 0.699538 0.175278
Si Si2 0.115961 0.708122 0.895165
Si Si3 0.640274 0.881235 0.233841
Si Si4 0.524432 0.706691 0.035614
Si Si5 0.767770 0.883484 0.373662
O O1 0.916212 0.804529 0.411986
O O2 0.900710 0.504291 0.157653
O O3 0.000000 0.668255 0.250000
O O4 0.907312 0.807680 0.895148
O O5 0.184653 0.725652 0.018512
O O6 0.593850 0.716652 0.137679
O O7 0.704224 0.794359 0.307224
O O8 0.631578 0.972833 0.495532
O O9 0.500000 0.808953 0.250000
O O10 0.500000 0.808471 0.750000
O O11 0.500000 0.500000 0.000000
O O12 0.775799 0.035750 0.604048
#
# Coordination Sequence:
#
# PCOD8117149 Si02
#       5
#     4   4   4   4   4
#     4  10  19  33  55  78 103 135 175 225 270 319
#     4  10  18  32  54  78 101 135 178 219 267 311
#     4  10  21  37  58  81 106 145 191 224 261 326
#     4  10  21  37  55  82 116 146 175 224 283 318
#     4  10  21  37  55  77 108 143 179 219 260 312
#
# _framework density 22.400393000000001
#
# number of rings (size 3 to 8) (size 9 to 14) (size 15 to 20)
#    0.000    2.000    0.000    5.400    0.000    2.400 
#    0.000    8.000    0.000   20.400    0.000    0.000 
#    0.000    0.000    0.000    0.000    0.000    0.000 
#
# Total GULP energy -247809.438411 kJ/mol
# GULP energy per Si atom -12390.471921 kJ/mol
# Density = 2.234941 g / cm^3
# Si number density = 22.400393 Si / 1000 Ang^3
#
#
#
# Elastic Constant Matrix: (Units=GPa)
#
#
# Indices 1 2 3 4 5 6 
#
# 1 163.9875 28.7717 53.5344 0.0000 33.4454 0.0000
# 2 28.7717 27.1313 -2.0929 0.0000 18.9932 0.0000
# 3 53.5344 -2.0929 187.1235 0.0000 -18.6222 0.0000
# 4 0.0000 0.0000 0.0000 41.2877 0.0000 66.4614
# 5 33.4454 18.9932 -18.6222 0.0000 64.3935 0.0000
# 6 0.0000 0.0000 0.0000 66.4614 0.0000 105.6263
#
#
#
# Elastic Compliance Matrix: (Units=1/GPa)
#
#
# Indices 1 2 3 4 5 6 
#
# 1 0.009091 -0.007507 -0.003021 0.000000 -0.003381 0.000000
# 2 -0.007507 0.052785 0.001623 0.000000 -0.011201 0.000000
# 3 -0.003021 0.001623 0.006523 0.000000 0.002977 0.000000
# 4 0.000000 0.000000 0.000000 -1.884380 0.000000 1.185676
# 5 -0.003381 -0.011201 0.002977 0.000000 0.021450 0.000000
# 6 0.000000 0.000000 0.000000 1.185676 0.000000 -0.736575
#
#
# Mechanical properties :
#
#
# Convention : Reuss Voigt Hill
#
# Bulk Modulus (GPa) = 19.76708 59.85209 39.80958
# Shear Modulus (GPa) = -2.00286 62.13011 30.06362
#
# Velocity S-wave (km/s) = -0.94660 5.27223 3.66745
# Velocity P-wave (km/s) = 2.76566 7.98993 5.97862
#
# Compressibility (1/GPa) = 0.05058915
#
# Stress axis : x y z
#
# Youngs Moduli (GPa) = 109.99834 18.94490 153.30726
#
# Poissons Ratio (x) = 0.14221 0.46319
# Poissons Ratio (y) = 0.82572 -0.24886
# Poissons Ratio (z) = 0.33234 -0.03075
#
# Static dielectric constant tensor:
#      x y z
#    x 4.771510 0.000000 -1.267250 
#    y 0.000000 3.238370 0.000000 
#    z -1.267250 0.000000 7.540050 
# 
# 
# High freq. dielectric constant tensor:
#      x y z
#    x 1.899020 0.000000 -0.011130 
#    y 0.000000 1.815750 0.000000 
#    z -0.011130 0.000000 1.929230 
# 
# From -- ./inp_files/5865.got.cif
#   From: 2010.06.25/outbox.cif.g09.slc.cpg/sg13_3_cif.got.tgz:5865.got - 2010.06.28 04:50:58.
