data_PCOD8117894
_publ_section_title
;
Structure prediction by ZEFSAII (Michael W. Deem and Ramdas Pophale) SiO2 
 PCOD8117894
Probable space group: P 2/C
;
_chemical_formula_sum "Si O2"
_cell_formula_units_Z 32
_cell_length_a 13.215171
_cell_length_b 14.507525
_cell_length_c 10.666895
_cell_angle_alpha 90.000000
_cell_angle_beta 133.894701
_cell_angle_gamma 90.000000
_cell_volume 1473.694885
_symmetry_space_group_name_H-M "P 2/C"
_symmetry_group_IT_number 13
_symmetry_cell_setting 'monoclinic'
loop_
_space_group_symop_operation_xyz
x,y,z
-x,y,1/2-z
-x,-y,-z
x,-y,1/2+z
loop_
_atom_site_type_symbol
_atom_site_label
_atom_site_fract_x
_atom_site_fract_y
_atom_site_fract_z
Si Si1 0.162870 0.715486 0.863819
Si Si2 0.607910 0.426822 0.960903
Si Si3 0.988091 0.915039 0.399992
Si Si4 0.748174 0.988969 0.054957
Si Si5 0.442944 0.627113 0.561538
Si Si6 0.570026 0.827587 0.986030
Si Si7 0.253428 0.853470 0.740206
Si Si8 0.251181 0.142197 0.640048
O O1 0.179893 0.768552 0.747896
O O2 0.000000 0.698733 0.750000
O O3 0.242250 0.618489 0.940151
O O4 0.240756 0.777785 0.032112
O O5 0.500000 0.417478 0.750000
O O6 0.647671 0.533148 0.028273
O O7 0.551871 0.376263 0.038398
O O8 0.906296 0.945006 0.200724
O O9 0.877610 0.846582 0.373427
O O10 0.146915 0.872385 0.530814
O O11 0.000000 0.000000 0.500000
O O12 0.725540 0.057091 0.153263
O O13 0.632608 0.908432 0.953259
O O14 0.744970 0.041668 0.920931
O O15 0.500000 0.622035 0.750000
O O16 0.363565 0.725873 0.484940
O O17 0.403826 0.822310 0.816532
O O18 0.602091 0.849859 0.159259
#
# Coordination Sequence:
#
# PCOD8117894 Si02
#       8
#     4   4   4   4   4   4   4   4
#     4  11  20  33  62 100 127 161 215 282 329 387
#     4  10  21  41  72 101 125 169 220 277 336 408
#     4   9  18  35  54  76 120 168 207 259 309 387
#     4   9  21  35  55  82 118 169 214 260 312 378
#     4  10  22  42  67  96 134 171 217 265 347 415
#     4  11  21  40  59  89 130 169 211 280 329 391
#     4  10  19  34  56  88 127 162 214 264 327 387
#     4  10  21  37  59  89 127 164 224 266 327 388
#
# _framework density 21.714127999999999
#
# number of rings (size 3 to 8) (size 9 to 14) (size 15 to 20)
#    0.000    2.000    2.500    1.125    0.000    1.500 
#    9.000    1.250    0.000   18.000    0.000    0.000 
#    0.000    0.000    0.000    0.000    0.000    0.000 
#
# Total GULP energy -396458.306994 kJ/mol
# GULP energy per Si atom -12389.322094 kJ/mol
# Density = 2.166471 g / cm^3
# Si number density = 21.714128 Si / 1000 Ang^3
#
#
#
# Elastic Constant Matrix: (Units=GPa)
#
#
# Indices 1 2 3 4 5 6 
#
# 1 90.0316 51.2965 43.6213 0.0000 14.2851 0.0000
# 2 51.2965 153.5204 44.4999 0.0000 15.6625 0.0000
# 3 43.6213 44.4999 138.8989 0.0000 1.4773 0.0000
# 4 0.0000 0.0000 0.0000 22.5717 0.0000 1.7211
# 5 14.2851 15.6625 1.4773 0.0000 45.0934 0.0000
# 6 0.0000 0.0000 0.0000 1.7211 0.0000 31.6744
#
#
#
# Elastic Compliance Matrix: (Units=1/GPa)
#
#
# Indices 1 2 3 4 5 6 
#
# 1 0.015591 -0.003796 -0.003643 0.000000 -0.003501 0.000000
# 2 -0.003796 0.008379 -0.001475 0.000000 -0.001659 0.000000
# 3 -0.003643 -0.001475 0.008801 0.000000 0.001378 0.000000
# 4 0.000000 0.000000 0.000000 0.044488 0.000000 -0.002417
# 5 -0.003501 -0.001659 0.001378 0.000000 0.023817 0.000000
# 6 0.000000 0.000000 0.000000 -0.002417 0.000000 0.031703
#
#
# Mechanical properties :
#
#
# Convention : Reuss Voigt Hill
#
# Bulk Modulus (GPa) = 66.91807 73.47626 70.19716
# Shear Modulus (GPa) = 32.13655 36.07011 34.10333
#
# Velocity S-wave (km/s) = 3.85123 4.08012 3.96733
# Velocity P-wave (km/s) = 7.11763 7.49053 7.30646
#
# Compressibility (1/GPa) = 0.01494365
#
# Stress axis : x y z
#
# Youngs Moduli (GPa) = 64.14096 119.34635 113.62013
#
# Poissons Ratio (x) = 0.45307 0.41389
# Poissons Ratio (y) = 0.24350 0.16754
# Poissons Ratio (z) = 0.23365 0.17598
#
# Static dielectric constant tensor:
#      x y z
#    x 3.827850 0.000000 -0.149040 
#    y 0.000000 4.202360 0.000000 
#    z -0.149040 0.000000 4.181360 
# 
# 
# High freq. dielectric constant tensor:
#      x y z
#    x 1.860520 0.000000 -0.019870 
#    y 0.000000 1.843930 0.000000 
#    z -0.019870 0.000000 1.857860 
# 
# From -- ./inp_files/37552.got.cif
#   From: 2010.06.25/outbox.cif.g09.slc.cpg/sg13_19_cif.got.tgz:37552.got - 2010.06.28 04:50:58.
