data_PCOD8117247
_publ_section_title
;
Structure prediction by ZEFSAII (Michael W. Deem and Ramdas Pophale) SiO2 
 PCOD8117247
Probable space group: P 2/C
;
_chemical_formula_sum "Si O2"
_cell_formula_units_Z 26
_cell_length_a 11.009906
_cell_length_b 9.399462
_cell_length_c 25.935451
_cell_angle_alpha 90.000000
_cell_angle_beta 30.038526
_cell_angle_gamma 90.000000
_cell_volume 1343.556149
_symmetry_space_group_name_H-M "P 2/C"
_symmetry_group_IT_number 13
_symmetry_cell_setting 'monoclinic'
loop_
_space_group_symop_operation_xyz
x,y,z
-x,y,1/2-z
-x,-y,-z
x,-y,1/2+z
loop_
_atom_site_type_symbol
_atom_site_label
_atom_site_fract_x
_atom_site_fract_y
_atom_site_fract_z
Si Si1 0.500000 0.933192 0.250000
Si Si2 0.464065 0.922839 0.871508
Si Si3 0.187506 0.319649 0.222546
Si Si4 0.822413 0.144798 0.771170
Si Si5 0.991365 0.198405 0.599588
Si Si6 0.384643 0.587478 0.103613
Si Si7 0.133415 0.480514 0.595312
O O1 0.547964 0.036152 0.183980
O O2 0.267626 0.829103 0.332053
O O3 0.654781 0.795925 0.806547
O O4 0.573936 0.054492 0.863437
O O5 0.201950 0.880279 0.990012
O O6 0.351858 0.421253 0.127481
O O7 0.000000 0.250103 0.250000
O O8 0.081376 0.421252 0.305704
O O9 0.739685 0.308595 0.809402
O O10 0.000000 0.088441 0.750000
O O11 0.970532 0.128563 0.663826
O O12 0.041564 0.368389 0.585639
O O13 0.257592 0.615508 0.094985
O O14 0.675848 0.598771 0.996172
#
# Coordination Sequence:
#
# PCOD8117247 Si02
#       7
#     2   4   4   4   4   4   4
#     4  10  26  44  62  80 122 168 220 268 308 346
#     4  11  24  40  63  86 122 164 214 261 312 359
#     4  10  19  34  59  94 127 155 190 246 313 382
#     4  11  21  36  59  95 131 159 196 250 312 388
#     4  11  21  41  63  87 115 170 209 257 310 363
#     4  10  18  33  57  92 129 161 188 237 305 381
#     4  10  19  33  62  89 128 162 197 239 311 374
#
# _framework density 19.35163
#
# number of rings (size 3 to 8) (size 9 to 14) (size 15 to 20)
#    0.000    1.538    4.615    1.385    0.000    3.077 
#    0.000    0.769    0.000    5.538    0.000    0.000 
#    0.000    0.000    0.000    0.000    0.000    0.000 
#
# Total GULP energy -322250.725221 kJ/mol
# GULP energy per Si atom -12394.258662 kJ/mol
# Density = 1.930758 g / cm^3
# Si number density = 19.351630 Si / 1000 Ang^3
#
#
#
# Elastic Constant Matrix: (Units=GPa)
#
#
# Indices 1 2 3 4 5 6 
#
# 1 119.8783 54.3538 55.4209 0.0000 -7.8432 0.0000
# 2 54.3538 90.0435 45.8545 0.0000 -9.5760 0.0000
# 3 55.4209 45.8545 129.0454 0.0000 -9.9195 0.0000
# 4 0.0000 0.0000 0.0000 20.6674 0.0000 -0.7549
# 5 -7.8432 -9.5760 -9.9195 0.0000 28.8221 0.0000
# 6 0.0000 0.0000 0.0000 -0.7549 0.0000 32.2068
#
#
#
# Elastic Compliance Matrix: (Units=1/GPa)
#
#
# Indices 1 2 3 4 5 6 
#
# 1 0.012536 -0.005864 -0.003274 0.000000 0.000336 0.000000
# 2 -0.005864 0.016547 -0.003144 0.000000 0.002820 0.000000
# 3 -0.003274 -0.003144 0.010399 0.000000 0.001643 0.000000
# 4 0.000000 0.000000 0.000000 0.048427 0.000000 0.001135
# 5 0.000336 0.002820 0.001643 0.000000 0.036289 0.000000
# 6 0.000000 0.000000 0.000000 0.001135 0.000000 0.031076
#
#
# Mechanical properties :
#
#
# Convention : Reuss Voigt Hill
#
# Bulk Modulus (GPa) = 67.04119 72.24727 69.64423
# Shear Modulus (GPa) = 27.05440 28.56180 27.80810
#
# Velocity S-wave (km/s) = 3.74310 3.84596 3.79488
# Velocity P-wave (km/s) = 7.30753 7.55889 7.43427
#
# Compressibility (1/GPa) = 0.01491620
#
# Stress axis : x y z
#
# Youngs Moduli (GPa) = 79.76718 60.43468 96.16230
#
# Poissons Ratio (x) = 0.35441 0.31487
# Poissons Ratio (y) = 0.46778 0.30237
# Poissons Ratio (z) = 0.26119 0.19003
#
# Static dielectric constant tensor:
#      x y z
#    x 3.431270 0.000000 -0.114160 
#    y 0.000000 3.483290 0.000000 
#    z -0.114160 0.000000 3.749080 
# 
# 
# High freq. dielectric constant tensor:
#      x y z
#    x 1.728820 0.000000 -0.006830 
#    y 0.000000 1.744620 0.000000 
#    z -0.006830 0.000000 1.771050 
# 
# From -- ./inp_files/92221.got.cif
#   From: 2010.06.25/outbox.cif.g09.slc.cpg/sg13_47_cif.got.tgz:92221.got - 2010.06.28 04:50:58.
