data_PCOD8117286
_publ_section_title
;
Structure prediction by ZEFSAII (Michael W. Deem and Ramdas Pophale) SiO2 
 PCOD8117286
Probable space group: P 2/C
;
_chemical_formula_sum "Si O2"
_cell_formula_units_Z 18
_cell_length_a 7.227412
_cell_length_b 7.185433
_cell_length_c 24.571795
_cell_angle_alpha 90.000000
_cell_angle_beta 138.999242
_cell_angle_gamma 90.000000
_cell_volume 837.186403
_symmetry_space_group_name_H-M "P 2/C"
_symmetry_group_IT_number 13
_symmetry_cell_setting 'monoclinic'
loop_
_space_group_symop_operation_xyz
x,y,z
-x,y,1/2-z
-x,-y,-z
x,-y,1/2+z
loop_
_atom_site_type_symbol
_atom_site_label
_atom_site_fract_x
_atom_site_fract_y
_atom_site_fract_z
Si Si1 0.716991 0.455255 0.469281
Si Si2 0.354028 0.140042 0.549018
Si Si3 0.996797 0.144746 0.918947
Si Si4 0.500000 0.002978 0.250000
Si Si5 0.327092 0.835883 0.823917
O O1 0.568589 0.650595 0.453496
O O2 0.810369 0.331549 0.542905
O O3 0.498368 0.339682 0.384305
O O4 0.000000 0.500000 0.500000
O O5 0.149084 0.152796 0.554889
O O6 0.199095 0.037125 0.464141
O O7 0.627496 0.020290 0.628421
O O8 0.770969 0.130360 0.820266
O O9 0.554468 0.132205 0.210343
O O10 0.000000 0.785502 0.750000
#
# Coordination Sequence:
#
# PCOD8117286 Si02
#       5
#     4   4   4   2   4
#     4   9  16  32  56  76 103 144 177 207 260 318
#     4   8  15  31  51  71 102 138 170 206 255 310
#     4   8  15  28  50  75  99 135 172 207 256 308
#     4  10  18  34  54  76 108 134 170 224 264 300
#     4  10  21  35  54  79 105 137 175 216 262 309
#
# _framework density 21.500589000000002
#
# number of rings (size 3 to 8) (size 9 to 14) (size 15 to 20)
#    0.000    3.111    0.000    4.000    0.000    0.889 
#    0.000   22.222    0.000    6.667    0.000    0.000 
#    0.000    0.000    0.000    0.000    0.000    0.000 
#
# Total GULP energy -223002.754218 kJ/mol
# GULP energy per Si atom -12389.041901 kJ/mol
# Density = 2.145165 g / cm^3
# Si number density = 21.500589 Si / 1000 Ang^3
#
#
#
# Elastic Constant Matrix: (Units=GPa)
#
#
# Indices 1 2 3 4 5 6 
#
# 1 30.5565 10.3807 26.8495 0.0000 13.6728 0.0000
# 2 10.3807 204.4510 101.6450 0.0000 4.1158 0.0000
# 3 26.8495 101.6450 195.2341 0.0000 8.4720 0.0000
# 4 0.0000 0.0000 0.0000 -33.8304 0.0000 -43.4458
# 5 13.6728 4.1158 8.4720 0.0000 27.0524 0.0000
# 6 0.0000 0.0000 0.0000 -43.4458 0.0000 -45.1489
#
#
#
# Elastic Compliance Matrix: (Units=1/GPa)
#
#
# Indices 1 2 3 4 5 6 
#
# 1 0.047796 0.001091 -0.006170 0.000000 -0.022391 0.000000
# 2 0.001091 0.006624 -0.003580 0.000000 -0.000438 0.000000
# 3 -0.006170 -0.003580 0.007781 0.000000 0.001226 0.000000
# 4 0.000000 0.000000 0.000000 0.125366 0.000000 -0.120637
# 5 -0.022391 -0.000438 0.001226 0.000000 0.047965 0.000000
# 6 0.000000 0.000000 0.000000 -0.120637 0.000000 0.093938
#
#
# Mechanical properties :
#
#
# Convention : Reuss Voigt Hill
#
# Bulk Modulus (GPa) = 22.27932 78.66579 50.47255
# Shear Modulus (GPa) = 13.82180 9.03906 11.43043
#
# Velocity S-wave (km/s) = 2.53821 2.05261 2.30822
# Velocity P-wave (km/s) = 4.35600 6.50268 5.53442
#
# Compressibility (1/GPa) = 0.04488467
#
# Stress axis : x y z
#
# Youngs Moduli (GPa) = 20.92241 150.95820 128.51585
#
# Poissons Ratio (x) = -0.16474 0.79290
# Poissons Ratio (y) = -0.02283 0.46007
# Poissons Ratio (z) = 0.12908 0.54042
#
# Static dielectric constant tensor:
#      x y z
#    x 3.310010 0.000000 0.105060 
#    y 0.000000 4.773620 0.000000 
#    z 0.105060 0.000000 4.163320 
# 
# 
# High freq. dielectric constant tensor:
#      x y z
#    x 1.806970 0.000000 0.010490 
#    y 0.000000 1.847070 0.000000 
#    z 0.010490 0.000000 1.849030 
# 
# From -- ./inp_files/74784.got.cif
#   From: 2010.06.25/outbox.cif.g09.slc.cpg/sg13_38_cif.got.tgz:74784.got - 2010.06.28 04:50:58.
