data_PCOD8117970
_publ_section_title
;
Structure prediction by ZEFSAII (Michael W. Deem and Ramdas Pophale) SiO2 
 PCOD8117970
Probable space group: P 2/C
;
_chemical_formula_sum "Si O2"
_cell_formula_units_Z 30
_cell_length_a 12.394111
_cell_length_b 5.256832
_cell_length_c 23.082831
_cell_angle_alpha 90.000000
_cell_angle_beta 111.830228
_cell_angle_gamma 90.000000
_cell_volume 1396.085822
_symmetry_space_group_name_H-M "P 2/C"
_symmetry_group_IT_number 13
_symmetry_cell_setting 'monoclinic'
loop_
_space_group_symop_operation_xyz
x,y,z
-x,y,1/2-z
-x,-y,-z
x,-y,1/2+z
loop_
_atom_site_type_symbol
_atom_site_label
_atom_site_fract_x
_atom_site_fract_y
_atom_site_fract_z
Si Si1 0.552215 0.764668 0.825178
Si Si2 0.928812 0.734323 0.920394
Si Si3 0.078066 0.229753 0.951906
Si Si4 0.321263 0.741547 0.841526
Si Si5 0.811263 0.579778 0.788556
Si Si6 0.000000 0.654734 0.250000
Si Si7 0.374826 0.267411 0.694475
Si Si8 0.212416 0.773733 0.366714
O O1 0.500000 0.736125 0.750000
O O2 0.639427 0.007390 0.845035
O O3 0.457694 0.775201 0.857307
O O4 0.625080 0.506172 0.849891
O O5 0.830146 0.736209 0.851515
O O6 0.987044 0.457484 0.927367
O O7 0.872209 0.773250 0.972612
O O8 0.018584 0.960548 0.925381
O O9 0.183019 0.269807 0.928122
O O10 0.258432 0.772205 0.766860
O O11 0.287844 0.466743 0.860820
O O12 0.285195 0.967569 0.877030
O O13 0.935172 0.515778 0.784920
O O14 0.731949 0.323616 0.782375
O O15 0.095829 0.815083 0.304588
O O16 0.500000 0.236562 0.750000
#
# Coordination Sequence:
#
# PCOD8117970 Si02
#       8
#     4   4   4   4   4   2   4   4
#     4  10  19  35  51  78 109 149 181 233 272 339
#     4  10  22  37  60  77 112 155 199 248 269 335
#     4  10  21  41  55  79 111 157 205 231 282 331
#     4  11  23  34  57  83 119 146 188 230 293 351
#     4  11  22  38  55  90 118 157 187 234 295 346
#     4  10  24  32  52  84 126 146 178 226 286 362
#     4  10  20  34  55  76 114 145 191 229 278 339
#     4  11  23  36  53  81 116 158 183 227 286 358
#
# _framework density 21.48865
#
# number of rings (size 3 to 8) (size 9 to 14) (size 15 to 20)
#    0.000    1.600    4.000    1.600    9.333    1.600 
#    0.000    0.000    0.000    0.000    0.000    5.600 
#    0.000    0.000    0.000    0.000    0.000    0.000 
#
# Total GULP energy -371798.863151 kJ/mol
# GULP energy per Si atom -12393.295438 kJ/mol
# Density = 2.143974 g / cm^3
# Si number density = 21.488650 Si / 1000 Ang^3
#
#
#
# Elastic Constant Matrix: (Units=GPa)
#
#
# Indices 1 2 3 4 5 6 
#
# 1 110.4274 25.5624 21.2476 0.0000 -37.6922 0.0000
# 2 25.5624 122.4619 20.1949 0.0000 -14.3108 0.0000
# 3 21.2476 20.1949 80.0847 0.0000 -26.0486 0.0000
# 4 0.0000 0.0000 0.0000 19.2623 0.0000 -11.7447
# 5 -37.6922 -14.3108 -26.0486 0.0000 27.0108 0.0000
# 6 0.0000 0.0000 0.0000 -11.7447 0.0000 40.0608
#
#
#
# Elastic Compliance Matrix: (Units=1/GPa)
#
#
# Indices 1 2 3 4 5 6 
#
# 1 0.018794 -0.001210 0.005305 0.000000 0.030701 0.000000
# 2 -0.001210 0.008839 -0.001361 0.000000 0.001682 0.000000
# 3 0.005305 -0.001361 0.019810 0.000000 0.025785 0.000000
# 4 0.000000 0.000000 0.000000 0.063215 0.000000 0.018533
# 5 0.030701 0.001682 0.025785 0.000000 0.105622 0.000000
# 6 0.000000 0.000000 0.000000 0.018533 0.000000 0.030395
#
#
# Mechanical properties :
#
#
# Convention : Reuss Voigt Hill
#
# Bulk Modulus (GPa) = 18.89971 49.66488 34.28229
# Shear Modulus (GPa) = 19.31655 33.66471 26.49063
#
# Velocity S-wave (km/s) = 3.00145 3.96236 3.51490
# Velocity P-wave (km/s) = 4.56354 6.64048 5.69745
#
# Compressibility (1/GPa) = 0.05291086
#
# Stress axis : x y z
#
# Youngs Moduli (GPa) = 53.20716 113.12983 50.48082
#
# Poissons Ratio (x) = 0.13691 -0.26779
# Poissons Ratio (y) = 0.06439 0.06869
# Poissons Ratio (z) = -0.28225 0.15395
#
# Static dielectric constant tensor:
#      x y z
#    x 3.849870 0.000000 -0.356560 
#    y 0.000000 4.639900 0.000000 
#    z -0.356560 0.000000 3.641980 
# 
# 
# High freq. dielectric constant tensor:
#      x y z
#    x 1.842390 0.000000 -0.032470 
#    y 0.000000 1.861110 0.000000 
#    z -0.032470 0.000000 1.792720 
# 
# From -- ./inp_files/85850.got.cif
#   From: 2010.06.25/outbox.cif.g09.slc.cpg/sg13_43_cif.got.tgz:85850.got - 2010.06.28 04:50:58.
