data_PCOD8117442
_publ_section_title
;
Structure prediction by ZEFSAII (Michael W. Deem and Ramdas Pophale) SiO2 
 PCOD8117442
Probable space group: P 2/C
;
_chemical_formula_sum "Si O2"
_cell_formula_units_Z 24
_cell_length_a 22.981672
_cell_length_b 11.220292
_cell_length_c 29.151564
_cell_angle_alpha 90.000000
_cell_angle_beta 9.259295
_cell_angle_gamma 90.000000
_cell_volume 1209.514071
_symmetry_space_group_name_H-M "P 2/C"
_symmetry_group_IT_number 13
_symmetry_cell_setting 'monoclinic'
loop_
_space_group_symop_operation_xyz
x,y,z
-x,y,1/2-z
-x,-y,-z
x,-y,1/2+z
loop_
_atom_site_type_symbol
_atom_site_label
_atom_site_fract_x
_atom_site_fract_y
_atom_site_fract_z
Si Si1 0.309284 0.193460 0.186599
Si Si2 0.449434 0.235538 0.977705
Si Si3 0.588871 0.937084 0.229127
Si Si4 0.686489 0.673974 0.058999
Si Si5 0.852989 0.377918 0.594611
Si Si6 0.569673 0.990271 0.839322
O O1 0.537150 0.225707 0.963804
O O2 0.012892 0.094843 0.402166
O O3 0.142123 0.315728 0.336064
O O4 0.546966 0.127419 0.041011
O O5 0.120884 0.329644 0.224660
O O6 0.793808 0.291938 0.684263
O O7 0.385607 0.104712 0.006323
O O8 0.500000 0.002412 0.250000
O O9 0.380894 0.813405 0.393549
O O10 0.441338 0.018400 0.385932
O O11 0.500000 0.621541 0.250000
O O12 0.520670 0.604992 0.143860
O O13 0.000000 0.500000 0.500000
O O14 0.000000 0.000000 0.500000
#
# Coordination Sequence:
#
# PCOD8117442 Si02
#       6
#     4   4   4   4   4   4
#     4  10  20  36  52  88 121 147 194 241 293 368
#     4  12  19  34  66  83 115 160 193 245 312 340
#     4   9  15  30  51  80 119 143 185 235 282 340
#     4  10  18  36  57  89 115 141 205 258 282 348
#     4  11  23  37  57  88 120 154 203 255 297 345
#     4  10  19  32  53  89 126 148 183 248 301 363
#
# _framework density 19.842679
#
# number of rings (size 3 to 8) (size 9 to 14) (size 15 to 20)
#    0.000    1.667   10.000    1.000    0.000    0.667 
#    0.000    0.000    0.000    1.000    8.667    0.000 
#    0.000    0.000    0.000    0.000    0.000    0.000 
#
# Total GULP energy -297349.428386 kJ/mol
# GULP energy per Si atom -12389.559516 kJ/mol
# Density = 1.979752 g / cm^3
# Si number density = 19.842679 Si / 1000 Ang^3
#
#
#
# Elastic Constant Matrix: (Units=GPa)
#
#
# Indices 1 2 3 4 5 6 
#
# 1 194.8015 58.0904 20.9122 0.0000 26.7442 0.0000
# 2 58.0904 64.2728 8.5368 0.0000 0.1321 0.0000
# 3 20.9122 8.5368 28.6057 0.0000 15.1777 0.0000
# 4 0.0000 0.0000 0.0000 14.2287 0.0000 -10.4360
# 5 26.7442 0.1321 15.1777 0.0000 30.1849 0.0000
# 6 0.0000 0.0000 0.0000 -10.4360 0.0000 29.5920
#
#
#
# Elastic Compliance Matrix: (Units=1/GPa)
#
#
# Indices 1 2 3 4 5 6 
#
# 1 0.008417 -0.007602 0.000074 0.000000 -0.007461 0.000000
# 2 -0.007602 0.023299 -0.006704 0.000000 0.010004 0.000000
# 3 0.000074 -0.006704 0.050359 0.000000 -0.025358 0.000000
# 4 0.000000 0.000000 0.000000 0.094802 0.000000 0.033433
# 5 -0.007461 0.010004 -0.025358 0.000000 0.052447 0.000000
# 6 0.000000 0.000000 0.000000 0.033433 0.000000 0.045583
#
#
# Mechanical properties :
#
#
# Convention : Reuss Voigt Hill
#
# Bulk Modulus (GPa) = 18.65241 51.41766 35.03504
# Shear Modulus (GPa) = 15.56468 28.14381 21.85425
#
# Velocity S-wave (km/s) = 2.80376 3.77018 3.32230
# Velocity P-wave (km/s) = 4.46116 6.70233 5.69312
#
# Compressibility (1/GPa) = 0.05361237
#
# Stress axis : x y z
#
# Youngs Moduli (GPa) = 118.81227 42.92037 19.85745
#
# Poissons Ratio (x) = 0.32626 -0.00148
# Poissons Ratio (y) = 0.90316 0.13312
# Poissons Ratio (z) = -0.00885 0.28774
#
# Static dielectric constant tensor:
#      x y z
#    x 4.574110 0.000000 -0.000570 
#    y 0.000000 3.213690 0.000000 
#    z -0.000570 0.000000 3.512370 
# 
# 
# High freq. dielectric constant tensor:
#      x y z
#    x 1.798560 0.000000 0.028390 
#    y 0.000000 1.705250 0.000000 
#    z 0.028390 0.000000 1.747010 
# 
# From -- ./inp_files/97687.got.cif
#   From: 2010.06.25/outbox.cif.g09.slc.cpg/sg13_49_cif.got.tgz:97687.got - 2010.06.28 04:50:58.
