data_PCOD8117379
_publ_section_title
;
Structure prediction by ZEFSAII (Michael W. Deem and Ramdas Pophale) SiO2 
 PCOD8117379
Probable space group: P 2/C
;
_chemical_formula_sum "Si O2"
_cell_formula_units_Z 20
_cell_length_a 23.142224
_cell_length_b 8.522515
_cell_length_c 5.288937
_cell_angle_alpha 90.000000
_cell_angle_beta 103.543348
_cell_angle_gamma 90.000000
_cell_volume 1014.130308
_symmetry_space_group_name_H-M "P 2/C"
_symmetry_group_IT_number 13
_symmetry_cell_setting 'monoclinic'
loop_
_space_group_symop_operation_xyz
x,y,z
-x,y,1/2-z
-x,-y,-z
x,-y,1/2+z
loop_
_atom_site_type_symbol
_atom_site_label
_atom_site_fract_x
_atom_site_fract_y
_atom_site_fract_z
Si Si1 0.675898 0.313769 0.429940
Si Si2 0.724781 0.653142 0.480028
Si Si3 0.067682 0.097112 0.334156
Si Si4 0.568022 0.900343 0.819799
Si Si5 0.862362 0.588383 0.619596
O O1 0.680382 0.502713 0.434429
O O2 0.710166 0.246457 0.713672
O O3 0.607999 0.256144 0.360544
O O4 0.710100 0.246425 0.216258
O O5 0.791491 0.592006 0.548708
O O6 0.112596 0.238131 0.341533
O O7 0.000000 0.158250 0.250000
O O8 0.080367 0.024853 0.622231
O O9 0.500000 0.843213 0.750000
O O10 0.582384 0.000167 0.584689
O O11 0.885658 0.505022 0.389020
#
# Coordination Sequence:
#
# PCOD8117379 Si02
#       5
#     4   4   4   4   4
#     4  10  18  35  56  77 107 149 175 227 286 335
#     4  10  19  35  56  78 112 143 179 232 288 331
#     4  10  23  43  62  87 126 164 201 251 305 357
#     4  10  21  37  55  78 110 146 187 234 280 340
#     4  12  21  38  65  90 123 160 202 254 301 353
#
# _framework density 19.721332
#
# number of rings (size 3 to 8) (size 9 to 14) (size 15 to 20)
#    0.000    1.600    4.000    2.400    0.000    0.800 
#    0.000   10.000    0.000    0.000    0.000    0.000 
#    0.000    0.000    0.000    0.000    0.000    0.000 
#
# Total GULP energy -247920.700966 kJ/mol
# GULP energy per Si atom -12396.035048 kJ/mol
# Density = 1.967644 g / cm^3
# Si number density = 19.721332 Si / 1000 Ang^3
#
#
#
# Elastic Constant Matrix: (Units=GPa)
#
#
# Indices 1 2 3 4 5 6 
#
# 1 70.0444 51.9405 35.1494 0.0000 -0.5986 0.0000
# 2 51.9405 65.9702 18.2715 0.0000 6.2607 0.0000
# 3 35.1494 18.2715 173.6777 0.0000 -29.7150 0.0000
# 4 0.0000 0.0000 0.0000 19.2232 0.0000 -0.2710
# 5 -0.5986 6.2607 -29.7150 0.0000 21.1518 0.0000
# 6 0.0000 0.0000 0.0000 -0.2710 0.0000 18.0021
#
#
#
# Elastic Compliance Matrix: (Units=1/GPa)
#
#
# Indices 1 2 3 4 5 6 
#
# 1 0.037869 -0.029149 -0.003868 0.000000 0.004266 0.000000
# 2 -0.029149 0.039513 -0.000526 0.000000 -0.013259 0.000000
# 3 -0.003868 -0.000526 0.008693 0.000000 0.012259 0.000000
# 4 0.000000 0.000000 0.000000 0.052032 0.000000 0.000783
# 5 0.004266 -0.013259 0.012259 0.000000 0.068545 0.000000
# 6 0.000000 0.000000 0.000000 0.000783 0.000000 0.055561
#
#
# Mechanical properties :
#
#
# Convention : Reuss Voigt Hill
#
# Bulk Modulus (GPa) = 52.66171 57.82389 55.24280
# Shear Modulus (GPa) = 14.89747 25.29749 20.09748
#
# Velocity S-wave (km/s) = 2.75143 3.58543 3.19576
# Velocity P-wave (km/s) = 6.07081 6.82089 6.45675
#
# Compressibility (1/GPa) = 0.01898913
#
# Stress axis : x y z
#
# Youngs Moduli (GPa) = 26.40670 25.30843 115.03119
#
# Poissons Ratio (x) = 0.73772 0.44489
# Poissons Ratio (y) = 0.76974 0.06052
# Poissons Ratio (z) = 0.10213 0.01331
#
# Static dielectric constant tensor:
#      x y z
#    x 3.550710 0.000000 -0.315010 
#    y 0.000000 3.101220 0.000000 
#    z -0.315010 0.000000 4.850700 
# 
# 
# High freq. dielectric constant tensor:
#      x y z
#    x 1.761870 0.000000 -0.012780 
#    y 0.000000 1.726900 0.000000 
#    z -0.012780 0.000000 1.810290 
# 
# From -- ./inp_files/6745.got.cif
#   From: 2010.06.25/outbox.cif.g09.slc.cpg/sg13_4_cif.got.tgz:6745.got - 2010.06.28 04:50:58.
