data_PCOD8117596
_publ_section_title
;
Structure prediction by ZEFSAII (Michael W. Deem and Ramdas Pophale) SiO2 
 PCOD8117596
Probable space group: P 2/C
;
_chemical_formula_sum "Si O2"
_cell_formula_units_Z 24
_cell_length_a 9.752151
_cell_length_b 14.181842
_cell_length_c 18.086220
_cell_angle_alpha 90.000000
_cell_angle_beta 153.557238
_cell_angle_gamma 90.000000
_cell_volume 1113.876483
_symmetry_space_group_name_H-M "P 2/C"
_symmetry_group_IT_number 13
_symmetry_cell_setting 'monoclinic'
loop_
_space_group_symop_operation_xyz
x,y,z
-x,y,1/2-z
-x,-y,-z
x,-y,1/2+z
loop_
_atom_site_type_symbol
_atom_site_label
_atom_site_fract_x
_atom_site_fract_y
_atom_site_fract_z
Si Si1 0.730959 0.802626 0.795093
Si Si2 0.056778 0.010108 0.441312
Si Si3 0.327165 0.409716 0.446639
Si Si4 0.633144 0.783068 0.589245
Si Si5 0.605281 0.119619 0.657801
Si Si6 0.665745 0.307941 0.903951
O O1 0.500000 0.825198 0.750000
O O2 0.887473 0.894723 0.835627
O O3 0.544591 0.771490 0.632445
O O4 0.983879 0.725980 0.942783
O O5 0.413640 0.029237 0.596043
O O6 0.949622 0.916477 0.344058
O O7 0.000000 0.000000 0.500000
O O8 0.500000 0.500000 0.500000
O O9 0.501034 0.314782 0.506838
O O10 0.315377 0.397523 0.530602
O O11 0.000000 0.412707 0.250000
O O12 0.452233 0.866542 0.458083
O O13 0.000000 0.791688 0.750000
O O14 0.526962 0.217212 0.661091
O O15 0.500000 0.345571 0.750000
#
# Coordination Sequence:
#
# PCOD8117596 Si02
#       6
#     4   4   4   4   4   4
#     4  11  21  37  61  87 124 165 208 252 304 350
#     4  11  20  33  53  89 122 164 208 258 298 345
#     4  10  20  42  70  90 117 160 198 244 311 385
#     4  10  18  42  63  83 118 171 198 239 316 374
#     4  10  20  34  60  82 123 168 213 247 299 357
#     4  10  20  39  64  91 124 165 202 247 310 369
#
# _framework density 21.546374
#
# number of rings (size 3 to 8) (size 9 to 14) (size 15 to 20)
#    0.000    1.667    6.667    3.500    0.000    0.667 
#    3.000    1.667    0.000    2.000    0.000    0.000 
#    0.000    0.000    0.000    0.000    0.000    0.000 
#
# Total GULP energy -297315.402413 kJ/mol
# GULP energy per Si atom -12388.141767 kJ/mol
# Density = 2.149733 g / cm^3
# Si number density = 21.546374 Si / 1000 Ang^3
#
#
#
# Elastic Constant Matrix: (Units=GPa)
#
#
# Indices 1 2 3 4 5 6 
#
# 1 89.5377 14.8498 36.8829 0.0000 -33.1679 0.0000
# 2 14.8498 78.7326 34.8863 0.0000 -8.3343 0.0000
# 3 36.8829 34.8863 91.8230 0.0000 -41.4947 0.0000
# 4 0.0000 0.0000 0.0000 12.7606 0.0000 -2.0890
# 5 -33.1679 -8.3343 -41.4947 0.0000 41.2924 0.0000
# 6 0.0000 0.0000 0.0000 -2.0890 0.0000 33.7958
#
#
#
# Elastic Compliance Matrix: (Units=1/GPa)
#
#
# Indices 1 2 3 4 5 6 
#
# 1 0.016124 -0.001606 -0.000294 0.000000 0.012333 0.000000
# 2 -0.001606 0.016026 -0.008362 0.000000 -0.006458 0.000000
# 3 -0.000294 -0.008362 0.024394 0.000000 0.022590 0.000000
# 4 0.000000 0.000000 0.000000 0.079168 0.000000 0.004893
# 5 0.012333 -0.006458 0.022590 0.000000 0.055520 0.000000
# 6 0.000000 0.000000 0.000000 0.004893 0.000000 0.029892
#
#
# Mechanical properties :
#
#
# Convention : Reuss Voigt Hill
#
# Bulk Modulus (GPa) = 27.76180 48.14794 37.95487
# Shear Modulus (GPa) = 19.71195 29.13468 24.42332
#
# Velocity S-wave (km/s) = 3.02795 3.68120 3.37044
# Velocity P-wave (km/s) = 5.01371 6.36105 5.72714
#
# Compressibility (1/GPa) = 0.03602071
#
# Stress axis : x y z
#
# Youngs Moduli (GPa) = 62.01897 62.39974 40.99415
#
# Poissons Ratio (x) = 0.10019 0.01203
# Poissons Ratio (y) = 0.09958 0.34280
# Poissons Ratio (z) = 0.01820 0.52180
#
# Static dielectric constant tensor:
#      x y z
#    x 3.926230 0.000000 -0.282280 
#    y 0.000000 4.487240 0.000000 
#    z -0.282280 0.000000 4.233000 
# 
# 
# High freq. dielectric constant tensor:
#      x y z
#    x 1.834470 0.000000 -0.024450 
#    y 0.000000 1.820570 0.000000 
#    z -0.024450 0.000000 1.848890 
# 
# From -- ./inp_files/78745.got.cif
#   From: 2010.06.25/outbox.cif.g09.slc.cpg/sg13_40_cif.got.tgz:78745.got - 2010.06.28 04:50:58.
