data_PCOD8117407
_publ_section_title
;
Structure prediction by ZEFSAII (Michael W. Deem and Ramdas Pophale) SiO2 
 PCOD8117407
Probable space group: P 2/C
;
_chemical_formula_sum "Si O2"
_cell_formula_units_Z 24
_cell_length_a 27.402992
_cell_length_b 9.098890
_cell_length_c 19.857225
_cell_angle_alpha 90.000000
_cell_angle_beta 164.245424
_cell_angle_gamma 90.000000
_cell_volume 1344.319469
_symmetry_space_group_name_H-M "P 2/C"
_symmetry_group_IT_number 13
_symmetry_cell_setting 'monoclinic'
loop_
_space_group_symop_operation_xyz
x,y,z
-x,y,1/2-z
-x,-y,-z
x,-y,1/2+z
loop_
_atom_site_type_symbol
_atom_site_label
_atom_site_fract_x
_atom_site_fract_y
_atom_site_fract_z
Si Si1 0.484769 0.886553 0.905860
Si Si2 0.396202 0.650268 0.681137
Si Si3 0.827589 0.085163 0.061279
Si Si4 0.035224 0.800273 0.216626
Si Si5 0.446163 0.682973 0.255556
Si Si6 0.666933 0.832329 0.660135
O O1 0.492420 0.760879 0.860417
O O2 0.472493 0.809639 0.962707
O O3 0.309548 0.993140 0.668102
O O4 0.659476 0.992832 0.130912
O O5 0.500000 0.670376 0.750000
O O6 0.185691 0.685373 0.392548
O O7 0.408543 0.485070 0.724760
O O8 0.000000 0.146555 0.250000
O O9 0.896772 0.966386 0.208100
O O10 0.733414 0.222305 0.971636
O O11 0.000000 0.781057 0.250000
O O12 0.861073 0.773060 0.939861
O O13 0.500000 0.702642 0.250000
O O14 0.607467 0.736565 0.517373
#
# Coordination Sequence:
#
# PCOD8117407 Si02
#       6
#     4   4   4   4   4   4
#     4   9  18  33  58  84 106 142 182 229 281 322
#     4  10  21  39  55  78 119 153 180 221 277 335
#     4   9  16  33  56  80 110 135 183 233 275 319
#     4  10  18  36  60  85 109 139 189 234 278 324
#     4  10  23  38  53  78 118 155 183 221 278 331
#     4  10  18  35  61  82 111 139 188 236 273 326
#
# _framework density 17.852900000000002
#
# number of rings (size 3 to 8) (size 9 to 14) (size 15 to 20)
#    0.000    2.333    5.000    0.000    0.000    7.333 
#    0.000    8.333    0.000    0.000    0.000    0.000 
#    0.000    0.000    0.000    0.000    0.000    0.000 
#
# Total GULP energy -297445.155388 kJ/mol
# GULP energy per Si atom -12393.548141 kJ/mol
# Density = 1.781227 g / cm^3
# Si number density = 17.852900 Si / 1000 Ang^3
#
#
#
# Elastic Constant Matrix: (Units=GPa)
#
#
# Indices 1 2 3 4 5 6 
#
# 1 85.8478 66.8557 49.3001 0.0000 -7.0346 0.0000
# 2 66.8557 122.4611 47.1166 0.0000 -3.0309 0.0000
# 3 49.3001 47.1166 108.7148 0.0000 -8.3294 0.0000
# 4 0.0000 0.0000 0.0000 10.4450 0.0000 4.0064
# 5 -7.0346 -3.0309 -8.3294 0.0000 28.2813 0.0000
# 6 0.0000 0.0000 0.0000 4.0064 0.0000 26.0907
#
#
#
# Elastic Compliance Matrix: (Units=1/GPa)
#
#
# Indices 1 2 3 4 5 6 
#
# 1 0.023384 -0.010441 -0.005851 0.000000 0.002974 0.000000
# 2 -0.010441 0.014463 -0.001651 0.000000 -0.001533 0.000000
# 3 -0.005851 -0.001651 0.012729 0.000000 0.002117 0.000000
# 4 0.000000 0.000000 0.000000 0.101732 0.000000 -0.015622
# 5 0.002974 -0.001533 0.002117 0.000000 0.036558 0.000000
# 6 0.000000 0.000000 0.000000 -0.015622 0.000000 0.040727
#
#
# Mechanical properties :
#
#
# Convention : Reuss Voigt Hill
#
# Bulk Modulus (GPa) = 68.07309 71.50760 69.79035
# Shear Modulus (GPa) = 18.49281 23.21348 20.85315
#
# Velocity S-wave (km/s) = 3.22194 3.60983 3.42139
# Velocity P-wave (km/s) = 7.21485 7.58388 7.40166
#
# Compressibility (1/GPa) = 0.01469009
#
# Stress axis : x y z
#
# Youngs Moduli (GPa) = 42.76518 69.14070 78.55832
#
# Poissons Ratio (x) = 0.72190 0.45964
# Poissons Ratio (y) = 0.44652 0.12970
# Poissons Ratio (z) = 0.25022 0.11415
#
# Static dielectric constant tensor:
#      x y z
#    x 3.114110 0.000000 -0.031820 
#    y 0.000000 3.356190 0.000000 
#    z -0.031820 0.000000 3.479210 
# 
# 
# High freq. dielectric constant tensor:
#      x y z
#    x 1.677530 0.000000 -0.005760 
#    y 0.000000 1.683780 0.000000 
#    z -0.005760 0.000000 1.689860 
# 
# From -- ./inp_files/71320.got.cif
#   From: 2010.06.25/outbox.cif.g09.slc.cpg/sg13_36_cif.got.tgz:71320.got - 2010.06.28 04:50:58.
