data_PCOD8117939
_publ_section_title
;
Structure prediction by ZEFSAII (Michael W. Deem and Ramdas Pophale) SiO2 
 PCOD8117939
Probable space group: P 2/C
;
_chemical_formula_sum "Si O2"
_cell_formula_units_Z 32
_cell_length_a 8.586187
_cell_length_b 22.435126
_cell_length_c 14.754104
_cell_angle_alpha 90.000000
_cell_angle_beta 29.692993
_cell_angle_gamma 90.000000
_cell_volume 1407.848747
_symmetry_space_group_name_H-M "P 2/C"
_symmetry_group_IT_number 13
_symmetry_cell_setting 'monoclinic'
loop_
_space_group_symop_operation_xyz
x,y,z
-x,y,1/2-z
-x,-y,-z
x,-y,1/2+z
loop_
_atom_site_type_symbol
_atom_site_label
_atom_site_fract_x
_atom_site_fract_y
_atom_site_fract_z
Si Si1 0.248616 0.770279 0.299247
Si Si2 0.131822 0.645918 0.419566
Si Si3 0.097809 0.575999 0.604266
Si Si4 0.163365 0.551027 0.262145
Si Si5 0.611944 0.082246 0.598254
Si Si6 0.650367 0.190639 0.442963
Si Si7 0.311136 0.141124 0.438990
Si Si8 0.000140 0.019946 0.853843
O O1 0.500000 0.782046 0.250000
O O2 0.041229 0.711484 0.428125
O O3 0.023148 0.827088 0.406911
O O4 0.431825 0.762563 0.109646
O O5 0.500000 0.643872 0.250000
O O6 0.992087 0.627828 0.587869
O O7 0.011355 0.596691 0.410060
O O8 0.463876 0.559626 0.425572
O O9 0.000000 0.602008 0.750000
O O10 0.907860 0.516567 0.673278
O O11 0.000000 0.565922 0.250000
O O12 0.500000 0.110604 0.750000
O O13 0.681868 0.133115 0.490945
O O14 0.353989 0.036271 0.695008
O O15 0.917803 0.039582 0.454296
O O16 0.498406 0.175321 0.423240
O O17 0.000000 0.217018 0.250000
O O18 0.500000 0.143126 0.250000
O O19 0.240900 0.074064 0.505137
O O20 0.000000 0.000698 0.750000
#
# Coordination Sequence:
#
# PCOD8117939 Si02
#       8
#     4   4   4   4   4   4   4   4
#     4  11  23  48  70  93 130 172 225 283 339 393
#     4   9  21  39  64  91 126 173 220 272 327 386
#     4  10  19  36  60  94 137 175 217 263 326 387
#     4  10  19  34  58  94 132 178 216 263 320 383
#     4  12  26  42  68 100 136 174 210 269 334 403
#     4  12  26  44  72  98 130 172 221 273 339 406
#     4  12  26  45  68  98 131 173 220 273 332 404
#     4  12  24  44  65  97 138 172 215 269 329 396
#
# _framework density 22.729717000000001
#
# number of rings (size 3 to 8) (size 9 to 14) (size 15 to 20)
#    0.000    1.000    2.500    4.875    3.500    1.000 
#    0.000   13.750    0.000    0.000    0.000    0.000 
#    0.000    0.000    0.000    0.000    0.000    0.000 
#
# Total GULP energy -396715.984776 kJ/mol
# GULP energy per Si atom -12397.374524 kJ/mol
# Density = 2.267798 g / cm^3
# Si number density = 22.729717 Si / 1000 Ang^3
#
#
#
# Elastic Constant Matrix: (Units=GPa)
#
#
# Indices 1 2 3 4 5 6 
#
# 1 80.8772 29.2793 27.6047 0.0000 21.6326 0.0000
# 2 29.2793 108.5156 32.8709 0.0000 27.6116 0.0000
# 3 27.6047 32.8709 115.1165 0.0000 22.4212 0.0000
# 4 0.0000 0.0000 0.0000 30.6719 0.0000 5.7980
# 5 21.6326 27.6116 22.4212 0.0000 41.2444 0.0000
# 6 0.0000 0.0000 0.0000 5.7980 0.0000 28.1282
#
#
#
# Elastic Compliance Matrix: (Units=1/GPa)
#
#
# Indices 1 2 3 4 5 6 
#
# 1 0.015285 -0.002118 -0.001985 0.000000 -0.005520 0.000000
# 2 -0.002118 0.011797 -0.001721 0.000000 -0.005851 0.000000
# 3 -0.001985 -0.001721 0.010320 0.000000 -0.003417 0.000000
# 4 0.000000 0.000000 0.000000 0.033925 0.000000 -0.006993
# 5 -0.005520 -0.005851 -0.003417 0.000000 0.032915 0.000000
# 6 0.000000 0.000000 0.000000 -0.006993 0.000000 0.036993
#
#
# Mechanical properties :
#
#
# Convention : Reuss Voigt Hill
#
# Bulk Modulus (GPa) = 38.83116 53.77991 46.30553
# Shear Modulus (GPa) = 30.96572 34.32585 32.64579
#
# Velocity S-wave (km/s) = 3.69500 3.89031 3.79391
# Velocity P-wave (km/s) = 5.94348 6.62506 6.29350
#
# Compressibility (1/GPa) = 0.02575252
#
# Stress axis : x y z
#
# Youngs Moduli (GPa) = 65.42209 84.76796 96.90096
#
# Poissons Ratio (x) = 0.17957 0.19239
# Poissons Ratio (y) = 0.13859 0.16676
# Poissons Ratio (z) = 0.12989 0.14588
#
# Static dielectric constant tensor:
#      x y z
#    x 4.385470 0.000000 0.238470 
#    y 0.000000 4.283290 0.000000 
#    z 0.238470 0.000000 4.320850 
# 
# 
# High freq. dielectric constant tensor:
#      x y z
#    x 1.906700 0.000000 0.011750 
#    y 0.000000 1.886670 0.000000 
#    z 0.011750 0.000000 1.899110 
# 
# From -- ./inp_files/48301.got.cif
#   From: 2010.06.25/outbox.cif.g09.slc.cpg/sg13_25_cif.got.tgz:48301.got - 2010.06.28 04:50:58.
