data_PCOD8117912
_publ_section_title
;
Structure prediction by ZEFSAII (Michael W. Deem and Ramdas Pophale) SiO2 
 PCOD8117912
Probable space group: P 2/C
;
_chemical_formula_sum "Si O2"
_cell_formula_units_Z 24
_cell_length_a 7.771116
_cell_length_b 8.870934
_cell_length_c 18.727422
_cell_angle_alpha 90.000000
_cell_angle_beta 119.430257
_cell_angle_gamma 90.000000
_cell_volume 1124.413833
_symmetry_space_group_name_H-M "P 2/C"
_symmetry_group_IT_number 13
_symmetry_cell_setting 'monoclinic'
loop_
_space_group_symop_operation_xyz
x,y,z
-x,y,1/2-z
-x,-y,-z
x,-y,1/2+z
loop_
_atom_site_type_symbol
_atom_site_label
_atom_site_fract_x
_atom_site_fract_y
_atom_site_fract_z
Si Si1 0.111380 0.933640 0.847610
Si Si2 0.911091 0.435659 0.910040
Si Si3 0.535852 0.242789 0.837305
Si Si4 0.466171 0.890599 0.838779
Si Si5 0.850559 0.273878 0.655398
Si Si6 0.791654 0.748974 0.841267
O O1 0.338765 0.878241 0.885277
O O2 0.115495 0.107610 0.869984
O O3 0.000000 0.915886 0.750000
O O4 0.006767 0.829531 0.885649
O O5 0.753548 0.306376 0.900227
O O6 0.807719 0.569289 0.843343
O O7 0.094390 0.380239 0.899371
O O8 0.000000 0.500000 0.000000
O O9 0.500000 0.302838 0.750000
O O10 0.524378 0.062583 0.834081
O O11 0.370787 0.303908 0.859677
O O12 0.670135 0.797222 0.888107
O O13 0.333691 0.817326 0.749221
O O14 0.000000 0.305245 0.750000
#
# Coordination Sequence:
#
# PCOD8117912 Si02
#       6
#     4   4   4   4   4   4
#     4   8  16  32  57  90 117 144 202 271 308 348
#     4  12  28  41  56  95 143 176 200 250 330 393
#     4  11  20  40  70  92 119 163 221 264 310 377
#     4   9  18  34  63  95 111 145 216 276 304 344
#     4  10  20  37  67  92 117 166 221 265 307 375
#     4  10  19  34  57  84 123 156 196 260 309 363
#
# _framework density 21.344455
#
# number of rings (size 3 to 8) (size 9 to 14) (size 15 to 20)
#    0.000    2.000    3.333    2.000    2.333    4.000 
#    0.000    3.333    0.000    4.000    0.000    0.000 
#    0.000    0.000    0.000    0.000    0.000    0.000 
#
# Total GULP energy -297321.755545 kJ/mol
# GULP energy per Si atom -12388.406481 kJ/mol
# Density = 2.129587 g / cm^3
# Si number density = 21.344455 Si / 1000 Ang^3
#
#
#
# Elastic Constant Matrix: (Units=GPa)
#
#
# Indices 1 2 3 4 5 6 
#
# 1 192.2245 67.4575 8.7703 0.0000 -8.9337 0.0000
# 2 67.4575 107.4678 15.0805 0.0000 -4.6949 0.0000
# 3 8.7703 15.0805 20.7600 0.0000 -1.4305 0.0000
# 4 0.0000 0.0000 0.0000 6.8040 0.0000 -7.3741
# 5 -8.9337 -4.6949 -1.4305 0.0000 15.8671 0.0000
# 6 0.0000 0.0000 0.0000 -7.3741 0.0000 18.3281
#
#
#
# Elastic Compliance Matrix: (Units=1/GPa)
#
#
# Indices 1 2 3 4 5 6 
#
# 1 0.006778 -0.004191 0.000361 0.000000 0.002609 0.000000
# 2 -0.004191 0.013045 -0.007650 0.000000 0.000810 0.000000
# 3 0.000361 -0.007650 0.053766 0.000000 0.002787 0.000000
# 4 0.000000 0.000000 0.000000 0.260617 0.000000 0.104857
# 5 0.002609 0.000810 0.002787 0.000000 0.064983 0.000000
# 6 0.000000 0.000000 0.000000 0.104857 0.000000 0.096749
#
#
# Mechanical properties :
#
#
# Convention : Reuss Voigt Hill
#
# Bulk Modulus (GPa) = 19.75157 55.89655 37.82406
# Shear Modulus (GPa) = 9.33229 23.47611 16.40420
#
# Velocity S-wave (km/s) = 2.09326 3.32003 2.77527
# Velocity P-wave (km/s) = 3.88794 6.39855 5.29422
#
# Compressibility (1/GPa) = 0.05062890
#
# Stress axis : x y z
#
# Youngs Moduli (GPa) = 147.54029 76.65948 18.59916
#
# Poissons Ratio (x) = 0.32129 -0.00671
# Poissons Ratio (y) = 0.61836 0.14228
# Poissons Ratio (z) = -0.05325 0.58641
#
# Static dielectric constant tensor:
#      x y z
#    x 5.302780 0.000000 0.014780 
#    y 0.000000 3.878240 0.000000 
#    z 0.014780 0.000000 3.171260 
# 
# 
# High freq. dielectric constant tensor:
#      x y z
#    x 1.873710 0.000000 -0.000760 
#    y 0.000000 1.834760 0.000000 
#    z -0.000760 0.000000 1.769450 
# 
# From -- ./inp_files/75386.got.cif
#   From: 2010.06.25/outbox.cif.g09.slc.cpg/sg13_38_cif.got.tgz:75386.got - 2010.06.28 04:50:58.
