data_PCOD8117752
_publ_section_title
;
Structure prediction by ZEFSAII (Michael W. Deem and Ramdas Pophale) SiO2 
 PCOD8117752
Probable space group: P 2/C
;
_chemical_formula_sum "Si O2"
_cell_formula_units_Z 24
_cell_length_a 24.242467
_cell_length_b 11.026676
_cell_length_c 10.151602
_cell_angle_alpha 90.000000
_cell_angle_beta 149.874324
_cell_angle_gamma 90.000000
_cell_volume 1361.983387
_symmetry_space_group_name_H-M "P 2/C"
_symmetry_group_IT_number 13
_symmetry_cell_setting 'monoclinic'
loop_
_space_group_symop_operation_xyz
x,y,z
-x,y,1/2-z
-x,-y,-z
x,-y,1/2+z
loop_
_atom_site_type_symbol
_atom_site_label
_atom_site_fract_x
_atom_site_fract_y
_atom_site_fract_z
Si Si1 0.169556 0.270504 0.571075
Si Si2 0.129033 0.250126 0.787729
Si Si3 0.074605 0.883749 0.658333
Si Si4 0.279423 0.976813 0.564480
Si Si5 0.076335 0.512280 0.283592
Si Si6 0.375191 0.881583 0.500474
O O1 0.122272 0.284069 0.619346
O O2 0.103644 0.160135 0.366343
O O3 0.154428 0.395528 0.460865
O O4 0.298801 0.237637 0.836881
O O5 0.156993 0.370705 0.929335
O O6 0.002918 0.216261 0.572111
O O7 0.217038 0.143283 0.991080
O O8 0.000000 0.000000 0.500000
O O9 0.190485 0.921517 0.830491
O O10 0.356368 0.949519 0.600009
O O11 0.352861 0.026050 0.834968
O O12 0.000000 0.532689 0.250000
O O13 0.000000 0.500000 0.000000
O O14 0.500000 0.836402 0.750000
#
# Coordination Sequence:
#
# PCOD8117752 Si02
#       6
#     4   4   4   4   4   4
#     4  10  19  34  52  74 105 140 180 213 257 310
#     4  10  19  33  51  76 111 142 166 207 260 315
#     4   9  16  28  48  75 106 137 164 200 257 319
#     4   9  20  33  54  79 105 132 171 217 262 316
#     4  12  21  33  54  78 109 145 176 208 252 316
#     4  10  20  37  58  75  99 136 178 223 267 307
#
# _framework density 17.621359999999999
#
# number of rings (size 3 to 8) (size 9 to 14) (size 15 to 20)
#    0.000    2.000    3.333    1.000    0.000    2.667 
#    0.000    5.000    0.000    5.000    0.000    0.000 
#    0.000    0.000    0.000    0.000    0.000    0.000 
#
# Total GULP energy -297354.950773 kJ/mol
# GULP energy per Si atom -12389.789616 kJ/mol
# Density = 1.758125 g / cm^3
# Si number density = 17.621360 Si / 1000 Ang^3
#
#
#
# Elastic Constant Matrix: (Units=GPa)
#
#
# Indices 1 2 3 4 5 6 
#
# 1 95.9223 44.5033 42.5595 0.0000 6.0474 0.0000
# 2 44.5033 112.4021 49.9140 0.0000 1.5571 0.0000
# 3 42.5595 49.9140 81.9677 0.0000 10.4996 0.0000
# 4 0.0000 0.0000 0.0000 24.6575 0.0000 -5.8260
# 5 6.0474 1.5571 10.4996 0.0000 28.8110 0.0000
# 6 0.0000 0.0000 0.0000 -5.8260 0.0000 23.7696
#
#
#
# Elastic Compliance Matrix: (Units=1/GPa)
#
#
# Indices 1 2 3 4 5 6 
#
# 1 0.014387 -0.003314 -0.005338 0.000000 -0.000896 0.000000
# 2 -0.003314 0.013085 -0.006552 0.000000 0.002376 0.000000
# 3 -0.005338 -0.006552 0.019692 0.000000 -0.005702 0.000000
# 4 0.000000 0.000000 0.000000 0.043049 0.000000 0.010551
# 5 -0.000896 0.002376 -0.005702 0.000000 0.036846 0.000000
# 6 0.000000 0.000000 0.000000 0.010551 0.000000 0.044657
#
#
# Mechanical properties :
#
#
# Convention : Reuss Voigt Hill
#
# Bulk Modulus (GPa) = 59.67532 62.69397 61.18465
# Shear Modulus (GPa) = 24.07223 25.66863 24.87043
#
# Velocity S-wave (km/s) = 3.70006 3.82078 3.76091
# Velocity P-wave (km/s) = 7.22446 7.42430 7.32506
#
# Compressibility (1/GPa) = 0.01675735
#
# Stress axis : x y z
#
# Youngs Moduli (GPa) = 69.50647 76.42203 50.78330
#
# Poissons Ratio (x) = 0.25324 0.27106
# Poissons Ratio (y) = 0.23032 0.33273
# Poissons Ratio (z) = 0.37100 0.50072
#
# Static dielectric constant tensor:
#      x y z
#    x 3.189740 0.000000 0.031290 
#    y 0.000000 3.772840 0.000000 
#    z 0.031290 0.000000 3.217240 
# 
# 
# High freq. dielectric constant tensor:
#      x y z
#    x 1.668450 0.000000 -0.009820 
#    y 0.000000 1.682680 0.000000 
#    z -0.009820 0.000000 1.664940 
# 
# From -- ./inp_files/15872.got.cif
#   From: 2010.06.25/outbox.cif.g09.slc.cpg/sg13_8_cif.got.tgz:15872.got - 2010.06.28 04:50:58.
