data_PCOD8117082
_publ_section_title
;
Structure prediction by ZEFSAII (Michael W. Deem and Ramdas Pophale) SiO2 
 PCOD8117082
Probable space group: P 2/C
;
_chemical_formula_sum "Si O2"
_cell_formula_units_Z 28
_cell_length_a 17.912196
_cell_length_b 6.237144
_cell_length_c 23.660659
_cell_angle_alpha 90.000000
_cell_angle_beta 143.574414
_cell_angle_gamma 90.000000
_cell_volume 1569.588230
_symmetry_space_group_name_H-M "P 2/C"
_symmetry_group_IT_number 13
_symmetry_cell_setting 'monoclinic'
loop_
_space_group_symop_operation_xyz
x,y,z
-x,y,1/2-z
-x,-y,-z
x,-y,1/2+z
loop_
_atom_site_type_symbol
_atom_site_label
_atom_site_fract_x
_atom_site_fract_y
_atom_site_fract_z
Si Si1 0.000000 0.224656 0.250000
Si Si2 0.500000 0.024375 0.250000
Si Si3 0.799801 0.091338 0.660980
Si Si4 0.403368 0.641030 0.257552
Si Si5 0.199147 0.465609 0.919995
Si Si6 0.343464 0.373648 0.846651
Si Si7 0.618461 0.279489 0.044158
Si Si8 0.651609 0.593217 0.882919
O O1 0.082675 0.371757 0.342115
O O2 0.086443 0.077654 0.261748
O O3 0.386284 0.162802 0.154243
O O4 0.438275 0.884122 0.262407
O O5 0.833574 0.237369 0.627685
O O6 0.776045 0.242640 0.700963
O O7 0.673325 0.957826 0.572023
O O8 0.326948 0.627279 0.269266
O O9 0.317946 0.535709 0.156227
O O10 0.532434 0.510248 0.342037
O O11 0.323938 0.561394 0.967521
O O12 0.226598 0.421822 0.002791
O O13 0.348740 0.616203 0.874462
O O14 0.470855 0.254730 0.943457
#
# Coordination Sequence:
#
# PCOD8117082 Si02
#       8
#     2   2   4   4   4   4   4   4
#     4  10  22  38  50  74 100 132 176 228 266 302
#     4   8  18  28  46  74 100 140 180 196 240 300
#     4  10  21  32  53  77  98 136 178 211 260 311
#     4   9  18  31  47  74 111 141 167 202 247 306
#     4  10  19  34  53  72 103 136 175 217 261 302
#     4  10  18  31  49  77 111 138 164 204 259 316
#     4   9  19  31  47  77 109 138 164 205 259 314
#     4   9  18  31  47  72 102 141 173 208 251 297
#
# _framework density 17.839072999999999
#
# number of rings (size 3 to 8) (size 9 to 14) (size 15 to 20)
#    0.000    2.857    1.429    0.857    2.000    3.429 
#    0.000    0.000    0.000    0.857    0.000   15.000 
#    0.000    0.000    0.000    0.000    0.000    0.000 
#
# Total GULP energy -347089.016049 kJ/mol
# GULP energy per Si atom -12396.036287 kJ/mol
# Density = 1.779847 g / cm^3
# Si number density = 17.839073 Si / 1000 Ang^3
#
#
#
# Elastic Constant Matrix: (Units=GPa)
#
#
# Indices 1 2 3 4 5 6 
#
# 1 71.0188 33.5333 50.9718 0.0000 -13.8315 0.0000
# 2 33.5333 101.9993 39.2314 0.0000 -7.3597 0.0000
# 3 50.9718 39.2314 104.3887 0.0000 -22.3598 0.0000
# 4 0.0000 0.0000 0.0000 11.5889 0.0000 5.8745
# 5 -13.8315 -7.3597 -22.3598 0.0000 32.4386 0.0000
# 6 0.0000 0.0000 0.0000 5.8745 0.0000 26.1244
#
#
#
# Elastic Compliance Matrix: (Units=1/GPa)
#
#
# Indices 1 2 3 4 5 6 
#
# 1 0.023033 -0.003826 -0.009258 0.000000 0.002571 0.000000
# 2 -0.003826 0.012101 -0.002864 0.000000 -0.000860 0.000000
# 3 -0.009258 -0.002864 0.016650 0.000000 0.006880 0.000000
# 4 0.000000 0.000000 0.000000 0.097391 0.000000 -0.021900
# 5 0.002571 -0.000860 0.006880 0.000000 0.036471 0.000000
# 6 0.000000 0.000000 0.000000 -0.021900 0.000000 0.043203
#
#
# Mechanical properties :
#
#
# Convention : Reuss Voigt Hill
#
# Bulk Modulus (GPa) = 50.28043 58.31996 54.30020
# Shear Modulus (GPa) = 18.70044 24.27508 21.48776
#
# Velocity S-wave (km/s) = 3.24124 3.69288 3.47440
# Velocity P-wave (km/s) = 6.50033 7.13767 6.82644
#
# Compressibility (1/GPa) = 0.01988845
#
# Stress axis : x y z
#
# Youngs Moduli (GPa) = 43.41651 82.63586 60.05978
#
# Poissons Ratio (x) = 0.31615 0.55603
# Poissons Ratio (y) = 0.16610 0.17201
# Poissons Ratio (z) = 0.40195 0.23667
#
# Static dielectric constant tensor:
#      x y z
#    x 3.167130 0.000000 -0.083120 
#    y 0.000000 3.444430 0.000000 
#    z -0.083120 0.000000 3.054200 
# 
# 
# High freq. dielectric constant tensor:
#      x y z
#    x 1.664740 0.000000 -0.009090 
#    y 0.000000 1.706190 0.000000 
#    z -0.009090 0.000000 1.659510 
# 
# From -- ./inp_files/81282.got.cif
#   From: 2010.06.25/outbox.cif.g09.slc.cpg/sg13_41_cif.got.tgz:81282.got - 2010.06.28 04:50:58.
