data_PCOD8117875
_publ_section_title
;
Structure prediction by ZEFSAII (Michael W. Deem and Ramdas Pophale) SiO2 
 PCOD8117875
Probable space group: P 2/C
;
_chemical_formula_sum "Si O2"
_cell_formula_units_Z 28
_cell_length_a 14.608044
_cell_length_b 6.856450
_cell_length_c 16.344314
_cell_angle_alpha 90.000000
_cell_angle_beta 62.555386
_cell_angle_gamma 90.000000
_cell_volume 1452.798185
_symmetry_space_group_name_H-M "P 2/C"
_symmetry_group_IT_number 13
_symmetry_cell_setting 'monoclinic'
loop_
_space_group_symop_operation_xyz
x,y,z
-x,y,1/2-z
-x,-y,-z
x,-y,1/2+z
loop_
_atom_site_type_symbol
_atom_site_label
_atom_site_fract_x
_atom_site_fract_y
_atom_site_fract_z
Si Si1 0.171364 0.984034 0.150980
Si Si2 0.376849 0.022848 0.469681
Si Si3 0.138452 0.713133 0.315308
Si Si4 0.942766 0.124814 0.956063
Si Si5 0.754313 0.955828 0.628275
Si Si6 0.452828 0.695701 0.548662
Si Si7 0.752664 0.684152 0.774360
O O1 0.138955 0.816048 0.227138
O O2 0.086957 0.999158 0.113222
O O3 0.173648 0.194972 0.194142
O O4 0.283463 0.923214 0.069703
O O5 0.339273 0.989528 0.392682
O O6 0.463681 0.189845 0.430957
O O7 0.426197 0.821716 0.479738
O O8 0.185508 0.498992 0.287091
O O9 0.018906 0.699255 0.396610
O O10 0.200718 0.840253 0.356353
O O11 0.836021 0.182013 0.044458
O O12 0.000000 0.000000 0.000000
O O13 0.714402 0.825755 0.718365
O O14 0.500000 0.500000 0.500000
O O15 0.352479 0.625396 0.638981
#
# Coordination Sequence:
#
# PCOD8117875 Si02
#       7
#     4   4   4   4   4   4   4
#     4   9  18  36  56  76 106 141 179 221 266 320
#     4   9  19  36  56  77 106 145 181 222 271 320
#     4  10  19  34  55  81 109 139 178 223 273 322
#     4   9  18  35  56  76 105 143 177 217 268 322
#     4   9  20  37  54  76 110 144 179 224 271 323
#     4  10  20  35  56  81 107 142 186 224 269 325
#     4  10  21  35  55  81 109 141 179 226 272 322
#
# _framework density 19.273153000000001
#
# number of rings (size 3 to 8) (size 9 to 14) (size 15 to 20)
#    0.000    2.571    0.000    1.286    0.000    3.429 
#    0.000   15.714    0.000    0.000    0.000    0.000 
#    0.000    0.000    0.000    0.000    0.000    0.000 
#
# Total GULP energy -346986.756248 kJ/mol
# GULP energy per Si atom -12392.384152 kJ/mol
# Density = 1.922929 g / cm^3
# Si number density = 19.273153 Si / 1000 Ang^3
#
#
#
# Elastic Constant Matrix: (Units=GPa)
#
#
# Indices 1 2 3 4 5 6 
#
# 1 127.2911 42.3434 38.7164 0.0000 23.0587 0.0000
# 2 42.3434 89.2826 33.9266 0.0000 -4.9056 0.0000
# 3 38.7164 33.9266 66.9528 0.0000 12.2495 0.0000
# 4 0.0000 0.0000 0.0000 31.2096 0.0000 -11.8649
# 5 23.0587 -4.9056 12.2495 0.0000 36.6235 0.0000
# 6 0.0000 0.0000 0.0000 -11.8649 0.0000 16.2830
#
#
#
# Elastic Compliance Matrix: (Units=1/GPa)
#
#
# Indices 1 2 3 4 5 6 
#
# 1 0.011611 -0.004727 -0.003052 0.000000 -0.006923 0.000000
# 2 -0.004727 0.016523 -0.007018 0.000000 0.007537 0.000000
# 3 -0.003052 -0.007018 0.021386 0.000000 -0.006171 0.000000
# 4 0.000000 0.000000 0.000000 0.044318 0.000000 0.032294
# 5 -0.006923 0.007537 -0.006171 0.000000 0.034737 0.000000
# 6 0.000000 0.000000 0.000000 0.032294 0.000000 0.084945
#
#
# Mechanical properties :
#
#
# Convention : Reuss Voigt Hill
#
# Bulk Modulus (GPa) = 50.18731 57.05549 53.62140
# Shear Modulus (GPa) = 20.01936 28.05920 24.03928
#
# Velocity S-wave (km/s) = 3.22641 3.81973 3.53554
# Velocity P-wave (km/s) = 6.32267 7.00868 6.67450
#
# Compressibility (1/GPa) = 0.01992536
#
# Stress axis : x y z
#
# Youngs Moduli (GPa) = 86.12596 60.52083 46.75901
#
# Poissons Ratio (x) = 0.28609 0.14272
# Poissons Ratio (y) = 0.40713 0.32816
# Poissons Ratio (z) = 0.26288 0.42474
#
# Static dielectric constant tensor:
#      x y z
#    x 2.719470 0.000000 0.762400 
#    y 0.000000 3.114690 0.000000 
#    z 0.762400 0.000000 3.266690 
# 
# 
# High freq. dielectric constant tensor:
#      x y z
#    x 1.758420 0.000000 0.000600 
#    y 0.000000 1.718420 0.000000 
#    z 0.000600 0.000000 1.764600 
# 
# From -- ./inp_files/67463.got.cif
#   From: 2010.06.25/outbox.cif.g09.slc.cpg/sg13_34_cif.got.tgz:67463.got - 2010.06.28 04:50:58.
