data_PCOD8117726
_publ_section_title
;
Structure prediction by ZEFSAII (Michael W. Deem and Ramdas Pophale) SiO2 
 PCOD8117726
Probable space group: P 2/C
;
_chemical_formula_sum "Si O2"
_cell_formula_units_Z 32
_cell_length_a 19.434743
_cell_length_b 14.578108
_cell_length_c 16.596419
_cell_angle_alpha 90.000000
_cell_angle_beta 159.489589
_cell_angle_gamma 90.000000
_cell_volume 1647.519858
_symmetry_space_group_name_H-M "P 2/C"
_symmetry_group_IT_number 13
_symmetry_cell_setting 'monoclinic'
loop_
_space_group_symop_operation_xyz
x,y,z
-x,y,1/2-z
-x,-y,-z
x,-y,1/2+z
loop_
_atom_site_type_symbol
_atom_site_label
_atom_site_fract_x
_atom_site_fract_y
_atom_site_fract_z
Si Si1 0.685541 0.016232 0.648440
Si Si2 0.065776 0.338174 0.119317
Si Si3 0.297633 0.636434 0.389920
Si Si4 0.969278 0.859208 0.957714
Si Si5 0.886040 0.207667 0.541384
Si Si6 0.948364 0.501559 0.785883
Si Si7 0.729102 0.386338 0.306017
Si Si8 0.459931 0.830752 0.613734
O O1 0.636029 0.071692 0.512544
O O2 0.500000 0.000000 0.500000
O O3 0.773971 0.917292 0.725032
O O4 0.846205 0.080200 0.869931
O O5 0.043658 0.230164 0.113366
O O6 0.110867 0.396470 0.248862
O O7 0.255157 0.350485 0.268412
O O8 0.866539 0.373479 0.858321
O O9 0.225957 0.572430 0.386096
O O10 0.504953 0.598718 0.585187
O O11 0.322052 0.743612 0.440015
O O12 0.993809 0.833046 0.080258
O O13 0.856537 0.317255 0.503034
O O14 0.667208 0.167721 0.295713
O O15 0.000000 0.183062 0.750000
O O16 0.000000 0.505139 0.750000
O O17 0.152046 0.480666 0.056020
O O18 0.500000 0.822168 0.750000
#
# Coordination Sequence:
#
# PCOD8117726 Si02
#       8
#     4   4   4   4   4   4   4   4
#     4  11  21  39  59  88 115 151 196 238 297 358
#     4  10  21  39  59  86 114 160 204 240 284 355
#     4  10  21  38  60  89 124 150 193 246 300 357
#     4  10  21  37  62  81 116 161 195 247 290 345
#     4  10  19  32  54  91 123 147 185 236 304 355
#     4  11  24  37  56  85 123 159 201 241 287 351
#     4   9  20  34  58  85 116 158 188 242 298 348
#     4  11  22  34  60  92 122 147 181 248 311 356
#
# _framework density 19.423134999999998
#
# number of rings (size 3 to 8) (size 9 to 14) (size 15 to 20)
#    0.000    1.750    2.500    2.625    7.000    2.000 
#    0.000    0.000    2.750    0.000    0.000    0.000 
#    0.000    0.000    0.000    0.000    0.000    0.000 
#
# Total GULP energy -396550.308075 kJ/mol
# GULP energy per Si atom -12392.197127 kJ/mol
# Density = 1.937893 g / cm^3
# Si number density = 19.423135 Si / 1000 Ang^3
#
#
#
# Elastic Constant Matrix: (Units=GPa)
#
#
# Indices 1 2 3 4 5 6 
#
# 1 74.3691 37.6251 42.8244 0.0000 29.2372 0.0000
# 2 37.6251 99.4890 41.9039 0.0000 16.7952 0.0000
# 3 42.8244 41.9039 77.6492 0.0000 23.8116 0.0000
# 4 0.0000 0.0000 0.0000 31.4401 0.0000 -1.8675
# 5 29.2372 16.7952 23.8116 0.0000 28.4770 0.0000
# 6 0.0000 0.0000 0.0000 -1.8675 0.0000 27.0566
#
#
#
# Elastic Compliance Matrix: (Units=1/GPa)
#
#
# Indices 1 2 3 4 5 6 
#
# 1 0.027203 -0.004114 -0.006673 0.000000 -0.019923 0.000000
# 2 -0.004114 0.013756 -0.005328 0.000000 0.000566 0.000000
# 3 -0.006673 -0.005328 0.022014 0.000000 -0.008414 0.000000
# 4 0.000000 0.000000 0.000000 0.031937 0.000000 0.002204
# 5 -0.019923 0.000566 -0.008414 0.000000 0.062273 0.000000
# 6 0.000000 0.000000 0.000000 0.002204 0.000000 0.037112
#
#
# Mechanical properties :
#
#
# Convention : Reuss Voigt Hill
#
# Bulk Modulus (GPa) = 32.52798 55.13492 43.83145
# Shear Modulus (GPa) = 21.11736 26.00500 23.56118
#
# Velocity S-wave (km/s) = 3.30089 3.66302 3.48666
# Velocity P-wave (km/s) = 5.59564 6.80721 6.23095
#
# Compressibility (1/GPa) = 0.03074276
#
# Stress axis : x y z
#
# Youngs Moduli (GPa) = 36.76106 72.69701 45.42495
#
# Poissons Ratio (x) = 0.29905 0.30313
# Poissons Ratio (y) = 0.15122 0.24203
# Poissons Ratio (z) = 0.24531 0.38734
#
# Static dielectric constant tensor:
#      x y z
#    x 2.645560 0.000000 -0.823630 
#    y 0.000000 3.788940 0.000000 
#    z -0.823630 0.000000 1.679800 
# 
# 
# High freq. dielectric constant tensor:
#      x y z
#    x 1.734910 0.000000 0.035250 
#    y 0.000000 1.756030 0.000000 
#    z 0.035250 0.000000 1.751830 
# 
# From -- ./inp_files/70779.got.cif
#   From: 2010.06.25/outbox.cif.g09.slc.cpg/sg13_36_cif.got.tgz:70779.got - 2010.06.28 04:50:58.
