data_PCOD8117667
_publ_section_title
;
Structure prediction by ZEFSAII (Michael W. Deem and Ramdas Pophale) SiO2 
 PCOD8117667
Probable space group: P 2/C
;
_chemical_formula_sum "Si O2"
_cell_formula_units_Z 28
_cell_length_a 18.813709
_cell_length_b 13.341855
_cell_length_c 5.235665
_cell_angle_alpha 90.000000
_cell_angle_beta 69.684862
_cell_angle_gamma 90.000000
_cell_volume 1232.456045
_symmetry_space_group_name_H-M "P 2/C"
_symmetry_group_IT_number 13
_symmetry_cell_setting 'monoclinic'
loop_
_space_group_symop_operation_xyz
x,y,z
-x,y,1/2-z
-x,-y,-z
x,-y,1/2+z
loop_
_atom_site_type_symbol
_atom_site_label
_atom_site_fract_x
_atom_site_fract_y
_atom_site_fract_z
Si Si1 0.586423 0.956484 0.582371
Si Si2 0.171670 0.439448 0.990811
Si Si3 0.127203 0.212147 0.039905
Si Si4 0.547783 0.255839 0.946531
Si Si5 0.224040 0.036004 0.924034
Si Si6 0.649726 0.441077 0.730747
Si Si7 0.081236 0.108823 0.584865
O O1 0.500000 0.990586 0.750000
O O2 0.592180 0.841970 0.487127
O O3 0.626096 0.022593 0.307460
O O4 0.145029 0.497127 0.769584
O O5 0.261185 0.424004 0.876396
O O6 0.133923 0.330966 0.050324
O O7 0.208175 0.153879 0.986494
O O8 0.072706 0.174987 0.336911
O O9 0.101174 0.184814 0.788258
O O10 0.500000 0.231198 0.750000
O O11 0.611007 0.334234 0.790565
O O12 0.500000 0.295910 0.250000
O O13 0.268979 0.982908 0.101839
O O14 0.142788 0.979357 0.966790
O O15 0.622689 0.492497 0.503127
O O16 0.000000 0.058084 0.750000
#
# Coordination Sequence:
#
# PCOD8117667 Si02
#       7
#     4   4   4   4   4   4   4
#     4   9  16  28  46  69  99 136 173 202 229 282
#     4  10  21  39  60  75  93 132 186 228 255 297
#     4  10  19  32  53  76 100 135 174 213 251 290
#     4  11  21  32  52  81 110 139 168 206 263 322
#     4   8  16  27  44  73 105 132 160 195 245 302
#     4  10  22  38  55  77 103 133 172 219 266 313
#     4  10  19  31  51  82 113 137 164 199 253 323
#
# _framework density 22.718864
#
# number of rings (size 3 to 8) (size 9 to 14) (size 15 to 20)
#    0.000    2.286    0.000    4.286    0.000    6.857 
#    0.000    0.000    0.000   13.714    0.000    0.000 
#    0.000    0.000    0.000    0.000    0.000    0.000 
#
# Total GULP energy -347046.905912 kJ/mol
# GULP energy per Si atom -12394.532354 kJ/mol
# Density = 2.266715 g / cm^3
# Si number density = 22.718864 Si / 1000 Ang^3
#
#
#
# Elastic Constant Matrix: (Units=GPa)
#
#
# Indices 1 2 3 4 5 6 
#
# 1 27.1701 11.7479 17.8432 0.0000 6.8799 0.0000
# 2 11.7479 128.1829 47.5574 0.0000 -4.6171 0.0000
# 3 17.8432 47.5574 174.4037 0.0000 18.6210 0.0000
# 4 0.0000 0.0000 0.0000 49.4229 0.0000 -8.9214
# 5 6.8799 -4.6171 18.6210 0.0000 25.6483 0.0000
# 6 0.0000 0.0000 0.0000 -8.9214 0.0000 38.0778
#
#
#
# Elastic Compliance Matrix: (Units=1/GPa)
#
#
# Indices 1 2 3 4 5 6 
#
# 1 0.042403 -0.003400 -0.002310 0.000000 -0.010309 0.000000
# 2 -0.003400 0.009262 -0.002659 0.000000 0.004510 0.000000
# 3 -0.002310 -0.002659 0.007242 0.000000 -0.005117 0.000000
# 4 0.000000 0.000000 0.000000 0.021127 0.000000 0.004950
# 5 -0.010309 0.004510 -0.005117 0.000000 0.046281 0.000000
# 6 0.000000 0.000000 0.000000 0.004950 0.000000 0.027422
#
#
# Mechanical properties :
#
#
# Convention : Reuss Voigt Hill
#
# Bulk Modulus (GPa) = 23.71541 53.78377 38.74959
# Shear Modulus (GPa) = 27.09562 39.47035 33.28299
#
# Velocity S-wave (km/s) = 3.45722 4.17266 3.83168
# Velocity P-wave (km/s) = 5.13788 6.85126 6.05548
#
# Compressibility (1/GPa) = 0.04216668
#
# Stress axis : x y z
#
# Youngs Moduli (GPa) = 23.58327 107.96719 138.09047
#
# Poissons Ratio (x) = 0.36713 0.31904
# Poissons Ratio (y) = 0.08019 0.36722
# Poissons Ratio (z) = 0.05449 0.28712
#
# Static dielectric constant tensor:
#      x y z
#    x 3.893920 0.000000 0.368210 
#    y 0.000000 3.840430 0.000000 
#    z 0.368210 0.000000 5.001710 
# 
# 
# High freq. dielectric constant tensor:
#      x y z
#    x 1.880750 0.000000 0.014270 
#    y 0.000000 1.879930 0.000000 
#    z 0.014270 0.000000 1.940760 
# 
# From -- ./inp_files/6905.got.cif
#   From: 2010.06.25/outbox.cif.g09.slc.cpg/sg13_4_cif.got.tgz:6905.got - 2010.06.28 04:50:58.
