data_PCOD8117355
_publ_section_title
;
Structure prediction by ZEFSAII (Michael W. Deem and Ramdas Pophale) SiO2 
 PCOD8117355
Probable space group: P 2/C
;
_chemical_formula_sum "Si O2"
_cell_formula_units_Z 32
_cell_length_a 23.945219
_cell_length_b 10.566026
_cell_length_c 18.167735
_cell_angle_alpha 90.000000
_cell_angle_beta 160.765518
_cell_angle_gamma 90.000000
_cell_volume 1514.261666
_symmetry_space_group_name_H-M "P 2/C"
_symmetry_group_IT_number 13
_symmetry_cell_setting 'monoclinic'
loop_
_space_group_symop_operation_xyz
x,y,z
-x,y,1/2-z
-x,-y,-z
x,-y,1/2+z
loop_
_atom_site_type_symbol
_atom_site_label
_atom_site_fract_x
_atom_site_fract_y
_atom_site_fract_z
Si Si1 0.101059 0.281812 0.974204
Si Si2 0.618463 0.618716 0.166131
Si Si3 0.487224 0.569192 0.311609
Si Si4 0.451173 0.076167 0.266234
Si Si5 0.823172 0.528919 0.817189
Si Si6 0.264104 0.666867 0.528938
Si Si7 0.380352 0.109355 0.882780
Si Si8 0.150912 0.003913 0.488867
O O1 0.908110 0.329988 0.732308
O O2 0.175114 0.330138 0.144080
O O3 0.216114 0.346243 0.055030
O O4 0.105055 0.131512 0.966687
O O5 0.620819 0.638205 0.257954
O O6 0.794987 0.579696 0.345734
O O7 0.547531 0.750289 0.044480
O O8 0.500000 0.500000 0.000000
O O9 0.500000 0.649309 0.250000
O O10 0.672864 0.528432 0.570829
O O11 0.380654 0.448846 0.151625
O O12 0.500000 0.007851 0.250000
O O13 0.369435 0.208498 0.142371
O O14 0.617657 0.094356 0.525904
O O15 0.314168 0.994133 0.139573
O O16 0.000000 0.500000 0.000000
O O17 0.194354 0.094667 0.613062
O O18 0.500000 0.000000 0.000000
O O19 0.000000 0.056868 0.250000
#
# Coordination Sequence:
#
# PCOD8117355 Si02
#       8
#     4   4   4   4   4   4   4   4
#     4  10  19  35  64  93 121 170 215 272 326 384
#     4  10  22  41  65  93 130 171 219 270 326 395
#     4  11  22  36  59  92 131 172 214 263 329 401
#     4  10  19  34  61  95 122 155 219 276 308 379
#     4  11  23  38  62  94 137 167 221 275 334 391
#     4  10  18  34  61  93 124 162 219 264 322 378
#     4  10  23  39  69  94 126 177 221 263 335 397
#     4  10  20  41  63  88 125 172 220 262 329 395
#
# _framework density 21.132413
#
# number of rings (size 3 to 8) (size 9 to 14) (size 15 to 20)
#    0.000    1.750    3.750    2.625    8.750    1.000 
#    0.000    5.625    0.000    0.000    0.000    0.000 
#    0.000    0.000    0.000    0.000    0.000    0.000 
#
# Total GULP energy -396449.850471 kJ/mol
# GULP energy per Si atom -12389.057827 kJ/mol
# Density = 2.108431 g / cm^3
# Si number density = 21.132413 Si / 1000 Ang^3
#
#
#
# Elastic Constant Matrix: (Units=GPa)
#
#
# Indices 1 2 3 4 5 6 
#
# 1 153.3426 21.2180 57.2979 0.0000 -15.2679 0.0000
# 2 21.2180 67.0696 26.7669 0.0000 -4.6517 0.0000
# 3 57.2979 26.7669 125.0092 0.0000 -13.0528 0.0000
# 4 0.0000 0.0000 0.0000 28.3043 0.0000 -7.4127
# 5 -15.2679 -4.6517 -13.0528 0.0000 40.0021 0.0000
# 6 0.0000 0.0000 0.0000 -7.4127 0.0000 8.3079
#
#
#
# Elastic Compliance Matrix: (Units=1/GPa)
#
#
# Indices 1 2 3 4 5 6 
#
# 1 0.008086 -0.001123 -0.003269 0.000000 0.001889 0.000000
# 2 -0.001123 0.016483 -0.002960 0.000000 0.000522 0.000000
# 3 -0.003269 -0.002960 0.010317 0.000000 0.001775 0.000000
# 4 0.000000 0.000000 0.000000 0.046104 0.000000 0.041136
# 5 0.001889 0.000522 0.001775 0.000000 0.026360 0.000000
# 6 0.000000 0.000000 0.000000 0.041136 0.000000 0.157070
#
#
# Mechanical properties :
#
#
# Convention : Reuss Voigt Hill
#
# Bulk Modulus (GPa) = 49.54750 61.77632 55.66191
# Shear Modulus (GPa) = 17.49175 31.33211 24.41193
#
# Velocity S-wave (km/s) = 2.88014 3.85471 3.40249
# Velocity P-wave (km/s) = 5.87855 7.00772 6.46782
#
# Compressibility (1/GPa) = 0.02018265
#
# Stress axis : x y z
#
# Youngs Moduli (GPa) = 123.66847 60.66997 96.93013
#
# Poissons Ratio (x) = 0.06811 0.31683
# Poissons Ratio (y) = 0.13883 0.28693
# Poissons Ratio (z) = 0.40423 0.17959
#
# Static dielectric constant tensor:
#      x y z
#    x 4.356130 0.000000 -0.178400 
#    y 0.000000 3.560760 0.000000 
#    z -0.178400 0.000000 4.166390 
# 
# 
# High freq. dielectric constant tensor:
#      x y z
#    x 1.831080 0.000000 -0.011770 
#    y 0.000000 1.793240 0.000000 
#    z -0.011770 0.000000 1.827190 
# 
# From -- ./inp_files/71493.got.cif
#   From: 2010.06.25/outbox.cif.g09.slc.cpg/sg13_36_cif.got.tgz:71493.got - 2010.06.28 04:50:58.
