data_PCOD8117375
_publ_section_title
;
Structure prediction by ZEFSAII (Michael W. Deem and Ramdas Pophale) SiO2 
 PCOD8117375
Probable space group: P 2/C
;
_chemical_formula_sum "Si O2"
_cell_formula_units_Z 28
_cell_length_a 20.756829
_cell_length_b 9.517584
_cell_length_c 21.130498
_cell_angle_alpha 90.000000
_cell_angle_beta 159.959872
_cell_angle_gamma 90.000000
_cell_volume 1430.487016
_symmetry_space_group_name_H-M "P 2/C"
_symmetry_group_IT_number 13
_symmetry_cell_setting 'monoclinic'
loop_
_space_group_symop_operation_xyz
x,y,z
-x,y,1/2-z
-x,-y,-z
x,-y,1/2+z
loop_
_atom_site_type_symbol
_atom_site_label
_atom_site_fract_x
_atom_site_fract_y
_atom_site_fract_z
Si Si1 0.356250 0.494644 0.772734
Si Si2 0.763679 0.450570 0.698925
Si Si3 0.000000 0.104027 0.250000
Si Si4 0.891615 0.299925 0.530856
Si Si5 0.690911 0.037176 0.394678
Si Si6 0.836647 0.680847 0.682503
Si Si7 0.000000 0.456152 0.750000
Si Si8 0.452006 0.249190 0.778029
O O1 0.268788 0.436578 0.756901
O O2 0.242801 0.627447 0.643757
O O3 0.326278 0.372211 0.692735
O O4 0.569612 0.546581 0.980203
O O5 0.864983 0.603323 0.776871
O O6 0.893292 0.318821 0.796036
O O7 0.990794 0.202102 0.305169
O O8 0.184285 0.010288 0.429597
O O9 0.814071 0.141403 0.464985
O O10 0.880399 0.362389 0.590958
O O11 0.500000 0.101303 0.250000
O O12 0.644780 0.903287 0.307877
O O13 0.637235 0.757653 0.492551
O O14 0.843677 0.551108 0.639746
O O15 0.500000 0.287199 0.750000
#
# Coordination Sequence:
#
# PCOD8117375 Si02
#       8
#     4   4   2   4   4   4   2   4
#     4  10  21  38  66  82 119 153 201 254 299 345
#     4   9  21  39  59  91 112 154 206 248 298 358
#     4  11  19  36  56  78 118 160 182 252 296 354
#     4  11  22  37  57  86 123 153 189 249 304 360
#     4  11  24  36  53  86 123 154 195 231 311 368
#     4   9  17  32  60  80 108 145 198 246 285 346
#     4   9  19  32  56  92 110 146 198 246 308 350
#     4  10  18  35  55  86 111 147 197 240 289 362
#
# _framework density 19.573753
#
# number of rings (size 3 to 8) (size 9 to 14) (size 15 to 20)
#    0.000    2.000    2.857    1.714    4.000    5.143 
#    0.000    0.714    0.000    2.571    0.000    0.000 
#    0.000    0.000    0.000    0.000    0.000    0.000 
#
# Total GULP energy -346927.543268 kJ/mol
# GULP energy per Si atom -12390.269402 kJ/mol
# Density = 1.952920 g / cm^3
# Si number density = 19.573753 Si / 1000 Ang^3
#
#
#
# Elastic Constant Matrix: (Units=GPa)
#
#
# Indices 1 2 3 4 5 6 
#
# 1 104.6489 50.1517 31.7829 0.0000 10.1755 0.0000
# 2 50.1517 101.2748 42.0080 0.0000 9.4801 0.0000
# 3 31.7829 42.0080 73.1212 0.0000 11.4056 0.0000
# 4 0.0000 0.0000 0.0000 29.8987 0.0000 8.8087
# 5 10.1755 9.4801 11.4056 0.0000 29.9136 0.0000
# 6 0.0000 0.0000 0.0000 8.8087 0.0000 22.5972
#
#
#
# Elastic Compliance Matrix: (Units=1/GPa)
#
#
# Indices 1 2 3 4 5 6 
#
# 1 0.012974 -0.005294 -0.002309 0.000000 -0.001855 0.000000
# 2 -0.005294 0.015174 -0.006324 0.000000 -0.000597 0.000000
# 3 -0.002309 -0.006324 0.019008 0.000000 -0.004458 0.000000
# 4 0.000000 0.000000 0.000000 0.037786 0.000000 -0.014729
# 5 -0.001855 -0.000597 -0.004458 0.000000 0.035950 0.000000
# 6 0.000000 0.000000 0.000000 -0.014729 0.000000 0.049995
#
#
# Mechanical properties :
#
#
# Convention : Reuss Voigt Hill
#
# Bulk Modulus (GPa) = 51.80165 58.54779 55.17472
# Shear Modulus (GPa) = 24.36957 26.82205 25.59581
#
# Velocity S-wave (km/s) = 3.53230 3.70578 3.62008
# Velocity P-wave (km/s) = 6.56951 6.94887 6.76185
#
# Compressibility (1/GPa) = 0.01930440
#
# Stress axis : x y z
#
# Youngs Moduli (GPa) = 77.07573 65.90045 52.61014
#
# Poissons Ratio (x) = 0.34885 0.12147
# Poissons Ratio (y) = 0.40800 0.33269
# Poissons Ratio (z) = 0.17796 0.41673
#
# Static dielectric constant tensor:
#      x y z
#    x 3.615690 0.000000 0.164740 
#    y 0.000000 3.481570 0.000000 
#    z 0.164740 0.000000 3.622300 
# 
# 
# High freq. dielectric constant tensor:
#      x y z
#    x 1.744110 0.000000 0.012340 
#    y 0.000000 1.739650 0.000000 
#    z 0.012340 0.000000 1.773750 
# 
# From -- ./inp_files/88885.got.cif
#   From: 2010.06.25/outbox.cif.g09.slc.cpg/sg13_45_cif.got.tgz:88885.got - 2010.06.28 04:50:58.
