data_PCOD8117485
_publ_section_title
;
Structure prediction by ZEFSAII (Michael W. Deem and Ramdas Pophale) SiO2 
 PCOD8117485
Probable space group: P 2/C
;
_chemical_formula_sum "Si O2"
_cell_formula_units_Z 28
_cell_length_a 9.026447
_cell_length_b 8.696024
_cell_length_c 28.509573
_cell_angle_alpha 90.000000
_cell_angle_beta 142.367839
_cell_angle_gamma 90.000000
_cell_volume 1366.399890
_symmetry_space_group_name_H-M "P 2/C"
_symmetry_group_IT_number 13
_symmetry_cell_setting 'monoclinic'
loop_
_space_group_symop_operation_xyz
x,y,z
-x,y,1/2-z
-x,-y,-z
x,-y,1/2+z
loop_
_atom_site_type_symbol
_atom_site_label
_atom_site_fract_x
_atom_site_fract_y
_atom_site_fract_z
Si Si1 0.754143 0.313653 0.395418
Si Si2 0.355979 0.248359 0.844151
Si Si3 0.775997 0.544178 0.318998
Si Si4 0.237524 0.588287 0.782830
Si Si5 0.122280 0.840479 0.044693
Si Si6 0.239538 0.009046 0.161612
Si Si7 0.978676 0.826752 0.322411
O O1 0.819114 0.464921 0.380834
O O2 0.479243 0.306700 0.346626
O O3 0.932874 0.297190 0.485156
O O4 0.803526 0.169697 0.374030
O O5 0.304903 0.428921 0.825183
O O6 0.633871 0.203680 0.921960
O O7 0.239665 0.166540 0.769996
O O8 0.235036 0.188283 0.861598
O O9 0.500000 0.603513 0.250000
O O10 0.817965 0.425092 0.286531
O O11 0.950726 0.687060 0.352731
O O12 0.000000 0.658820 0.750000
O O13 0.201015 0.859383 0.118315
O O14 0.000000 0.000000 0.000000
O O15 0.500000 0.999316 0.250000
O O16 0.040256 0.985845 0.153101
#
# Coordination Sequence:
#
# PCOD8117485 Si02
#       7
#     4   4   4   4   4   4   4
#     4  10  23  38  56  88 129 165 191 248 326 370
#     4  10  19  38  62  89 120 153 203 261 310 347
#     4   9  17  33  57  87 116 151 200 251 299 352
#     4  10  18  36  63  91 123 152 210 264 299 354
#     4  10  23  41  57  85 131 164 202 248 311 380
#     4  11  20  37  62  89 113 158 217 250 294 368
#     4  10  19  34  64  93 109 146 211 265 292 345
#
# _framework density 20.491807000000001
#
# number of rings (size 3 to 8) (size 9 to 14) (size 15 to 20)
#    0.000    2.000    4.286    1.714    4.000    0.571 
#    0.000   10.714    0.000    0.000    0.000    0.000 
#    0.000    0.000    0.000    0.000    0.000    0.000 
#
# Total GULP energy -346879.569528 kJ/mol
# GULP energy per Si atom -12388.556055 kJ/mol
# Density = 2.044517 g / cm^3
# Si number density = 20.491807 Si / 1000 Ang^3
#
#
#
# Elastic Constant Matrix: (Units=GPa)
#
#
# Indices 1 2 3 4 5 6 
#
# 1 106.9099 28.6571 11.3762 0.0000 21.6748 0.0000
# 2 28.6571 43.3159 14.9870 0.0000 6.2516 0.0000
# 3 11.3762 14.9870 71.0170 0.0000 15.6559 0.0000
# 4 0.0000 0.0000 0.0000 2.8078 0.0000 -1.7117
# 5 21.6748 6.2516 15.6559 0.0000 30.0951 0.0000
# 6 0.0000 0.0000 0.0000 -1.7117 0.0000 31.9514
#
#
#
# Elastic Compliance Matrix: (Units=1/GPa)
#
#
# Indices 1 2 3 4 5 6 
#
# 1 0.013042 -0.007904 0.001454 0.000000 -0.008508 0.000000
# 2 -0.007904 0.029899 -0.005568 0.000000 0.002378 0.000000
# 3 0.001454 -0.005568 0.016942 0.000000 -0.008704 0.000000
# 4 0.000000 0.000000 0.000000 0.368171 0.000000 0.019724
# 5 -0.008508 0.002378 -0.008704 0.000000 0.043390 0.000000
# 6 0.000000 0.000000 0.000000 0.019724 0.000000 0.032354
#
#
# Mechanical properties :
#
#
# Convention : Reuss Voigt Hill
#
# Bulk Modulus (GPa) = 27.89530 36.80928 32.35229
# Shear Modulus (GPa) = 9.26299 24.05237 16.65768
#
# Velocity S-wave (km/s) = 2.12842 3.42973 2.85422
# Velocity P-wave (km/s) = 4.43651 5.80396 5.16569
#
# Compressibility (1/GPa) = 0.03584833
#
# Stress axis : x y z
#
# Youngs Moduli (GPa) = 76.67255 33.44641 59.02470
#
# Poissons Ratio (x) = 0.26436 -0.08584
# Poissons Ratio (y) = 0.60602 0.32864
# Poissons Ratio (z) = -0.11151 0.18622
#
# Static dielectric constant tensor:
#      x y z
#    x 4.076490 0.000000 -0.198140 
#    y 0.000000 3.570310 0.000000 
#    z -0.198140 0.000000 3.914340 
# 
# 
# High freq. dielectric constant tensor:
#      x y z
#    x 1.808020 0.000000 -0.006160 
#    y 0.000000 1.785760 0.000000 
#    z -0.006160 0.000000 1.780450 
# 
# From -- ./inp_files/95925.got.cif
#   From: 2010.06.25/outbox.cif.g09.slc.cpg/sg13_48_cif.got.tgz:95925.got - 2010.06.28 04:50:58.
