data_PCOD8117913
_publ_section_title
;
Structure prediction by ZEFSAII (Michael W. Deem and Ramdas Pophale) SiO2 
 PCOD8117913
Probable space group: P 2/C
;
_chemical_formula_sum "Si O2"
_cell_formula_units_Z 24
_cell_length_a 14.661299
_cell_length_b 15.768889
_cell_length_c 8.755882
_cell_angle_alpha 90.000000
_cell_angle_beta 34.164179
_cell_angle_gamma 90.000000
_cell_volume 1136.774684
_symmetry_space_group_name_H-M "P 2/C"
_symmetry_group_IT_number 13
_symmetry_cell_setting 'monoclinic'
loop_
_space_group_symop_operation_xyz
x,y,z
-x,y,1/2-z
-x,-y,-z
x,-y,1/2+z
loop_
_atom_site_type_symbol
_atom_site_label
_atom_site_fract_x
_atom_site_fract_y
_atom_site_fract_z
Si Si1 0.323562 0.236921 0.425212
Si Si2 0.323594 0.426302 0.427370
Si Si3 0.820041 0.091020 0.058718
Si Si4 0.182648 0.756464 0.438592
Si Si5 0.176522 0.921411 0.585146
Si Si6 0.180449 0.429649 0.938125
O O1 0.500000 0.218493 0.250000
O O2 0.314133 0.331860 0.368539
O O3 0.288112 0.171959 0.337270
O O4 0.191656 0.227067 0.744127
O O5 0.500000 0.442660 0.250000
O O6 0.184070 0.436286 0.749674
O O7 0.295743 0.496419 0.338117
O O8 0.000000 0.107244 0.750000
O O9 0.738874 0.007475 0.092758
O O10 0.828949 0.077002 0.226156
O O11 0.271798 0.835579 0.400099
O O12 0.256327 0.663429 0.376716
O O13 0.000000 0.754174 0.750000
O O14 0.000000 0.919932 0.750000
O O15 0.000000 0.441554 0.250000
#
# Coordination Sequence:
#
# PCOD8117913 Si02
#       6
#     4   4   4   4   4   4
#     4  10  22  39  56  81 118 152 186 232 283 332
#     4  10  21  37  56  79 113 151 182 223 281 338
#     4  11  20  34  59  85 110 150 192 230 276 334
#     4   9  18  36  57  78 110 149 185 230 277 327
#     4  10  19  34  57  85 113 144 186 233 277 333
#     4  10  20  34  56  82 109 142 185 234 274 318
#
# _framework density 21.112362000000001
#
# number of rings (size 3 to 8) (size 9 to 14) (size 15 to 20)
#    0.000    2.000    0.000    6.000    0.000    2.000 
#    0.000    4.167    0.000    0.000    0.000    0.000 
#    0.000    0.000    0.000    0.000    0.000    0.000 
#
# Total GULP energy -297413.810364 kJ/mol
# GULP energy per Si atom -12392.242099 kJ/mol
# Density = 2.106431 g / cm^3
# Si number density = 21.112362 Si / 1000 Ang^3
#
#
#
# Elastic Constant Matrix: (Units=GPa)
#
#
# Indices 1 2 3 4 5 6 
#
# 1 102.2580 84.2485 22.4576 0.0000 26.3717 0.0000
# 2 84.2485 210.8049 15.0391 0.0000 14.9949 0.0000
# 3 22.4576 15.0391 54.5579 0.0000 13.3640 0.0000
# 4 0.0000 0.0000 0.0000 8.7737 0.0000 9.9183
# 5 26.3717 14.9949 13.3640 0.0000 28.4696 0.0000
# 6 0.0000 0.0000 0.0000 9.9183 0.0000 45.1848
#
#
#
# Elastic Compliance Matrix: (Units=1/GPa)
#
#
# Indices 1 2 3 4 5 6 
#
# 1 0.019113 -0.006513 -0.002910 0.000000 -0.012908 0.000000
# 2 -0.006513 0.007180 0.000170 0.000000 0.002171 0.000000
# 3 -0.002910 0.000170 0.021290 0.000000 -0.007387 0.000000
# 4 0.000000 0.000000 0.000000 0.151594 0.000000 -0.033276
# 5 -0.012908 0.002171 -0.007387 0.000000 0.049406 0.000000
# 6 0.000000 0.000000 0.000000 -0.033276 0.000000 0.029436
#
#
# Mechanical properties :
#
#
# Convention : Reuss Voigt Hill
#
# Bulk Modulus (GPa) = 34.39240 67.90125 51.14682
# Shear Modulus (GPa) = 16.32827 32.87733 24.60280
#
# Velocity S-wave (km/s) = 2.78402 3.95049 3.41739
# Velocity P-wave (km/s) = 5.16332 7.28287 6.31269
#
# Compressibility (1/GPa) = 0.02907619
#
# Stress axis : x y z
#
# Youngs Moduli (GPa) = 52.32047 139.27620 46.97069
#
# Poissons Ratio (x) = 0.90707 0.13670
# Poissons Ratio (y) = 0.34075 -0.00797
# Poissons Ratio (z) = 0.15227 -0.02364
#
# Static dielectric constant tensor:
#      x y z
#    x 3.379680 0.000000 0.191080 
#    y 0.000000 5.019470 0.000000 
#    z 0.191080 0.000000 3.816200 
# 
# 
# High freq. dielectric constant tensor:
#      x y z
#    x 1.781810 0.000000 0.020940 
#    y 0.000000 1.862360 0.000000 
#    z 0.020940 0.000000 1.822230 
# 
# From -- ./inp_files/19488.got.cif
#   From: 2010.06.25/outbox.cif.g09.slc.cpg/sg13_10_cif.got.tgz:19488.got - 2010.06.28 04:50:58.
