data_PCOD8117934
_publ_section_title
;
Structure prediction by ZEFSAII (Michael W. Deem and Ramdas Pophale) SiO2 
 PCOD8117934
Probable space group: P 2/C
;
_chemical_formula_sum "Si O2"
_cell_formula_units_Z 32
_cell_length_a 19.577897
_cell_length_b 9.329267
_cell_length_c 24.684559
_cell_angle_alpha 90.000000
_cell_angle_beta 157.865527
_cell_angle_gamma 90.000000
_cell_volume 1698.746936
_symmetry_space_group_name_H-M "P 2/C"
_symmetry_group_IT_number 13
_symmetry_cell_setting 'monoclinic'
loop_
_space_group_symop_operation_xyz
x,y,z
-x,y,1/2-z
-x,-y,-z
x,-y,1/2+z
loop_
_atom_site_type_symbol
_atom_site_label
_atom_site_fract_x
_atom_site_fract_y
_atom_site_fract_z
Si Si1 0.936494 0.076874 0.341930
Si Si2 0.695527 0.251684 0.384313
Si Si3 0.793789 0.846254 0.318274
Si Si4 0.999162 0.823007 0.185819
Si Si5 0.335196 0.932089 0.166907
Si Si6 0.701901 0.656585 0.150849
Si Si7 0.892777 0.644556 0.930918
Si Si8 0.687817 0.334642 0.174088
O O1 0.818069 0.217077 0.241901
O O2 0.144470 0.124150 0.503387
O O3 0.854249 0.992057 0.333089
O O4 0.928401 0.973352 0.284106
O O5 0.500000 0.325293 0.250000
O O6 0.799186 0.216779 0.516472
O O7 0.814105 0.357296 0.434088
O O8 0.662656 0.103858 0.328097
O O9 0.646805 0.877162 0.257669
O O10 0.708304 0.731760 0.214223
O O11 0.973416 0.779347 0.477924
O O12 0.000000 0.835158 0.250000
O O13 0.131835 0.697526 0.264887
O O14 0.500000 0.874922 0.250000
O O15 0.718993 0.486624 0.168681
O O16 0.520204 0.709017 0.987304
O O17 0.729096 0.658329 0.768297
O O18 0.000000 0.500000 0.000000
#
# Coordination Sequence:
#
# PCOD8117934 Si02
#       8
#     4   4   4   4   4   4   4   4
#     4  10  20  38  60  90 115 158 201 253 299 364
#     4  10  21  37  57  92 117 152 207 250 300 369
#     4  11  19  38  61  87 120 152 206 247 304 360
#     4  10  21  40  59  82 127 159 191 246 305 359
#     4  10  19  34  58  89 122 154 189 254 310 347
#     4  10  23  41  58  88 117 159 205 246 296 372
#     4  12  20  36  66  88 113 164 202 258 300 364
#     4  11  22  37  64  86 118 150 206 251 301 355
#
# _framework density 18.837413999999999
#
# number of rings (size 3 to 8) (size 9 to 14) (size 15 to 20)
#    0.000    1.500    6.250    1.125    1.750    2.000 
#    9.000    1.250    2.750    0.000    0.000    0.000 
#    0.000    0.000    0.000    0.000    0.000    0.000 
#
# Total GULP energy -396795.728340 kJ/mol
# GULP energy per Si atom -12399.866511 kJ/mol
# Density = 1.879454 g / cm^3
# Si number density = 18.837414 Si / 1000 Ang^3
#
#
#
# Elastic Constant Matrix: (Units=GPa)
#
#
# Indices 1 2 3 4 5 6 
#
# 1 154.4020 39.1947 50.8267 0.0000 4.6331 0.0000
# 2 39.1947 82.2224 44.9379 0.0000 6.8513 0.0000
# 3 50.8267 44.9379 122.6128 0.0000 2.7615 0.0000
# 4 0.0000 0.0000 0.0000 28.6361 0.0000 2.5409
# 5 4.6331 6.8513 2.7615 0.0000 33.0627 0.0000
# 6 0.0000 0.0000 0.0000 2.5409 0.0000 16.3388
#
#
#
# Elastic Compliance Matrix: (Units=1/GPa)
#
#
# Indices 1 2 3 4 5 6 
#
# 1 0.007886 -0.002431 -0.002369 0.000000 -0.000403 0.000000
# 2 -0.002431 0.016201 -0.004871 0.000000 -0.002610 0.000000
# 3 -0.002369 -0.004871 0.010913 0.000000 0.000430 0.000000
# 4 0.000000 0.000000 0.000000 0.035410 0.000000 -0.005507
# 5 -0.000403 -0.002610 0.000430 0.000000 0.030807 0.000000
# 6 0.000000 0.000000 0.000000 -0.005507 0.000000 0.062060
#
#
# Mechanical properties :
#
#
# Convention : Reuss Voigt Hill
#
# Bulk Modulus (GPa) = 63.86509 69.90622 66.88565
# Shear Modulus (GPa) = 26.61880 30.55937 28.58909
#
# Velocity S-wave (km/s) = 3.76318 4.03211 3.89996
# Velocity P-wave (km/s) = 7.27041 7.67255 7.47419
#
# Compressibility (1/GPa) = 0.01565801
#
# Stress axis : x y z
#
# Youngs Moduli (GPa) = 126.81473 61.72621 91.63096
#
# Poissons Ratio (x) = 0.15004 0.21706
# Poissons Ratio (y) = 0.30824 0.44635
# Poissons Ratio (z) = 0.30041 0.30068
#
# Static dielectric constant tensor:
#      x y z
#    x 3.434600 0.000000 0.055980 
#    y 0.000000 3.379140 0.000000 
#    z 0.055980 0.000000 3.673640 
# 
# 
# High freq. dielectric constant tensor:
#      x y z
#    x 1.719850 0.000000 -0.003290 
#    y 0.000000 1.722730 0.000000 
#    z -0.003290 0.000000 1.737300 
# 
# From -- ./inp_files/93611.got.cif
#   From: 2010.06.25/outbox.cif.g09.slc.cpg/sg13_47_cif.got.tgz:93611.got - 2010.06.28 04:50:58.
