data_PCOD8117453
_publ_section_title
;
Structure prediction by ZEFSAII (Michael W. Deem and Ramdas Pophale) SiO2 
 PCOD8117453
Probable space group: P 2/C
;
_chemical_formula_sum "Si O2"
_cell_formula_units_Z 28
_cell_length_a 5.024361
_cell_length_b 9.950661
_cell_length_c 30.849327
_cell_angle_alpha 90.000000
_cell_angle_beta 60.471810
_cell_angle_gamma 90.000000
_cell_volume 1342.005436
_symmetry_space_group_name_H-M "P 2/C"
_symmetry_group_IT_number 13
_symmetry_cell_setting 'monoclinic'
loop_
_space_group_symop_operation_xyz
x,y,z
-x,y,1/2-z
-x,-y,-z
x,-y,1/2+z
loop_
_atom_site_type_symbol
_atom_site_label
_atom_site_fract_x
_atom_site_fract_y
_atom_site_fract_z
Si Si1 0.458363 0.566874 0.356203
Si Si2 0.690897 0.783215 0.936492
Si Si3 0.773584 0.486547 0.917777
Si Si4 0.738278 0.795463 0.453707
Si Si5 0.656379 0.339628 0.283237
Si Si6 0.372171 0.856465 0.874560
Si Si7 0.428811 0.149082 0.890053
O O1 0.524914 0.517226 0.399471
O O2 0.669906 0.485444 0.305644
O O3 0.514406 0.728343 0.350560
O O4 0.111849 0.532359 0.370632
O O5 0.755158 0.628285 0.943532
O O6 0.522793 0.789094 0.904175
O O7 0.007416 0.862877 0.909215
O O8 0.479516 0.850360 0.990528
O O9 0.710363 0.366865 0.956595
O O10 0.646574 0.854868 0.414484
O O11 0.085008 0.836893 0.435790
O O12 0.500000 0.358046 0.250000
O O13 0.464800 0.229811 0.325441
O O14 0.000000 0.286289 0.250000
O O15 0.481772 0.010505 0.859980
#
# Coordination Sequence:
#
# PCOD8117453 Si02
#       7
#     4   4   4   4   4   4   4
#     4  10  20  40  63  84 115 154 190 245 299 348
#     4  12  21  36  60  89 127 161 208 238 290 337
#     4  10  18  36  58  87 122 152 203 243 289 332
#     4  10  22  35  59  89 122 170 205 243 265 344
#     4  12  24  42  66  92 111 143 199 251 307 365
#     4  12  25  40  61  88 125 162 190 249 304 352
#     4  10  23  41  58  86 127 163 197 232 295 347
#
# _framework density 20.864296
#
# number of rings (size 3 to 8) (size 9 to 14) (size 15 to 20)
#    0.000    1.143    2.857    3.857    0.000    3.429 
#    0.000    7.143    0.000    0.000    0.000    0.000 
#    0.000    0.000    0.000    0.000    0.000    0.000 
#
# Total GULP energy -347277.711377 kJ/mol
# GULP energy per Si atom -12402.775406 kJ/mol
# Density = 2.081681 g / cm^3
# Si number density = 20.864296 Si / 1000 Ang^3
#
#
#
# Elastic Constant Matrix: (Units=GPa)
#
#
# Indices 1 2 3 4 5 6 
#
# 1 69.6457 6.8602 -27.4456 0.0000 5.2569 0.0000
# 2 6.8602 98.7623 66.5263 0.0000 -6.2747 0.0000
# 3 -27.4456 66.5263 -35.9909 0.0000 11.9305 0.0000
# 4 0.0000 0.0000 0.0000 -12.1378 0.0000 21.1839
# 5 5.2569 -6.2747 11.9305 0.0000 19.3749 0.0000
# 6 0.0000 0.0000 0.0000 21.1839 0.0000 13.5883
#
#
#
# Elastic Compliance Matrix: (Units=1/GPa)
#
#
# Indices 1 2 3 4 5 6 
#
# 1 0.012214 0.002389 -0.004768 0.000000 0.000396 0.000000
# 2 0.002389 0.005205 0.006763 0.000000 -0.003127 0.000000
# 3 -0.004768 0.006763 -0.008714 0.000000 0.008850 0.000000
# 4 0.000000 0.000000 0.000000 -0.022142 0.000000 0.034519
# 5 0.000396 -0.003127 0.008850 0.000000 0.045044 0.000000
# 6 0.000000 0.000000 0.000000 0.034519 0.000000 0.019778
#
#
# Mechanical properties :
#
#
# Convention : Reuss Voigt Hill
#
# Bulk Modulus (GPa) = 57.23275 24.92212 41.07743
# Shear Modulus (GPa) = 103.21512 9.93015 56.57264
#
# Velocity S-wave (km/s) = 7.04110 2.18397 5.21281
# Velocity P-wave (km/s) = 9.67437 4.28141 7.48077
#
# Compressibility (1/GPa) = 0.01747251
#
# Stress axis : x y z
#
# Youngs Moduli (GPa) = 81.87153 192.12067 -114.75854
#
# Poissons Ratio (x) = -0.45888 -0.54718
# Poissons Ratio (y) = -0.19555 0.77613
# Poissons Ratio (z) = 0.39037 -1.29935
#
# Static dielectric constant tensor:
#      x y z
#    x 3.951160 0.000000 -0.023360 
#    y 0.000000 4.024520 0.000000 
#    z -0.023360 0.000000 3.400380 
# 
# 
# High freq. dielectric constant tensor:
#      x y z
#    x 1.835600 0.000000 0.000770 
#    y 0.000000 1.830150 0.000000 
#    z 0.000770 0.000000 1.777160 
# 
# From -- ./inp_files/94957.got.cif
#   From: 2010.06.25/outbox.cif.g09.slc.cpg/sg13_48_cif.got.tgz:94957.got - 2010.06.28 04:50:58.
