data_PCOD8117202
_publ_section_title
;
Structure prediction by ZEFSAII (Michael W. Deem and Ramdas Pophale) SiO2 
 PCOD8117202
Probable space group: P 2/C
;
_chemical_formula_sum "Si O2"
_cell_formula_units_Z 22
_cell_length_a 23.385730
_cell_length_b 9.634378
_cell_length_c 13.120438
_cell_angle_alpha 90.000000
_cell_angle_beta 22.392021
_cell_angle_gamma 90.000000
_cell_volume 1126.111442
_symmetry_space_group_name_H-M "P 2/C"
_symmetry_group_IT_number 13
_symmetry_cell_setting 'monoclinic'
loop_
_space_group_symop_operation_xyz
x,y,z
-x,y,1/2-z
-x,-y,-z
x,-y,1/2+z
loop_
_atom_site_type_symbol
_atom_site_label
_atom_site_fract_x
_atom_site_fract_y
_atom_site_fract_z
Si Si1 0.825274 0.534402 0.190611
Si Si2 0.115981 0.291996 0.274262
Si Si3 0.896786 0.154205 0.762879
Si Si4 0.328788 0.803285 0.046189
Si Si5 0.000000 0.373428 0.750000
Si Si6 0.158517 0.877803 0.522953
O O1 0.781578 0.404463 0.336156
O O2 0.683864 0.637408 0.412519
O O3 0.960571 0.629660 0.007611
O O4 0.869844 0.470790 0.009148
O O5 0.212617 0.231255 0.020919
O O6 0.057473 0.156596 0.436755
O O7 0.757246 0.155425 0.915295
O O8 0.908743 0.289819 0.814618
O O9 0.874154 0.027767 0.876602
O O10 0.269964 0.885853 0.243421
O O11 0.500000 0.846936 0.750000
O O12 0.000000 0.813544 0.750000
#
# Coordination Sequence:
#
# PCOD8117202 Si02
#       6
#     4   4   4   4   2   4
#     4   9  17  33  54  80 116 144 185 232 288 327
#     4   9  18  32  56  88 110 138 185 250 280 327
#     4  10  21  35  58  89 118 140 190 245 288 327
#     4  11  25  40  54  80 123 159 189 229 284 346
#     4  10  18  32  62  94 112 138 188 254 286 326
#     4  12  20  35  62  87 111 151 195 237 286 336
#
# _framework density 19.536254
#
# number of rings (size 3 to 8) (size 9 to 14) (size 15 to 20)
#    0.000    1.818    4.545    2.727    0.000    0.727 
#    0.000    3.636    0.000    2.182    0.000    0.000 
#    0.000    0.000    0.000    0.000    0.000    0.000 
#
# Total GULP energy -272552.536063 kJ/mol
# GULP energy per Si atom -12388.751639 kJ/mol
# Density = 1.949179 g / cm^3
# Si number density = 19.536254 Si / 1000 Ang^3
#
#
#
# Elastic Constant Matrix: (Units=GPa)
#
#
# Indices 1 2 3 4 5 6 
#
# 1 96.9774 31.5735 40.3503 0.0000 26.9500 0.0000
# 2 31.5735 77.1247 24.2407 0.0000 16.0832 0.0000
# 3 40.3503 24.2407 83.4777 0.0000 20.9412 0.0000
# 4 0.0000 0.0000 0.0000 16.3681 0.0000 13.0004
# 5 26.9500 16.0832 20.9412 0.0000 26.3096 0.0000
# 6 0.0000 0.0000 0.0000 13.0004 0.0000 25.3118
#
#
#
# Elastic Compliance Matrix: (Units=1/GPa)
#
#
# Indices 1 2 3 4 5 6 
#
# 1 0.016163 -0.002935 -0.004070 0.000000 -0.011523 0.000000
# 2 -0.002935 0.015839 -0.001882 0.000000 -0.005178 0.000000
# 3 -0.004070 -0.001882 0.016441 0.000000 -0.007767 0.000000
# 4 0.000000 0.000000 0.000000 0.103189 0.000000 -0.052999
# 5 -0.011523 -0.005178 -0.007767 0.000000 0.059160 0.000000
# 6 0.000000 0.000000 0.000000 -0.052999 0.000000 0.066728
#
#
# Mechanical properties :
#
#
# Convention : Reuss Voigt Hill
#
# Bulk Modulus (GPa) = 32.60458 49.98986 41.29722
# Shear Modulus (GPa) = 16.36574 24.35892 20.36233
#
# Velocity S-wave (km/s) = 2.89746 3.53492 3.23195
# Velocity P-wave (km/s) = 5.28387 6.50420 5.92553
#
# Compressibility (1/GPa) = 0.03067053
#
# Stress axis : x y z
#
# Youngs Moduli (GPa) = 61.87122 63.13629 60.82222
#
# Poissons Ratio (x) = 0.18528 0.24753
# Poissons Ratio (y) = 0.18157 0.11445
# Poissons Ratio (z) = 0.25180 0.11881
#
# Static dielectric constant tensor:
#      x y z
#    x 3.916960 0.000000 0.442850 
#    y 0.000000 3.825980 0.000000 
#    z 0.442850 0.000000 3.129140 
# 
# 
# High freq. dielectric constant tensor:
#      x y z
#    x 1.767640 0.000000 0.044210 
#    y 0.000000 1.777140 0.000000 
#    z 0.044210 0.000000 1.700610 
# 
# From -- ./inp_files/59362.got.cif
#   From: 2010.06.25/outbox.cif.g09.slc.cpg/sg13_30_cif.got.tgz:59362.got - 2010.06.28 04:50:58.
