data_PCOD8117775
_publ_section_title
;
Structure prediction by ZEFSAII (Michael W. Deem and Ramdas Pophale) SiO2 
 PCOD8117775
Probable space group: P 2/C
;
_chemical_formula_sum "Si O2"
_cell_formula_units_Z 30
_cell_length_a 24.202326
_cell_length_b 12.725257
_cell_length_c 30.218138
_cell_angle_alpha 90.000000
_cell_angle_beta 9.887362
_cell_angle_gamma 90.000000
_cell_volume 1598.054272
_symmetry_space_group_name_H-M "P 2/C"
_symmetry_group_IT_number 13
_symmetry_cell_setting 'monoclinic'
loop_
_space_group_symop_operation_xyz
x,y,z
-x,y,1/2-z
-x,-y,-z
x,-y,1/2+z
loop_
_atom_site_type_symbol
_atom_site_label
_atom_site_fract_x
_atom_site_fract_y
_atom_site_fract_z
Si Si1 0.694669 0.074721 0.905110
Si Si2 0.990436 0.496704 0.110009
Si Si3 0.792448 0.789339 0.453946
Si Si4 0.548555 0.370138 0.513407
Si Si5 0.578179 0.860731 0.398805
Si Si6 0.782398 0.816503 0.654362
Si Si7 0.500000 0.365785 0.250000
Si Si8 0.089476 0.387485 0.947085
O O1 0.712457 0.117740 0.841579
O O2 0.016861 0.109385 0.677124
O O3 0.374265 0.117021 0.182400
O O4 0.674903 0.948265 0.918315
O O5 0.859248 0.442544 0.258787
O O6 0.741312 0.580397 0.286638
O O7 0.312609 0.560797 0.863943
O O8 0.075911 0.397481 0.010777
O O9 0.443063 0.820816 0.711268
O O10 0.756943 0.704028 0.520537
O O11 0.000000 0.739735 0.250000
O O12 0.606750 0.250138 0.453016
O O13 0.448421 0.365907 0.644391
O O14 0.874456 0.862580 0.130556
O O15 0.832042 0.697884 0.632981
O O16 0.000000 0.500000 0.000000
#
# Coordination Sequence:
#
# PCOD8117775 Si02
#       8
#     4   4   4   4   4   4   2   4
#     4  10  20  32  51  79 107 137 175 221 271 317
#     4  10  20  32  52  78 106 137 174 216 261 315
#     4  10  21  34  52  79 110 138 172 224 274 315
#     4   9  18  33  52  73 100 136 175 214 254 309
#     4  10  19  33  54  77 103 138 179 219 264 322
#     4  10  19  34  55  78 106 138 181 226 264 317
#     4  12  22  34  54  80 110 142 172 218 276 324
#     4   9  17  30  50  75 101 133 172 214 260 310
#
# _framework density 18.772829999999999
#
# number of rings (size 3 to 8) (size 9 to 14) (size 15 to 20)
#    0.000    2.133    0.000    5.200    0.000    6.400 
#    0.000    0.000    0.000   15.200    0.000    0.000 
#    0.000    0.000    0.000    0.000    0.000    0.000 
#
# Total GULP energy -371836.554457 kJ/mol
# GULP energy per Si atom -12394.551815 kJ/mol
# Density = 1.873010 g / cm^3
# Si number density = 18.772830 Si / 1000 Ang^3
#
#
#
# Elastic Constant Matrix: (Units=GPa)
#
#
# Indices 1 2 3 4 5 6 
#
# 1 76.9304 41.8228 32.5749 0.0000 7.2699 0.0000
# 2 41.8228 124.4540 36.9721 0.0000 3.0543 0.0000
# 3 32.5749 36.9721 67.8126 0.0000 6.2012 0.0000
# 4 0.0000 0.0000 0.0000 29.7817 0.0000 1.1179
# 5 7.2699 3.0543 6.2012 0.0000 27.6367 0.0000
# 6 0.0000 0.0000 0.0000 1.1179 0.0000 28.4101
#
#
#
# Elastic Compliance Matrix: (Units=1/GPa)
#
#
# Indices 1 2 3 4 5 6 
#
# 1 0.018173 -0.004202 -0.006171 0.000000 -0.002931 0.000000
# 2 -0.004202 0.010560 -0.003811 0.000000 0.000794 0.000000
# 3 -0.006171 -0.003811 0.020012 0.000000 -0.002446 0.000000
# 4 0.000000 0.000000 0.000000 0.033627 0.000000 -0.001323
# 5 -0.002931 0.000794 -0.002446 0.000000 0.037416 0.000000
# 6 0.000000 0.000000 0.000000 -0.001323 0.000000 0.035251
#
#
# Mechanical properties :
#
#
# Convention : Reuss Voigt Hill
#
# Bulk Modulus (GPa) = 49.07446 54.65961 51.86703
# Shear Modulus (GPa) = 26.28806 27.68751 26.98779
#
# Velocity S-wave (km/s) = 3.74615 3.84457 3.79568
# Velocity P-wave (km/s) = 6.70146 6.99194 6.84824
#
# Compressibility (1/GPa) = 0.02037720
#
# Stress axis : x y z
#
# Youngs Moduli (GPa) = 55.02660 94.69703 49.96888
#
# Poissons Ratio (x) = 0.39791 0.30834
# Poissons Ratio (y) = 0.23122 0.19046
# Poissons Ratio (z) = 0.33955 0.36094
#
# Static dielectric constant tensor:
#      x y z
#    x 3.801390 0.000000 0.536310 
#    y 0.000000 3.533770 0.000000 
#    z 0.536310 0.000000 3.480190 
# 
# 
# High freq. dielectric constant tensor:
#      x y z
#    x 1.722250 0.000000 0.034180 
#    y 0.000000 1.726700 0.000000 
#    z 0.034180 0.000000 1.715020 
# 
# From -- ./inp_files/97744.got.cif
#   From: 2010.06.25/outbox.cif.g09.slc.cpg/sg13_49_cif.got.tgz:97744.got - 2010.06.28 04:50:58.
