data_PCOD8117003
_publ_section_title
;
Structure prediction by ZEFSAII (Michael W. Deem and Ramdas Pophale) SiO2 
 PCOD8117003
Probable space group: P 2/C
;
_chemical_formula_sum "Si O2"
_cell_formula_units_Z 32
_cell_length_a 8.765705
_cell_length_b 11.155055
_cell_length_c 22.294223
_cell_angle_alpha 90.000000
_cell_angle_beta 60.929603
_cell_angle_gamma 90.000000
_cell_volume 1905.346464
_symmetry_space_group_name_H-M "P 2/C"
_symmetry_group_IT_number 13
_symmetry_cell_setting 'monoclinic'
loop_
_space_group_symop_operation_xyz
x,y,z
-x,y,1/2-z
-x,-y,-z
x,-y,1/2+z
loop_
_atom_site_type_symbol
_atom_site_label
_atom_site_fract_x
_atom_site_fract_y
_atom_site_fract_z
Si Si1 0.003084 0.905371 0.083496
Si Si2 0.741515 0.539301 0.518825
Si Si3 0.072668 0.409247 0.404002
Si Si4 0.938820 0.421502 0.695148
Si Si5 0.312627 0.764393 0.311063
Si Si6 0.745940 0.281615 0.919591
Si Si7 0.601000 0.706325 0.072534
Si Si8 0.924100 0.165209 0.466440
O O1 0.167605 0.846112 0.084311
O O2 0.818951 0.876322 0.152172
O O3 0.041673 0.046325 0.078533
O O4 0.007510 0.850906 0.015983
O O5 0.760119 0.583231 0.584142
O O6 0.668698 0.650929 0.493449
O O7 0.612028 0.426334 0.541853
O O8 0.928613 0.498019 0.458672
O O9 0.116882 0.455958 0.328509
O O10 0.013836 0.271671 0.412388
O O11 0.777745 0.327577 0.718820
O O12 0.000000 0.453530 0.750000
O O13 0.110577 0.368792 0.633544
O O14 0.500000 0.809572 0.250000
O O15 0.344445 0.698318 0.368326
O O16 0.597384 0.252968 0.899093
O O17 0.720548 0.802331 0.014139
#
# Coordination Sequence:
#
# PCOD8117003 Si02
#       8
#     4   4   4   4   4   4   4   4
#     4   9  18  31  49  72  96 128 169 201 241 291
#     4   9  15  27  45  73  99 125 150 189 249 296
#     4   9  15  28  50  68  96 128 156 193 243 294
#     4  10  19  31  48  70  95 126 162 198 241 294
#     4  10  19  32  49  69  94 126 162 204 242 286
#     4  10  18  28  46  73 103 125 155 201 243 295
#     4  10  18  28  46  74 103 125 155 196 249 299
#     4   9  17  31  50  71  97 132 163 198 246 292
#
# _framework density 16.794846
#
# number of rings (size 3 to 8) (size 9 to 14) (size 15 to 20)
#    0.000    2.500    2.500    1.125    0.000    0.500 
#    0.000    0.000    0.000    5.250    0.000    0.000 
#    0.000    0.000    0.000    0.000    0.000    0.000 
#
# Total GULP energy -396549.097502 kJ/mol
# GULP energy per Si atom -12392.159297 kJ/mol
# Density = 1.675662 g / cm^3
# Si number density = 16.794846 Si / 1000 Ang^3
#
#
#
# Elastic Constant Matrix: (Units=GPa)
#
#
# Indices 1 2 3 4 5 6 
#
# 1 95.7843 30.4656 22.7538 0.0000 3.6587 0.0000
# 2 30.4656 89.5119 37.9524 0.0000 3.5208 0.0000
# 3 22.7538 37.9524 55.8563 0.0000 5.3574 0.0000
# 4 0.0000 0.0000 0.0000 4.1909 0.0000 18.8707
# 5 3.6587 3.5208 5.3574 0.0000 28.8593 0.0000
# 6 0.0000 0.0000 0.0000 18.8707 0.0000 -5.3500
#
#
#
# Elastic Compliance Matrix: (Units=1/GPa)
#
#
# Indices 1 2 3 4 5 6 
#
# 1 0.012062 -0.002842 -0.002922 0.000000 -0.000640 0.000000
# 2 -0.002842 0.016362 -0.009981 0.000000 0.000217 0.000000
# 3 -0.002922 -0.009981 0.026189 0.000000 -0.003274 0.000000
# 4 0.000000 0.000000 0.000000 0.014134 0.000000 0.049853
# 5 -0.000640 0.000217 -0.003274 0.000000 0.035313 0.000000
# 6 0.000000 0.000000 0.000000 0.049853 0.000000 -0.011072
#
#
# Mechanical properties :
#
#
# Convention : Reuss Voigt Hill
#
# Bulk Modulus (GPa) = 43.24240 47.05513 45.14877
# Shear Modulus (GPa) = 37.82581 15.53875 26.68228
#
# Velocity S-wave (km/s) = 4.75091 3.04503 3.99020
# Velocity P-wave (km/s) = 7.47651 6.35935 6.94044
#
# Compressibility (1/GPa) = 0.02312545
#
# Stress axis : x y z
#
# Youngs Moduli (GPa) = 82.90208 61.11712 38.18433
#
# Poissons Ratio (x) = 0.17367 0.11156
# Poissons Ratio (y) = 0.23557 0.38111
# Poissons Ratio (z) = 0.24221 0.60999
#
# Static dielectric constant tensor:
#      x y z
#    x 4.201830 0.000000 1.148720 
#    y 0.000000 3.039570 0.000000 
#    z 1.148720 0.000000 4.031140 
# 
# 
# High freq. dielectric constant tensor:
#      x y z
#    x 1.650080 0.000000 0.009860 
#    y 0.000000 1.628240 0.000000 
#    z 0.009860 0.000000 1.618160 
# 
# From -- ./inp_files/76249.got.cif
#   From: 2010.06.25/outbox.cif.g09.slc.cpg/sg13_39_cif.got.tgz:76249.got - 2010.06.28 04:50:58.
