data_PCOD8117337
_publ_section_title
;
Structure prediction by ZEFSAII (Michael W. Deem and Ramdas Pophale) SiO2 
 PCOD8117337
Probable space group: P 2/C
;
_chemical_formula_sum "Si O2"
_cell_formula_units_Z 30
_cell_length_a 8.038881
_cell_length_b 6.503113
_cell_length_c 27.935444
_cell_angle_alpha 90.000000
_cell_angle_beta 71.934793
_cell_angle_gamma 90.000000
_cell_volume 1388.410528
_symmetry_space_group_name_H-M "P 2/C"
_symmetry_group_IT_number 13
_symmetry_cell_setting 'monoclinic'
loop_
_space_group_symop_operation_xyz
x,y,z
-x,y,1/2-z
-x,-y,-z
x,-y,1/2+z
loop_
_atom_site_type_symbol
_atom_site_label
_atom_site_fract_x
_atom_site_fract_y
_atom_site_fract_z
Si Si1 0.685914 0.841586 0.030869
Si Si2 0.215641 0.296115 0.771519
Si Si3 0.749421 0.089498 0.111430
Si Si4 0.554054 0.460437 0.090450
Si Si5 0.000000 0.349277 0.250000
Si Si6 0.505878 0.229252 0.675458
Si Si7 0.337098 0.901948 0.571413
Si Si8 0.968040 0.034775 0.334146
O O1 0.657419 0.599042 0.042367
O O2 0.809358 0.947544 0.060505
O O3 0.496818 0.945993 0.051292
O O4 0.763433 0.876434 0.970726
O O5 0.159412 0.516104 0.756223
O O6 0.328384 0.179674 0.720414
O O7 0.340455 0.328773 0.805808
O O8 0.041847 0.166778 0.800491
O O9 0.704546 0.318151 0.099371
O O10 0.895352 0.110300 0.138427
O O11 0.572512 0.987072 0.148659
O O12 0.465687 0.606005 0.137954
O O13 0.400624 0.326011 0.080512
O O14 0.071482 0.211654 0.200452
O O15 0.212337 0.008021 0.622005
#
# Coordination Sequence:
#
# PCOD8117337 Si02
#       8
#     4   4   4   4   2   4   4   4
#     4   9  20  38  60  83 108 146 189 225 270 331
#     4  10  22  38  54  77 109 146 187 226 270 328
#     4   9  20  37  58  84 112 145 184 226 275 329
#     4  10  18  34  59  83 108 141 185 231 270 325
#     4  12  24  36  54  82 114 146 180 228 284 328
#     4   9  19  37  58  76 104 149 190 223 265 325
#     4  10  21  37  58  84 113 145 182 228 279 327
#     4  11  24  39  55  82 117 146 180 230 282 329
#
# _framework density 21.607443
#
# number of rings (size 3 to 8) (size 9 to 14) (size 15 to 20)
#    0.000    2.133    0.000    2.400    0.000    9.067 
#    0.000    3.333    0.000    0.000    0.000    0.000 
#    0.000    0.000    0.000    0.000    0.000    0.000 
#
# Total GULP energy -371977.901182 kJ/mol
# GULP energy per Si atom -12399.263373 kJ/mol
# Density = 2.155826 g / cm^3
# Si number density = 21.607443 Si / 1000 Ang^3
#
#
#
# Elastic Constant Matrix: (Units=GPa)
#
#
# Indices 1 2 3 4 5 6 
#
# 1 45.5258 26.4175 18.6528 0.0000 8.1862 0.0000
# 2 26.4175 101.1441 41.6682 0.0000 5.0727 0.0000
# 3 18.6528 41.6682 93.1940 0.0000 14.2500 0.0000
# 4 0.0000 0.0000 0.0000 26.8186 0.0000 7.7270
# 5 8.1862 5.0727 14.2500 0.0000 33.7764 0.0000
# 6 0.0000 0.0000 0.0000 7.7270 0.0000 25.9384
#
#
#
# Elastic Compliance Matrix: (Units=1/GPa)
#
#
# Indices 1 2 3 4 5 6 
#
# 1 0.027150 -0.006024 -0.002002 0.000000 -0.004831 0.000000
# 2 -0.006024 0.013464 -0.005054 0.000000 0.001570 0.000000
# 3 -0.002002 -0.005054 0.014111 0.000000 -0.004709 0.000000
# 4 0.000000 0.000000 0.000000 0.040788 0.000000 -0.012151
# 5 -0.004831 0.001570 -0.004709 0.000000 0.032528 0.000000
# 6 0.000000 0.000000 0.000000 -0.012151 0.000000 0.042173
#
#
# Mechanical properties :
#
#
# Convention : Reuss Voigt Hill
#
# Bulk Modulus (GPa) = 35.00905 45.92677 40.46791
# Shear Modulus (GPa) = 24.28413 27.51505 25.89959
#
# Velocity S-wave (km/s) = 3.35607 3.57235 3.46590
# Velocity P-wave (km/s) = 5.59062 6.19006 5.89796
#
# Compressibility (1/GPa) = 0.02856404
#
# Stress axis : x y z
#
# Youngs Moduli (GPa) = 36.83223 74.27361 70.86768
#
# Poissons Ratio (x) = 0.44744 0.14187
# Poissons Ratio (y) = 0.22189 0.35818
# Poissons Ratio (z) = 0.07373 0.37539
#
# Static dielectric constant tensor:
#      x y z
#    x 3.797490 0.000000 0.472970 
#    y 0.000000 3.765770 0.000000 
#    z 0.472970 0.000000 4.325510 
# 
# 
# High freq. dielectric constant tensor:
#      x y z
#    x 1.838300 0.000000 0.029840 
#    y 0.000000 1.841300 0.000000 
#    z 0.029840 0.000000 1.859170 
# 
# From -- ./inp_files/95617.got.cif
#   From: 2010.06.25/outbox.cif.g09.slc.cpg/sg13_48_cif.got.tgz:95617.got - 2010.06.28 04:50:58.
