data_PCOD8117101
_publ_section_title
;
Structure prediction by ZEFSAII (Michael W. Deem and Ramdas Pophale) SiO2 
 PCOD8117101
Probable space group: P 2/C
;
_chemical_formula_sum "Si O2"
_cell_formula_units_Z 20
_cell_length_a 9.460414
_cell_length_b 6.391771
_cell_length_c 20.228451
_cell_angle_alpha 90.000000
_cell_angle_beta 71.172032
_cell_angle_gamma 90.000000
_cell_volume 1157.739499
_symmetry_space_group_name_H-M "P 2/C"
_symmetry_group_IT_number 13
_symmetry_cell_setting 'monoclinic'
loop_
_space_group_symop_operation_xyz
x,y,z
-x,y,1/2-z
-x,-y,-z
x,-y,1/2+z
loop_
_atom_site_type_symbol
_atom_site_label
_atom_site_fract_x
_atom_site_fract_y
_atom_site_fract_z
Si Si1 0.826218 0.337825 0.964838
Si Si2 0.424984 0.380553 0.331856
Si Si3 0.449456 0.638124 0.069436
Si Si4 0.653604 0.999460 0.573367
Si Si5 0.832413 0.373036 0.587333
O O1 0.730114 0.353895 0.912017
O O2 0.998004 0.333709 0.916999
O O3 0.809033 0.536379 0.016472
O O4 0.765816 0.127502 0.008871
O O5 0.500000 0.371808 0.250000
O O6 0.515096 0.538942 0.365319
O O7 0.253677 0.465539 0.350764
O O8 0.431870 0.152594 0.363289
O O9 0.528513 0.866150 0.052587
O O10 0.500000 0.500000 0.000000
O O11 0.756231 0.148150 0.602292
#
# Coordination Sequence:
#
# PCOD8117101 Si02
#       5
#     4   4   4   4   4
#     4  10  18  31  53  85 109 133 171 226 270 313
#     4  10  22  37  53  75 108 148 181 215 264 325
#     4  11  19  34  56  84 107 135 177 226 267 308
#     4  10  18  31  54  80 111 136 178 218 268 318
#     4   9  19  33  53  78 111 139 172 217 274 313
#
# _framework density 17.275044000000001
#
# number of rings (size 3 to 8) (size 9 to 14) (size 15 to 20)
#    0.000    2.000    6.000    1.200    0.000    3.200 
#    0.000    1.000    0.000    0.000    0.000    0.000 
#    0.000    0.000    0.000    0.000    0.000    0.000 
#
# Total GULP energy -247828.903288 kJ/mol
# GULP energy per Si atom -12391.445164 kJ/mol
# Density = 1.723573 g / cm^3
# Si number density = 17.275044 Si / 1000 Ang^3
#
#
#
# Elastic Constant Matrix: (Units=GPa)
#
#
# Indices 1 2 3 4 5 6 
#
# 1 159.9874 52.5359 47.6500 0.0000 -7.0082 0.0000
# 2 52.5359 105.0859 34.0964 0.0000 0.8033 0.0000
# 3 47.6500 34.0964 86.2604 0.0000 -8.3992 0.0000
# 4 0.0000 0.0000 0.0000 13.9060 0.0000 2.8128
# 5 -7.0082 0.8033 -8.3992 0.0000 15.5839 0.0000
# 6 0.0000 0.0000 0.0000 2.8128 0.0000 26.7311
#
#
#
# Elastic Compliance Matrix: (Units=1/GPa)
#
#
# Indices 1 2 3 4 5 6 
#
# 1 0.008317 -0.003160 -0.003130 0.000000 0.002216 0.000000
# 2 -0.003160 0.012255 -0.003481 0.000000 -0.003929 0.000000
# 3 -0.003130 -0.003481 0.015386 0.000000 0.007064 0.000000
# 4 0.000000 0.000000 0.000000 0.073475 0.000000 -0.007732
# 5 0.002216 -0.003929 0.007064 0.000000 0.069175 0.000000
# 6 0.000000 0.000000 0.000000 -0.007732 0.000000 0.038223
#
#
# Mechanical properties :
#
#
# Convention : Reuss Voigt Hill
#
# Bulk Modulus (GPa) = 60.91346 68.87762 64.89554
# Shear Modulus (GPa) = 20.67436 25.71429 23.19433
#
# Velocity S-wave (km/s) = 3.46320 3.86232 3.66819
# Velocity P-wave (km/s) = 7.16444 7.73613 7.45577
#
# Compressibility (1/GPa) = 0.01641673
#
# Stress axis : x y z
#
# Youngs Moduli (GPa) = 120.23221 81.59804 64.99573
#
# Poissons Ratio (x) = 0.25781 0.20342
# Poissons Ratio (y) = 0.37988 0.22628
# Poissons Ratio (z) = 0.37630 0.28408
#
# Static dielectric constant tensor:
#      x y z
#    x 3.771340 0.000000 0.034260 
#    y 0.000000 3.478290 0.000000 
#    z 0.034260 0.000000 2.796020 
# 
# 
# High freq. dielectric constant tensor:
#      x y z
#    x 1.675340 0.000000 -0.001740 
#    y 0.000000 1.683670 0.000000 
#    z -0.001740 0.000000 1.616290 
# 
# From -- ./inp_files/62420.got.cif
#   From: 2010.06.25/outbox.cif.g09.slc.cpg/sg13_32_cif.got.tgz:62420.got - 2010.06.28 04:50:58.
