data_PCOD8117944
_publ_section_title
;
Structure prediction by ZEFSAII (Michael W. Deem and Ramdas Pophale) SiO2 
 PCOD8117944
Probable space group: P 2/C
;
_chemical_formula_sum "Si O2"
_cell_formula_units_Z 32
_cell_length_a 20.403883
_cell_length_b 8.221574
_cell_length_c 15.979849
_cell_angle_alpha 90.000000
_cell_angle_beta 37.645621
_cell_angle_gamma 90.000000
_cell_volume 1637.277530
_symmetry_space_group_name_H-M "P 2/C"
_symmetry_group_IT_number 13
_symmetry_cell_setting 'monoclinic'
loop_
_space_group_symop_operation_xyz
x,y,z
-x,y,1/2-z
-x,-y,-z
x,-y,1/2+z
loop_
_atom_site_type_symbol
_atom_site_label
_atom_site_fract_x
_atom_site_fract_y
_atom_site_fract_z
Si Si1 0.189510 0.567052 0.702645
Si Si2 0.812809 0.727274 0.625050
Si Si3 0.961380 0.519272 0.377387
Si Si4 0.667841 0.709821 0.370064
Si Si5 0.758406 0.315929 0.527394
Si Si6 0.289955 0.959921 0.316722
Si Si7 0.619328 0.486378 0.277555
Si Si8 0.508304 0.821894 0.840289
O O1 0.205776 0.697757 0.758550
O O2 0.238563 0.388489 0.674943
O O3 0.248301 0.644308 0.563439
O O4 0.062410 0.562804 0.819002
O O5 0.925673 0.663875 0.474998
O O6 0.721611 0.630886 0.668632
O O7 0.803202 0.916252 0.614620
O O8 0.867307 0.386667 0.458811
O O9 0.000000 0.594644 0.250000
O O10 0.715058 0.823658 0.249971
O O11 0.598279 0.571911 0.389479
O O12 0.604980 0.834424 0.495944
O O13 0.749084 0.122556 0.556467
O O14 0.646533 0.380599 0.679813
O O15 0.405176 0.052464 0.208583
O O16 0.523775 0.370473 0.344569
O O17 0.500000 0.854533 0.750000
#
# Coordination Sequence:
#
# PCOD8117944 Si02
#       8
#     4   4   4   4   4   4   4   4
#     4  10  19  34  59  83 104 140 190 231 261 314
#     4   9  18  33  54  79 109 141 175 217 269 323
#     4   9  18  35  58  81 107 142 181 224 266 312
#     4  10  20  36  56  79 107 143 182 225 269 319
#     4   9  18  36  56  78 107 141 179 225 271 316
#     4  10  22  38  53  77 115 146 170 218 283 332
#     4   8  17  34  54  75 103 141 185 225 263 308
#     4  11  21  34  54  80 108 144 183 223 268 324
#
# _framework density 19.544639
#
# number of rings (size 3 to 8) (size 9 to 14) (size 15 to 20)
#    0.000    2.500    0.000    2.625    0.000    2.000 
#    0.000   10.625    0.000    0.000    0.000    0.000 
#    0.000    0.000    0.000    0.000    0.000    0.000 
#
# Total GULP energy -396444.257713 kJ/mol
# GULP energy per Si atom -12388.883054 kJ/mol
# Density = 1.950015 g / cm^3
# Si number density = 19.544639 Si / 1000 Ang^3
#
#
#
# Elastic Constant Matrix: (Units=GPa)
#
#
# Indices 1 2 3 4 5 6 
#
# 1 57.4146 32.1467 23.3818 0.0000 14.0069 0.0000
# 2 32.1467 105.7638 36.1020 0.0000 14.3455 0.0000
# 3 23.3818 36.1020 86.7955 0.0000 21.8661 0.0000
# 4 0.0000 0.0000 0.0000 21.0743 0.0000 4.8214
# 5 14.0069 14.3455 21.8661 0.0000 28.3832 0.0000
# 6 0.0000 0.0000 0.0000 4.8214 0.0000 25.1297
#
#
#
# Elastic Compliance Matrix: (Units=1/GPa)
#
#
# Indices 1 2 3 4 5 6 
#
# 1 0.022980 -0.005276 -0.002247 0.000000 -0.006943 0.000000
# 2 -0.005276 0.012379 -0.003484 0.000000 -0.000969 0.000000
# 3 -0.002247 -0.003484 0.015948 0.000000 -0.009417 0.000000
# 4 0.000000 0.000000 0.000000 0.049630 0.000000 -0.009522
# 5 -0.006943 -0.000969 -0.009417 0.000000 0.046403 0.000000
# 6 0.000000 0.000000 0.000000 -0.009522 0.000000 0.041620
#
#
# Mechanical properties :
#
#
# Convention : Reuss Voigt Hill
#
# Bulk Modulus (GPa) = 34.13656 48.13721 41.13688
# Shear Modulus (GPa) = 22.65129 25.47365 24.06247
#
# Velocity S-wave (km/s) = 3.40803 3.61412 3.51259
# Velocity P-wave (km/s) = 5.74370 6.48835 6.12735
#
# Compressibility (1/GPa) = 0.02929411
#
# Stress axis : x y z
#
# Youngs Moduli (GPa) = 43.51582 80.78023 62.70428
#
# Poissons Ratio (x) = 0.42620 0.14089
# Poissons Ratio (y) = 0.22959 0.21843
# Poissons Ratio (z) = 0.09778 0.28140
#
# Static dielectric constant tensor:
#      x y z
#    x 3.487710 0.000000 0.090020 
#    y 0.000000 3.628160 0.000000 
#    z 0.090020 0.000000 3.676290 
# 
# 
# High freq. dielectric constant tensor:
#      x y z
#    x 1.747850 0.000000 0.012360 
#    y 0.000000 1.747160 0.000000 
#    z 0.012360 0.000000 1.768280 
# 
# From -- ./inp_files/57252.got.cif
#   From: 2010.06.25/outbox.cif.g09.slc.cpg/sg13_29_cif.got.tgz:57252.got - 2010.06.28 04:50:58.
