data_PCOD8117609
_publ_section_title
;
Structure prediction by ZEFSAII (Michael W. Deem and Ramdas Pophale) SiO2 
 PCOD8117609
Probable space group: P 2/C
;
_chemical_formula_sum "Si O2"
_cell_formula_units_Z 28
_cell_length_a 20.989277
_cell_length_b 11.169572
_cell_length_c 8.656168
_cell_angle_alpha 90.000000
_cell_angle_beta 47.264177
_cell_angle_gamma 90.000000
_cell_volume 1490.547563
_symmetry_space_group_name_H-M "P 2/C"
_symmetry_group_IT_number 13
_symmetry_cell_setting 'monoclinic'
loop_
_space_group_symop_operation_xyz
x,y,z
-x,y,1/2-z
-x,-y,-z
x,-y,1/2+z
loop_
_atom_site_type_symbol
_atom_site_label
_atom_site_fract_x
_atom_site_fract_y
_atom_site_fract_z
Si Si1 0.777595 0.159222 0.869382
Si Si2 0.000000 0.988605 0.250000
Si Si3 0.078784 0.842815 0.840871
Si Si4 0.066453 0.659823 0.418294
Si Si5 0.232160 0.099026 0.260613
Si Si6 0.584764 0.838720 0.666034
Si Si7 0.000000 0.525962 0.250000
Si Si8 0.577956 0.913337 0.024238
O O1 0.850664 0.253941 0.695842
O O2 0.784065 0.040852 0.753775
O O3 0.795253 0.121800 0.017088
O O4 0.681099 0.220383 0.007029
O O5 0.924173 0.072276 0.304295
O O6 0.962057 0.907636 0.444596
O O7 0.177599 0.817996 0.730471
O O8 0.025087 0.724170 0.894039
O O9 0.068385 0.551030 0.536406
O O10 0.062567 0.608768 0.251280
O O11 0.330505 0.141663 0.070917
O O12 0.500000 0.757718 0.750000
O O13 0.583641 0.945164 0.543068
O O14 0.564559 0.893589 0.866089
O O15 0.500000 0.852498 0.250000
#
# Coordination Sequence:
#
# PCOD8117609 Si02
#       8
#     4   2   4   4   4   4   2   4
#     4  10  20  32  50  75 104 135 164 196 237 289
#     4  10  20  28  44  72 102 130 152 178 234 294
#     4  11  19  31  47  69 100 130 157 195 236 283
#     4  11  22  38  54  70  93 125 165 209 251 288
#     4  10  19  29  46  74 104 136 167 192 231 290
#     4   9  16  27  43  66  96 132 166 194 225 272
#     4  10  24  40  54  68  88 122 168 212 252 294
#     4   9  16  26  39  60  96 139 172 191 215 262
#
# _framework density 18.785043999999999
#
# number of rings (size 3 to 8) (size 9 to 14) (size 15 to 20)
#    0.000    2.000    0.000    6.857    0.000    2.286 
#    0.000    0.000    0.000    0.000    0.000    1.000 
#    0.000    4.571    0.000    0.286    0.000    0.000 
#
# Total GULP energy -346875.350327 kJ/mol
# GULP energy per Si atom -12388.405369 kJ/mol
# Density = 1.874229 g / cm^3
# Si number density = 18.785044 Si / 1000 Ang^3
#
#
#
# Elastic Constant Matrix: (Units=GPa)
#
#
# Indices 1 2 3 4 5 6 
#
# 1 110.8617 10.9901 9.0176 0.0000 -26.6734 0.0000
# 2 10.9901 37.8237 5.7350 0.0000 -9.9124 0.0000
# 3 9.0176 5.7350 40.6982 0.0000 -17.2777 0.0000
# 4 0.0000 0.0000 0.0000 18.0099 0.0000 3.1264
# 5 -26.6734 -9.9124 -17.2777 0.0000 35.3121 0.0000
# 6 0.0000 0.0000 0.0000 3.1264 0.0000 15.2447
#
#
#
# Elastic Compliance Matrix: (Units=1/GPa)
#
#
# Indices 1 2 3 4 5 6 
#
# 1 0.011131 -0.001149 0.001424 0.000000 0.008782 0.000000
# 2 -0.001149 0.028676 -0.000931 0.000000 0.006727 0.000000
# 3 0.001424 -0.000931 0.031217 0.000000 0.016088 0.000000
# 4 0.000000 0.000000 0.000000 0.057575 0.000000 -0.011807
# 5 0.008782 0.006727 0.016088 0.000000 0.044713 0.000000
# 6 0.000000 0.000000 0.000000 -0.011807 0.000000 0.068018
#
#
# Mechanical properties :
#
#
# Convention : Reuss Voigt Hill
#
# Bulk Modulus (GPa) = 14.34446 26.76321 20.55383
# Shear Modulus (GPa) = 18.80559 24.62274 21.71416
#
# Velocity S-wave (km/s) = 3.16744 3.62437 3.40358
# Velocity P-wave (km/s) = 4.58580 5.63851 5.13918
#
# Compressibility (1/GPa) = 0.06971335
#
# Stress axis : x y z
#
# Youngs Moduli (GPa) = 89.83631 34.87216 32.03410
#
# Poissons Ratio (x) = 0.04006 -0.04561
# Poissons Ratio (y) = 0.10319 0.02982
# Poissons Ratio (z) = -0.12792 0.03246
#
# Static dielectric constant tensor:
#      x y z
#    x 4.564210 0.000000 -0.437470 
#    y 0.000000 2.965310 0.000000 
#    z -0.437470 0.000000 3.787950 
# 
# 
# High freq. dielectric constant tensor:
#      x y z
#    x 1.760870 0.000000 0.006850 
#    y 0.000000 1.651530 0.000000 
#    z 0.006850 0.000000 1.738570 
# 
# From -- ./inp_files/23221.got.cif
#   From: 2010.06.25/outbox.cif.g09.slc.cpg/sg13_12_cif.got.tgz:23221.got - 2010.06.28 04:50:58.
