data_PCOD8117188
_publ_section_title
;
Structure prediction by ZEFSAII (Michael W. Deem and Ramdas Pophale) SiO2 
 PCOD8117188
Probable space group: P 2/C
;
_chemical_formula_sum "Si O2"
_cell_formula_units_Z 22
_cell_length_a 15.435544
_cell_length_b 10.965251
_cell_length_c 11.976661
_cell_angle_alpha 90.000000
_cell_angle_beta 36.712018
_cell_angle_gamma 90.000000
_cell_volume 1211.789889
_symmetry_space_group_name_H-M "P 2/C"
_symmetry_group_IT_number 13
_symmetry_cell_setting 'monoclinic'
loop_
_space_group_symop_operation_xyz
x,y,z
-x,y,1/2-z
-x,-y,-z
x,-y,1/2+z
loop_
_atom_site_type_symbol
_atom_site_label
_atom_site_fract_x
_atom_site_fract_y
_atom_site_fract_z
Si Si1 0.154308 0.045002 0.229517
Si Si2 0.032644 0.329973 0.894614
Si Si3 0.331066 0.768412 0.434860
Si Si4 0.000000 0.144650 0.750000
Si Si5 0.152744 0.856377 0.412994
Si Si6 0.108168 0.416905 0.236035
O O1 0.013672 0.134223 0.371433
O O2 0.183332 0.984756 0.320066
O O3 0.294115 0.129390 0.065355
O O4 0.131655 0.941458 0.156936
O O5 0.945378 0.232787 0.906970
O O6 0.165144 0.256951 0.814707
O O7 0.103911 0.435977 0.744921
O O8 0.927194 0.376598 0.101071
O O9 0.500000 0.746591 0.250000
O O10 0.267868 0.828115 0.388311
O O11 0.263252 0.637276 0.538941
O O12 0.000000 0.370564 0.250000
#
# Coordination Sequence:
#
# PCOD8117188 Si02
#       6
#     4   4   4   2   4   4
#     4  10  19  34  59  84 113 142 190 238 279 325
#     4  10  20  33  62  86 108 137 188 255 283 318
#     4  12  23  36  54  82 124 159 184 220 279 355
#     4  10  18  32  58  96 106 134 182 246 296 316
#     4  10  19  36  58  83 110 143 191 243 279 323
#     4  11  20  37  59  84 109 145 196 241 283 328
#
# _framework density 18.154962000000001
#
# number of rings (size 3 to 8) (size 9 to 14) (size 15 to 20)
#    0.000    1.455    6.364    0.000    0.000    0.727 
#    0.000    0.909    0.000    4.364    0.000    0.000 
#    0.000    0.000    0.000    0.000    0.000    0.000 
#
# Total GULP energy -272568.398583 kJ/mol
# GULP energy per Si atom -12389.472663 kJ/mol
# Density = 1.811364 g / cm^3
# Si number density = 18.154962 Si / 1000 Ang^3
#
#
#
# Elastic Constant Matrix: (Units=GPa)
#
#
# Indices 1 2 3 4 5 6 
#
# 1 67.3247 32.2343 43.5389 0.0000 0.4292 0.0000
# 2 32.2343 112.9415 50.3251 0.0000 -7.6106 0.0000
# 3 43.5389 50.3251 98.5569 0.0000 -15.1500 0.0000
# 4 0.0000 0.0000 0.0000 26.7872 0.0000 8.8247
# 5 0.4292 -7.6106 -15.1500 0.0000 26.0122 0.0000
# 6 0.0000 0.0000 0.0000 8.8247 0.0000 25.3841
#
#
#
# Elastic Compliance Matrix: (Units=1/GPa)
#
#
# Indices 1 2 3 4 5 6 
#
# 1 0.022316 -0.002549 -0.009586 0.000000 -0.006697 0.000000
# 2 -0.002549 0.011753 -0.004767 0.000000 0.000704 0.000000
# 3 -0.009586 -0.004767 0.018260 0.000000 0.009399 0.000000
# 4 0.000000 0.000000 0.000000 0.042160 0.000000 -0.014657
# 5 -0.006697 0.000704 0.009399 0.000000 0.044234 0.000000
# 6 0.000000 0.000000 0.000000 -0.014657 0.000000 0.044490
#
#
# Mechanical properties :
#
#
# Convention : Reuss Voigt Hill
#
# Bulk Modulus (GPa) = 53.98211 59.00217 56.49214
# Shear Modulus (GPa) = 22.40212 25.81835 24.11023
#
# Velocity S-wave (km/s) = 3.51656 3.77518 3.64816
# Velocity P-wave (km/s) = 6.80345 7.18139 6.99497
#
# Compressibility (1/GPa) = 0.01852466
#
# Stress axis : x y z
#
# Youngs Moduli (GPa) = 44.81092 85.08284 54.76364
#
# Poissons Ratio (x) = 0.21687 0.52499
# Poissons Ratio (y) = 0.11422 0.26107
# Poissons Ratio (z) = 0.42957 0.40560
#
# Static dielectric constant tensor:
#      x y z
#    x 3.303730 0.000000 0.459610 
#    y 0.000000 3.844600 0.000000 
#    z 0.459610 0.000000 3.134200 
# 
# 
# High freq. dielectric constant tensor:
#      x y z
#    x 1.691450 0.000000 0.051170 
#    y 0.000000 1.730980 0.000000 
#    z 0.051170 0.000000 1.655090 
# 
# From -- ./inp_files/36611.got.cif
#   From: 2010.06.25/outbox.cif.g09.slc.cpg/sg13_19_cif.got.tgz:36611.got - 2010.06.28 04:50:58.
