data_PCOD8117578
_publ_section_title
;
Structure prediction by ZEFSAII (Michael W. Deem and Ramdas Pophale) SiO2 
 PCOD8117578
Probable space group: P 2/C
;
_chemical_formula_sum "Si O2"
_cell_formula_units_Z 26
_cell_length_a 10.848852
_cell_length_b 9.988116
_cell_length_c 18.682592
_cell_angle_alpha 90.000000
_cell_angle_beta 40.366814
_cell_angle_gamma 90.000000
_cell_volume 1311.185417
_symmetry_space_group_name_H-M "P 2/C"
_symmetry_group_IT_number 13
_symmetry_cell_setting 'monoclinic'
loop_
_space_group_symop_operation_xyz
x,y,z
-x,y,1/2-z
-x,-y,-z
x,-y,1/2+z
loop_
_atom_site_type_symbol
_atom_site_label
_atom_site_fract_x
_atom_site_fract_y
_atom_site_fract_z
Si Si1 0.224578 0.023008 0.402577
Si Si2 0.347375 0.182652 0.135641
Si Si3 0.442279 0.313877 0.576648
Si Si4 0.000000 0.655795 0.750000
Si Si5 0.746923 0.470304 0.954164
Si Si6 0.430733 0.073912 0.671593
Si Si7 0.376573 0.305424 0.369325
O O1 0.259495 0.182360 0.387388
O O2 0.341451 0.953150 0.416489
O O3 0.311434 0.957808 0.294184
O O4 0.000000 0.000000 0.500000
O O5 0.140814 0.249310 0.231736
O O6 0.477608 0.255321 0.135792
O O7 0.347053 0.023554 0.147174
O O8 0.418974 0.209550 0.024070
O O9 0.270379 0.356113 0.600027
O O10 0.548886 0.449561 0.551335
O O11 0.380519 0.227968 0.673384
O O12 0.914383 0.566177 0.852797
O O13 0.771991 0.404691 0.022744
O O14 0.500000 0.373463 0.250000
#
# Coordination Sequence:
#
# PCOD8117578 Si02
#       7
#     4   4   4   2   4   4   4
#     4  10  21  36  57  85 117 155 199 253 300 352
#     4   9  18  34  60  82 111 152 188 242 305 347
#     4   9  18  35  57  81 109 149 195 235 289 354
#     4  10  20  36  56  90 126 140 198 260 294 360
#     4   9  20  35  58  85 115 158 189 240 299 354
#     4  10  19  37  59  82 118 155 194 247 303 351
#     4  10  18  40  61  77 117 167 199 234 302 363
#
# _framework density 19.829384999999998
#
# number of rings (size 3 to 8) (size 9 to 14) (size 15 to 20)
#    0.000    2.462    3.077    1.385    0.000    3.692 
#    2.769    1.538    0.000    0.000    0.000    0.000 
#    0.000    0.000    0.000    0.000    0.000    0.000 
#
# Total GULP energy -322102.924124 kJ/mol
# GULP energy per Si atom -12388.574005 kJ/mol
# Density = 1.978425 g / cm^3
# Si number density = 19.829385 Si / 1000 Ang^3
#
#
#
# Elastic Constant Matrix: (Units=GPa)
#
#
# Indices 1 2 3 4 5 6 
#
# 1 69.1146 41.3340 46.6696 0.0000 -5.9509 0.0000
# 2 41.3340 100.0674 34.0560 0.0000 4.5324 0.0000
# 3 46.6696 34.0560 78.0973 0.0000 -8.3020 0.0000
# 4 0.0000 0.0000 0.0000 25.8441 0.0000 10.7518
# 5 -5.9509 4.5324 -8.3020 0.0000 34.7270 0.0000
# 6 0.0000 0.0000 0.0000 10.7518 0.0000 30.2321
#
#
#
# Elastic Compliance Matrix: (Units=1/GPa)
#
#
# Indices 1 2 3 4 5 6 
#
# 1 0.027943 -0.007123 -0.013323 0.000000 0.002533 0.000000
# 2 -0.007123 0.013827 -0.002150 0.000000 -0.003539 0.000000
# 3 -0.013323 -0.002150 0.022051 0.000000 0.003269 0.000000
# 4 0.000000 0.000000 0.000000 0.045413 0.000000 -0.016151
# 5 0.002533 -0.003539 0.003269 0.000000 0.030474 0.000000
# 6 0.000000 0.000000 0.000000 -0.016151 0.000000 0.038821
#
#
# Mechanical properties :
#
#
# Convention : Reuss Voigt Hill
#
# Bulk Modulus (GPa) = 53.67440 54.59982 54.13711
# Shear Modulus (GPa) = 21.74588 26.50862 24.12725
#
# Velocity S-wave (km/s) = 3.31516 3.66024 3.49197
# Velocity P-wave (km/s) = 6.46379 6.74224 6.60448
#
# Compressibility (1/GPa) = 0.01863086
#
# Stress axis : x y z
#
# Youngs Moduli (GPa) = 35.78746 72.32129 45.34957
#
# Poissons Ratio (x) = 0.51512 0.60419
# Poissons Ratio (y) = 0.25490 0.09748
# Poissons Ratio (z) = 0.47679 0.15546
#
# Static dielectric constant tensor:
#      x y z
#    x 3.632420 0.000000 0.112410 
#    y 0.000000 3.793010 0.000000 
#    z 0.112410 0.000000 3.569820 
# 
# 
# High freq. dielectric constant tensor:
#      x y z
#    x 1.756070 0.000000 0.014130 
#    y 0.000000 1.770800 0.000000 
#    z 0.014130 0.000000 1.759700 
# 
# From -- ./inp_files/78222.got.cif
#   From: 2010.06.25/outbox.cif.g09.slc.cpg/sg13_40_cif.got.tgz:78222.got - 2010.06.28 04:50:58.
