data_PCOD8117058
_publ_section_title
;
Structure prediction by ZEFSAII (Michael W. Deem and Ramdas Pophale) SiO2 
 PCOD8117058
Probable space group: P 2/C
;
_chemical_formula_sum "Si O2"
_cell_formula_units_Z 26
_cell_length_a 10.945330
_cell_length_b 8.884964
_cell_length_c 14.542246
_cell_angle_alpha 90.000000
_cell_angle_beta 64.939313
_cell_angle_gamma 90.000000
_cell_volume 1281.082011
_symmetry_space_group_name_H-M "P 2/C"
_symmetry_group_IT_number 13
_symmetry_cell_setting 'monoclinic'
loop_
_space_group_symop_operation_xyz
x,y,z
-x,y,1/2-z
-x,-y,-z
x,-y,1/2+z
loop_
_atom_site_type_symbol
_atom_site_label
_atom_site_fract_x
_atom_site_fract_y
_atom_site_fract_z
Si Si1 0.787479 0.888765 0.727372
Si Si2 0.772498 0.684450 0.371377
Si Si3 0.834442 0.325365 0.046679
Si Si4 0.144805 0.650539 0.660956
Si Si5 0.356892 0.820490 0.252062
Si Si6 0.000000 0.086287 0.750000
Si Si7 0.859496 0.340083 0.555509
O O1 0.795046 0.803449 0.628841
O O2 0.757067 0.770445 0.819679
O O3 0.660956 0.002297 0.761998
O O4 0.927016 0.980444 0.697922
O O5 0.732140 0.681800 0.491981
O O6 0.818985 0.519608 0.324821
O O7 0.650949 0.731356 0.342514
O O8 0.888637 0.808848 0.330767
O O9 0.821437 0.489720 0.097502
O O10 0.988086 0.306368 0.960926
O O11 0.150675 0.681936 0.550804
O O12 0.000000 0.686304 0.750000
O O13 0.500000 0.783963 0.250000
O O14 0.238514 0.771583 0.359480
#
# Coordination Sequence:
#
# PCOD8117058 Si02
#       7
#     4   4   4   4   4   2   4
#     4  11  21  35  59  88 128 154 198 246 302 365
#     4  10  21  35  60  85 121 155 201 247 299 357
#     4  10  19  35  61 101 118 148 194 256 325 353
#     4  11  19  37  62  97 126 145 189 253 318 366
#     4  11  26  44  56  80 124 176 211 240 285 357
#     4  10  18  30  52  88 120 162 182 240 314 348
#     4  10  21  36  65  91 127 153 193 249 313 363
#
# _framework density 20.295345999999999
#
# number of rings (size 3 to 8) (size 9 to 14) (size 15 to 20)
#    0.000    1.538    3.077    2.769    2.154    4.923 
#    0.000    9.231    0.000    0.000    0.000    0.000 
#    0.000    0.000    0.000    0.000    0.000    0.000 
#
# Total GULP energy -322323.312515 kJ/mol
# GULP energy per Si atom -12397.050481 kJ/mol
# Density = 2.024915 g / cm^3
# Si number density = 20.295346 Si / 1000 Ang^3
#
#
#
# Elastic Constant Matrix: (Units=GPa)
#
#
# Indices 1 2 3 4 5 6 
#
# 1 101.8966 34.2532 32.7838 0.0000 32.0819 0.0000
# 2 34.2532 121.9433 37.7248 0.0000 19.1132 0.0000
# 3 32.7838 37.7248 65.0654 0.0000 28.1004 0.0000
# 4 0.0000 0.0000 0.0000 28.8733 0.0000 14.9732
# 5 32.0819 19.1132 28.1004 0.0000 27.9697 0.0000
# 6 0.0000 0.0000 0.0000 14.9732 0.0000 21.6635
#
#
#
# Elastic Compliance Matrix: (Units=1/GPa)
#
#
# Indices 1 2 3 4 5 6 
#
# 1 0.015716 -0.001902 0.000721 0.000000 -0.017451 0.000000
# 2 -0.001902 0.010274 -0.005138 0.000000 0.000323 0.000000
# 3 0.000721 -0.005138 0.029722 0.000000 -0.027177 0.000000
# 4 0.000000 0.000000 0.000000 0.053983 0.000000 -0.037312
# 5 -0.017451 0.000323 -0.027177 0.000000 0.082852 0.000000
# 6 0.000000 0.000000 0.000000 -0.037312 0.000000 0.071949
#
#
# Mechanical properties :
#
#
# Convention : Reuss Voigt Hill
#
# Bulk Modulus (GPa) = 23.21626 55.38100 39.29863
# Shear Modulus (GPa) = 17.15312 27.97753 22.56533
#
# Velocity S-wave (km/s) = 2.91034 3.71687 3.33805
# Velocity P-wave (km/s) = 4.77048 6.76513 5.85339
#
# Compressibility (1/GPa) = 0.04307325
#
# Stress axis : x y z
#
# Youngs Moduli (GPa) = 63.63069 97.33629 33.64529
#
# Poissons Ratio (x) = 0.18517 -0.02426
# Poissons Ratio (y) = 0.12105 0.17286
# Poissons Ratio (z) = -0.04588 0.50009
#
# Static dielectric constant tensor:
#      x y z
#    x 3.575390 0.000000 0.477180 
#    y 0.000000 4.054630 0.000000 
#    z 0.477180 0.000000 3.398020 
# 
# 
# High freq. dielectric constant tensor:
#      x y z
#    x 1.764210 0.000000 0.048760 
#    y 0.000000 1.817680 0.000000 
#    z 0.048760 0.000000 1.769880 
# 
# From -- ./inp_files/49649.got.cif
#   From: 2010.06.25/outbox.cif.g09.slc.cpg/sg13_25_cif.got.tgz:49649.got - 2010.06.28 04:50:58.
