data_PCOD8117449
_publ_section_title
;
Structure prediction by ZEFSAII (Michael W. Deem and Ramdas Pophale) SiO2 
 PCOD8117449
Probable space group: P 2/C
;
_chemical_formula_sum "Si O2"
_cell_formula_units_Z 30
_cell_length_a 12.009773
_cell_length_b 9.099345
_cell_length_c 15.421082
_cell_angle_alpha 90.000000
_cell_angle_beta 119.075090
_cell_angle_gamma 90.000000
_cell_volume 1472.865367
_symmetry_space_group_name_H-M "P 2/C"
_symmetry_group_IT_number 13
_symmetry_cell_setting 'monoclinic'
loop_
_space_group_symop_operation_xyz
x,y,z
-x,y,1/2-z
-x,-y,-z
x,-y,1/2+z
loop_
_atom_site_type_symbol
_atom_site_label
_atom_site_fract_x
_atom_site_fract_y
_atom_site_fract_z
Si Si1 0.517243 0.668053 0.533837
Si Si2 0.267416 0.702627 0.247964
Si Si3 0.500000 0.140933 0.750000
Si Si4 0.842808 0.657725 0.953670
Si Si5 0.740703 0.185056 0.568483
Si Si6 0.370716 0.395058 0.252119
Si Si7 0.875009 0.320568 0.972994
Si Si8 0.333284 0.881930 0.030559
O O1 0.500000 0.500000 0.500000
O O2 0.377296 0.717821 0.504198
O O3 0.597473 0.699970 0.651087
O O4 0.572383 0.766584 0.478103
O O5 0.402665 0.764624 0.269126
O O6 0.218383 0.777601 0.317892
O O7 0.294342 0.530422 0.265335
O O8 0.153322 0.724372 0.137010
O O9 0.590464 0.055318 0.854727
O O10 0.724582 0.697125 0.845680
O O11 0.829171 0.486724 0.976336
O O12 0.846949 0.764107 0.039279
O O13 0.974276 0.689273 0.952126
O O14 0.705741 0.013563 0.547424
O O15 0.500000 0.440697 0.250000
O O16 0.797442 0.205561 0.001469
#
# Coordination Sequence:
#
# PCOD8117449 Si02
#       8
#     4   4   2   4   4   4   4   4
#     4  12  22  37  60  92 125 159 202 259 309 360
#     4  10  20  35  62  91 119 163 202 246 306 369
#     4  10  18  36  58  84 124 164 196 240 302 374
#     4  10  22  41  66  89 120 157 215 259 303 363
#     4  12  23  37  60  95 126 161 200 258 313 367
#     4  11  20  35  62  97 120 156 200 255 314 357
#     4   9  22  44  64  87 117 167 214 254 301 365
#     4  11  24  38  61  90 130 163 204 255 315 374
#
# _framework density 20.368461
#
# number of rings (size 3 to 8) (size 9 to 14) (size 15 to 20)
#    0.000    1.333    4.667    1.200    1.867    2.133 
#    2.400    0.667    2.933    0.000    0.000    0.000 
#    0.000    0.000    0.000    0.000    0.000    0.000 
#
# Total GULP energy -371774.281389 kJ/mol
# GULP energy per Si atom -12392.476046 kJ/mol
# Density = 2.032210 g / cm^3
# Si number density = 20.368461 Si / 1000 Ang^3
#
#
#
# Elastic Constant Matrix: (Units=GPa)
#
#
# Indices 1 2 3 4 5 6 
#
# 1 66.3443 14.5916 21.0659 0.0000 8.4637 0.0000
# 2 14.5916 79.1611 18.8834 0.0000 -6.6297 0.0000
# 3 21.0659 18.8834 97.9092 0.0000 -5.4016 0.0000
# 4 0.0000 0.0000 0.0000 23.3564 0.0000 -3.7184
# 5 8.4637 -6.6297 -5.4016 0.0000 32.6095 0.0000
# 6 0.0000 0.0000 0.0000 -3.7184 0.0000 17.7026
#
#
#
# Elastic Compliance Matrix: (Units=1/GPa)
#
#
# Indices 1 2 3 4 5 6 
#
# 1 0.017559 -0.002872 -0.003540 0.000000 -0.005728 0.000000
# 2 -0.002872 0.013883 -0.001880 0.000000 0.003256 0.000000
# 3 -0.003540 -0.001880 0.011472 0.000000 0.002437 0.000000
# 4 0.000000 0.000000 0.000000 0.044296 0.000000 0.009304
# 5 -0.005728 0.003256 0.002437 0.000000 0.033218 0.000000
# 6 0.000000 0.000000 0.000000 0.009304 0.000000 0.058443
#
#
# Mechanical properties :
#
#
# Convention : Reuss Voigt Hill
#
# Bulk Modulus (GPa) = 37.97870 39.16629 38.57250
# Shear Modulus (GPa) = 24.48181 27.32526 25.90354
#
# Velocity S-wave (km/s) = 3.47067 3.66669 3.57003
# Velocity P-wave (km/s) = 5.89466 6.09892 5.99766
#
# Compressibility (1/GPa) = 0.02633055
#
# Stress axis : x y z
#
# Youngs Moduli (GPa) = 56.94988 72.03031 87.16674
#
# Poissons Ratio (x) = 0.20686 0.30858
# Poissons Ratio (y) = 0.16355 0.16387
# Poissons Ratio (z) = 0.20161 0.13542
#
# Static dielectric constant tensor:
#      x y z
#    x 3.571880 0.000000 0.025060 
#    y 0.000000 3.457560 0.000000 
#    z 0.025060 0.000000 3.912390 
# 
# 
# High freq. dielectric constant tensor:
#      x y z
#    x 1.790320 0.000000 -0.001000 
#    y 0.000000 1.773190 0.000000 
#    z -0.001000 0.000000 1.800030 
# 
# From -- ./inp_files/50416.got.cif
#   From: 2010.06.25/outbox.cif.g09.slc.cpg/sg13_26_cif.got.tgz:50416.got - 2010.06.28 04:50:58.
