data_PCOD8117910
_publ_section_title
;
Structure prediction by ZEFSAII (Michael W. Deem and Ramdas Pophale) SiO2 
 PCOD8117910
Probable space group: P 2/C
;
_chemical_formula_sum "Si O2"
_cell_formula_units_Z 24
_cell_length_a 5.290469
_cell_length_b 11.870449
_cell_length_c 21.842966
_cell_angle_alpha 90.000000
_cell_angle_beta 59.446380
_cell_angle_gamma 90.000000
_cell_volume 1181.282188
_symmetry_space_group_name_H-M "P 2/C"
_symmetry_group_IT_number 13
_symmetry_cell_setting 'monoclinic'
loop_
_space_group_symop_operation_xyz
x,y,z
-x,y,1/2-z
-x,-y,-z
x,-y,1/2+z
loop_
_atom_site_type_symbol
_atom_site_label
_atom_site_fract_x
_atom_site_fract_y
_atom_site_fract_z
Si Si1 0.870581 0.228648 0.485592
Si Si2 0.850073 0.596004 0.480027
Si Si3 0.199506 0.025646 0.388181
Si Si4 0.000000 0.681626 0.750000
Si Si5 0.500000 0.172186 0.250000
Si Si6 0.614166 0.922517 0.433028
Si Si7 0.791404 0.590010 0.899428
O O1 0.519231 0.202542 0.535975
O O2 0.955884 0.314642 0.420289
O O3 0.966635 0.287646 0.537946
O O4 0.043177 0.110802 0.455950
O O5 0.543693 0.622209 0.549901
O O6 0.834858 0.541534 0.413833
O O7 0.000000 0.500000 0.500000
O O8 0.304863 0.095180 0.317293
O O9 0.475759 0.964655 0.385577
O O10 0.968037 0.932023 0.390485
O O11 0.721158 0.754679 0.763958
O O12 0.896652 0.600012 0.817159
O O13 0.500000 0.000000 0.500000
#
# Coordination Sequence:
#
# PCOD8117910 Si02
#       7
#     4   4   4   2   2   4   4
#     4  10  19  34  57  83 120 153 197 249 299 353
#     4   9  20  36  56  87 119 155 199 255 303 348
#     4  11  22  37  54  90 121 156 198 241 301 362
#     4  12  24  38  62  92 124 164 192 244 322 388
#     4  12  24  38  60  86 128 164 188 246 316 380
#     4  10  22  34  55  86 119 154 199 248 289 347
#     4  10  21  36  58  90 124 152 201 249 311 366
#
# _framework density 20.316905999999999
#
# number of rings (size 3 to 8) (size 9 to 14) (size 15 to 20)
#    0.000    1.667    1.667    4.000   11.667    0.000 
#    0.000    0.000    0.000    0.000   13.000    0.000 
#    0.000    0.000    0.000    0.000    0.000    0.000 
#
# Total GULP energy -297358.543211 kJ/mol
# GULP energy per Si atom -12389.939300 kJ/mol
# Density = 2.027066 g / cm^3
# Si number density = 20.316906 Si / 1000 Ang^3
#
#
#
# Elastic Constant Matrix: (Units=GPa)
#
#
# Indices 1 2 3 4 5 6 
#
# 1 116.7931 34.4977 31.0148 0.0000 7.2760 0.0000
# 2 34.4977 86.7601 48.1863 0.0000 2.5858 0.0000
# 3 31.0148 48.1863 106.5930 0.0000 5.4977 0.0000
# 4 0.0000 0.0000 0.0000 24.9848 0.0000 -1.4795
# 5 7.2760 2.5858 5.4977 0.0000 19.6533 0.0000
# 6 0.0000 0.0000 0.0000 -1.4795 0.0000 43.4920
#
#
#
# Elastic Compliance Matrix: (Units=1/GPa)
#
#
# Indices 1 2 3 4 5 6 
#
# 1 0.010033 -0.003157 -0.001341 0.000000 -0.002924 0.000000
# 2 -0.003157 0.016384 -0.006531 0.000000 0.000840 0.000000
# 3 -0.001341 -0.006531 0.012839 0.000000 -0.002236 0.000000
# 4 0.000000 0.000000 0.000000 0.040105 0.000000 0.001364
# 5 -0.002924 0.000840 -0.002236 0.000000 0.052479 0.000000
# 6 0.000000 0.000000 0.000000 0.001364 0.000000 0.023039
#
#
# Mechanical properties :
#
#
# Convention : Reuss Voigt Hill
#
# Bulk Modulus (GPa) = 58.14930 59.72705 58.93818
# Shear Modulus (GPa) = 27.37155 30.72251 29.04703
#
# Velocity S-wave (km/s) = 3.67445 3.89288 3.78524
# Velocity P-wave (km/s) = 6.83267 7.04752 6.94092
#
# Compressibility (1/GPa) = 0.01719711
#
# Stress axis : x y z
#
# Youngs Moduli (GPa) = 99.67061 61.03600 77.88488
#
# Poissons Ratio (x) = 0.19271 0.10446
# Poissons Ratio (y) = 0.31469 0.50867
# Poissons Ratio (z) = 0.13367 0.39863
#
# Static dielectric constant tensor:
#      x y z
#    x 4.404570 0.000000 0.003880 
#    y 0.000000 4.238780 0.000000 
#    z 0.003880 0.000000 3.505870 
# 
# 
# High freq. dielectric constant tensor:
#      x y z
#    x 1.818700 0.000000 0.007570 
#    y 0.000000 1.786360 0.000000 
#    z 0.007570 0.000000 1.751310 
# 
# From -- ./inp_files/73353.got.cif
#   From: 2010.06.25/outbox.cif.g09.slc.cpg/sg13_37_cif.got.tgz:73353.got - 2010.06.28 04:50:58.
