data_PCOD8117327
_publ_section_title
;
Structure prediction by ZEFSAII (Michael W. Deem and Ramdas Pophale) SiO2 
 PCOD8117327
Probable space group: P 2/C
;
_chemical_formula_sum "Si O2"
_cell_formula_units_Z 30
_cell_length_a 29.009522
_cell_length_b 8.798251
_cell_length_c 16.864026
_cell_angle_alpha 90.000000
_cell_angle_beta 19.143015
_cell_angle_gamma 90.000000
_cell_volume 1411.483041
_symmetry_space_group_name_H-M "P 2/C"
_symmetry_group_IT_number 13
_symmetry_cell_setting 'monoclinic'
loop_
_space_group_symop_operation_xyz
x,y,z
-x,y,1/2-z
-x,-y,-z
x,-y,1/2+z
loop_
_atom_site_type_symbol
_atom_site_label
_atom_site_fract_x
_atom_site_fract_y
_atom_site_fract_z
Si Si1 0.384130 0.906486 0.730047
Si Si2 0.251561 0.171403 0.009986
Si Si3 0.000000 0.437703 0.750000
Si Si4 0.037871 0.892165 0.600821
Si Si5 0.803934 0.181542 0.103216
Si Si6 0.581105 0.353550 0.896788
Si Si7 0.334108 0.343068 0.029928
Si Si8 0.196615 0.610231 0.328999
O O1 0.264264 0.908533 0.857574
O O2 0.454738 0.747871 0.640514
O O3 0.500000 0.000000 0.500000
O O4 0.325133 0.004761 0.899778
O O5 0.334156 0.271838 0.811161
O O6 0.257681 0.256620 0.083026
O O7 0.091108 0.134608 0.248603
O O8 0.130005 0.323905 0.551379
O O9 0.043564 0.540587 0.603589
O O10 0.166284 0.786994 0.357749
O O11 0.000000 0.831255 0.750000
O O12 0.087077 0.068816 0.527834
O O13 0.691603 0.246736 0.348344
O O14 0.691624 0.402988 0.782410
O O15 0.500000 0.500000 0.000000
O O16 0.260904 0.510282 0.152823
O O17 0.500000 0.361108 0.750000
#
# Coordination Sequence:
#
# PCOD8117327 Si02
#       8
#     4   4   2   4   4   4   4   4
#     4  10  19  34  59  89 117 160 217 256 302 374
#     4  11  22  39  63  89 127 167 209 266 319 378
#     4  10  18  34  58  86 114 160 210 250 304 374
#     4  12  20  39  64  93 123 156 214 272 313 361
#     4  11  21  38  64  91 123 166 207 262 319 374
#     4  11  20  34  60  91 120 165 223 262 302 374
#     4  11  25  43  59  88 134 170 203 261 330 387
#     4  11  22  38  61  90 124 165 208 262 322 371
#
# _framework density 21.254239999999999
#
# number of rings (size 3 to 8) (size 9 to 14) (size 15 to 20)
#    0.000    1.067    4.000    4.800    0.000    1.067 
#    0.000    3.333    0.000    0.000    0.000    0.000 
#    0.000    0.000    0.000    0.000    0.000    0.000 
#
# Total GULP energy -371673.974857 kJ/mol
# GULP energy per Si atom -12389.132495 kJ/mol
# Density = 2.120586 g / cm^3
# Si number density = 21.254240 Si / 1000 Ang^3
#
#
#
# Elastic Constant Matrix: (Units=GPa)
#
#
# Indices 1 2 3 4 5 6 
#
# 1 57.1922 15.0848 24.9383 0.0000 1.4331 0.0000
# 2 15.0848 113.9462 36.3765 0.0000 0.8591 0.0000
# 3 24.9383 36.3765 104.6571 0.0000 -4.8757 0.0000
# 4 0.0000 0.0000 0.0000 47.6826 0.0000 2.7825
# 5 1.4331 0.8591 -4.8757 0.0000 27.3977 0.0000
# 6 0.0000 0.0000 0.0000 2.7825 0.0000 31.1756
#
#
#
# Elastic Compliance Matrix: (Units=1/GPa)
#
#
# Indices 1 2 3 4 5 6 
#
# 1 0.019753 -0.001207 -0.004370 0.000000 -0.001773 0.000000
# 2 -0.001207 0.009969 -0.003216 0.000000 -0.000822 0.000000
# 3 -0.004370 -0.003216 0.011827 0.000000 0.002434 0.000000
# 4 0.000000 0.000000 0.000000 0.021082 0.000000 -0.001882
# 5 -0.001773 -0.000822 0.002434 0.000000 0.037051 0.000000
# 6 0.000000 0.000000 0.000000 -0.001882 0.000000 0.032244
#
#
# Mechanical properties :
#
#
# Convention : Reuss Voigt Hill
#
# Bulk Modulus (GPa) = 41.72829 47.62162 44.67496
# Shear Modulus (GPa) = 31.74623 34.54425 33.14524
#
# Velocity S-wave (km/s) = 3.86896 4.03586 3.95329
# Velocity P-wave (km/s) = 6.29555 6.64619 6.47325
#
# Compressibility (1/GPa) = 0.02396456
#
# Stress axis : x y z
#
# Youngs Moduli (GPa) = 50.62494 100.31531 84.54916
#
# Poissons Ratio (x) = 0.12103 0.36949
# Poissons Ratio (y) = 0.06108 0.27188
# Poissons Ratio (z) = 0.22124 0.32258
#
# Static dielectric constant tensor:
#      x y z
#    x 3.393980 0.000000 0.016400 
#    y 0.000000 3.370820 0.000000 
#    z 0.016400 0.000000 3.824870 
# 
# 
# High freq. dielectric constant tensor:
#      x y z
#    x 1.788330 0.000000 -0.018210 
#    y 0.000000 1.859530 0.000000 
#    z -0.018210 0.000000 1.844510 
# 
# From -- ./inp_files/72378.got.cif
#   From: 2010.06.25/outbox.cif.g09.slc.cpg/sg13_37_cif.got.tgz:72378.got - 2010.06.28 04:50:58.
