data_PCOD8117827
_publ_section_title
;
Structure prediction by ZEFSAII (Michael W. Deem and Ramdas Pophale) SiO2 
 PCOD8117827
Probable space group: P 2/C
;
_chemical_formula_sum "Si O2"
_cell_formula_units_Z 24
_cell_length_a 19.800487
_cell_length_b 9.375090
_cell_length_c 19.419351
_cell_angle_alpha 90.000000
_cell_angle_beta 20.518491
_cell_angle_gamma 90.000000
_cell_volume 1263.531326
_symmetry_space_group_name_H-M "P 2/C"
_symmetry_group_IT_number 13
_symmetry_cell_setting 'monoclinic'
loop_
_space_group_symop_operation_xyz
x,y,z
-x,y,1/2-z
-x,-y,-z
x,-y,1/2+z
loop_
_atom_site_type_symbol
_atom_site_label
_atom_site_fract_x
_atom_site_fract_y
_atom_site_fract_z
Si Si1 0.500000 0.737435 0.250000
Si Si2 0.897234 0.144438 0.417121
Si Si3 0.798083 0.612308 0.629001
Si Si4 0.596666 0.506332 0.554660
Si Si5 0.919264 0.369041 0.157843
Si Si6 0.115952 0.821590 0.070897
Si Si7 0.500000 0.729794 0.750000
O O1 0.328972 0.833888 0.382171
O O2 0.443983 0.641862 0.368618
O O3 0.000000 0.194302 0.250000
O O4 0.994631 0.235177 0.384225
O O5 0.946651 0.981196 0.389616
O O6 0.578687 0.575087 0.820753
O O7 0.810013 0.686307 0.693088
O O8 0.912592 0.710478 0.464297
O O9 0.896409 0.459209 0.539749
O O10 0.779250 0.475248 0.333111
O O11 0.638558 0.628547 0.571053
O O12 0.000000 0.772182 0.250000
O O13 0.347426 0.830881 0.858767
#
# Coordination Sequence:
#
# PCOD8117827 Si02
#       7
#     2   4   4   4   4   4   2
#     4  11  19  34  56  84 108 138 188 230 276 320
#     4  11  22  35  57  82 111 149 182 234 277 331
#     4  10  22  37  56  82 112 148 181 230 279 333
#     4  10  19  33  58  83 108 141 187 232 275 323
#     4  11  21  36  57  82 113 144 186 228 280 331
#     4  10  21  37  56  81 111 145 188 227 281 331
#     4   9  19  34  56  82 108 146 182 240 280 324
#
# _framework density 18.994382999999999
#
# number of rings (size 3 to 8) (size 9 to 14) (size 15 to 20)
#    0.000    1.667    3.333    2.000    0.000    1.333 
#    0.000    0.000    0.000    1.000    0.000    0.000 
#    0.000    0.000    0.000    0.000    0.000    0.000 
#
# Total GULP energy -297378.729358 kJ/mol
# GULP energy per Si atom -12390.780390 kJ/mol
# Density = 1.895115 g / cm^3
# Si number density = 18.994383 Si / 1000 Ang^3
#
#
#
# Elastic Constant Matrix: (Units=GPa)
#
#
# Indices 1 2 3 4 5 6 
#
# 1 110.7011 38.2060 20.5918 0.0000 2.2720 0.0000
# 2 38.2060 69.2980 16.2758 0.0000 -0.8935 0.0000
# 3 20.5918 16.2758 69.2170 0.0000 0.5776 0.0000
# 4 0.0000 0.0000 0.0000 16.9758 0.0000 -5.8590
# 5 2.2720 -0.8935 0.5776 0.0000 25.4890 0.0000
# 6 0.0000 0.0000 0.0000 -5.8590 0.0000 16.3840
#
#
#
# Elastic Compliance Matrix: (Units=1/GPa)
#
#
# Indices 1 2 3 4 5 6 
#
# 1 0.011454 -0.005856 -0.002021 0.000000 -0.001180 0.000000
# 2 -0.005856 0.018277 -0.002566 0.000000 0.001221 0.000000
# 3 -0.002021 -0.002566 0.015654 0.000000 -0.000265 0.000000
# 4 0.000000 0.000000 0.000000 0.067202 0.000000 0.024032
# 5 -0.001180 0.001221 -0.000265 0.000000 0.039387 0.000000
# 6 0.000000 0.000000 0.000000 0.024032 0.000000 0.069629
#
#
# Mechanical properties :
#
#
# Convention : Reuss Voigt Hill
#
# Bulk Modulus (GPa) = 40.81503 44.37372 42.59437
# Shear Modulus (GPa) = 19.94771 23.37923 21.66347
#
# Velocity S-wave (km/s) = 3.24418 3.51215 3.38082
# Velocity P-wave (km/s) = 5.96385 6.31341 6.14112
#
# Compressibility (1/GPa) = 0.02450078
#
# Stress axis : x y z
#
# Youngs Moduli (GPa) = 87.30227 54.71281 63.88111
#
# Poissons Ratio (x) = 0.32039 0.12910
# Poissons Ratio (y) = 0.51122 0.16391
# Poissons Ratio (z) = 0.17643 0.14039
#
# Static dielectric constant tensor:
#      x y z
#    x 3.831070 0.000000 -0.071690 
#    y 0.000000 3.280440 0.000000 
#    z -0.071690 0.000000 3.488810 
# 
# 
# High freq. dielectric constant tensor:
#      x y z
#    x 1.737130 0.000000 -0.005260 
#    y 0.000000 1.729080 0.000000 
#    z -0.005260 0.000000 1.741040 
# 
# From -- ./inp_files/73288.got.cif
#   From: 2010.06.25/outbox.cif.g09.slc.cpg/sg13_37_cif.got.tgz:73288.got - 2010.06.28 04:50:58.
