data_PCOD8117116
_publ_section_title
;
Structure prediction by ZEFSAII (Michael W. Deem and Ramdas Pophale) SiO2 
 PCOD8117116
Probable space group: P 2/C
;
_chemical_formula_sum "Si O2"
_cell_formula_units_Z 30
_cell_length_a 12.233651
_cell_length_b 8.509185
_cell_length_c 30.925566
_cell_angle_alpha 90.000000
_cell_angle_beta 26.509433
_cell_angle_gamma 90.000000
_cell_volume 1436.919789
_symmetry_space_group_name_H-M "P 2/C"
_symmetry_group_IT_number 13
_symmetry_cell_setting 'monoclinic'
loop_
_space_group_symop_operation_xyz
x,y,z
-x,y,1/2-z
-x,-y,-z
x,-y,1/2+z
loop_
_atom_site_type_symbol
_atom_site_label
_atom_site_fract_x
_atom_site_fract_y
_atom_site_fract_z
Si Si1 0.115457 0.724668 0.079780
Si Si2 0.189637 0.333381 0.460355
Si Si3 0.300515 0.751177 0.207153
Si Si4 0.704502 0.385697 0.304524
Si Si5 0.000000 0.037642 0.750000
Si Si6 0.832581 0.697701 0.017533
Si Si7 0.635797 0.793553 0.913848
Si Si8 0.153167 0.633231 0.585436
O O1 0.207752 0.550908 0.061020
O O2 0.866727 0.773462 0.191452
O O3 0.045477 0.725037 0.054103
O O4 0.348835 0.838120 0.007016
O O5 0.475423 0.292835 0.364357
O O6 0.191534 0.521483 0.456262
O O7 0.067013 0.243019 0.462714
O O8 0.315159 0.572887 0.185228
O O9 0.584484 0.796352 0.116445
O O10 0.188499 0.857359 0.209770
O O11 0.734338 0.330213 0.343273
O O12 0.919887 0.331111 0.197514
O O13 0.178252 0.940342 0.654925
O O14 0.885308 0.711322 0.947847
O O15 0.632480 0.718457 0.963362
#
# Coordination Sequence:
#
# PCOD8117116 Si02
#       8
#     4   4   4   4   2   4   4   4
#     4   9  20  34  59  83 111 148 194 229 290 340
#     4   8  16  33  57  87 112 143 180 241 283 333
#     4  10  23  36  52  87 114 156 187 236 284 348
#     4   9  18  35  60  82 116 147 192 232 291 341
#     4  12  26  36  54  80 122 156 194 240 294 334
#     4   9  18  33  53  85 122 138 182 235 289 334
#     4  11  21  38  55  83 113 154 187 242 282 348
#     4  10  18  31  57  89 112 150 183 234 289 342
#
# _framework density 20.877991000000002
#
# number of rings (size 3 to 8) (size 9 to 14) (size 15 to 20)
#    0.000    2.400    1.333    1.200    5.600    1.600 
#    0.000    5.333    0.000    3.200    6.933    0.000 
#    0.000    0.000    0.000    0.000    0.000    0.000 
#
# Total GULP energy -371722.368086 kJ/mol
# GULP energy per Si atom -12390.745603 kJ/mol
# Density = 2.083047 g / cm^3
# Si number density = 20.877991 Si / 1000 Ang^3
#
#
#
# Elastic Constant Matrix: (Units=GPa)
#
#
# Indices 1 2 3 4 5 6 
#
# 1 161.1086 31.0832 46.1160 0.0000 -1.2018 0.0000
# 2 31.0832 29.2992 21.2513 0.0000 -7.6498 0.0000
# 3 46.1160 21.2513 82.8467 0.0000 6.1354 0.0000
# 4 0.0000 0.0000 0.0000 20.3210 0.0000 0.1458
# 5 -1.2018 -7.6498 6.1354 0.0000 31.6355 0.0000
# 6 0.0000 0.0000 0.0000 0.1458 0.0000 4.6010
#
#
#
# Elastic Compliance Matrix: (Units=1/GPa)
#
#
# Indices 1 2 3 4 5 6 
#
# 1 0.008361 -0.007082 -0.002774 0.000000 -0.000857 0.000000
# 2 -0.007082 0.053348 -0.010833 0.000000 0.014732 0.000000
# 3 -0.002774 -0.010833 0.016837 0.000000 -0.005990 0.000000
# 4 0.000000 0.000000 0.000000 0.049221 0.000000 -0.001559
# 5 -0.000857 0.014732 -0.005990 0.000000 0.036302 0.000000
# 6 0.000000 0.000000 0.000000 -0.001559 0.000000 0.217396
#
#
# Mechanical properties :
#
#
# Convention : Reuss Voigt Hill
#
# Bulk Modulus (GPa) = 26.90522 52.23946 39.57234
# Shear Modulus (GPa) = 11.48813 22.96509 17.22661
#
# Velocity S-wave (km/s) = 2.34829 3.32017 2.87559
# Velocity P-wave (km/s) = 4.50194 6.30664 5.47910
#
# Compressibility (1/GPa) = 0.03716751
#
# Stress axis : x y z
#
# Youngs Moduli (GPa) = 119.60375 18.74494 59.39225
#
# Poissons Ratio (x) = 0.13275 0.16476
# Poissons Ratio (y) = 0.84699 0.64342
# Poissons Ratio (z) = 0.33179 0.20307
#
# Static dielectric constant tensor:
#      x y z
#    x 4.213490 0.000000 -0.120680 
#    y 0.000000 3.344870 0.000000 
#    z -0.120680 0.000000 4.040010 
# 
# 
# High freq. dielectric constant tensor:
#      x y z
#    x 1.819030 0.000000 -0.003660 
#    y 0.000000 1.768690 0.000000 
#    z -0.003660 0.000000 1.827580 
# 
# From -- ./inp_files/96604.got.cif
#   From: 2010.06.25/outbox.cif.g09.slc.cpg/sg13_49_cif.got.tgz:96604.got - 2010.06.28 04:50:58.
