data_PCOD8117556
_publ_section_title
;
Structure prediction by ZEFSAII (Michael W. Deem and Ramdas Pophale) SiO2 
 PCOD8117556
Probable space group: P 2/C
;
_chemical_formula_sum "Si O2"
_cell_formula_units_Z 30
_cell_length_a 11.934480
_cell_length_b 8.543732
_cell_length_c 29.352708
_cell_angle_alpha 90.000000
_cell_angle_beta 150.976705
_cell_angle_gamma 90.000000
_cell_volume 1452.074554
_symmetry_space_group_name_H-M "P 2/C"
_symmetry_group_IT_number 13
_symmetry_cell_setting 'monoclinic'
loop_
_space_group_symop_operation_xyz
x,y,z
-x,y,1/2-z
-x,-y,-z
x,-y,1/2+z
loop_
_atom_site_type_symbol
_atom_site_label
_atom_site_fract_x
_atom_site_fract_y
_atom_site_fract_z
Si Si1 0.500000 0.276603 0.750000
Si Si2 0.123591 0.165655 0.549231
Si Si3 0.129769 0.625428 0.182843
Si Si4 0.215970 0.220782 0.999817
Si Si5 0.315738 0.646210 0.855824
Si Si6 0.242453 0.289855 0.819226
Si Si7 0.053973 0.699954 0.847225
Si Si8 0.279648 0.860511 0.008324
O O1 0.350069 0.164383 0.662767
O O2 0.667331 0.395423 0.782187
O O3 0.191843 0.228468 0.523207
O O4 0.922968 0.266798 0.503221
O O5 0.000000 0.000000 0.500000
O O6 0.252658 0.708136 0.268706
O O7 0.946138 0.752558 0.100985
O O8 0.994750 0.466021 0.145915
O O9 0.301023 0.042714 0.027513
O O10 0.426649 0.339845 0.070623
O O11 0.247098 0.466787 0.838478
O O12 0.278216 0.710567 0.893739
O O13 0.161747 0.735616 0.762833
O O14 0.000000 0.212898 0.750000
O O15 0.466001 0.196424 0.916597
O O16 0.097570 0.825554 0.902923
#
# Coordination Sequence:
#
# PCOD8117556 Si02
#       8
#     2   4   4   4   4   4   4   4
#     4  10  18  38  66  84 124 156 200 256 284 360
#     4   9  20  41  59  90 121 163 197 236 308 357
#     4  10  20  39  62  89 115 161 200 240 308 348
#     4  10  23  39  62  88 122 157 197 246 301 358
#     4  10  21  43  60  84 119 161 198 243 302 352
#     4  11  21  39  63  87 116 162 204 238 295 367
#     4  10  22  41  62  85 120 160 198 248 298 359
#     4  11  23  40  61  91 123 152 204 250 295 358
#
# _framework density 20.660094999999998
#
# number of rings (size 3 to 8) (size 9 to 14) (size 15 to 20)
#    0.000    1.867    4.000    0.800    1.867    2.667 
#   14.400    2.000    0.000    0.000    0.000    0.000 
#    0.000    0.000    0.000    0.000    0.000    0.000 
#
# Total GULP energy -371677.406958 kJ/mol
# GULP energy per Si atom -12389.246899 kJ/mol
# Density = 2.061307 g / cm^3
# Si number density = 20.660095 Si / 1000 Ang^3
#
#
#
# Elastic Constant Matrix: (Units=GPa)
#
#
# Indices 1 2 3 4 5 6 
#
# 1 138.6753 25.7276 58.1787 0.0000 5.8658 0.0000
# 2 25.7276 32.0387 19.4251 0.0000 5.1907 0.0000
# 3 58.1787 19.4251 88.5387 0.0000 8.1657 0.0000
# 4 0.0000 0.0000 0.0000 29.9380 0.0000 1.6708
# 5 5.8658 5.1907 8.1657 0.0000 43.1719 0.0000
# 6 0.0000 0.0000 0.0000 1.6708 0.0000 21.0294
#
#
#
# Elastic Compliance Matrix: (Units=1/GPa)
#
#
# Indices 1 2 3 4 5 6 
#
# 1 0.010597 -0.004979 -0.005896 0.000000 0.000274 0.000000
# 2 -0.004979 0.038697 -0.004938 0.000000 -0.003042 0.000000
# 3 -0.005896 -0.004938 0.016410 0.000000 -0.001709 0.000000
# 4 0.000000 0.000000 0.000000 0.033551 0.000000 -0.002666
# 5 0.000274 -0.003042 -0.001709 0.000000 0.023815 0.000000
# 6 0.000000 0.000000 0.000000 -0.002666 0.000000 0.047764
#
#
# Mechanical properties :
#
#
# Convention : Reuss Voigt Hill
#
# Bulk Modulus (GPa) = 29.34437 51.76837 40.55637
# Shear Modulus (GPa) = 23.38426 29.22262 26.30344
#
# Velocity S-wave (km/s) = 3.36796 3.76499 3.57200
# Velocity P-wave (km/s) = 5.41834 6.63414 6.05682
#
# Compressibility (1/GPa) = 0.03407809
#
# Stress axis : x y z
#
# Youngs Moduli (GPa) = 94.36807 25.84167 60.93951
#
# Poissons Ratio (x) = 0.12867 0.35930
# Poissons Ratio (y) = 0.46986 0.30090
# Poissons Ratio (z) = 0.55640 0.12760
#
# Static dielectric constant tensor:
#      x y z
#    x 4.276210 0.000000 0.011450 
#    y 0.000000 3.257060 0.000000 
#    z 0.011450 0.000000 3.824060 
# 
# 
# High freq. dielectric constant tensor:
#      x y z
#    x 1.832270 0.000000 0.002450 
#    y 0.000000 1.763340 0.000000 
#    z 0.002450 0.000000 1.815950 
# 
# From -- ./inp_files/96611.got.cif
#   From: 2010.06.25/outbox.cif.g09.slc.cpg/sg13_49_cif.got.tgz:96611.got - 2010.06.28 04:50:58.
