data_PCOD8117604
_publ_section_title
;
Structure prediction by ZEFSAII (Michael W. Deem and Ramdas Pophale) SiO2 
 PCOD8117604
Probable space group: P 2/C
;
_chemical_formula_sum "Si O2"
_cell_formula_units_Z 32
_cell_length_a 14.671989
_cell_length_b 26.872662
_cell_length_c 5.120636
_cell_angle_alpha 90.000000
_cell_angle_beta 109.866468
_cell_angle_gamma 90.000000
_cell_volume 1898.787934
_symmetry_space_group_name_H-M "P 2/C"
_symmetry_group_IT_number 13
_symmetry_cell_setting 'monoclinic'
loop_
_space_group_symop_operation_xyz
x,y,z
-x,y,1/2-z
-x,-y,-z
x,-y,1/2+z
loop_
_atom_site_type_symbol
_atom_site_label
_atom_site_fract_x
_atom_site_fract_y
_atom_site_fract_z
Si Si1 0.385347 0.359172 0.133601
Si Si2 0.696006 0.809482 0.462978
Si Si3 0.303827 0.030154 0.053480
Si Si4 0.614926 0.298561 0.865968
Si Si5 0.615650 0.529385 0.859023
Si Si6 0.386030 0.860813 0.617439
Si Si7 0.892688 0.142942 0.176593
Si Si8 0.892929 0.922739 0.176679
O O1 0.500000 0.363355 0.250000
O O2 0.349591 0.324718 0.335071
O O3 0.341629 0.414699 0.112425
O O4 0.350978 0.334615 0.831897
O O5 0.669887 0.752915 0.381269
O O6 0.660930 0.824353 0.716417
O O7 0.812377 0.814619 0.556732
O O8 0.645944 0.845166 0.202730
O O9 0.353293 0.083209 0.140006
O O10 0.338799 0.994285 0.318700
O O11 0.186992 0.034932 0.947440
O O12 0.500000 0.288604 0.750000
O O13 0.500000 0.530949 0.750000
O O14 0.655150 0.498242 0.653195
O O15 0.500000 0.856145 0.750000
O O16 0.879392 0.121129 0.453191
O O17 0.000000 0.166646 0.250000
O O18 0.877770 0.099135 0.951253
O O19 0.000000 0.946769 0.250000
#
# Coordination Sequence:
#
# PCOD8117604 Si02
#       8
#     4   4   4   4   4   4   4   4
#     4   9  17  28  39  59  92 122 159 206 242 275
#     4  12  21  38  58  77  99 127 164 203 243 291
#     4  12  24  38  57  76 102 125 156 192 242 293
#     4  10  19  29  44  66  92 124 157 196 241 278
#     4   9  15  23  37  55  78 117 165 205 238 272
#     4  12  25  40  57  76  98 129 166 203 234 279
#     4  10  19  35  59  80 100 124 154 193 240 290
#     4  10  20  37  57  79 102 124 151 190 239 290
#
# _framework density 16.852857
#
# number of rings (size 3 to 8) (size 9 to 14) (size 15 to 20)
#    0.000    1.500    2.500    4.125    0.000    5.000 
#    0.000    0.000    0.000    0.000    0.000    0.000 
#    0.000    0.000    0.000    0.000    0.000   12.500 
#
# Total GULP energy -396877.368876 kJ/mol
# GULP energy per Si atom -12402.417777 kJ/mol
# Density = 1.681450 g / cm^3
# Si number density = 16.852857 Si / 1000 Ang^3
#
#
#
# Elastic Constant Matrix: (Units=GPa)
#
#
# Indices 1 2 3 4 5 6 
#
# 1 57.9804 22.2852 24.5802 0.0000 3.3061 0.0000
# 2 22.2852 88.1539 16.9979 0.0000 0.9865 0.0000
# 3 24.5802 16.9979 81.6150 0.0000 -11.1236 0.0000
# 4 0.0000 0.0000 0.0000 22.5597 0.0000 -7.6193
# 5 3.3061 0.9865 -11.1236 0.0000 22.0332 0.0000
# 6 0.0000 0.0000 0.0000 -7.6193 0.0000 7.8872
#
#
#
# Elastic Compliance Matrix: (Units=1/GPa)
#
#
# Indices 1 2 3 4 5 6 
#
# 1 0.022057 -0.004222 -0.006646 0.000000 -0.006476 0.000000
# 2 -0.004222 0.012701 -0.001466 0.000000 -0.000675 0.000000
# 3 -0.006646 -0.001466 0.015791 0.000000 0.009035 0.000000
# 4 0.000000 0.000000 0.000000 0.065793 0.000000 0.063558
# 5 -0.006476 -0.000675 0.009035 0.000000 0.050950 0.000000
# 6 0.000000 0.000000 0.000000 0.063558 0.000000 0.188188
#
#
# Mechanical properties :
#
#
# Convention : Reuss Voigt Hill
#
# Bulk Modulus (GPa) = 38.63808 39.49731 39.06769
# Shear Modulus (GPa) = 12.86093 21.42176 17.14134
#
# Velocity S-wave (km/s) = 2.76548 3.56912 3.19269
# Velocity P-wave (km/s) = 5.75966 6.36178 6.06819
#
# Compressibility (1/GPa) = 0.02588121
#
# Stress axis : x y z
#
# Youngs Moduli (GPa) = 45.33749 78.73220 63.32713
#
# Poissons Ratio (x) = 0.33240 0.42089
# Poissons Ratio (y) = 0.19141 0.09282
# Poissons Ratio (z) = 0.30132 0.11540
#
# Static dielectric constant tensor:
#      x y z
#    x 3.068220 0.000000 -0.099000 
#    y 0.000000 3.087170 0.000000 
#    z -0.099000 0.000000 3.443090 
# 
# 
# High freq. dielectric constant tensor:
#      x y z
#    x 1.613710 0.000000 -0.023050 
#    y 0.000000 1.636090 0.000000 
#    z -0.023050 0.000000 1.668990 
# 
# From -- ./inp_files/5556.got.cif
#   From: 2010.06.25/outbox.cif.g09.slc.cpg/sg13_3_cif.got.tgz:5556.got - 2010.06.28 04:50:58.
