data_PCOD8117936
_publ_section_title
;
Structure prediction by ZEFSAII (Michael W. Deem and Ramdas Pophale) SiO2 
 PCOD8117936
Probable space group: P 2/C
;
_chemical_formula_sum "Si O2"
_cell_formula_units_Z 18
_cell_length_a 10.930796
_cell_length_b 18.794411
_cell_length_c 5.127682
_cell_angle_alpha 90.000000
_cell_angle_beta 65.854804
_cell_angle_gamma 90.000000
_cell_volume 961.258249
_symmetry_space_group_name_H-M "P 2/C"
_symmetry_group_IT_number 13
_symmetry_cell_setting 'monoclinic'
loop_
_space_group_symop_operation_xyz
x,y,z
-x,y,1/2-z
-x,-y,-z
x,-y,1/2+z
loop_
_atom_site_type_symbol
_atom_site_label
_atom_site_fract_x
_atom_site_fract_y
_atom_site_fract_z
Si Si1 0.500000 0.207357 0.750000
Si Si2 0.607722 0.663374 0.456313
Si Si3 0.786863 0.168236 0.391520
Si Si4 0.148242 0.744221 0.163319
Si Si5 0.000000 0.048773 0.250000
Si Si6 0.500000 0.450896 0.750000
O O1 0.448682 0.258579 0.565234
O O2 0.625146 0.157877 0.552082
O O3 0.752958 0.676436 0.458088
O O4 0.620881 0.606771 0.202720
O O5 0.500000 0.628727 0.750000
O O6 0.838240 0.225660 0.556095
O O7 0.864037 0.094909 0.372869
O O8 0.820923 0.194285 0.071597
O O9 0.000000 0.714146 0.250000
O O10 0.000000 0.000000 0.500000
O O11 0.500000 0.500000 0.500000
#
# Coordination Sequence:
#
# PCOD8117936 Si02
#       6
#     2   4   4   4   2   2
#     4   9  20  34  58  88 114 139 180 258 302 325
#     4  10  19  34  58  90 114 141 190 242 285 328
#     4  11  21  37  58  83 113 149 187 234 298 337
#     4  11  20  35  58  89 116 141 182 245 301 335
#     4  12  24  40  56  80 114 160 198 224 266 358
#     4  11  22  36  56  82 118 161 194 222 268 341
#
# _framework density 18.725458
#
# number of rings (size 3 to 8) (size 9 to 14) (size 15 to 20)
#    0.000    1.333    5.556    1.333    0.000    0.000 
#    0.000    1.111    0.000    1.333    0.000    0.000 
#    0.000    0.000    0.000    0.000    0.000    0.000 
#
# Total GULP energy -222991.082904 kJ/mol
# GULP energy per Si atom -12388.393495 kJ/mol
# Density = 1.868284 g / cm^3
# Si number density = 18.725458 Si / 1000 Ang^3
#
#
#
# Elastic Constant Matrix: (Units=GPa)
#
#
# Indices 1 2 3 4 5 6 
#
# 1 150.8343 60.6300 48.5473 0.0000 -25.4637 0.0000
# 2 60.6300 104.1639 38.0162 0.0000 -7.4155 0.0000
# 3 48.5473 38.0162 84.3042 0.0000 -0.8967 0.0000
# 4 0.0000 0.0000 0.0000 26.3335 0.0000 17.0113
# 5 -25.4637 -7.4155 -0.8967 0.0000 40.8128 0.0000
# 6 0.0000 0.0000 0.0000 17.0113 0.0000 28.3558
#
#
#
# Elastic Compliance Matrix: (Units=1/GPa)
#
#
# Indices 1 2 3 4 5 6 
#
# 1 0.010662 -0.004280 -0.004148 0.000000 0.005783 0.000000
# 2 -0.004280 0.013371 -0.003568 0.000000 -0.000319 0.000000
# 3 -0.004148 -0.003568 0.015829 0.000000 -0.002889 0.000000
# 4 0.000000 0.000000 0.000000 0.062004 0.000000 -0.037198
# 5 0.005783 -0.000319 -0.002889 0.000000 0.027989 0.000000
# 6 0.000000 0.000000 0.000000 -0.037198 0.000000 0.057582
#
#
# Mechanical properties :
#
#
# Convention : Reuss Voigt Hill
#
# Bulk Modulus (GPa) = 63.01662 70.40993 66.71328
# Shear Modulus (GPa) = 23.07139 31.90767 27.48953
#
# Velocity S-wave (km/s) = 3.51392 4.13240 3.83564
# Velocity P-wave (km/s) = 7.08445 7.77507 7.43778
#
# Compressibility (1/GPa) = 0.01586883
#
# Stress axis : x y z
#
# Youngs Moduli (GPa) = 93.79430 74.78805 63.17607
#
# Poissons Ratio (x) = 0.32011 0.26205
# Poissons Ratio (y) = 0.40146 0.22542
# Poissons Ratio (z) = 0.38906 0.26686
#
# Static dielectric constant tensor:
#      x y z
#    x 3.893470 0.000000 -0.098640 
#    y 0.000000 3.453540 0.000000 
#    z -0.098640 0.000000 3.935500 
# 
# 
# High freq. dielectric constant tensor:
#      x y z
#    x 1.737550 0.000000 0.019320 
#    y 0.000000 1.695740 0.000000 
#    z 0.019320 0.000000 1.730470 
# 
# From -- ./inp_files/2290.got.cif
#   From: 2010.06.25/outbox.cif.g09.slc.cpg/sg13_2_cif.got.tgz:2290.got - 2010.06.28 04:50:58.
