data_PCOD8117463
_publ_section_title
;
Structure prediction by ZEFSAII (Michael W. Deem and Ramdas Pophale) SiO2 
 PCOD8117463
Probable space group: P 2/C
;
_chemical_formula_sum "Si O2"
_cell_formula_units_Z 14
_cell_length_a 6.915954
_cell_length_b 15.581192
_cell_length_c 8.423406
_cell_angle_alpha 90.000000
_cell_angle_beta 59.514572
_cell_angle_gamma 90.000000
_cell_volume 782.214642
_symmetry_space_group_name_H-M "P 2/C"
_symmetry_group_IT_number 13
_symmetry_cell_setting 'monoclinic'
loop_
_space_group_symop_operation_xyz
x,y,z
-x,y,1/2-z
-x,-y,-z
x,-y,1/2+z
loop_
_atom_site_type_symbol
_atom_site_label
_atom_site_fract_x
_atom_site_fract_y
_atom_site_fract_z
Si Si1 0.500000 0.754469 0.250000
Si Si2 0.500000 0.033345 0.250000
Si Si3 0.270698 0.590203 0.408226
Si Si4 0.734957 0.894191 0.357373
Si Si5 0.000000 0.512503 0.250000
O O1 0.311599 0.692935 0.410619
O O2 0.614867 0.810473 0.338119
O O3 0.355987 0.093035 0.426809
O O4 0.677531 0.976356 0.273524
O O5 0.500000 0.545760 0.250000
O O6 0.077391 0.574225 0.359198
O O7 0.200109 0.549126 0.605091
O O8 0.000000 0.880410 0.250000
#
# Coordination Sequence:
#
# PCOD8117463 Si02
#       5
#     2   2   4   4   2
#     4   9  22  34  48  81 116 124 176 215 262 300
#     4   9  20  36  58  79 100 134 190 197 248 316
#     4   9  20  35  52  78 102 133 175 223 245 316
#     4  10  19  37  55  78 105 142 164 219 253 307
#     4  10  18  36  60  70  98 146 180 202 270 294
#
# _framework density 17.897898999999999
#
# number of rings (size 3 to 8) (size 9 to 14) (size 15 to 20)
#    0.857    1.714    0.000    1.714    2.000    0.000 
#    5.143    0.000    0.000    0.000    0.000    0.000 
#    0.000    0.000    0.000    0.000    0.000    0.000 
#
# Total GULP energy -173538.533985 kJ/mol
# GULP energy per Si atom -12395.609570 kJ/mol
# Density = 1.785716 g / cm^3
# Si number density = 17.897899 Si / 1000 Ang^3
#
#
#
# Elastic Constant Matrix: (Units=GPa)
#
#
# Indices 1 2 3 4 5 6 
#
# 1 92.9644 49.8798 49.3928 0.0000 -3.0432 0.0000
# 2 49.8798 112.7044 58.1528 0.0000 -6.3097 0.0000
# 3 49.3928 58.1528 131.0442 0.0000 -9.2694 0.0000
# 4 0.0000 0.0000 0.0000 10.1480 0.0000 -4.0886
# 5 -3.0432 -6.3097 -9.2694 0.0000 26.4319 0.0000
# 6 0.0000 0.0000 0.0000 -4.0886 0.0000 21.6506
#
#
#
# Elastic Compliance Matrix: (Units=1/GPa)
#
#
# Indices 1 2 3 4 5 6 
#
# 1 0.015314 -0.004945 -0.003627 0.000000 -0.000689 0.000000
# 2 -0.004945 0.013129 -0.003877 0.000000 0.001205 0.000000
# 3 -0.003627 -0.003877 0.010894 0.000000 0.002477 0.000000
# 4 0.000000 0.000000 0.000000 0.106657 0.000000 0.020142
# 5 -0.000689 0.001205 0.002477 0.000000 0.038910 0.000000
# 6 0.000000 0.000000 0.000000 0.020142 0.000000 0.049992
#
#
# Mechanical properties :
#
#
# Convention : Reuss Voigt Hill
#
# Bulk Modulus (GPa) = 69.25321 72.39597 70.82459
# Shear Modulus (GPa) = 18.89596 23.59862 21.24729
#
# Velocity S-wave (km/s) = 3.25278 3.63507 3.44923
# Velocity P-wave (km/s) = 7.27220 7.62598 7.45119
#
# Compressibility (1/GPa) = 0.01443976
#
# Stress axis : x y z
#
# Youngs Moduli (GPa) = 65.29848 76.16539 91.79614
#
# Poissons Ratio (x) = 0.37664 0.33290
# Poissons Ratio (y) = 0.32290 0.35591
# Poissons Ratio (z) = 0.23681 0.29531
#
# Static dielectric constant tensor:
#      x y z
#    x 3.234610 0.000000 -0.009730 
#    y 0.000000 3.164450 0.000000 
#    z -0.009730 0.000000 3.305090 
# 
# 
# High freq. dielectric constant tensor:
#      x y z
#    x 1.697970 0.000000 0.000560 
#    y 0.000000 1.680590 0.000000 
#    z 0.000560 0.000000 1.688560 
# 
# From -- ./inp_files/8634.got.cif
#   From: 2010.06.25/outbox.cif.g09.slc.cpg/sg13_5_cif.got.tgz:8634.got - 2010.06.28 04:50:58.
