data_PCOD8117509
_publ_section_title
;
Structure prediction by ZEFSAII (Michael W. Deem and Ramdas Pophale) SiO2 
 PCOD8117509
Probable space group: P 2/C
;
_chemical_formula_sum "Si O2"
_cell_formula_units_Z 22
_cell_length_a 7.581512
_cell_length_b 8.817760
_cell_length_c 15.824682
_cell_angle_alpha 90.000000
_cell_angle_beta 103.753823
_cell_angle_gamma 90.000000
_cell_volume 1027.576585
_symmetry_space_group_name_H-M "P 2/C"
_symmetry_group_IT_number 13
_symmetry_cell_setting 'monoclinic'
loop_
_space_group_symop_operation_xyz
x,y,z
-x,y,1/2-z
-x,-y,-z
x,-y,1/2+z
loop_
_atom_site_type_symbol
_atom_site_label
_atom_site_fract_x
_atom_site_fract_y
_atom_site_fract_z
Si Si1 0.125123 0.815182 0.650172
Si Si2 0.222612 0.334440 0.331948
Si Si3 0.789683 0.850787 0.309186
Si Si4 0.000000 0.607930 0.250000
Si Si5 0.431977 0.788058 0.558556
Si Si6 0.449723 0.879674 0.377415
O O1 0.229800 0.760609 0.745941
O O2 0.240332 0.759099 0.582551
O O3 0.924610 0.743299 0.621824
O O4 0.106906 0.997430 0.649067
O O5 0.163780 0.506144 0.305092
O O6 0.419951 0.338909 0.397746
O O7 0.630474 0.809450 0.356163
O O8 0.716372 0.873257 0.205817
O O9 0.928789 0.710738 0.319955
O O10 0.400142 0.782821 0.454648
O O11 0.518677 0.945984 0.596990
#
# Coordination Sequence:
#
# PCOD8117509 Si02
#       6
#     4   4   4   2   4   4
#     4   9  18  34  63  82 107 147 190 237 285 322
#     4  10  20  36  58  84 109 151 193 234 271 342
#     4  10  18  38  56  82 113 149 188 232 282 349
#     4  10  22  36  56  84 114 156 196 222 284 344
#     4  10  18  37  58  90 112 140 189 248 285 326
#     4   9  20  34  60  85 112 145 187 239 292 332
#
# _framework density 21.409596000000001
#
# number of rings (size 3 to 8) (size 9 to 14) (size 15 to 20)
#    0.000    2.545    1.818    1.636    0.000    0.000 
#   16.364    4.545    0.000    0.000    0.000    0.000 
#    0.000    0.000    0.000    0.000    0.000    0.000 
#
# Total GULP energy -272807.707939 kJ/mol
# GULP energy per Si atom -12400.350361 kJ/mol
# Density = 2.136087 g / cm^3
# Si number density = 21.409596 Si / 1000 Ang^3
#
#
#
# Elastic Constant Matrix: (Units=GPa)
#
#
# Indices 1 2 3 4 5 6 
#
# 1 96.9637 42.1556 39.1433 0.0000 -35.5158 0.0000
# 2 42.1556 91.4194 11.0970 0.0000 -10.8997 0.0000
# 3 39.1433 11.0970 93.5456 0.0000 -29.5563 0.0000
# 4 0.0000 0.0000 0.0000 6.0157 0.0000 3.3620
# 5 -35.5158 -10.8997 -29.5563 0.0000 32.1139 0.0000
# 6 0.0000 0.0000 0.0000 3.3620 0.0000 28.6467
#
#
#
# Elastic Compliance Matrix: (Units=1/GPa)
#
#
# Indices 1 2 3 4 5 6 
#
# 1 0.021369 -0.007309 -0.001962 0.000000 0.019346 0.000000
# 2 -0.007309 0.013902 0.000488 0.000000 -0.002916 0.000000
# 3 -0.001962 0.000488 0.015256 0.000000 0.012037 0.000000
# 4 0.000000 0.000000 0.000000 0.177901 0.000000 -0.020878
# 5 0.019346 -0.002916 0.012037 0.000000 0.062623 0.000000
# 6 0.000000 0.000000 0.000000 -0.020878 0.000000 0.037358
#
#
# Mechanical properties :
#
#
# Convention : Reuss Voigt Hill
#
# Bulk Modulus (GPa) = 30.33878 51.85784 41.09831
# Shear Modulus (GPa) = 14.00708 25.99077 19.99892
#
# Velocity S-wave (km/s) = 2.56059 3.48800 3.05964
# Velocity P-wave (km/s) = 4.78995 6.36364 5.63203
#
# Compressibility (1/GPa) = 0.03296111
#
# Stress axis : x y z
#
# Youngs Moduli (GPa) = 46.79707 71.93176 65.54692
#
# Poissons Ratio (x) = 0.52575 0.12861
# Poissons Ratio (y) = 0.34204 -0.03199
# Poissons Ratio (z) = 0.09182 -0.03510
#
# Static dielectric constant tensor:
#      x y z
#    x 3.844840 0.000000 -0.299420 
#    y 0.000000 3.673930 0.000000 
#    z -0.299420 0.000000 3.711050 
# 
# 
# High freq. dielectric constant tensor:
#      x y z
#    x 1.844660 0.000000 -0.019590 
#    y 0.000000 1.820040 0.000000 
#    z -0.019590 0.000000 1.816970 
# 
# From -- ./inp_files/46211.got.cif
#   From: 2010.06.25/outbox.cif.g09.slc.cpg/sg13_24_cif.got.tgz:46211.got - 2010.06.28 04:50:58.
