data_PCOD8117932
_publ_section_title
;
Structure prediction by ZEFSAII (Michael W. Deem and Ramdas Pophale) SiO2 
 PCOD8117932
Probable space group: P 2/C
;
_chemical_formula_sum "Si O2"
_cell_formula_units_Z 32
_cell_length_a 8.778864
_cell_length_b 9.557815
_cell_length_c 20.082405
_cell_angle_alpha 90.000000
_cell_angle_beta 101.294920
_cell_angle_gamma 90.000000
_cell_volume 1652.413505
_symmetry_space_group_name_H-M "P 2/C"
_symmetry_group_IT_number 13
_symmetry_cell_setting 'monoclinic'
loop_
_space_group_symop_operation_xyz
x,y,z
-x,y,1/2-z
-x,-y,-z
x,-y,1/2+z
loop_
_atom_site_type_symbol
_atom_site_label
_atom_site_fract_x
_atom_site_fract_y
_atom_site_fract_z
Si Si1 0.949690 0.056872 0.171881
Si Si2 0.054528 0.340542 0.123036
Si Si3 0.124909 0.446404 0.816517
Si Si4 0.870254 0.190196 0.493114
Si Si5 0.560749 0.751255 0.325775
Si Si6 0.258207 0.182261 0.877790
Si Si7 0.335579 0.459497 0.225456
Si Si8 0.159274 0.921929 0.091373
O O1 0.000000 0.092830 0.250000
O O2 0.955856 0.201357 0.132073
O O3 0.782103 0.977764 0.148689
O O4 0.072917 0.948499 0.153273
O O5 0.209340 0.358504 0.181257
O O6 0.931461 0.466218 0.123303
O O7 0.114136 0.329113 0.051762
O O8 0.127360 0.284450 0.835918
O O9 0.285758 0.496255 0.796389
O O10 0.000000 0.473767 0.750000
O O11 0.748281 0.204169 0.542976
O O12 0.045243 0.163218 0.533165
O O13 0.799129 0.066544 0.441647
O O14 0.500000 0.815767 0.250000
O O15 0.421532 0.759255 0.366726
O O16 0.630960 0.597228 0.317155
O O17 0.688918 0.839736 0.374943
O O18 0.500000 0.378799 0.250000
#
# Coordination Sequence:
#
# PCOD8117932 Si02
#       8
#     4   4   4   4   4   4   4   4
#     4  10  19  34  58  88 114 147 200 249 292 351
#     4  10  22  39  59  84 122 163 198 240 301 362
#     4  10  20  35  60  89 112 154 201 249 299 340
#     4   9  21  40  56  83 120 162 203 236 287 364
#     4  11  21  37  60  92 117 150 197 252 304 354
#     4  11  21  35  61  86 116 152 199 248 290 354
#     4  10  20  38  60  86 125 151 192 258 309 357
#     4   9  20  38  60  82 123 158 192 250 297 343
#
# _framework density 19.365614000000001
#
# number of rings (size 3 to 8) (size 9 to 14) (size 15 to 20)
#    0.000    2.000    2.500    3.000    7.000    1.000 
#    0.000    9.375    0.000    0.000    0.000    0.000 
#    0.000    0.000    0.000    0.000    0.000    0.000 
#
# Total GULP energy -396454.218201 kJ/mol
# GULP energy per Si atom -12389.194319 kJ/mol
# Density = 1.932154 g / cm^3
# Si number density = 19.365614 Si / 1000 Ang^3
#
#
#
# Elastic Constant Matrix: (Units=GPa)
#
#
# Indices 1 2 3 4 5 6 
#
# 1 86.8819 37.2020 26.6442 0.0000 -8.1485 0.0000
# 2 37.2020 69.9636 16.9128 0.0000 6.8606 0.0000
# 3 26.6442 16.9128 90.5768 0.0000 -13.5053 0.0000
# 4 0.0000 0.0000 0.0000 32.6792 0.0000 -1.0080
# 5 -8.1485 6.8606 -13.5053 0.0000 33.5545 0.0000
# 6 0.0000 0.0000 0.0000 -1.0080 0.0000 18.9489
#
#
#
# Elastic Compliance Matrix: (Units=1/GPa)
#
#
# Indices 1 2 3 4 5 6 
#
# 1 0.016395 -0.008572 -0.002518 0.000000 0.004721 0.000000
# 2 -0.008572 0.020103 -0.002293 0.000000 -0.007115 0.000000
# 3 -0.002518 -0.002293 0.012966 0.000000 0.005076 0.000000
# 4 0.000000 0.000000 0.000000 0.030651 0.000000 0.001631
# 5 0.004721 -0.007115 0.005076 0.000000 0.034446 0.000000
# 6 0.000000 0.000000 0.000000 0.001631 0.000000 0.052860
#
#
# Mechanical properties :
#
#
# Convention : Reuss Voigt Hill
#
# Bulk Modulus (GPa) = 44.05729 45.43781 44.74755
# Shear Modulus (GPa) = 24.78252 28.14743 26.46497
#
# Velocity S-wave (km/s) = 3.58120 3.81658 3.70076
# Velocity P-wave (km/s) = 6.31661 6.55254 6.43566
#
# Compressibility (1/GPa) = 0.02269772
#
# Stress axis : x y z
#
# Youngs Moduli (GPa) = 60.99268 49.74337 77.12361
#
# Poissons Ratio (x) = 0.42640 0.19423
# Poissons Ratio (y) = 0.52283 0.17685
# Poissons Ratio (z) = 0.15361 0.11406
#
# Static dielectric constant tensor:
#      x y z
#    x 3.763960 0.000000 -0.357670 
#    y 0.000000 3.466650 0.000000 
#    z -0.357670 0.000000 3.698510 
# 
# 
# High freq. dielectric constant tensor:
#      x y z
#    x 1.746950 0.000000 -0.018910 
#    y 0.000000 1.741890 0.000000 
#    z -0.018910 0.000000 1.751560 
# 
# From -- ./inp_files/75725.got.cif
#   From: 2010.06.25/outbox.cif.g09.slc.cpg/sg13_38_cif.got.tgz:75725.got - 2010.06.28 04:50:58.
