data_PCOD8117305
_publ_section_title
;
Structure prediction by ZEFSAII (Michael W. Deem and Ramdas Pophale) SiO2 
 PCOD8117305
Probable space group: P 2/C
;
_chemical_formula_sum "Si O2"
_cell_formula_units_Z 26
_cell_length_a 18.283691
_cell_length_b 9.026075
_cell_length_c 19.389641
_cell_angle_alpha 90.000000
_cell_angle_beta 26.770769
_cell_angle_gamma 90.000000
_cell_volume 1441.292992
_symmetry_space_group_name_H-M "P 2/C"
_symmetry_group_IT_number 13
_symmetry_cell_setting 'monoclinic'
loop_
_space_group_symop_operation_xyz
x,y,z
-x,y,1/2-z
-x,-y,-z
x,-y,1/2+z
loop_
_atom_site_type_symbol
_atom_site_label
_atom_site_fract_x
_atom_site_fract_y
_atom_site_fract_z
Si Si1 0.757335 0.157178 0.697910
Si Si2 0.536598 0.763100 0.145935
Si Si3 0.590678 0.287682 0.960682
Si Si4 0.930370 0.342946 0.081016
Si Si5 0.500000 0.046086 0.250000
Si Si6 0.306859 0.398255 0.102190
Si Si7 0.328616 0.162835 0.273111
O O1 0.629058 0.242752 0.758111
O O2 0.933961 0.217517 0.530544
O O3 0.755742 0.982171 0.687306
O O4 0.719117 0.187697 0.810584
O O5 0.500000 0.680498 0.250000
O O6 0.583972 0.935813 0.122302
O O7 0.682080 0.683193 0.981645
O O8 0.457644 0.347308 0.020260
O O9 0.505601 0.188079 0.090290
O O10 0.685603 0.424887 0.915759
O O11 0.857351 0.354152 0.219657
O O12 0.791112 0.299552 0.142289
O O13 0.000000 0.500000 0.000000
O O14 0.364022 0.145467 0.325472
#
# Coordination Sequence:
#
# PCOD8117305 Si02
#       7
#     4   4   4   4   2   4   4
#     4  10  18  34  56  83 109 142 178 234 288 330
#     4   8  17  34  59  75 107 140 188 230 261 337
#     4   9  17  30  54  81 109 133 187 235 273 323
#     4  11  21  34  55  85 120 144 181 239 289 345
#     4   8  18  38  54  80 106 144 192 226 274 330
#     4   9  17  32  52  84 107 145 183 226 282 324
#     4  10  20  34  57  81 110 149 186 235 284 331
#
# _framework density 18.039359000000001
#
# number of rings (size 3 to 8) (size 9 to 14) (size 15 to 20)
#    0.462    2.154    1.538    0.923    2.154    1.231 
#    1.385    0.769    0.000    2.769    0.000    0.000 
#    0.000    0.000    0.000    0.000    0.000    0.000 
#
# Total GULP energy -322205.462533 kJ/mol
# GULP energy per Si atom -12392.517790 kJ/mol
# Density = 1.799830 g / cm^3
# Si number density = 18.039359 Si / 1000 Ang^3
#
#
#
# Elastic Constant Matrix: (Units=GPa)
#
#
# Indices 1 2 3 4 5 6 
#
# 1 78.8586 38.0588 44.9774 0.0000 13.9672 0.0000
# 2 38.0588 93.0933 47.4779 0.0000 3.4543 0.0000
# 3 44.9774 47.4779 130.6331 0.0000 9.4962 0.0000
# 4 0.0000 0.0000 0.0000 31.6944 0.0000 5.4079
# 5 13.9672 3.4543 9.4962 0.0000 20.1017 0.0000
# 6 0.0000 0.0000 0.0000 5.4079 0.0000 16.8885
#
#
#
# Elastic Compliance Matrix: (Units=1/GPa)
#
#
# Indices 1 2 3 4 5 6 
#
# 1 0.019508 -0.005585 -0.003905 0.000000 -0.010750 0.000000
# 2 -0.005585 0.014785 -0.003674 0.000000 0.003075 0.000000
# 3 -0.003905 -0.003674 0.010451 0.000000 -0.001592 0.000000
# 4 0.000000 0.000000 0.000000 0.033375 0.000000 -0.010687
# 5 -0.010750 0.003075 -0.001592 0.000000 0.057440 0.000000
# 6 0.000000 0.000000 0.000000 -0.010687 0.000000 0.062634
#
#
# Mechanical properties :
#
#
# Convention : Reuss Voigt Hill
#
# Bulk Modulus (GPa) = 54.30420 62.62370 58.46395
# Shear Modulus (GPa) = 21.67707 25.20831 23.44269
#
# Velocity S-wave (km/s) = 3.47025 3.74224 3.60881
# Velocity P-wave (km/s) = 6.79892 7.31183 7.06004
#
# Compressibility (1/GPa) = 0.01841478
#
# Stress axis : x y z
#
# Youngs Moduli (GPa) = 51.26211 67.63723 95.68651
#
# Poissons Ratio (x) = 0.37772 0.37370
# Poissons Ratio (y) = 0.28627 0.35157
# Poissons Ratio (z) = 0.20020 0.24852
#
# Static dielectric constant tensor:
#      x y z
#    x 3.182700 0.000000 0.214170 
#    y 0.000000 3.378610 0.000000 
#    z 0.214170 0.000000 3.441860 
# 
# 
# High freq. dielectric constant tensor:
#      x y z
#    x 1.666540 0.000000 0.013830 
#    y 0.000000 1.700270 0.000000 
#    z 0.013830 0.000000 1.687870 
# 
# From -- ./inp_files/69641.got.cif
#   From: 2010.06.25/outbox.cif.g09.slc.cpg/sg13_35_cif.got.tgz:69641.got - 2010.06.28 04:50:58.
