data_PCOD8117377
_publ_section_title
;
Structure prediction by ZEFSAII (Michael W. Deem and Ramdas Pophale) SiO2 
 PCOD8117377
Probable space group: P 2/C
;
_chemical_formula_sum "Si O2"
_cell_formula_units_Z 24
_cell_length_a 9.128815
_cell_length_b 8.874268
_cell_length_c 16.257295
_cell_angle_alpha 90.000000
_cell_angle_beta 91.349550
_cell_angle_gamma 90.000000
_cell_volume 1316.663357
_symmetry_space_group_name_H-M "P 2/C"
_symmetry_group_IT_number 13
_symmetry_cell_setting 'monoclinic'
loop_
_space_group_symop_operation_xyz
x,y,z
-x,y,1/2-z
-x,-y,-z
x,-y,1/2+z
loop_
_atom_site_type_symbol
_atom_site_label
_atom_site_fract_x
_atom_site_fract_y
_atom_site_fract_z
Si Si1 0.922362 0.252525 0.836283
Si Si2 0.048712 0.754349 0.513238
Si Si3 0.255067 0.998983 0.592900
Si Si4 0.252854 0.503853 0.586324
Si Si5 0.468188 0.749305 0.655399
Si Si6 0.714470 0.245697 0.031004
O O1 0.827572 0.098925 0.839312
O O2 0.816703 0.397829 0.843798
O O3 0.000000 0.261538 0.750000
O O4 0.037658 0.251458 0.913686
O O5 0.124026 0.603591 0.546254
O O6 0.887726 0.764747 0.551565
O O7 0.138573 0.899916 0.541417
O O8 0.334549 0.107924 0.528462
O O9 0.375630 0.899944 0.639952
O O10 0.382044 0.602997 0.624542
O O11 0.322078 0.401952 0.515385
O O12 0.500000 0.728319 0.750000
O O13 0.624418 0.762515 0.613348
#
# Coordination Sequence:
#
# PCOD8117377 Si02
#       6
#     4   4   4   4   4   4
#     4  10  19  33  56  84 105 128 169 222 262 297
#     4   9  18  35  58  79 102 136 174 209 254 313
#     4   9  20  37  54  76 105 139 174 208 255 314
#     4   9  20  37  54  76 105 139 174 208 255 314
#     4  11  23  35  51  77 108 138 174 217 257 297
#     4  10  18  35  56  76 102 140 174 206 254 317
#
# _framework density 18.227893000000002
#
# number of rings (size 3 to 8) (size 9 to 14) (size 15 to 20)
#    0.000    2.667    0.000    5.000    0.000    5.333 
#    0.000    6.667    0.000    0.000    0.000    0.000 
#    0.000    0.000    0.000    0.000    0.000    0.000 
#
# Total GULP energy -297553.091093 kJ/mol
# GULP energy per Si atom -12398.045462 kJ/mol
# Density = 1.818641 g / cm^3
# Si number density = 18.227893 Si / 1000 Ang^3
#
#
#
# Elastic Constant Matrix: (Units=GPa)
#
#
# Indices 1 2 3 4 5 6 
#
# 1 74.7350 22.0000 41.5898 0.0000 -2.9113 0.0000
# 2 22.0000 98.3927 6.7660 0.0000 -1.5231 0.0000
# 3 41.5898 6.7660 73.2901 0.0000 -24.4038 0.0000
# 4 0.0000 0.0000 0.0000 44.4605 0.0000 48.9929
# 5 -2.9113 -1.5231 -24.4038 0.0000 36.9308 0.0000
# 6 0.0000 0.0000 0.0000 48.9929 0.0000 103.4436
#
#
#
# Elastic Compliance Matrix: (Units=1/GPa)
#
#
# Indices 1 2 3 4 5 6 
#
# 1 0.022878 -0.004186 -0.015453 0.000000 -0.008581 0.000000
# 2 -0.004186 0.010996 0.001797 0.000000 0.001311 0.000000
# 3 -0.015453 0.001797 0.028036 0.000000 0.017382 0.000000
# 4 0.000000 0.000000 0.000000 0.047044 0.000000 -0.022281
# 5 -0.008581 0.001311 0.017382 0.000000 0.037941 0.000000
# 6 0.000000 0.000000 0.000000 -0.022281 0.000000 0.020220
#
#
# Mechanical properties :
#
#
# Convention : Reuss Voigt Hill
#
# Bulk Modulus (GPa) = 38.13196 43.01439 40.57318
# Shear Modulus (GPa) = 23.63595 48.70444 36.17020
#
# Velocity S-wave (km/s) = 3.60487 5.17472 4.45942
# Velocity P-wave (km/s) = 6.18803 7.70409 6.98730
#
# Compressibility (1/GPa) = 0.02622472
#
# Stress axis : x y z
#
# Youngs Moduli (GPa) = 43.70953 90.94220 35.66890
#
# Poissons Ratio (x) = 0.38065 0.55121
# Poissons Ratio (y) = 0.18295 -0.06408
# Poissons Ratio (z) = 0.67546 -0.16338
#
# Static dielectric constant tensor:
#      x y z
#    x 3.259790 0.000000 0.015120 
#    y 0.000000 3.776300 0.000000 
#    z 0.015120 0.000000 3.099780 
# 
# 
# High freq. dielectric constant tensor:
#      x y z
#    x 1.702520 0.000000 0.000070 
#    y 0.000000 1.733170 0.000000 
#    z 0.000070 0.000000 1.686590 
# 
# From -- ./inp_files/63356.got.cif
#   From: 2010.06.25/outbox.cif.g09.slc.cpg/sg13_32_cif.got.tgz:63356.got - 2010.06.28 04:50:58.
