data_PCOD8117664
_publ_section_title
;
Structure prediction by ZEFSAII (Michael W. Deem and Ramdas Pophale) SiO2 
 PCOD8117664
Probable space group: P 2/C
;
_chemical_formula_sum "Si O2"
_cell_formula_units_Z 32
_cell_length_a 23.506076
_cell_length_b 12.841692
_cell_length_c 5.329257
_cell_angle_alpha 90.000000
_cell_angle_beta 112.190058
_cell_angle_gamma 90.000000
_cell_volume 1489.532839
_symmetry_space_group_name_H-M "P 2/C"
_symmetry_group_IT_number 13
_symmetry_cell_setting 'monoclinic'
loop_
_space_group_symop_operation_xyz
x,y,z
-x,y,1/2-z
-x,-y,-z
x,-y,1/2+z
loop_
_atom_site_type_symbol
_atom_site_label
_atom_site_fract_x
_atom_site_fract_y
_atom_site_fract_z
Si Si1 0.680198 0.031193 0.511268
Si Si2 0.179404 0.436480 0.627390
Si Si3 0.889310 0.226739 0.089463
Si Si4 0.389309 0.773260 0.589465
Si Si5 0.568093 0.870195 0.350351
Si Si6 0.320592 0.436480 0.872611
Si Si7 0.931907 0.870197 0.149643
Si Si8 0.180197 0.968807 0.011272
O O1 0.669685 0.153218 0.462266
O O2 0.716482 0.017148 0.834158
O O3 0.616661 0.965089 0.460870
O O4 0.166102 0.518463 0.382327
O O5 0.133393 0.342928 0.492974
O O6 0.249998 0.398242 0.750001
O O7 0.925012 0.190255 0.900591
O O8 0.830315 0.153218 0.037739
O O9 0.927712 0.213560 0.411872
O O10 0.425013 0.809741 0.400597
O O11 0.366605 0.657072 0.507029
O O12 0.427710 0.786440 0.911874
O O13 0.500000 0.919769 0.250000
O O14 0.333894 0.481536 0.617670
O O15 0.000000 0.919771 0.250000
O O16 0.883339 0.965090 0.039117
O O17 0.216482 0.982849 0.334164
#
# Coordination Sequence:
#
# PCOD8117664 Si02
#       8
#     4   4   4   4   4   4   4   4
#     4   8  16  27  44  71 104 133 165 201 240 289
#     4  10  21  38  60  80  96 125 174 225 269 310
#     4  10  19  32  52  76 105 134 169 217 259 295
#     4  10  19  32  52  76 105 134 169 217 259 295
#     4  10  19  31  51  79 109 142 175 201 237 300
#     4  10  21  38  60  80  96 125 174 225 269 310
#     4  10  19  31  51  79 109 142 175 201 237 300
#     4   8  16  27  44  71 104 133 165 201 240 289
#
# _framework density 21.483245
#
# number of rings (size 3 to 8) (size 9 to 14) (size 15 to 20)
#    0.000    2.500    0.000    2.250    0.000    9.000 
#    0.000    0.000    0.000   28.500    0.000    0.000 
#    0.000    0.000    0.000    0.000    0.000    0.000 
#
# Total GULP energy -396486.852254 kJ/mol
# GULP energy per Si atom -12390.214133 kJ/mol
# Density = 2.143435 g / cm^3
# Si number density = 21.483245 Si / 1000 Ang^3
#
#
#
# Elastic Constant Matrix: (Units=GPa)
#
#
# Indices 1 2 3 4 5 6 
#
# 1 69.7490 23.4845 28.8897 0.0000 8.0996 0.0000
# 2 23.4845 81.0345 15.0005 0.0000 2.9456 0.0000
# 3 28.8897 15.0005 142.1213 0.0000 -28.2150 0.0000
# 4 0.0000 0.0000 0.0000 113.8854 0.0000 95.5479
# 5 8.0996 2.9456 -28.2150 0.0000 37.9506 0.0000
# 6 0.0000 0.0000 0.0000 95.5479 0.0000 129.1006
#
#
#
# Elastic Compliance Matrix: (Units=1/GPa)
#
#
# Indices 1 2 3 4 5 6 
#
# 1 0.018563 -0.004241 -0.004748 0.000000 -0.007163 0.000000
# 2 -0.004241 0.013729 -0.000726 0.000000 -0.000700 0.000000
# 3 -0.004748 -0.000726 0.009726 0.000000 0.008301 0.000000
# 4 0.000000 0.000000 0.000000 0.023164 0.000000 -0.017144
# 5 -0.007163 -0.000700 0.008301 0.000000 0.034104 0.000000
# 6 0.000000 0.000000 0.000000 -0.017144 0.000000 0.020434
#
#
# Mechanical properties :
#
#
# Convention : Reuss Voigt Hill
#
# Bulk Modulus (GPa) = 44.26872 47.51714 45.89293
# Shear Modulus (GPa) = 34.08790 71.22267 52.65528
#
# Velocity S-wave (km/s) = 3.98769 5.76408 4.95612
# Velocity P-wave (km/s) = 6.46940 8.15265 7.35931
#
# Compressibility (1/GPa) = 0.02258931
#
# Stress axis : x y z
#
# Youngs Moduli (GPa) = 53.87012 72.83722 102.81845
#
# Poissons Ratio (x) = 0.30887 0.48816
# Poissons Ratio (y) = 0.22844 0.07466
# Poissons Ratio (z) = 0.25576 0.05289
#
# Static dielectric constant tensor:
#      x y z
#    x 3.790790 0.000000 -0.290670 
#    y 0.000000 3.500310 0.000000 
#    z -0.290670 0.000000 4.874560 
# 
# 
# High freq. dielectric constant tensor:
#      x y z
#    x 1.848490 0.000000 -0.012370 
#    y 0.000000 1.807060 0.000000 
#    z -0.012370 0.000000 1.899210 
# 
# From -- ./inp_files/7493.got.cif
#   From: 2010.06.25/outbox.cif.g09.slc.cpg/sg13_4_cif.got.tgz:7493.got - 2010.06.28 04:50:58.
