data_PCOD8117347
_publ_section_title
;
Structure prediction by ZEFSAII (Michael W. Deem and Ramdas Pophale) SiO2 
 PCOD8117347
Probable space group: P 2/C
;
_chemical_formula_sum "Si O2"
_cell_formula_units_Z 26
_cell_length_a 8.599479
_cell_length_b 9.026224
_cell_length_c 26.621019
_cell_angle_alpha 90.000000
_cell_angle_beta 41.087374
_cell_angle_gamma 90.000000
_cell_volume 1358.021162
_symmetry_space_group_name_H-M "P 2/C"
_symmetry_group_IT_number 13
_symmetry_cell_setting 'monoclinic'
loop_
_space_group_symop_operation_xyz
x,y,z
-x,y,1/2-z
-x,-y,-z
x,-y,1/2+z
loop_
_atom_site_type_symbol
_atom_site_label
_atom_site_fract_x
_atom_site_fract_y
_atom_site_fract_z
Si Si1 0.439915 0.747358 0.686157
Si Si2 0.500000 0.504348 0.750000
Si Si3 0.000000 0.882723 0.750000
Si Si4 0.801631 0.920983 0.384088
Si Si5 0.500000 0.003711 0.750000
Si Si6 0.274413 0.927676 0.491871
Si Si7 0.869021 0.743026 0.137811
Si Si8 0.898239 0.207346 0.022002
O O1 0.393964 0.605914 0.732068
O O2 0.676979 0.702432 0.598031
O O3 0.222004 0.772075 0.701586
O O4 0.453449 0.900246 0.713725
O O5 0.279261 0.403752 0.818461
O O6 0.964477 0.988765 0.806293
O O7 0.549079 0.880383 0.420821
O O8 0.926136 0.765763 0.369846
O O9 0.777577 0.023948 0.438942
O O10 0.283167 0.106417 0.820595
O O11 0.096595 0.796996 0.518112
O O12 0.221375 0.051505 0.463270
O O13 0.986473 0.719658 0.054920
#
# Coordination Sequence:
#
# PCOD8117347 Si02
#       8
#     4   2   2   4   2   4   4   4
#     4  11  22  38  59  86 118 159 201 244 288 358
#     4  10  26  42  58  80 124 166 202 238 296 356
#     4  12  22  34  58  94 116 154 196 244 298 346
#     4  10  19  32  56  87 126 142 186 248 304 345
#     4  10  18  34  60  86 114 150 194 246 296 336
#     4   9  18  32  53  97 118 142 180 257 306 344
#     4  10  21  39  59  87 118 151 196 251 297 351
#     4  10  19  33  61  85 119 151 203 239 295 354
#
# _framework density 19.145503000000001
#
# number of rings (size 3 to 8) (size 9 to 14) (size 15 to 20)
#    0.000    1.846    3.077    2.769    2.154    0.615 
#    0.000    2.308    0.000    1.846    0.000    0.000 
#    0.000    0.000    0.000    0.000    0.000    0.000 
#
# Total GULP energy -322265.981454 kJ/mol
# GULP energy per Si atom -12394.845441 kJ/mol
# Density = 1.910193 g / cm^3
# Si number density = 19.145503 Si / 1000 Ang^3
#
#
#
# Elastic Constant Matrix: (Units=GPa)
#
#
# Indices 1 2 3 4 5 6 
#
# 1 126.1287 29.4068 45.6089 0.0000 -15.2189 0.0000
# 2 29.4068 71.1979 31.9072 0.0000 0.2895 0.0000
# 3 45.6089 31.9072 117.6190 0.0000 -6.5484 0.0000
# 4 0.0000 0.0000 0.0000 11.6084 0.0000 -6.2034
# 5 -15.2189 0.2895 -6.5484 0.0000 33.5161 0.0000
# 6 0.0000 0.0000 0.0000 -6.2034 0.0000 11.5400
#
#
#
# Elastic Compliance Matrix: (Units=1/GPa)
#
#
# Indices 1 2 3 4 5 6 
#
# 1 0.010152 -0.002899 -0.002924 0.000000 0.004064 0.000000
# 2 -0.002899 0.016850 -0.003567 0.000000 -0.002159 0.000000
# 3 -0.002924 -0.003567 0.010647 0.000000 0.000783 0.000000
# 4 0.000000 0.000000 0.000000 0.120865 0.000000 0.064972
# 5 0.004064 -0.002159 0.000783 0.000000 0.031853 0.000000
# 6 0.000000 0.000000 0.000000 0.064972 0.000000 0.121581
#
#
# Mechanical properties :
#
#
# Convention : Reuss Voigt Hill
#
# Bulk Modulus (GPa) = 52.99716 58.75458 55.87587
# Shear Modulus (GPa) = 14.83596 25.20108 20.01852
#
# Velocity S-wave (km/s) = 2.78673 3.63201 3.23708
# Velocity P-wave (km/s) = 6.17218 6.95297 6.57418
#
# Compressibility (1/GPa) = 0.01886894
#
# Stress axis : x y z
#
# Youngs Moduli (GPa) = 98.50303 59.34668 93.92253
#
# Poissons Ratio (x) = 0.17206 0.27462
# Poissons Ratio (y) = 0.28558 0.33502
# Poissons Ratio (z) = 0.28801 0.21169
#
# Static dielectric constant tensor:
#      x y z
#    x 3.780230 0.000000 -0.204850 
#    y 0.000000 3.061580 0.000000 
#    z -0.204850 0.000000 3.671030 
# 
# 
# High freq. dielectric constant tensor:
#      x y z
#    x 1.755630 0.000000 -0.006700 
#    y 0.000000 1.692490 0.000000 
#    z -0.006700 0.000000 1.764840 
# 
# From -- ./inp_files/63430.got.cif
#   From: 2010.06.25/outbox.cif.g09.slc.cpg/sg13_32_cif.got.tgz:63430.got - 2010.06.28 04:50:58.
