data_PCOD8117880
_publ_section_title
;
Structure prediction by ZEFSAII (Michael W. Deem and Ramdas Pophale) SiO2 
 PCOD8117880
Probable space group: P 2/C
;
_chemical_formula_sum "Si O2"
_cell_formula_units_Z 24
_cell_length_a 18.033853
_cell_length_b 8.976311
_cell_length_c 15.453894
_cell_angle_alpha 90.000000
_cell_angle_beta 28.132781
_cell_angle_gamma 90.000000
_cell_volume 1179.563271
_symmetry_space_group_name_H-M "P 2/C"
_symmetry_group_IT_number 13
_symmetry_cell_setting 'monoclinic'
loop_
_space_group_symop_operation_xyz
x,y,z
-x,y,1/2-z
-x,-y,-z
x,-y,1/2+z
loop_
_atom_site_type_symbol
_atom_site_label
_atom_site_fract_x
_atom_site_fract_y
_atom_site_fract_z
Si Si1 0.190691 0.082743 0.886820
Si Si2 0.798762 0.582080 0.130794
Si Si3 0.182302 0.088095 0.229738
Si Si4 0.679695 0.578142 0.587264
Si Si5 0.170259 0.576930 0.727355
Si Si6 0.185927 0.903217 0.059565
O O1 0.263195 0.248341 0.809927
O O2 0.256660 0.986504 0.738726
O O3 0.004328 0.092494 0.071599
O O4 0.241368 0.004083 0.922825
O O5 0.709501 0.482749 0.152545
O O6 0.758694 0.519577 0.267227
O O7 0.983124 0.574962 0.923116
O O8 0.242226 0.257174 0.159617
O O9 0.238091 0.990910 0.091292
O O10 0.500000 0.552055 0.750000
O O11 0.785960 0.490668 0.409719
O O12 0.720544 0.750964 0.541270
O O13 0.000000 0.870560 0.250000
#
# Coordination Sequence:
#
# PCOD8117880 Si02
#       6
#     4   4   4   4   4   4
#     4   9  17  31  55  86 111 134 175 232 284 326
#     4  10  20  37  63  89 112 143 186 234 282 333
#     4   9  17  31  55  86 111 134 175 232 284 326
#     4  12  25  38  54  80 118 156 189 228 276 334
#     4  10  20  37  63  89 112 143 186 234 282 333
#     4  10  19  34  56  78 106 144 187 232 274 324
#
# _framework density 20.346513999999999
#
# number of rings (size 3 to 8) (size 9 to 14) (size 15 to 20)
#    0.000    2.000    0.000    4.500    0.000    8.667 
#    0.000    3.333    0.000    4.000    0.000    0.000 
#    0.000    0.000    0.000    0.000    0.000    0.000 
#
# Total GULP energy -297675.842261 kJ/mol
# GULP energy per Si atom -12403.160094 kJ/mol
# Density = 2.030020 g / cm^3
# Si number density = 20.346514 Si / 1000 Ang^3
#
#
#
# Elastic Constant Matrix: (Units=GPa)
#
#
# Indices 1 2 3 4 5 6 
#
# 1 98.0251 35.4788 18.9308 0.0000 23.6976 0.0000
# 2 35.4788 151.6266 8.7117 0.0000 10.8492 0.0000
# 3 18.9308 8.7117 12.4623 0.0000 7.5592 0.0000
# 4 0.0000 0.0000 0.0000 14.0084 0.0000 15.5121
# 5 23.6976 10.8492 7.5592 0.0000 26.3215 0.0000
# 6 0.0000 0.0000 0.0000 15.5121 0.0000 38.7266
#
#
#
# Elastic Compliance Matrix: (Units=1/GPa)
#
#
# Indices 1 2 3 4 5 6 
#
# 1 0.016703 -0.002216 -0.018475 0.000000 -0.008819 0.000000
# 2 -0.002216 0.007233 -0.001322 0.000000 -0.000607 0.000000
# 3 -0.018475 -0.001322 0.119655 0.000000 -0.017185 0.000000
# 4 0.000000 0.000000 0.000000 0.128287 0.000000 -0.051386
# 5 -0.008819 -0.000607 -0.017185 0.000000 0.051117 0.000000
# 6 0.000000 0.000000 0.000000 -0.051386 0.000000 0.046405
#
#
# Mechanical properties :
#
#
# Convention : Reuss Voigt Hill
#
# Bulk Modulus (GPa) = 10.04365 43.15073 26.59719
# Shear Modulus (GPa) = 11.19532 29.07748 20.13640
#
# Velocity S-wave (km/s) = 2.34825 3.78446 3.14932
# Velocity P-wave (km/s) = 3.50705 6.35218 5.13077
#
# Compressibility (1/GPa) = 0.09956537
#
# Stress axis : x y z
#
# Youngs Moduli (GPa) = 59.86792 138.25497 8.35737
#
# Poissons Ratio (x) = 0.30636 0.15440
# Poissons Ratio (y) = 0.13266 0.01105
# Poissons Ratio (z) = 1.10606 0.18280
#
# Static dielectric constant tensor:
#      x y z
#    x 3.752880 0.000000 0.318950 
#    y 0.000000 3.976650 0.000000 
#    z 0.318950 0.000000 3.329100 
# 
# 
# High freq. dielectric constant tensor:
#      x y z
#    x 1.797650 0.000000 0.030750 
#    y 0.000000 1.815610 0.000000 
#    z 0.030750 0.000000 1.758610 
# 
# From -- ./inp_files/55179.got.cif
#   From: 2010.06.25/outbox.cif.g09.slc.cpg/sg13_28_cif.got.tgz:55179.got - 2010.06.28 04:50:58.
