data_PCOD8117307
_publ_section_title
;
Structure prediction by ZEFSAII (Michael W. Deem and Ramdas Pophale) SiO2 
 PCOD8117307
Probable space group: P 2/C
;
_chemical_formula_sum "Si O2"
_cell_formula_units_Z 26
_cell_length_a 21.172806
_cell_length_b 8.314929
_cell_length_c 14.724110
_cell_angle_alpha 90.000000
_cell_angle_beta 26.901571
_cell_angle_gamma 90.000000
_cell_volume 1172.857915
_symmetry_space_group_name_H-M "P 2/C"
_symmetry_group_IT_number 13
_symmetry_cell_setting 'monoclinic'
loop_
_space_group_symop_operation_xyz
x,y,z
-x,y,1/2-z
-x,-y,-z
x,-y,1/2+z
loop_
_atom_site_type_symbol
_atom_site_label
_atom_site_fract_x
_atom_site_fract_y
_atom_site_fract_z
Si Si1 0.737145 0.122299 0.548258
Si Si2 0.346264 0.092569 0.487833
Si Si3 0.275205 0.454968 0.616309
Si Si4 0.139426 0.448169 0.119203
Si Si5 0.342850 0.433152 0.211909
Si Si6 0.347727 0.943060 0.675238
Si Si7 0.500000 0.690386 0.250000
O O1 0.858754 0.254246 0.382479
O O2 0.587620 0.200459 0.708958
O O3 0.762639 0.969329 0.449036
O O4 0.746103 0.055857 0.639283
O O5 0.500000 0.076910 0.250000
O O6 0.323173 0.273285 0.546472
O O7 0.314992 0.973499 0.612066
O O8 0.145152 0.487923 0.715740
O O9 0.240956 0.488243 0.765915
O O10 0.399945 0.578688 0.437247
O O11 0.000000 0.513127 0.250000
O O12 0.279582 0.512303 0.889613
O O13 0.333230 0.242127 0.220025
O O14 0.500000 0.500000 0.000000
O O15 0.500000 0.000000 0.500000
#
# Coordination Sequence:
#
# PCOD8117307 Si02
#       7
#     4   4   4   4   4   4   2
#     4  11  21  37  59  88 126 164 211 263 322 382
#     4  12  22  34  58  94 132 167 201 265 337 384
#     4  11  22  39  61  92 130 167 216 265 318 385
#     4  11  26  46  67  91 129 179 224 266 319 385
#     4  12  25  40  68 101 130 170 218 269 331 387
#     4  12  21  35  58  94 134 163 200 262 324 388
#     4  10  18  34  56  92 124 164 200 266 322 378
#
# _framework density 22.168071999999999
#
# number of rings (size 3 to 8) (size 9 to 14) (size 15 to 20)
#    0.000    0.615    3.077    8.308    0.000    0.615 
#    0.000    3.077    0.000    3.692    0.000    0.000 
#    0.000    0.000    0.000    0.000    0.000    0.000 
#
# Total GULP energy -322313.215406 kJ/mol
# GULP energy per Si atom -12396.662131 kJ/mol
# Density = 2.211762 g / cm^3
# Si number density = 22.168072 Si / 1000 Ang^3
#
#
#
# Elastic Constant Matrix: (Units=GPa)
#
#
# Indices 1 2 3 4 5 6 
#
# 1 115.8333 11.5761 16.0265 0.0000 7.8984 0.0000
# 2 11.5761 135.4341 6.7019 0.0000 10.7478 0.0000
# 3 16.0265 6.7019 25.5658 0.0000 -1.3759 0.0000
# 4 0.0000 0.0000 0.0000 14.5556 0.0000 13.9256
# 5 7.8984 10.7478 -1.3759 0.0000 37.1749 0.0000
# 6 0.0000 0.0000 0.0000 13.9256 0.0000 39.1946
#
#
#
# Elastic Compliance Matrix: (Units=1/GPa)
#
#
# Indices 1 2 3 4 5 6 
#
# 1 0.009658 -0.000352 -0.006079 0.000000 -0.002175 0.000000
# 2 -0.000352 0.007684 -0.001913 0.000000 -0.002218 0.000000
# 3 -0.006079 -0.001913 0.043613 0.000000 0.003459 0.000000
# 4 0.000000 0.000000 0.000000 0.104081 0.000000 -0.036980
# 5 -0.002175 -0.002218 0.003459 0.000000 0.028131 0.000000
# 6 0.000000 0.000000 0.000000 -0.036980 0.000000 0.038652
#
#
# Mechanical properties :
#
#
# Convention : Reuss Voigt Hill
#
# Bulk Modulus (GPa) = 22.59016 38.38247 30.48632
# Shear Modulus (GPa) = 18.99235 34.35360 26.67297
#
# Velocity S-wave (km/s) = 2.93019 3.94088 3.47250
# Velocity P-wave (km/s) = 4.65409 6.16922 5.46442
#
# Compressibility (1/GPa) = 0.04426706
#
# Stress axis : x y z
#
# Youngs Moduli (GPa) = 103.54473 130.13350 22.92893
#
# Poissons Ratio (x) = 0.04581 0.13938
# Poissons Ratio (y) = 0.03645 0.04386
# Poissons Ratio (z) = 0.62944 0.24896
#
# Static dielectric constant tensor:
#      x y z
#    x 3.526040 0.000000 -0.369350 
#    y 0.000000 4.301510 0.000000 
#    z -0.369350 0.000000 2.871980 
# 
# 
# High freq. dielectric constant tensor:
#      x y z
#    x 1.888780 0.000000 0.031850 
#    y 0.000000 1.898920 0.000000 
#    z 0.031850 0.000000 1.811300 
# 
# From -- ./inp_files/57186.got.cif
#   From: 2010.06.25/outbox.cif.g09.slc.cpg/sg13_29_cif.got.tgz:57186.got - 2010.06.28 04:50:58.
