data_PCOD8117576
_publ_section_title
;
Structure prediction by ZEFSAII (Michael W. Deem and Ramdas Pophale) SiO2 
 PCOD8117576
Probable space group: P 2/C
;
_chemical_formula_sum "Si O2"
_cell_formula_units_Z 28
_cell_length_a 16.879275
_cell_length_b 8.469754
_cell_length_c 14.689054
_cell_angle_alpha 90.000000
_cell_angle_beta 42.201917
_cell_angle_gamma 90.000000
_cell_volume 1410.662423
_symmetry_space_group_name_H-M "P 2/C"
_symmetry_group_IT_number 13
_symmetry_cell_setting 'monoclinic'
loop_
_space_group_symop_operation_xyz
x,y,z
-x,y,1/2-z
-x,-y,-z
x,-y,1/2+z
loop_
_atom_site_type_symbol
_atom_site_label
_atom_site_fract_x
_atom_site_fract_y
_atom_site_fract_z
Si Si1 0.865532 0.841105 0.948557
Si Si2 0.425091 0.791699 0.900362
Si Si3 0.000000 0.913840 0.250000
Si Si4 0.000000 0.578200 0.750000
Si Si5 0.818898 0.671349 0.337389
Si Si6 0.491231 0.313061 0.989773
Si Si7 0.268747 0.167299 0.750784
Si Si8 0.308851 0.090863 0.063120
O O1 0.799270 0.854487 0.907367
O O2 0.937022 0.676796 0.884167
O O3 0.784748 0.862540 0.104970
O O4 0.963558 0.979113 0.867911
O O5 0.500000 0.743510 0.750000
O O6 0.312661 0.672566 0.006445
O O7 0.514460 0.769294 0.907475
O O8 0.387275 0.975131 0.932660
O O9 0.884298 0.817314 0.326700
O O10 0.104751 0.482727 0.709476
O O11 0.808088 0.701387 0.238221
O O12 0.603679 0.244228 0.839904
O O13 0.500000 0.500000 0.000000
O O14 0.375958 0.253530 0.033262
O O15 0.273252 0.008188 0.684757
#
# Coordination Sequence:
#
# PCOD8117576 Si02
#       8
#     4   4   2   2   4   4   4   4
#     4  11  23  37  64  93 115 162 216 254 310 361
#     4  10  21  38  66  94 118 162 208 251 312 371
#     4  10  18  40  58  90 116 162 206 256 302 352
#     4  10  24  40  62  84 132 166 206 260 310 364
#     4   9  20  41  61  84 130 163 196 260 306 369
#     4  10  23  39  58  87 129 161 198 252 315 375
#     4  10  22  41  62  90 121 162 211 253 312 373
#     4  10  22  39  62  90 129 157 204 269 297 367
#
# _framework density 19.848828999999999
#
# number of rings (size 3 to 8) (size 9 to 14) (size 15 to 20)
#    0.000    2.286    2.857    1.714    8.000    2.286 
#    0.000    1.429    0.000    0.000    0.000    0.000 
#    0.000    0.000    0.000    0.000    0.000    0.000 
#
# Total GULP energy -346887.709776 kJ/mol
# GULP energy per Si atom -12388.846778 kJ/mol
# Density = 1.980365 g / cm^3
# Si number density = 19.848829 Si / 1000 Ang^3
#
#
#
# Elastic Constant Matrix: (Units=GPa)
#
#
# Indices 1 2 3 4 5 6 
#
# 1 71.7819 21.5289 38.0040 0.0000 -3.5833 0.0000
# 2 21.5289 97.9142 39.1302 0.0000 -1.3843 0.0000
# 3 38.0040 39.1302 149.0631 0.0000 17.8910 0.0000
# 4 0.0000 0.0000 0.0000 8.7746 0.0000 13.6899
# 5 -3.5833 -1.3843 17.8910 0.0000 18.8276 0.0000
# 6 0.0000 0.0000 0.0000 13.6899 0.0000 -39.1518
#
#
#
# Elastic Compliance Matrix: (Units=1/GPa)
#
#
# Indices 1 2 3 4 5 6 
#
# 1 0.017466 -0.001755 -0.004939 0.000000 0.007889 0.000000
# 2 -0.001755 0.011882 -0.003089 0.000000 0.003475 0.000000
# 3 -0.004939 -0.003089 0.010067 0.000000 -0.010733 0.000000
# 4 0.000000 0.000000 0.000000 0.073739 0.000000 0.025784
# 5 0.007889 0.003475 -0.010733 0.000000 0.065070 0.000000
# 6 0.000000 0.000000 0.000000 0.025784 0.000000 -0.016526
#
#
# Mechanical properties :
#
#
# Convention : Reuss Voigt Hill
#
# Bulk Modulus (GPa) = 50.37896 57.34282 53.86089
# Shear Modulus (GPa) = 26.61263 12.36314 19.48788
#
# Velocity S-wave (km/s) = 3.66562 2.49843 3.13679
# Velocity P-wave (km/s) = 6.58423 6.10536 6.34931
#
# Compressibility (1/GPa) = 0.01984956
#
# Stress axis : x y z
#
# Youngs Moduli (GPa) = 57.25328 84.15774 99.33513
#
# Poissons Ratio (x) = 0.14769 0.49064
# Poissons Ratio (y) = 0.10048 0.30683
# Poissons Ratio (z) = 0.28279 0.25995
#
# Static dielectric constant tensor:
#      x y z
#    x 3.999160 0.000000 -0.351080 
#    y 0.000000 3.655680 0.000000 
#    z -0.351080 0.000000 3.473210 
# 
# 
# High freq. dielectric constant tensor:
#      x y z
#    x 1.777980 0.000000 -0.019410 
#    y 0.000000 1.773080 0.000000 
#    z -0.019410 0.000000 1.758720 
# 
# From -- ./inp_files/55296.got.cif
#   From: 2010.06.25/outbox.cif.g09.slc.cpg/sg13_28_cif.got.tgz:55296.got - 2010.06.28 04:50:58.
