data_PCOD8117584
_publ_section_title
;
Structure prediction by ZEFSAII (Michael W. Deem and Ramdas Pophale) SiO2 
 PCOD8117584
Probable space group: P 2/C
;
_chemical_formula_sum "Si O2"
_cell_formula_units_Z 28
_cell_length_a 9.090568
_cell_length_b 14.920346
_cell_length_c 12.567793
_cell_angle_alpha 90.000000
_cell_angle_beta 124.669824
_cell_angle_gamma 90.000000
_cell_volume 1401.958434
_symmetry_space_group_name_H-M "P 2/C"
_symmetry_group_IT_number 13
_symmetry_cell_setting 'monoclinic'
loop_
_space_group_symop_operation_xyz
x,y,z
-x,y,1/2-z
-x,-y,-z
x,-y,1/2+z
loop_
_atom_site_type_symbol
_atom_site_label
_atom_site_fract_x
_atom_site_fract_y
_atom_site_fract_z
Si Si1 0.290134 0.928343 0.832273
Si Si2 0.603464 0.412627 0.080685
Si Si3 0.665741 0.116429 0.581870
Si Si4 0.111820 0.198040 0.416900
Si Si5 0.000000 0.364408 0.250000
Si Si6 0.770247 0.164244 0.394773
Si Si7 0.523836 0.739491 0.378027
Si Si8 0.500000 0.680351 0.750000
O O1 0.140530 0.859456 0.818203
O O2 0.329240 0.906792 0.724186
O O3 0.233086 0.032648 0.821035
O O4 0.467382 0.911710 0.970837
O O5 0.518750 0.383193 0.156689
O O6 0.819649 0.425567 0.186580
O O7 0.500000 0.500000 0.000000
O O8 0.560280 0.338383 0.976139
O O9 0.772090 0.141035 0.519190
O O10 0.648071 0.201468 0.654540
O O11 0.036683 0.298093 0.363933
O O12 0.300539 0.198782 0.554808
O O13 0.975910 0.155125 0.444225
O O14 0.677935 0.260109 0.336536
O O15 0.500000 0.699523 0.250000
#
# Coordination Sequence:
#
# PCOD8117584 Si02
#       8
#     4   4   4   4   2   4   4   2
#     4  10  19  32  52  87 121 159 210 264 291 365
#     4  11  24  41  70 102 122 161 217 266 325 391
#     4  10  21  33  55  85 120 164 212 249 320 356
#     4  10  19  35  63  90 116 168 217 253 311 375
#     4  10  18  40  66  94 126 162 212 260 318 392
#     4  12  18  36  61  88 117 163 217 263 303 369
#     4  10  22  43  61  85 129 170 200 255 332 393
#     4  12  20  40  68  94 126 164 208 266 306 390
#
# _framework density 19.972061
#
# number of rings (size 3 to 8) (size 9 to 14) (size 15 to 20)
#    0.000    1.429    5.714    0.857    1.000    4.000 
#    0.000    4.286    0.000    0.000    0.000    0.000 
#    0.000    0.000    0.000    0.000    0.000    0.000 
#
# Total GULP energy -346950.859147 kJ/mol
# GULP energy per Si atom -12391.102112 kJ/mol
# Density = 1.992660 g / cm^3
# Si number density = 19.972061 Si / 1000 Ang^3
#
#
#
# Elastic Constant Matrix: (Units=GPa)
#
#
# Indices 1 2 3 4 5 6 
#
# 1 130.5454 54.0191 47.5936 0.0000 -17.4450 0.0000
# 2 54.0191 97.1357 36.2816 0.0000 -7.6438 0.0000
# 3 47.5936 36.2816 86.1434 0.0000 -26.9913 0.0000
# 4 0.0000 0.0000 0.0000 26.5018 0.0000 -5.2925
# 5 -17.4450 -7.6438 -26.9913 0.0000 39.3161 0.0000
# 6 0.0000 0.0000 0.0000 -5.2925 0.0000 22.0533
#
#
#
# Elastic Compliance Matrix: (Units=1/GPa)
#
#
# Indices 1 2 3 4 5 6 
#
# 1 0.011160 -0.004699 -0.003722 0.000000 0.001483 0.000000
# 2 -0.004699 0.014263 -0.004071 0.000000 -0.002107 0.000000
# 3 -0.003722 -0.004071 0.018619 0.000000 0.010340 0.000000
# 4 0.000000 0.000000 0.000000 0.039633 0.000000 0.009511
# 5 0.001483 -0.002107 0.010340 0.000000 0.032782 0.000000
# 6 0.000000 0.000000 0.000000 0.009511 0.000000 0.047627
#
#
# Mechanical properties :
#
#
# Convention : Reuss Voigt Hill
#
# Bulk Modulus (GPa) = 52.47273 65.51257 58.99265
# Shear Modulus (GPa) = 25.58585 29.30293 27.44439
#
# Velocity S-wave (km/s) = 3.58310 3.83455 3.71096
# Velocity P-wave (km/s) = 6.59153 7.24420 6.92556
#
# Compressibility (1/GPa) = 0.01905752
#
# Stress axis : x y z
#
# Youngs Moduli (GPa) = 89.60747 70.11105 53.70814
#
# Poissons Ratio (x) = 0.32948 0.19989
# Poissons Ratio (y) = 0.42110 0.21865
# Poissons Ratio (z) = 0.33350 0.28543
#
# Static dielectric constant tensor:
#      x y z
#    x 3.800680 0.000000 0.014710 
#    y 0.000000 3.674290 0.000000 
#    z 0.014710 0.000000 3.521500 
# 
# 
# High freq. dielectric constant tensor:
#      x y z
#    x 1.792760 0.000000 -0.002600 
#    y 0.000000 1.750320 0.000000 
#    z -0.002600 0.000000 1.768070 
# 
# From -- ./inp_files/30525.got.cif
#   From: 2010.06.25/outbox.cif.g09.slc.cpg/sg13_16_cif.got.tgz:30525.got - 2010.06.28 04:50:58.
