data_PCOD8117456
_publ_section_title
;
Structure prediction by ZEFSAII (Michael W. Deem and Ramdas Pophale) SiO2 
 PCOD8117456
Probable space group: P 2/C
;
_chemical_formula_sum "Si O2"
_cell_formula_units_Z 32
_cell_length_a 9.335956
_cell_length_b 14.151340
_cell_length_c 23.178242
_cell_angle_alpha 90.000000
_cell_angle_beta 150.046013
_cell_angle_gamma 90.000000
_cell_volume 1528.981415
_symmetry_space_group_name_H-M "P 2/C"
_symmetry_group_IT_number 13
_symmetry_cell_setting 'monoclinic'
loop_
_space_group_symop_operation_xyz
x,y,z
-x,y,1/2-z
-x,-y,-z
x,-y,1/2+z
loop_
_atom_site_type_symbol
_atom_site_label
_atom_site_fract_x
_atom_site_fract_y
_atom_site_fract_z
Si Si1 0.499753 0.372870 0.682155
Si Si2 0.708770 0.252545 0.175988
Si Si3 0.356012 0.163120 0.762310
Si Si4 0.898805 0.641518 0.914654
Si Si5 0.615595 0.071290 0.962577
Si Si6 0.216660 0.837613 0.676000
Si Si7 0.326935 0.430749 0.274285
Si Si8 0.311027 0.869734 0.467445
O O1 0.500000 0.392404 0.750000
O O2 0.636087 0.271969 0.714073
O O3 0.680716 0.457151 0.714534
O O4 0.177089 0.380058 0.548279
O O5 0.682348 0.207092 0.229131
O O6 0.716595 0.367172 0.183611
O O7 0.000000 0.213961 0.250000
O O8 0.438884 0.223123 0.042552
O O9 0.500000 0.151840 0.750000
O O10 0.527196 0.097709 0.866937
O O11 0.029539 0.130515 0.647321
O O12 0.867150 0.754482 0.897731
O O13 0.920898 0.594705 0.858733
O O14 0.634733 0.596794 0.855952
O O15 0.416914 0.129202 0.938066
O O16 0.951945 0.091542 0.090654
O O17 0.565001 0.960330 0.955031
O O18 0.500000 0.891567 0.750000
#
# Coordination Sequence:
#
# PCOD8117456 Si02
#       8
#     4   4   4   4   4   4   4   4
#     4  11  22  35  61  95 135 170 213 271 332 403
#     4  11  23  41  65  97 129 166 231 273 326 389
#     4  11  27  43  67 105 136 170 219 277 339 386
#     4  10  18  36  58  92 123 165 216 264 329 380
#     4  11  25  48  68  94 134 175 227 263 337 414
#     4  11  21  39  69  95 127 169 213 279 334 383
#     4  10  21  35  62  91 125 175 218 267 322 394
#     4  11  27  45  72  93 130 185 218 273 330 409
#
# _framework density 20.928967
#
# number of rings (size 3 to 8) (size 9 to 14) (size 15 to 20)
#    0.000    1.250    6.250    0.750    7.000    1.000 
#    0.000    1.250    0.000    3.000    0.000    0.000 
#    0.000    0.000    0.000    0.000    0.000    0.000 
#
# Total GULP energy -396814.296001 kJ/mol
# GULP energy per Si atom -12400.446750 kJ/mol
# Density = 2.088133 g / cm^3
# Si number density = 20.928967 Si / 1000 Ang^3
#
#
#
# Elastic Constant Matrix: (Units=GPa)
#
#
# Indices 1 2 3 4 5 6 
#
# 1 99.0548 30.3917 43.3305 0.0000 6.6335 0.0000
# 2 30.3917 83.7482 26.3913 0.0000 -12.2617 0.0000
# 3 43.3305 26.3913 125.7029 0.0000 -4.6900 0.0000
# 4 0.0000 0.0000 0.0000 21.8383 0.0000 2.1879
# 5 6.6335 -12.2617 -4.6900 0.0000 35.8406 0.0000
# 6 0.0000 0.0000 0.0000 2.1879 0.0000 27.8095
#
#
#
# Elastic Compliance Matrix: (Units=1/GPa)
#
#
# Indices 1 2 3 4 5 6 
#
# 1 0.013413 -0.004295 -0.003888 0.000000 -0.004461 0.000000
# 2 -0.004295 0.014773 -0.001410 0.000000 0.005665 0.000000
# 3 -0.003888 -0.001410 0.009647 0.000000 0.001500 0.000000
# 4 0.000000 0.000000 0.000000 0.046155 0.000000 -0.003631
# 5 -0.004461 0.005665 0.001500 0.000000 0.030861 0.000000
# 6 0.000000 0.000000 0.000000 -0.003631 0.000000 0.036245
#
#
# Mechanical properties :
#
#
# Convention : Reuss Voigt Hill
#
# Bulk Modulus (GPa) = 53.62768 56.52590 55.07679
# Shear Modulus (GPa) = 28.32934 30.99051 29.65992
#
# Velocity S-wave (km/s) = 3.68311 3.85222 3.76862
# Velocity P-wave (km/s) = 6.61562 6.84494 6.73126
#
# Compressibility (1/GPa) = 0.01864709
#
# Stress axis : x y z
#
# Youngs Moduli (GPa) = 74.55540 67.69170 103.65459
#
# Poissons Ratio (x) = 0.29076 0.40302
# Poissons Ratio (y) = 0.32024 0.14611
# Poissons Ratio (z) = 0.28988 0.09542
#
# Static dielectric constant tensor:
#      x y z
#    x 3.717340 0.000000 -0.078620 
#    y 0.000000 4.063600 0.000000 
#    z -0.078620 0.000000 3.767880 
# 
# 
# High freq. dielectric constant tensor:
#      x y z
#    x 1.802560 0.000000 -0.005190 
#    y 0.000000 1.820080 0.000000 
#    z -0.005190 0.000000 1.823290 
# 
# From -- ./inp_files/85339.got.cif
#   From: 2010.06.25/outbox.cif.g09.slc.cpg/sg13_43_cif.got.tgz:85339.got - 2010.06.28 04:50:58.
