data_PCOD8117864
_publ_section_title
;
Structure prediction by ZEFSAII (Michael W. Deem and Ramdas Pophale) SiO2 
 PCOD8117864
Probable space group: P 2/C
;
_chemical_formula_sum "Si O2"
_cell_formula_units_Z 30
_cell_length_a 24.854859
_cell_length_b 11.720596
_cell_length_c 9.045231
_cell_angle_alpha 90.000000
_cell_angle_beta 38.975764
_cell_angle_gamma 90.000000
_cell_volume 1657.393040
_symmetry_space_group_name_H-M "P 2/C"
_symmetry_group_IT_number 13
_symmetry_cell_setting 'monoclinic'
loop_
_space_group_symop_operation_xyz
x,y,z
-x,y,1/2-z
-x,-y,-z
x,-y,1/2+z
loop_
_atom_site_type_symbol
_atom_site_label
_atom_site_fract_x
_atom_site_fract_y
_atom_site_fract_z
Si Si1 0.255628 0.718093 0.370618
Si Si2 0.315635 0.582669 0.811690
Si Si3 0.891347 0.128221 0.343934
Si Si4 0.000000 0.317846 0.250000
Si Si5 0.165632 0.455693 0.856175
Si Si6 0.091772 0.895762 0.027195
Si Si7 0.782573 0.299367 0.210471
Si Si8 0.400765 0.613045 0.931300
O O1 0.204637 0.827563 0.419746
O O2 0.209269 0.605581 0.403212
O O3 0.260435 0.713217 0.537186
O O4 0.352239 0.724981 0.099489
O O5 0.291535 0.689372 0.756151
O O6 0.386770 0.608527 0.784280
O O7 0.356668 0.490712 0.613618
O O8 0.227287 0.548721 0.081817
O O9 0.957867 0.233574 0.218823
O O10 0.908907 0.023143 0.410593
O O11 0.894929 0.083395 0.172156
O O12 0.927028 0.398457 0.479877
O O13 0.155966 0.588845 0.920705
O O14 0.000000 0.837897 0.250000
O O15 0.162615 0.812803 0.946449
O O16 0.500000 0.620843 0.750000
#
# Coordination Sequence:
#
# PCOD8117864 Si02
#       8
#     4   4   4   2   4   4   4   4
#     4   9  19  38  53  76 112 145 178 228 275 333
#     4  11  20  34  54  77 118 150 177 220 272 341
#     4  10  22  39  54  75 108 148 191 240 279 315
#     4  10  22  34  56  76 110 152 194 234 280 312
#     4  10  19  34  54  74 112 153 182 224 274 325
#     4  11  24  36  55  79 108 145 198 244 266 313
#     4  11  20  35  53  79 110 148 185 227 273 326
#     4  11  20  34  57  86 111 145 180 223 277 337
#
# _framework density 18.100715000000001
#
# number of rings (size 3 to 8) (size 9 to 14) (size 15 to 20)
#    0.000    1.600    4.667    0.800    2.800    2.133 
#    0.000    2.667    0.000    0.000    0.000    9.333 
#    0.000    0.000    0.000    0.000    0.000    0.000 
#
# Total GULP energy -371679.167654 kJ/mol
# GULP energy per Si atom -12389.305588 kJ/mol
# Density = 1.805952 g / cm^3
# Si number density = 18.100715 Si / 1000 Ang^3
#
#
#
# Elastic Constant Matrix: (Units=GPa)
#
#
# Indices 1 2 3 4 5 6 
#
# 1 131.1198 35.9367 54.2559 0.0000 -5.7845 0.0000
# 2 35.9367 68.1188 29.9877 0.0000 -6.8735 0.0000
# 3 54.2559 29.9877 84.4471 0.0000 -21.8990 0.0000
# 4 0.0000 0.0000 0.0000 21.8491 0.0000 -11.3435
# 5 -5.7845 -6.8735 -21.8990 0.0000 24.0591 0.0000
# 6 0.0000 0.0000 0.0000 -11.3435 0.0000 55.0069
#
#
#
# Elastic Compliance Matrix: (Units=1/GPa)
#
#
# Indices 1 2 3 4 5 6 
#
# 1 0.011374 -0.003221 -0.007452 0.000000 -0.004969 0.000000
# 2 -0.003221 0.018326 -0.004295 0.000000 0.000552 0.000000
# 3 -0.007452 -0.004295 0.022739 0.000000 0.017679 0.000000
# 4 0.000000 0.000000 0.000000 0.051256 0.000000 0.010570
# 5 -0.004969 0.000552 0.017679 0.000000 0.056619 0.000000
# 6 0.000000 0.000000 0.000000 0.010570 0.000000 0.020359
#
#
# Mechanical properties :
#
#
# Convention : Reuss Voigt Hill
#
# Bulk Modulus (GPa) = 44.43955 58.22736 51.33346
# Shear Modulus (GPa) = 22.92404 31.08338 27.00371
#
# Velocity S-wave (km/s) = 3.56261 4.14846 3.86665
# Velocity P-wave (km/s) = 6.44418 7.42864 6.95386
#
# Compressibility (1/GPa) = 0.02250248
#
# Stress axis : x y z
#
# Youngs Moduli (GPa) = 87.92091 54.56714 43.97644
#
# Poissons Ratio (x) = 0.17577 0.32772
# Poissons Ratio (y) = 0.28320 0.18889
# Poissons Ratio (z) = 0.65520 0.23437
#
# Static dielectric constant tensor:
#      x y z
#    x 3.633220 0.000000 -0.297370 
#    y 0.000000 3.282300 0.000000 
#    z -0.297370 0.000000 4.079620 
# 
# 
# High freq. dielectric constant tensor:
#      x y z
#    x 1.708700 0.000000 0.015310 
#    y 0.000000 1.676870 0.000000 
#    z 0.015310 0.000000 1.691820 
# 
# From -- ./inp_files/24138.got.cif
#   From: 2010.06.25/outbox.cif.g09.slc.cpg/sg13_13_cif.got.tgz:24138.got - 2010.06.28 04:50:58.
