data_PCOD8117225
_publ_section_title
;
Structure prediction by ZEFSAII (Michael W. Deem and Ramdas Pophale) SiO2 
 PCOD8117225
Probable space group: P 2/C
;
_chemical_formula_sum "Si O2"
_cell_formula_units_Z 32
_cell_length_a 11.781687
_cell_length_b 20.418404
_cell_length_c 8.906536
_cell_angle_alpha 90.000000
_cell_angle_beta 123.494349
_cell_angle_gamma 90.000000
_cell_volume 1786.788049
_symmetry_space_group_name_H-M "P 2/C"
_symmetry_group_IT_number 13
_symmetry_cell_setting 'monoclinic'
loop_
_space_group_symop_operation_xyz
x,y,z
-x,y,1/2-z
-x,-y,-z
x,-y,1/2+z
loop_
_atom_site_type_symbol
_atom_site_label
_atom_site_fract_x
_atom_site_fract_y
_atom_site_fract_z
Si Si1 0.823538 0.946728 0.255696
Si Si2 0.153698 0.330098 0.335714
Si Si3 0.854015 0.188049 0.220612
Si Si4 0.369922 0.427154 0.850165
Si Si5 0.640347 0.704440 0.263359
Si Si6 0.326146 0.449429 0.470260
Si Si7 0.868712 0.923822 0.949260
Si Si8 0.351218 0.847739 0.189695
O O1 0.802900 0.937577 0.062970
O O2 0.708454 0.904279 0.250909
O O3 0.969104 0.923792 0.420455
O O4 0.810082 0.023065 0.288591
O O5 0.157871 0.264304 0.236014
O O6 0.225767 0.306006 0.539831
O O7 0.228311 0.394355 0.323908
O O8 0.000000 0.352352 0.250000
O O9 0.832049 0.147179 0.357239
O O10 0.000000 0.174088 0.250000
O O11 0.736669 0.165893 0.021691
O O12 0.344475 0.349134 0.860331
O O13 0.326741 0.443200 0.648622
O O14 0.282305 0.475908 0.892872
O O15 0.528096 0.438367 0.998142
O O16 0.500000 0.687115 0.250000
O O17 0.636946 0.779613 0.205445
O O18 0.500000 0.871649 0.250000
#
# Coordination Sequence:
#
# PCOD8117225 Si02
#       8
#     4   4   4   4   4   4   4   4
#     4  10  20  35  54  83 106 138 177 216 265 306
#     4   9  17  28  47  74 101 128 166 211 251 304
#     4  10  18  33  55  79 104 137 180 214 257 312
#     4   9  15  28  49  69  94 125 171 207 240 297
#     4   9  15  30  49  71  98 132 168 205 248 307
#     4   9  16  28  46  71  95 126 166 207 248 292
#     4  10  20  34  58  78 107 137 179 223 250 312
#     4  10  20  33  55  81 109 138 174 218 266 316
#
# _framework density 17.909230999999998
#
# number of rings (size 3 to 8) (size 9 to 14) (size 15 to 20)
#    0.000    2.500    3.750    0.750    1.750    0.000 
#    0.000    6.875    0.000    0.000    3.250    0.000 
#    0.000    0.000    0.000    0.000    0.000    0.000 
#
# Total GULP energy -396453.339055 kJ/mol
# GULP energy per Si atom -12389.166845 kJ/mol
# Density = 1.786847 g / cm^3
# Si number density = 17.909231 Si / 1000 Ang^3
#
#
#
# Elastic Constant Matrix: (Units=GPa)
#
#
# Indices 1 2 3 4 5 6 
#
# 1 79.9376 50.6007 36.4674 0.0000 9.2653 0.0000
# 2 50.6007 147.9264 41.2607 0.0000 -5.7989 0.0000
# 3 36.4674 41.2607 56.5050 0.0000 4.1807 0.0000
# 4 0.0000 0.0000 0.0000 26.4848 0.0000 -5.4095
# 5 9.2653 -5.7989 4.1807 0.0000 22.9158 0.0000
# 6 0.0000 0.0000 0.0000 -5.4095 0.0000 33.0953
#
#
#
# Elastic Compliance Matrix: (Units=1/GPa)
#
#
# Indices 1 2 3 4 5 6 
#
# 1 0.020690 -0.004803 -0.009262 0.000000 -0.007891 0.000000
# 2 -0.004803 0.009862 -0.004490 0.000000 0.005257 0.000000
# 3 -0.009262 -0.004490 0.027127 0.000000 -0.002340 0.000000
# 4 0.000000 0.000000 0.000000 0.039062 0.000000 0.006385
# 5 -0.007891 0.005257 -0.002340 0.000000 0.048586 0.000000
# 6 0.000000 0.000000 0.000000 0.006385 0.000000 0.031259
#
#
# Mechanical properties :
#
#
# Convention : Reuss Voigt Hill
#
# Bulk Modulus (GPa) = 48.61854 60.11408 54.36631
# Shear Modulus (GPa) = 22.67040 26.90186 24.78613
#
# Velocity S-wave (km/s) = 3.56174 3.87993 3.72423
# Velocity P-wave (km/s) = 6.64235 7.32875 6.99398
#
# Compressibility (1/GPa) = 0.02056828
#
# Stress axis : x y z
#
# Youngs Moduli (GPa) = 48.33209 101.40259 36.86401
#
# Poissons Ratio (x) = 0.48708 0.34142
# Poissons Ratio (y) = 0.23216 0.16552
# Poissons Ratio (z) = 0.44764 0.45530
#
# Static dielectric constant tensor:
#      x y z
#    x 3.051540 0.000000 0.193110 
#    y 0.000000 3.851530 0.000000 
#    z 0.193110 0.000000 3.182170 
# 
# 
# High freq. dielectric constant tensor:
#      x y z
#    x 1.652810 0.000000 0.025170 
#    y 0.000000 1.717640 0.000000 
#    z 0.025170 0.000000 1.668350 
# 
# From -- ./inp_files/17237.got.cif
#   From: 2010.06.25/outbox.cif.g09.slc.cpg/sg13_9_cif.got.tgz:17237.got - 2010.06.28 04:50:58.
