data_PCOD8117869
_publ_section_title
;
Structure prediction by ZEFSAII (Michael W. Deem and Ramdas Pophale) SiO2 
 PCOD8117869
Probable space group: P 2/C
;
_chemical_formula_sum "Si O2"
_cell_formula_units_Z 24
_cell_length_a 20.402468
_cell_length_b 6.965789
_cell_length_c 21.032697
_cell_angle_alpha 90.000000
_cell_angle_beta 155.107577
_cell_angle_gamma 90.000000
_cell_volume 1258.181441
_symmetry_space_group_name_H-M "P 2/C"
_symmetry_group_IT_number 13
_symmetry_cell_setting 'monoclinic'
loop_
_space_group_symop_operation_xyz
x,y,z
-x,y,1/2-z
-x,-y,-z
x,-y,1/2+z
loop_
_atom_site_type_symbol
_atom_site_label
_atom_site_fract_x
_atom_site_fract_y
_atom_site_fract_z
Si Si1 0.415389 0.489089 0.824314
Si Si2 0.861129 0.536957 0.508453
Si Si3 0.555942 0.784107 0.547578
Si Si4 0.286421 0.546815 0.987747
Si Si5 0.140273 0.187765 0.262420
Si Si6 0.076336 0.221748 0.751964
O O1 0.239635 0.481691 0.644005
O O2 0.449442 0.695647 0.886382
O O3 0.530557 0.450951 0.866305
O O4 0.436470 0.326803 0.896399
O O5 0.743483 0.562345 0.463928
O O6 0.973822 0.719877 0.598463
O O7 0.958416 0.343296 0.604732
O O8 0.733067 0.760726 0.679521
O O9 0.500000 0.000000 0.500000
O O10 0.197465 0.729502 0.880106
O O11 0.221991 0.353461 0.898623
O O12 0.128788 0.958592 0.256616
O O13 0.000000 0.147336 0.750000
#
# Coordination Sequence:
#
# PCOD8117869 Si02
#       6
#     4   4   4   4   4   4
#     4  10  21  37  55  77 105 136 176 220 260 310
#     4  10  20  33  54  84 108 131 168 219 273 311
#     4  10  22  39  56  72 100 146 186 214 253 309
#     4   9  18  34  56  79 106 138 170 210 263 319
#     4  10  19  34  55  77 107 141 175 214 256 312
#     4   9  17  31  52  77 106 137 169 209 261 317
#
# _framework density 19.075149
#
# number of rings (size 3 to 8) (size 9 to 14) (size 15 to 20)
#    0.000    2.333    0.000    4.000    0.000    3.333 
#    0.000    1.667    0.000    6.000    0.000    0.000 
#    0.000    0.000    0.000    0.000    0.000    0.000 
#
# Total GULP energy -297623.348433 kJ/mol
# GULP energy per Si atom -12400.972851 kJ/mol
# Density = 1.903173 g / cm^3
# Si number density = 19.075149 Si / 1000 Ang^3
#
#
#
# Elastic Constant Matrix: (Units=GPa)
#
#
# Indices 1 2 3 4 5 6 
#
# 1 55.9832 20.0243 26.7874 0.0000 -7.1212 0.0000
# 2 20.0243 114.6987 36.3278 0.0000 -6.5009 0.0000
# 3 26.7874 36.3278 116.2319 0.0000 -13.6096 0.0000
# 4 0.0000 0.0000 0.0000 12.6870 0.0000 6.5086
# 5 -7.1212 -6.5009 -13.6096 0.0000 17.8406 0.0000
# 6 0.0000 0.0000 0.0000 6.5086 0.0000 23.8805
#
#
#
# Elastic Compliance Matrix: (Units=1/GPa)
#
#
# Indices 1 2 3 4 5 6 
#
# 1 0.020992 -0.002262 -0.003565 0.000000 0.004836 0.000000
# 2 -0.002262 0.009949 -0.002492 0.000000 0.000821 0.000000
# 3 -0.003565 -0.002492 0.010905 0.000000 0.005988 0.000000
# 4 0.000000 0.000000 0.000000 0.091633 0.000000 -0.024975
# 5 0.004836 0.000821 0.005988 0.000000 0.062849 0.000000
# 6 0.000000 0.000000 0.000000 -0.024975 0.000000 0.048682
#
#
# Mechanical properties :
#
#
# Convention : Reuss Voigt Hill
#
# Bulk Modulus (GPa) = 39.66813 50.35474 45.01143
# Shear Modulus (GPa) = 18.51497 24.46657 21.49077
#
# Velocity S-wave (km/s) = 3.11888 3.58528 3.36018
# Velocity P-wave (km/s) = 5.81470 6.60261 6.22114
#
# Compressibility (1/GPa) = 0.02520916
#
# Stress axis : x y z
#
# Youngs Moduli (GPa) = 47.63637 100.51020 91.70016
#
# Poissons Ratio (x) = 0.22733 0.32690
# Poissons Ratio (y) = 0.10774 0.22853
# Poissons Ratio (z) = 0.16982 0.25049
#
# Static dielectric constant tensor:
#      x y z
#    x 3.504490 0.000000 0.165420 
#    y 0.000000 3.412280 0.000000 
#    z 0.165420 0.000000 3.334390 
# 
# 
# High freq. dielectric constant tensor:
#      x y z
#    x 1.740510 0.000000 0.013790 
#    y 0.000000 1.739330 0.000000 
#    z 0.013790 0.000000 1.733390 
# 
# From -- ./inp_files/81405.got.cif
#   From: 2010.06.25/outbox.cif.g09.slc.cpg/sg13_41_cif.got.tgz:81405.got - 2010.06.28 04:50:58.
