data_PCOD8117587
_publ_section_title
;
Structure prediction by ZEFSAII (Michael W. Deem and Ramdas Pophale) SiO2 
 PCOD8117587
Probable space group: P 2/C
;
_chemical_formula_sum "Si O2"
_cell_formula_units_Z 24
_cell_length_a 9.141282
_cell_length_b 14.307051
_cell_length_c 15.733182
_cell_angle_alpha 90.000000
_cell_angle_beta 145.222939
_cell_angle_gamma 90.000000
_cell_volume 1173.658413
_symmetry_space_group_name_H-M "P 2/C"
_symmetry_group_IT_number 13
_symmetry_cell_setting 'monoclinic'
loop_
_space_group_symop_operation_xyz
x,y,z
-x,y,1/2-z
-x,-y,-z
x,-y,1/2+z
loop_
_atom_site_type_symbol
_atom_site_label
_atom_site_fract_x
_atom_site_fract_y
_atom_site_fract_z
Si Si1 0.249484 0.411444 0.187350
Si Si2 0.228726 0.381970 0.659976
Si Si3 0.000000 0.892770 0.750000
Si Si4 0.099831 0.028247 0.955854
Si Si5 0.961193 0.223796 0.633590
Si Si6 0.639927 0.767027 0.677914
Si Si7 0.500000 0.885104 0.750000
O O1 0.500000 0.390109 0.250000
O O2 0.259933 0.518732 0.224555
O O3 0.251536 0.338862 0.267438
O O4 0.982890 0.394027 0.013147
O O5 0.500000 0.351962 0.750000
O O6 0.146187 0.301915 0.684438
O O7 0.760842 0.825412 0.657909
O O8 0.917378 0.953152 0.628157
O O9 0.950025 0.121565 0.855991
O O10 0.394874 0.053198 0.120290
O O11 0.000000 0.000000 0.000000
O O12 0.665290 0.240132 0.471928
O O13 0.000000 0.229252 0.750000
O O14 0.709710 0.819086 0.801680
#
# Coordination Sequence:
#
# PCOD8117587 Si02
#       7
#     4   4   2   4   4   4   2
#     4  10  18  40  71  94 130 177 224 278 335 409
#     4  10  22  38  68 102 127 172 234 275 331 409
#     4  12  26  40  68 108 126 174 242 282 336 418
#     4  11  23  43  65  96 133 177 227 284 339 405
#     4  11  24  44  62  94 139 179 213 285 355 394
#     4  11  22  41  67  93 131 178 229 273 340 417
#     4  10  20  38  70  88 126 186 218 266 356 402
#
# _framework density 20.448879999999999
#
# number of rings (size 3 to 8) (size 9 to 14) (size 15 to 20)
#    0.000    1.333    5.000    1.000    0.000    5.333 
#    3.000    0.833    0.000    0.000    0.000    0.000 
#    0.000    0.000    0.000    0.000    0.000    0.000 
#
# Total GULP energy -297342.452032 kJ/mol
# GULP energy per Si atom -12389.268835 kJ/mol
# Density = 2.040234 g / cm^3
# Si number density = 20.448880 Si / 1000 Ang^3
#
#
#
# Elastic Constant Matrix: (Units=GPa)
#
#
# Indices 1 2 3 4 5 6 
#
# 1 130.5586 93.7565 55.4764 0.0000 -7.8864 0.0000
# 2 93.7565 182.5811 53.1978 0.0000 -11.4358 0.0000
# 3 55.4764 53.1978 79.7969 0.0000 5.6443 0.0000
# 4 0.0000 0.0000 0.0000 25.5736 0.0000 -1.6357
# 5 -7.8864 -11.4358 5.6443 0.0000 32.2422 0.0000
# 6 0.0000 0.0000 0.0000 -1.6357 0.0000 46.7297
#
#
#
# Elastic Compliance Matrix: (Units=1/GPa)
#
#
# Indices 1 2 3 4 5 6 
#
# 1 0.014511 -0.005305 -0.006753 0.000000 0.002850 0.000000
# 2 -0.005305 0.009090 -0.002539 0.000000 0.002371 0.000000
# 3 -0.006753 -0.002539 0.019339 0.000000 -0.005938 0.000000
# 4 0.000000 0.000000 0.000000 0.039191 0.000000 0.001372
# 5 0.002850 0.002371 -0.005938 0.000000 0.033593 0.000000
# 6 0.000000 0.000000 0.000000 0.001372 0.000000 0.021448
#
#
# Mechanical properties :
#
#
# Convention : Reuss Voigt Hill
#
# Bulk Modulus (GPa) = 72.75302 88.64421 80.69862
# Shear Modulus (GPa) = 29.24886 33.60950 31.42918
#
# Velocity S-wave (km/s) = 3.78609 4.05852 3.92467
# Velocity P-wave (km/s) = 7.40053 8.08736 7.75155
#
# Compressibility (1/GPa) = 0.01374513
#
# Stress axis : x y z
#
# Youngs Moduli (GPa) = 68.91417 110.01561 51.70829
#
# Poissons Ratio (x) = 0.58367 0.34918
# Poissons Ratio (y) = 0.36561 0.13129
# Poissons Ratio (z) = 0.46537 0.27933
#
# Static dielectric constant tensor:
#      x y z
#    x 3.695590 0.000000 0.413080 
#    y 0.000000 4.371590 0.000000 
#    z 0.413080 0.000000 4.687820 
# 
# 
# High freq. dielectric constant tensor:
#      x y z
#    x 1.782510 0.000000 0.005110 
#    y 0.000000 1.820930 0.000000 
#    z 0.005110 0.000000 1.792480 
# 
# From -- ./inp_files/47567.got.cif
#   From: 2010.06.25/outbox.cif.g09.slc.cpg/sg13_24_cif.got.tgz:47567.got - 2010.06.28 04:50:58.
