data_PCOD8117008
_publ_section_title
;
Structure prediction by ZEFSAII (Michael W. Deem and Ramdas Pophale) SiO2 
 PCOD8117008
Probable space group: P 2/C
;
_chemical_formula_sum "Si O2"
_cell_formula_units_Z 30
_cell_length_a 8.954214
_cell_length_b 13.660351
_cell_length_c 14.342982
_cell_angle_alpha 90.000000
_cell_angle_beta 71.594718
_cell_angle_gamma 90.000000
_cell_volume 1664.657640
_symmetry_space_group_name_H-M "P 2/C"
_symmetry_group_IT_number 13
_symmetry_cell_setting 'monoclinic'
loop_
_space_group_symop_operation_xyz
x,y,z
-x,y,1/2-z
-x,-y,-z
x,-y,1/2+z
loop_
_atom_site_type_symbol
_atom_site_label
_atom_site_fract_x
_atom_site_fract_y
_atom_site_fract_z
Si Si1 0.672378 0.754738 0.530766
Si Si2 0.059634 0.093877 0.101168
Si Si3 0.033505 0.129393 0.589380
Si Si4 0.871311 0.404517 0.923373
Si Si5 0.000000 0.273233 0.750000
Si Si6 0.082535 0.623173 0.552905
Si Si7 0.819345 0.751204 0.691250
Si Si8 0.687479 0.233592 0.411777
O O1 0.789994 0.826743 0.451781
O O2 0.716851 0.640872 0.503239
O O3 0.690201 0.772907 0.637424
O O4 0.496513 0.776061 0.532085
O O5 0.235043 0.125962 0.096590
O O6 0.925336 0.151328 0.185410
O O7 0.040418 0.980238 0.127197
O O8 0.046073 0.126559 0.995671
O O9 0.936002 0.199635 0.680555
O O10 0.857526 0.520547 0.916299
O O11 0.878453 0.349159 0.821994
O O12 0.026888 0.382478 0.956203
O O13 0.231536 0.695490 0.528195
O O14 0.937216 0.662345 0.643446
O O15 0.723863 0.722707 0.802284
#
# Coordination Sequence:
#
# PCOD8117008 Si02
#       8
#     4   4   4   4   2   4   4   4
#     4   9  19  34  45  73 108 133 156 197 266 296
#     4   9  18  33  52  73  99 130 172 210 250 287
#     4   9  19  34  51  72 100 133 168 212 247 300
#     4   9  19  34  51  72 100 133 168 212 247 300
#     4  10  18  28  56  74  94 126 174 210 248 290
#     4   9  18  33  52  73  99 130 172 210 250 287
#     4   9  18  31  50  76  99 125 167 214 240 287
#     4  11  19  28  53  75 102 131 162 204 246 312
#
# _framework density 18.021723999999999
#
# number of rings (size 3 to 8) (size 9 to 14) (size 15 to 20)
#    0.000    2.667    0.000    4.400    3.733    1.067 
#    0.000    0.000    0.000   12.800    0.000    0.000 
#    0.000    0.000    0.000    0.000    0.000    0.000 
#
# Total GULP energy -371715.436158 kJ/mol
# GULP energy per Si atom -12390.514539 kJ/mol
# Density = 1.798071 g / cm^3
# Si number density = 18.021724 Si / 1000 Ang^3
#
#
#
# Elastic Constant Matrix: (Units=GPa)
#
#
# Indices 1 2 3 4 5 6 
#
# 1 97.0224 22.4347 16.1902 0.0000 -9.4570 0.0000
# 2 22.4347 105.8940 20.4414 0.0000 -6.2910 0.0000
# 3 16.1902 20.4414 60.7496 0.0000 -0.9697 0.0000
# 4 0.0000 0.0000 0.0000 25.0342 0.0000 8.1112
# 5 -9.4570 -6.2910 -0.9697 0.0000 15.5651 0.0000
# 6 0.0000 0.0000 0.0000 8.1112 0.0000 17.7656
#
#
#
# Elastic Compliance Matrix: (Units=1/GPa)
#
#
# Indices 1 2 3 4 5 6 
#
# 1 0.011710 -0.001629 -0.002472 0.000000 0.006302 0.000000
# 2 -0.001629 0.010565 -0.003071 0.000000 0.003089 0.000000
# 3 -0.002472 -0.003071 0.018128 0.000000 -0.001614 0.000000
# 4 0.000000 0.000000 0.000000 0.046880 0.000000 -0.021404
# 5 0.006302 0.003089 -0.001614 0.000000 0.069223 0.000000
# 6 0.000000 0.000000 0.000000 -0.021404 0.000000 0.066061
#
#
# Mechanical properties :
#
#
# Convention : Reuss Voigt Hill
#
# Bulk Modulus (GPa) = 38.37692 42.42207 40.39949
# Shear Modulus (GPa) = 20.35840 25.31298 22.83569
#
# Velocity S-wave (km/s) = 3.36469 3.75184 3.56352
# Velocity P-wave (km/s) = 6.03621 6.50837 6.27673
#
# Compressibility (1/GPa) = 0.02605733
#
# Stress axis : x y z
#
# Youngs Moduli (GPa) = 85.39357 94.65214 55.16464
#
# Poissons Ratio (x) = 0.15422 0.13637
# Poissons Ratio (y) = 0.13914 0.16943
# Poissons Ratio (z) = 0.21110 0.29072
#
# Static dielectric constant tensor:
#      x y z
#    x 3.060780 0.000000 0.238110 
#    y 0.000000 3.540320 0.000000 
#    z 0.238110 0.000000 3.344940 
# 
# 
# High freq. dielectric constant tensor:
#      x y z
#    x 1.660630 0.000000 0.021390 
#    y 0.000000 1.705230 0.000000 
#    z 0.021390 0.000000 1.694000 
# 
# From -- ./inp_files/47472.got.cif
#   From: 2010.06.25/outbox.cif.g09.slc.cpg/sg13_24_cif.got.tgz:47472.got - 2010.06.28 04:50:58.
