data_PCOD8117125
_publ_section_title
;
Structure prediction by ZEFSAII (Michael W. Deem and Ramdas Pophale) SiO2 
 PCOD8117125
Probable space group: P 2/C
;
_chemical_formula_sum "Si O2"
_cell_formula_units_Z 28
_cell_length_a 13.655702
_cell_length_b 9.248573
_cell_length_c 22.408839
_cell_angle_alpha 90.000000
_cell_angle_beta 146.803009
_cell_angle_gamma 90.000000
_cell_volume 1549.556912
_symmetry_space_group_name_H-M "P 2/C"
_symmetry_group_IT_number 13
_symmetry_cell_setting 'monoclinic'
loop_
_space_group_symop_operation_xyz
x,y,z
-x,y,1/2-z
-x,-y,-z
x,-y,1/2+z
loop_
_atom_site_type_symbol
_atom_site_label
_atom_site_fract_x
_atom_site_fract_y
_atom_site_fract_z
Si Si1 0.701964 0.150442 0.362969
Si Si2 0.897118 0.633437 0.045823
Si Si3 0.657030 0.377580 0.912272
Si Si4 0.049703 0.894828 0.343469
Si Si5 0.263656 0.650245 0.183708
Si Si6 0.654548 0.056426 0.946603
Si Si7 0.744983 0.969608 0.274291
O O1 0.500000 0.205386 0.250000
O O2 0.816185 0.282471 0.447202
O O3 0.709114 0.014302 0.411314
O O4 0.781828 0.098689 0.340213
O O5 0.916534 0.736426 0.112661
O O6 0.091923 0.572028 0.125760
O O7 0.767054 0.504541 0.001070
O O8 0.733201 0.374966 0.884648
O O9 0.444964 0.412159 0.805684
O O10 0.691484 0.227034 0.963122
O O11 0.892659 0.978221 0.298351
O O12 0.000000 0.875728 0.250000
O O13 0.228780 0.990233 0.440368
O O14 0.246353 0.820967 0.184973
O O15 0.448773 0.017766 0.855393
#
# Coordination Sequence:
#
# PCOD8117125 Si02
#       7
#     4   4   4   4   4   4   4
#     4   9  17  30  50  80 110 130 163 202 259 315
#     4  10  21  32  51  77 105 138 163 212 259 301
#     4  10  18  32  49  76 107 134 164 199 250 322
#     4  10  22  37  53  73  99 137 183 219 250 289
#     4   9  18  30  50  74 109 139 158 193 256 319
#     4   9  18  33  54  76 102 136 167 208 257 305
#     4   9  17  33  55  77 104 136 165 208 256 314
#
# _framework density 18.069682
#
# number of rings (size 3 to 8) (size 9 to 14) (size 15 to 20)
#    0.000    2.571    1.429    0.429    4.000    2.286 
#    0.000    0.714    0.000    7.714    0.000    0.000 
#    0.000    0.000    0.000    0.000    0.000    0.000 
#
# Total GULP energy -347180.835037 kJ/mol
# GULP energy per Si atom -12399.315537 kJ/mol
# Density = 1.802856 g / cm^3
# Si number density = 18.069682 Si / 1000 Ang^3
#
#
#
# Elastic Constant Matrix: (Units=GPa)
#
#
# Indices 1 2 3 4 5 6 
#
# 1 55.4927 19.4711 45.1585 0.0000 3.8822 0.0000
# 2 19.4711 61.4579 44.5436 0.0000 6.8308 0.0000
# 3 45.1585 44.5436 120.0781 0.0000 4.1547 0.0000
# 4 0.0000 0.0000 0.0000 27.9308 0.0000 9.1149
# 5 3.8822 6.8308 4.1547 0.0000 29.2427 0.0000
# 6 0.0000 0.0000 0.0000 9.1149 0.0000 16.5996
#
#
#
# Elastic Compliance Matrix: (Units=1/GPa)
#
#
# Indices 1 2 3 4 5 6 
#
# 1 0.026175 -0.001368 -0.009273 0.000000 -0.001838 0.000000
# 2 -0.001368 0.022813 -0.007808 0.000000 -0.004038 0.000000
# 3 -0.009273 -0.007808 0.014678 0.000000 0.000970 0.000000
# 4 0.000000 0.000000 0.000000 0.043619 0.000000 -0.023951
# 5 -0.001838 -0.004038 0.000970 0.000000 0.035246 0.000000
# 6 0.000000 0.000000 0.000000 -0.023951 0.000000 0.073394
#
#
# Mechanical properties :
#
#
# Convention : Reuss Voigt Hill
#
# Bulk Modulus (GPa) = 37.35806 50.59723 43.97765
# Shear Modulus (GPa) = 19.10254 23.27833 21.19043
#
# Velocity S-wave (km/s) = 3.25493 3.59312 3.42820
# Velocity P-wave (km/s) = 5.90300 6.72874 6.32935
#
# Compressibility (1/GPa) = 0.02676798
#
# Stress axis : x y z
#
# Youngs Moduli (GPa) = 38.20472 43.83494 68.12816
#
# Poissons Ratio (x) = 0.05995 0.63174
# Poissons Ratio (y) = 0.05225 0.53198
# Poissons Ratio (z) = 0.35426 0.34228
#
# Static dielectric constant tensor:
#      x y z
#    x 3.165500 0.000000 0.425290 
#    y 0.000000 3.229870 0.000000 
#    z 0.425290 0.000000 3.478860 
# 
# 
# High freq. dielectric constant tensor:
#      x y z
#    x 1.671990 0.000000 0.033630 
#    y 0.000000 1.686140 0.000000 
#    z 0.033630 0.000000 1.699050 
# 
# From -- ./inp_files/50088.got.cif
#   From: 2010.06.25/outbox.cif.g09.slc.cpg/sg13_26_cif.got.tgz:50088.got - 2010.06.28 04:50:58.
