data_PCOD8117211
_publ_section_title
;
Structure prediction by ZEFSAII (Michael W. Deem and Ramdas Pophale) SiO2 
 PCOD8117211
Probable space group: P 2/C
;
_chemical_formula_sum "Si O2"
_cell_formula_units_Z 22
_cell_length_a 11.264469
_cell_length_b 5.569499
_cell_length_c 23.632671
_cell_angle_alpha 90.000000
_cell_angle_beta 43.746372
_cell_angle_gamma 90.000000
_cell_volume 1025.206425
_symmetry_space_group_name_H-M "P 2/C"
_symmetry_group_IT_number 13
_symmetry_cell_setting 'monoclinic'
loop_
_space_group_symop_operation_xyz
x,y,z
-x,y,1/2-z
-x,-y,-z
x,-y,1/2+z
loop_
_atom_site_type_symbol
_atom_site_label
_atom_site_fract_x
_atom_site_fract_y
_atom_site_fract_z
Si Si1 0.148865 0.926383 0.523673
Si Si2 0.193420 0.226015 0.399687
Si Si3 0.500000 0.085263 0.750000
Si Si4 0.415836 0.392701 0.876606
Si Si5 0.301623 0.978696 0.085177
Si Si6 0.373015 0.476956 0.096734
O O1 0.317831 0.769910 0.455598
O O2 0.173892 0.049877 0.575817
O O3 0.976829 0.761166 0.580598
O O4 0.136681 0.130017 0.480483
O O5 0.277634 0.483152 0.382503
O O6 0.330584 0.068066 0.319004
O O7 0.538308 0.241452 0.792878
O O8 0.530232 0.566628 0.876341
O O9 0.256070 0.235296 0.131435
O O10 0.271372 0.735272 0.133248
O O11 0.500000 0.000000 0.000000
O O12 0.500000 0.500000 0.000000
#
# Coordination Sequence:
#
# PCOD8117211 Si02
#       6
#     4   4   2   4   4   4
#     4  10  20  33  59  90 120 144 198 255 311 354
#     4  10  21  37  56  85 118 157 195 254 304 360
#     4  10  24  38  54  84 112 168 204 236 302 374
#     4  11  20  36  58  87 118 155 203 250 309 367
#     4  10  18  33  52  92 117 153 184 245 308 360
#     4  10  19  31  58  86 121 149 194 246 301 363
#
# _framework density 21.459094
#
# number of rings (size 3 to 8) (size 9 to 14) (size 15 to 20)
#    0.000    1.818    3.636    3.273    2.545    0.000 
#    0.000    0.000    0.000    1.091    0.000    0.000 
#    0.000    0.000    0.000    0.000    0.000    0.000 
#
# Total GULP energy -272602.821421 kJ/mol
# GULP energy per Si atom -12391.037337 kJ/mol
# Density = 2.141025 g / cm^3
# Si number density = 21.459094 Si / 1000 Ang^3
#
#
#
# Elastic Constant Matrix: (Units=GPa)
#
#
# Indices 1 2 3 4 5 6 
#
# 1 120.0573 15.4707 16.6857 0.0000 5.5401 0.0000
# 2 15.4707 122.0822 4.5022 0.0000 5.0204 0.0000
# 3 16.6857 4.5022 47.9537 0.0000 8.3667 0.0000
# 4 0.0000 0.0000 0.0000 -6.1754 0.0000 2.4873
# 5 5.5401 5.0204 8.3667 0.0000 8.5585 0.0000
# 6 0.0000 0.0000 0.0000 2.4873 0.0000 32.4294
#
#
#
# Elastic Compliance Matrix: (Units=1/GPa)
#
#
# Indices 1 2 3 4 5 6 
#
# 1 0.008929 -0.000925 -0.002539 0.000000 -0.002755 0.000000
# 2 -0.000925 0.008490 0.000349 0.000000 -0.004722 0.000000
# 3 -0.002539 0.000349 0.025865 0.000000 -0.023846 0.000000
# 4 0.000000 0.000000 0.000000 -0.157081 0.000000 0.012048
# 5 -0.002755 -0.004722 -0.023846 0.000000 0.144708 0.000000
# 6 0.000000 0.000000 0.000000 0.012048 0.000000 0.029912
#
#
# Mechanical properties :
#
#
# Convention : Reuss Voigt Hill
#
# Bulk Modulus (GPa) = 26.98872 40.37895 33.68383
# Shear Modulus (GPa) = 62.96963 23.85815 43.41389
#
# Velocity S-wave (km/s) = 5.42289 3.33798 4.50277
# Velocity P-wave (km/s) = 7.19822 5.80635 6.53942
#
# Compressibility (1/GPa) = 0.03705252
#
# Stress axis : x y z
#
# Youngs Moduli (GPa) = 112.00053 117.78974 38.66272
#
# Poissons Ratio (x) = 0.10890 0.09817
# Poissons Ratio (y) = 0.10355 -0.01348
# Poissons Ratio (z) = 0.28440 -0.04106
#
# Static dielectric constant tensor:
#      x y z
#    x 3.882810 0.000000 0.037520 
#    y 0.000000 6.468180 0.000000 
#    z 0.037520 0.000000 3.472680 
# 
# 
# High freq. dielectric constant tensor:
#      x y z
#    x 1.844110 0.000000 0.016050 
#    y 0.000000 1.852360 0.000000 
#    z 0.016050 0.000000 1.781550 
# 
# From -- ./inp_files/65284.got.cif
#   From: 2010.06.25/outbox.cif.g09.slc.cpg/sg13_33_cif.got.tgz:65284.got - 2010.06.28 04:50:58.
