data_PCOD8117772
_publ_section_title
;
Structure prediction by ZEFSAII (Michael W. Deem and Ramdas Pophale) SiO2 
 PCOD8117772
Probable space group: P 2/C
;
_chemical_formula_sum "Si O2"
_cell_formula_units_Z 24
_cell_length_a 32.481547
_cell_length_b 7.888093
_cell_length_c 5.075875
_cell_angle_alpha 90.000000
_cell_angle_beta 107.438408
_cell_angle_gamma 90.000000
_cell_volume 1240.755108
_symmetry_space_group_name_H-M "P 2/C"
_symmetry_group_IT_number 13
_symmetry_cell_setting 'monoclinic'
loop_
_space_group_symop_operation_xyz
x,y,z
-x,y,1/2-z
-x,-y,-z
x,-y,1/2+z
loop_
_atom_site_type_symbol
_atom_site_label
_atom_site_fract_x
_atom_site_fract_y
_atom_site_fract_z
Si Si1 0.668232 0.613889 0.106635
Si Si2 0.161823 0.107016 0.611918
Si Si3 0.500000 0.884118 0.750000
Si Si4 0.000000 0.617017 0.750000
Si Si5 0.092163 0.386387 0.376999
Si Si6 0.739147 0.888627 0.236884
Si Si7 0.406699 0.881637 0.546246
O O1 0.666778 0.538263 0.396054
O O2 0.712074 0.718299 0.150298
O O3 0.627838 0.735532 0.983858
O O4 0.131941 0.264788 0.496815
O O5 0.211090 0.167825 0.680276
O O6 0.152091 0.957674 0.386460
O O7 0.453920 0.785930 0.657897
O O8 0.500000 0.000000 0.500000
O O9 0.046103 0.716746 0.829122
O O10 0.000000 0.500000 0.500000
O O11 0.095042 0.541292 0.587632
O O12 0.727523 0.975320 0.490860
O O13 0.400751 0.974554 0.256144
#
# Coordination Sequence:
#
# PCOD8117772 Si02
#       7
#     4   4   2   2   4   4   4
#     4  12  24  36  53  82 111 134 170 220 263 302
#     4  10  21  36  54  78 106 132 168 216 264 306
#     4   8  16  30  54  80  98 130 182 218 236 292
#     4   8  16  30  48  72 100 134 172 206 242 300
#     4  10  19  33  54  76 102 137 175 209 250 304
#     4  10  21  39  58  74 100 142 177 206 254 316
#     4  10  19  36  58  78 104 141 179 211 252 308
#
# _framework density 19.343060999999999
#
# number of rings (size 3 to 8) (size 9 to 14) (size 15 to 20)
#    0.000    2.000    0.000    4.000    0.000    1.333 
#    0.000    1.667    0.000    0.000    0.000    0.000 
#    0.000    0.000    0.000    0.000    0.000    0.000 
#
# Total GULP energy -297438.657930 kJ/mol
# GULP energy per Si atom -12393.277414 kJ/mol
# Density = 1.929904 g / cm^3
# Si number density = 19.343061 Si / 1000 Ang^3
#
#
#
# Elastic Constant Matrix: (Units=GPa)
#
#
# Indices 1 2 3 4 5 6 
#
# 1 113.5669 48.8346 28.5988 0.0000 21.6610 0.0000
# 2 48.8346 55.7006 8.8267 0.0000 20.9430 0.0000
# 3 28.5988 8.8267 88.4868 0.0000 1.0952 0.0000
# 4 0.0000 0.0000 0.0000 29.3817 0.0000 10.4613
# 5 21.6610 20.9430 1.0952 0.0000 33.5441 0.0000
# 6 0.0000 0.0000 0.0000 10.4613 0.0000 33.3813
#
#
#
# Elastic Compliance Matrix: (Units=1/GPa)
#
#
# Indices 1 2 3 4 5 6 
#
# 1 0.015342 -0.011996 -0.003733 0.000000 -0.002295 0.000000
# 2 -0.011996 0.033260 0.000721 0.000000 -0.013043 0.000000
# 3 -0.003733 0.000721 0.012417 0.000000 0.001555 0.000000
# 4 0.000000 0.000000 0.000000 0.038309 0.000000 -0.012006
# 5 -0.002295 -0.013043 0.001555 0.000000 0.039386 0.000000
# 6 0.000000 0.000000 0.000000 -0.012006 0.000000 0.033719
#
#
# Mechanical properties :
#
#
# Convention : Reuss Voigt Hill
#
# Bulk Modulus (GPa) = 32.25667 47.80829 40.03248
# Shear Modulus (GPa) = 23.49800 30.69439 27.09619
#
# Velocity S-wave (km/s) = 3.48918 3.98784 3.74682
# Velocity P-wave (km/s) = 5.73976 6.78037 6.28165
#
# Compressibility (1/GPa) = 0.03100134
#
# Stress axis : x y z
#
# Youngs Moduli (GPa) = 65.18202 30.06596 80.53740
#
# Poissons Ratio (x) = 0.36067 0.30068
# Poissons Ratio (y) = 0.78192 -0.05804
# Poissons Ratio (z) = 0.24335 -0.02167
#
# Static dielectric constant tensor:
#      x y z
#    x 4.193400 0.000000 0.154740 
#    y 0.000000 3.037060 0.000000 
#    z 0.154740 0.000000 3.928120 
# 
# 
# High freq. dielectric constant tensor:
#      x y z
#    x 1.780170 0.000000 0.002760 
#    y 0.000000 1.701790 0.000000 
#    z 0.002760 0.000000 1.783810 
# 
# From -- ./inp_files/8029.got.cif
#   From: 2010.06.25/outbox.cif.g09.slc.cpg/sg13_5_cif.got.tgz:8029.got - 2010.06.28 04:50:58.
