data_PCOD8117287
_publ_section_title
;
Structure prediction by ZEFSAII (Michael W. Deem and Ramdas Pophale) SiO2 
 PCOD8117287
Probable space group: P 2/C
;
_chemical_formula_sum "Si O2"
_cell_formula_units_Z 28
_cell_length_a 14.484231
_cell_length_b 8.656641
_cell_length_c 18.787349
_cell_angle_alpha 90.000000
_cell_angle_beta 140.439781
_cell_angle_gamma 90.000000
_cell_volume 1500.285826
_symmetry_space_group_name_H-M "P 2/C"
_symmetry_group_IT_number 13
_symmetry_cell_setting 'monoclinic'
loop_
_space_group_symop_operation_xyz
x,y,z
-x,y,1/2-z
-x,-y,-z
x,-y,1/2+z
loop_
_atom_site_type_symbol
_atom_site_label
_atom_site_fract_x
_atom_site_fract_y
_atom_site_fract_z
Si Si1 0.812951 0.340180 0.873683
Si Si2 0.368324 0.124809 0.118324
Si Si3 0.701943 0.788487 0.451942
Si Si4 0.565583 0.340180 0.626316
Si Si5 0.124389 0.650769 0.521760
Si Si6 0.132148 0.525937 0.882148
Si Si7 0.419130 0.349231 0.021760
O O1 0.724762 0.260468 0.884364
O O2 0.726891 0.306712 0.750000
O O3 0.818142 0.524652 0.888334
O O4 0.975833 0.272405 0.962603
O O5 0.500000 0.084030 0.250000
O O6 0.246685 0.219983 0.088026
O O7 0.429365 0.219982 0.088024
O O8 0.289980 0.973533 0.039981
O O9 0.543966 0.739535 0.384364
O O10 0.822176 0.702753 0.572176
O O11 0.550624 0.272407 0.537395
O O12 0.541470 0.524651 0.611666
O O13 0.085933 0.565174 0.425252
O O14 0.000000 0.533271 0.750000
O O15 0.264571 0.434825 0.925251
#
# Coordination Sequence:
#
# PCOD8117287 Si02
#       7
#     4   4   4   4   4   4   4
#     4  10  18  34  54  77 104 137 177 225 264 304
#     4  11  21  37  54  78 112 143 171 215 262 314
#     4  10  22  34  52  78 108 144 182 208 256 324
#     4  10  18  34  54  77 104 137 177 225 264 304
#     4   9  20  32  54  81 102 133 183 220 262 318
#     4   9  17  35  54  74 104 139 175 227 270 304
#     4   9  20  32  54  81 102 133 183 220 262 318
#
# _framework density 18.663111000000001
#
# number of rings (size 3 to 8) (size 9 to 14) (size 15 to 20)
#    0.000    2.286    0.000    3.857    0.000    1.143 
#    0.000    5.714    0.000    0.000    0.000    0.000 
#    0.000    0.000    0.000    0.000    0.000    0.000 
#
# Total GULP energy -347161.524489 kJ/mol
# GULP energy per Si atom -12398.625875 kJ/mol
# Density = 1.862063 g / cm^3
# Si number density = 18.663111 Si / 1000 Ang^3
#
#
#
# Elastic Constant Matrix: (Units=GPa)
#
#
# Indices 1 2 3 4 5 6 
#
# 1 114.0618 21.6468 21.3814 0.0000 -2.9666 0.0000
# 2 21.6468 72.3542 21.0212 0.0000 -0.0323 0.0000
# 3 21.3814 21.0212 95.2290 0.0000 2.0144 0.0000
# 4 0.0000 0.0000 0.0000 15.9038 0.0000 0.4239
# 5 -2.9666 -0.0323 2.0144 0.0000 17.3090 0.0000
# 6 0.0000 0.0000 0.0000 0.4239 0.0000 7.5427
#
#
#
# Elastic Compliance Matrix: (Units=1/GPa)
#
#
# Indices 1 2 3 4 5 6 
#
# 1 0.009579 -0.002382 -0.001664 0.000000 0.001831 0.000000
# 2 -0.002382 0.015363 -0.002856 0.000000 -0.000047 0.000000
# 3 -0.001664 -0.002856 0.011539 0.000000 -0.001633 0.000000
# 4 0.000000 0.000000 0.000000 0.062973 0.000000 -0.003539
# 5 0.001831 -0.000047 -0.001633 0.000000 0.058277 0.000000
# 6 0.000000 0.000000 0.000000 -0.003539 0.000000 0.132778
#
#
# Mechanical properties :
#
#
# Convention : Reuss Voigt Hill
#
# Bulk Modulus (GPa) = 44.09267 45.52710 44.80988
# Shear Modulus (GPa) = 16.03233 22.65747 19.34490
#
# Velocity S-wave (km/s) = 2.93412 3.48806 3.22301
# Velocity P-wave (km/s) = 5.92921 6.37724 6.15731
#
# Compressibility (1/GPa) = 0.02267951
#
# Stress axis : x y z
#
# Youngs Moduli (GPa) = 104.39905 65.09140 86.65925
#
# Poissons Ratio (x) = 0.15502 0.14417
# Poissons Ratio (y) = 0.24863 0.24746
# Poissons Ratio (z) = 0.17369 0.18587
#
# Static dielectric constant tensor:
#      x y z
#    x 3.658110 0.000000 -0.021970 
#    y 0.000000 3.225840 0.000000 
#    z -0.021970 0.000000 3.224310 
# 
# 
# High freq. dielectric constant tensor:
#      x y z
#    x 1.740750 0.000000 -0.001120 
#    y 0.000000 1.697980 0.000000 
#    z -0.001120 0.000000 1.718550 
# 
# From -- ./inp_files/68171.got.cif
#   From: 2010.06.25/outbox.cif.g09.slc.cpg/sg13_35_cif.got.tgz:68171.got - 2010.06.28 04:50:58.
