data_PCOD8117844
_publ_section_title
;
Structure prediction by ZEFSAII (Michael W. Deem and Ramdas Pophale) SiO2 
 PCOD8117844
Probable space group: P 2/C
;
_chemical_formula_sum "Si O2"
_cell_formula_units_Z 30
_cell_length_a 22.189036
_cell_length_b 12.978832
_cell_length_c 22.762333
_cell_angle_alpha 90.000000
_cell_angle_beta 166.828144
_cell_angle_gamma 90.000000
_cell_volume 1493.767324
_symmetry_space_group_name_H-M "P 2/C"
_symmetry_group_IT_number 13
_symmetry_cell_setting 'monoclinic'
loop_
_space_group_symop_operation_xyz
x,y,z
-x,y,1/2-z
-x,-y,-z
x,-y,1/2+z
loop_
_atom_site_type_symbol
_atom_site_label
_atom_site_fract_x
_atom_site_fract_y
_atom_site_fract_z
Si Si1 0.206861 0.899565 0.757899
Si Si2 0.676935 0.971584 0.753623
Si Si3 0.845481 0.744304 0.697529
Si Si4 0.566344 0.609304 0.744555
Si Si5 0.000000 0.909576 0.750000
Si Si6 0.942543 0.713213 0.259431
Si Si7 0.262346 0.906835 0.562134
Si Si8 0.612215 0.375381 0.791583
O O1 0.293732 0.890089 0.772200
O O2 0.158374 0.787174 0.739574
O O3 0.942091 0.964178 0.512732
O O4 0.432170 0.954156 0.009978
O O5 0.626203 0.912779 0.766198
O O6 0.565986 0.689818 0.421962
O O7 0.859405 0.838398 0.664580
O O8 0.086842 0.664541 0.920838
O O9 0.500000 0.615612 0.750000
O O10 0.593743 0.491584 0.750169
O O11 0.350590 0.674482 0.501517
O O12 0.844936 0.664028 0.994276
O O13 0.791360 0.981346 0.517271
O O14 0.994075 0.837416 0.306701
O O15 0.000000 0.665687 0.250000
O O16 0.500000 0.852540 0.750000
O O17 0.500000 0.364255 0.750000
#
# Coordination Sequence:
#
# PCOD8117844 Si02
#       8
#     4   4   4   4   2   4   4   4
#     4  10  21  39  55  77 106 157 200 234 259 323
#     4  10  22  38  57  75 111 153 200 229 271 315
#     4  12  22  34  54  80 115 152 183 224 276 340
#     4   9  19  34  53  72 107 142 179 233 271 331
#     4  12  24  32  50  80 128 148 180 216 286 330
#     4  10  19  34  51  77 107 143 182 220 280 336
#     4  12  24  35  56  85 118 155 182 229 285 350
#     4  11  21  35  53  82 109 145 187 226 288 340
#
# _framework density 20.083449999999999
#
# number of rings (size 3 to 8) (size 9 to 14) (size 15 to 20)
#    0.000    1.333    3.333    3.600    1.867    2.133 
#    0.000    0.000    0.000    0.000    0.000    5.600 
#    0.000    0.000    0.000    0.400    0.000    0.000 
#
# Total GULP energy -371931.678756 kJ/mol
# GULP energy per Si atom -12397.722625 kJ/mol
# Density = 2.003774 g / cm^3
# Si number density = 20.083450 Si / 1000 Ang^3
#
#
#
# Elastic Constant Matrix: (Units=GPa)
#
#
# Indices 1 2 3 4 5 6 
#
# 1 86.6850 21.9782 20.8589 0.0000 -10.1032 0.0000
# 2 21.9782 105.8478 46.1534 0.0000 -6.2483 0.0000
# 3 20.8589 46.1534 139.7305 0.0000 -9.9008 0.0000
# 4 0.0000 0.0000 0.0000 28.9431 0.0000 -0.2186
# 5 -10.1032 -6.2483 -9.9008 0.0000 21.2558 0.0000
# 6 0.0000 0.0000 0.0000 -0.2186 0.0000 7.5410
#
#
#
# Elastic Compliance Matrix: (Units=1/GPa)
#
#
# Indices 1 2 3 4 5 6 
#
# 1 0.012849 -0.001972 -0.000905 0.000000 0.005106 0.000000
# 2 -0.001972 0.011393 -0.003410 0.000000 0.000823 0.000000
# 3 -0.000905 -0.003410 0.008600 0.000000 0.002573 0.000000
# 4 0.000000 0.000000 0.000000 0.034558 0.000000 0.001002
# 5 0.005106 0.000823 0.002573 0.000000 0.050914 0.000000
# 6 0.000000 0.000000 0.000000 0.001002 0.000000 0.132638
#
#
# Mechanical properties :
#
#
# Convention : Reuss Voigt Hill
#
# Bulk Modulus (GPa) = 49.33986 56.69380 53.01683
# Shear Modulus (GPa) = 18.49922 27.76618 23.13270
#
# Velocity S-wave (km/s) = 3.03828 3.72229 3.39754
# Velocity P-wave (km/s) = 6.07692 6.83844 6.46890
#
# Compressibility (1/GPa) = 0.02026759
#
# Stress axis : x y z
#
# Youngs Moduli (GPa) = 77.82793 87.77642 116.27232
#
# Poissons Ratio (x) = 0.17309 0.10522
# Poissons Ratio (y) = 0.15347 0.39652
# Poissons Ratio (z) = 0.07043 0.29934
#
# Static dielectric constant tensor:
#      x y z
#    x 3.468380 0.000000 -0.094360 
#    y 0.000000 3.631430 0.000000 
#    z -0.094360 0.000000 3.954580 
# 
# 
# High freq. dielectric constant tensor:
#      x y z
#    x 1.736340 0.000000 -0.006340 
#    y 0.000000 1.774480 0.000000 
#    z -0.006340 0.000000 1.810610 
# 
# From -- ./inp_files/94228.got.cif
#   From: 2010.06.25/outbox.cif.g09.slc.cpg/sg13_48_cif.got.tgz:94228.got - 2010.06.28 04:50:58.
