data_PCOD8117786
_publ_section_title
;
Structure prediction by ZEFSAII (Michael W. Deem and Ramdas Pophale) SiO2 
 PCOD8117786
Probable space group: P 2/C
;
_chemical_formula_sum "Si O2"
_cell_formula_units_Z 28
_cell_length_a 9.168860
_cell_length_b 20.861188
_cell_length_c 15.044526
_cell_angle_alpha 90.000000
_cell_angle_beta 151.559499
_cell_angle_gamma 90.000000
_cell_volume 1370.452952
_symmetry_space_group_name_H-M "P 2/C"
_symmetry_group_IT_number 13
_symmetry_cell_setting 'monoclinic'
loop_
_space_group_symop_operation_xyz
x,y,z
-x,y,1/2-z
-x,-y,-z
x,-y,1/2+z
loop_
_atom_site_type_symbol
_atom_site_label
_atom_site_fract_x
_atom_site_fract_y
_atom_site_fract_z
Si Si1 0.593873 0.420433 0.702818
Si Si2 0.277673 0.975448 0.954693
Si Si3 0.363723 0.796251 0.449862
Si Si4 0.602311 0.141007 0.710948
Si Si5 0.312532 0.445518 0.062654
Si Si6 0.721712 0.105536 0.450813
Si Si7 0.360745 0.655145 0.443033
O O1 0.500000 0.393813 0.750000
O O2 0.385565 0.482409 0.570544
O O3 0.517320 0.366300 0.588778
O O4 0.951776 0.439170 0.888410
O O5 0.000000 0.943626 0.750000
O O6 0.435364 0.927193 0.108117
O O7 0.500000 0.000000 0.000000
O O8 0.170884 0.037834 0.951715
O O9 0.499477 0.815161 0.426496
O O10 0.457767 0.848647 0.574657
O O11 0.495493 0.725089 0.541668
O O12 0.000000 0.796864 0.250000
O O13 0.500000 0.171321 0.750000
O O14 0.967782 0.138463 0.914289
O O15 0.500000 0.427672 0.250000
O O16 0.449141 0.398091 0.062009
O O17 0.500000 0.093676 0.250000
O O18 0.000000 0.661897 0.250000
#
# Coordination Sequence:
#
# PCOD8117786 Si02
#       7
#     4   4   4   4   4   4   4
#     4  10  19  33  54  82 111 144 180 226 278 325
#     4  12  22  39  63  86 116 148 183 232 284 333
#     4   9  19  40  57  77 112 149 186 229 274 330
#     4  11  24  38  60  87 112 147 185 232 282 330
#     4  10  19  33  54  82 111 143 181 225 276 326
#     4  11  23  39  60  84 112 150 188 224 281 338
#     4   9  19  34  57  79 107 148 188 224 273 327
#
# _framework density 20.431201999999999
#
# number of rings (size 3 to 8) (size 9 to 14) (size 15 to 20)
#    0.000    1.714    2.857    3.000    2.000    2.286 
#    0.000    2.143    0.000    8.571    0.000    0.000 
#    0.000    0.000    0.000    0.000    0.000    0.000 
#
# Total GULP energy -347076.495060 kJ/mol
# GULP energy per Si atom -12395.589109 kJ/mol
# Density = 2.038470 g / cm^3
# Si number density = 20.431202 Si / 1000 Ang^3
#
#
#
# Elastic Constant Matrix: (Units=GPa)
#
#
# Indices 1 2 3 4 5 6 
#
# 1 139.3302 41.4313 15.7448 0.0000 -13.2629 0.0000
# 2 41.4313 98.5422 7.2308 0.0000 -17.2375 0.0000
# 3 15.7448 7.2308 69.9533 0.0000 -6.1767 0.0000
# 4 0.0000 0.0000 0.0000 14.9501 0.0000 -4.4972
# 5 -13.2629 -17.2375 -6.1767 0.0000 30.6949 0.0000
# 6 0.0000 0.0000 0.0000 -4.4972 0.0000 18.0165
#
#
#
# Elastic Compliance Matrix: (Units=1/GPa)
#
#
# Indices 1 2 3 4 5 6 
#
# 1 0.008430 -0.003163 -0.001431 0.000000 0.001578 0.000000
# 2 -0.003163 0.012466 -0.000081 0.000000 0.005618 0.000000
# 3 -0.001431 -0.000081 0.014831 0.000000 0.002321 0.000000
# 4 0.000000 0.000000 0.000000 0.072320 0.000000 0.018052
# 5 0.001578 0.005618 0.002321 0.000000 0.036882 0.000000
# 6 0.000000 0.000000 0.000000 0.018052 0.000000 0.060011
#
#
# Mechanical properties :
#
#
# Convention : Reuss Voigt Hill
#
# Bulk Modulus (GPa) = 37.91152 48.51551 43.21352
# Shear Modulus (GPa) = 22.41332 28.96021 25.68677
#
# Velocity S-wave (km/s) = 3.31571 3.76899 3.54959
# Velocity P-wave (km/s) = 5.76668 6.53741 6.16410
#
# Compressibility (1/GPa) = 0.02637720
#
# Stress axis : x y z
#
# Youngs Moduli (GPa) = 118.62781 80.21504 67.42817
#
# Poissons Ratio (x) = 0.25373 0.09649
# Poissons Ratio (y) = 0.37524 0.00544
# Poissons Ratio (z) = 0.16976 0.00647
#
# Static dielectric constant tensor:
#      x y z
#    x 3.888300 0.000000 -0.083190 
#    y 0.000000 3.471550 0.000000 
#    z -0.083190 0.000000 3.292680 
# 
# 
# High freq. dielectric constant tensor:
#      x y z
#    x 1.810540 0.000000 -0.008140 
#    y 0.000000 1.787630 0.000000 
#    z -0.008140 0.000000 1.779090 
# 
# From -- ./inp_files/48209.got.cif
#   From: 2010.06.25/outbox.cif.g09.slc.cpg/sg13_25_cif.got.tgz:48209.got - 2010.06.28 04:50:58.
