data_PCOD8117547
_publ_section_title
;
Structure prediction by ZEFSAII (Michael W. Deem and Ramdas Pophale) SiO2 
 PCOD8117547
Probable space group: P 2/C
;
_chemical_formula_sum "Si O2"
_cell_formula_units_Z 24
_cell_length_a 14.097009
_cell_length_b 13.468660
_cell_length_c 9.143452
_cell_angle_alpha 90.000000
_cell_angle_beta 42.612582
_cell_angle_gamma 90.000000
_cell_volume 1175.369301
_symmetry_space_group_name_H-M "P 2/C"
_symmetry_group_IT_number 13
_symmetry_cell_setting 'monoclinic'
loop_
_space_group_symop_operation_xyz
x,y,z
-x,y,1/2-z
-x,-y,-z
x,-y,1/2+z
loop_
_atom_site_type_symbol
_atom_site_label
_atom_site_fract_x
_atom_site_fract_y
_atom_site_fract_z
Si Si1 0.473704 0.394209 0.105040
Si Si2 0.763065 0.709487 0.779374
Si Si3 0.705836 0.283200 0.677845
Si Si4 0.111487 0.099487 0.009533
Si Si5 0.910229 0.118744 0.978351
Si Si6 0.970587 0.597936 0.946491
O O1 0.500000 0.399721 0.250000
O O2 0.314193 0.362277 0.249758
O O3 0.500000 0.500000 0.000000
O O4 0.562825 0.307121 0.925158
O O5 0.778350 0.819728 0.693142
O O6 0.925295 0.681265 0.612128
O O7 0.687350 0.702472 0.023546
O O8 0.751417 0.169392 0.651942
O O9 0.814048 0.359417 0.631754
O O10 0.000000 0.147265 0.250000
O O11 0.154771 0.986711 0.005087
O O12 0.036024 0.094419 0.942891
O O13 0.000000 0.174431 0.750000
O O14 0.000000 0.566710 0.750000
O O15 0.000000 0.500000 0.000000
#
# Coordination Sequence:
#
# PCOD8117547 Si02
#       6
#     4   4   4   4   4   4
#     4  12  28  46  64  88 122 166 210 257 314 375
#     4  11  22  41  62  90 123 165 208 252 311 365
#     4  11  21  41  64  87 122 165 207 253 309 370
#     4  10  18  38  62  96 129 166 202 250 309 372
#     4  10  21  33  63  98 132 161 204 252 309 366
#     4  10  21  35  58  87 115 147 197 253 304 361
#
# _framework density 20.419112999999999
#
# number of rings (size 3 to 8) (size 9 to 14) (size 15 to 20)
#    0.000    1.333    3.333    3.000    2.333    4.667 
#    0.000    0.833    0.000    0.000    0.000    0.000 
#    0.000    0.000    0.000    0.000    0.000    0.000 
#
# Total GULP energy -297430.783891 kJ/mol
# GULP energy per Si atom -12392.949329 kJ/mol
# Density = 2.037264 g / cm^3
# Si number density = 20.419113 Si / 1000 Ang^3
#
#
#
# Elastic Constant Matrix: (Units=GPa)
#
#
# Indices 1 2 3 4 5 6 
#
# 1 101.9041 32.2918 27.4630 0.0000 18.1968 0.0000
# 2 32.2918 119.2586 33.7679 0.0000 6.0731 0.0000
# 3 27.4630 33.7679 90.5218 0.0000 15.1918 0.0000
# 4 0.0000 0.0000 0.0000 197.7938 0.0000 -159.9463
# 5 18.1968 6.0731 15.1918 0.0000 26.6022 0.0000
# 6 0.0000 0.0000 0.0000 -159.9463 0.0000 182.9177
#
#
#
# Elastic Compliance Matrix: (Units=1/GPa)
#
#
# Indices 1 2 3 4 5 6 
#
# 1 0.012280 -0.002512 -0.001631 0.000000 -0.006895 0.000000
# 2 -0.002512 0.009890 -0.003137 0.000000 0.001252 0.000000
# 3 -0.001631 -0.003137 0.013720 0.000000 -0.006003 0.000000
# 4 0.000000 0.000000 0.000000 0.017261 0.000000 0.015093
# 5 -0.006895 0.001252 -0.006003 0.000000 0.045449 0.000000
# 6 0.000000 0.000000 0.000000 0.015093 0.000000 0.018665
#
#
# Mechanical properties :
#
#
# Convention : Reuss Voigt Hill
#
# Bulk Modulus (GPa) = 46.88630 55.41444 51.15037
# Shear Modulus (GPa) = 35.98788 96.00686 65.99737
#
# Velocity S-wave (km/s) = 4.20272 6.86442 5.69136
# Velocity P-wave (km/s) = 6.82366 9.48812 8.26398
#
# Compressibility (1/GPa) = 0.02132819
#
# Stress axis : x y z
#
# Youngs Moduli (GPa) = 81.43304 101.11337 72.88762
#
# Poissons Ratio (x) = 0.25400 0.11891
# Poissons Ratio (y) = 0.20456 0.22867
# Poissons Ratio (z) = 0.13285 0.31722
#
# Static dielectric constant tensor:
#      x y z
#    x 3.793590 0.000000 0.092390 
#    y 0.000000 3.775300 0.000000 
#    z 0.092390 0.000000 3.328180 
# 
# 
# High freq. dielectric constant tensor:
#      x y z
#    x 1.796560 0.000000 0.022030 
#    y 0.000000 1.804790 0.000000 
#    z 0.022030 0.000000 1.781990 
# 
# From -- ./inp_files/19516.got.cif
#   From: 2010.06.25/outbox.cif.g09.slc.cpg/sg13_10_cif.got.tgz:19516.got - 2010.06.28 04:50:58.
