data_PCOD8117537
_publ_section_title
;
Structure prediction by ZEFSAII (Michael W. Deem and Ramdas Pophale) SiO2 
 PCOD8117537
Probable space group: P 2/C
;
_chemical_formula_sum "Si O2"
_cell_formula_units_Z 32
_cell_length_a 16.033137
_cell_length_b 16.180152
_cell_length_c 10.560071
_cell_angle_alpha 90.000000
_cell_angle_beta 146.588976
_cell_angle_gamma 90.000000
_cell_volume 1508.470312
_symmetry_space_group_name_H-M "P 2/C"
_symmetry_group_IT_number 13
_symmetry_cell_setting 'monoclinic'
loop_
_space_group_symop_operation_xyz
x,y,z
-x,y,1/2-z
-x,-y,-z
x,-y,1/2+z
loop_
_atom_site_type_symbol
_atom_site_label
_atom_site_fract_x
_atom_site_fract_y
_atom_site_fract_z
Si Si1 0.328392 0.483302 0.506459
Si Si2 0.369438 0.650874 0.847736
Si Si3 0.088623 0.253725 0.560915
Si Si4 0.857494 0.372324 0.654579
Si Si5 0.694922 0.345574 0.830953
Si Si6 0.193973 0.950774 0.866933
Si Si7 0.160811 0.072563 0.611570
Si Si8 0.260506 0.773817 0.900000
O O1 0.500000 0.515135 0.750000
O O2 0.318313 0.425270 0.371145
O O3 0.202484 0.555094 0.327714
O O4 0.276101 0.431848 0.563065
O O5 0.291707 0.644617 0.615243
O O6 0.315780 0.738655 0.836652
O O7 0.549805 0.647898 0.054585
O O8 0.096029 0.288526 0.713293
O O9 0.156092 0.324717 0.558013
O O10 0.188744 0.170503 0.667829
O O11 0.917499 0.240627 0.302108
O O12 0.000000 0.400408 0.750000
O O13 0.651385 0.274177 0.877304
O O14 0.291371 0.871665 0.945140
O O15 0.018212 0.938468 0.616451
O O16 0.240859 0.026680 0.833274
O O17 0.224758 0.962469 0.057364
#
# Coordination Sequence:
#
# PCOD8117537 Si02
#       8
#     4   4   4   4   4   4   4   4
#     4   9  23  41  62  84 113 160 204 249 293 362
#     4  10  23  41  58  89 116 154 206 242 302 363
#     4  11  22  36  61  90 124 156 195 255 305 351
#     4  12  26  40  56  88 123 155 196 253 315 357
#     4  10  21  39  64  87 113 157 208 245 289 362
#     4   9  17  31  57  86 122 160 199 248 299 363
#     4   9  18  33  52  91 123 157 203 245 306 360
#     4  10  18  38  61  87 120 153 201 246 293 352
#
# _framework density 21.213543999999999
#
# number of rings (size 3 to 8) (size 9 to 14) (size 15 to 20)
#    0.000    2.000    2.500    1.500    3.500    4.500 
#    2.250    0.000    0.000    0.750    3.250    0.000 
#    0.000    0.000    0.000    0.000    0.000    0.000 
#
# Total GULP energy -396651.462737 kJ/mol
# GULP energy per Si atom -12395.358211 kJ/mol
# Density = 2.116526 g / cm^3
# Si number density = 21.213544 Si / 1000 Ang^3
#
#
#
# Elastic Constant Matrix: (Units=GPa)
#
#
# Indices 1 2 3 4 5 6 
#
# 1 62.3707 25.8487 4.9265 0.0000 -8.7727 0.0000
# 2 25.8487 89.0965 19.9031 0.0000 -10.2717 0.0000
# 3 4.9265 19.9031 59.1278 0.0000 -11.3484 0.0000
# 4 0.0000 0.0000 0.0000 21.1755 0.0000 -5.4095
# 5 -8.7727 -10.2717 -11.3484 0.0000 25.5448 0.0000
# 6 0.0000 0.0000 0.0000 -5.4095 0.0000 22.0447
#
#
#
# Elastic Compliance Matrix: (Units=1/GPa)
#
#
# Indices 1 2 3 4 5 6 
#
# 1 0.018755 -0.005125 0.001097 0.000000 0.004867 0.000000
# 2 -0.005125 0.013805 -0.003818 0.000000 0.002095 0.000000
# 3 0.001097 -0.003818 0.019551 0.000000 0.007527 0.000000
# 4 0.000000 0.000000 0.000000 0.050383 0.000000 0.012363
# 5 0.004867 0.002095 0.007527 0.000000 0.045005 0.000000
# 6 0.000000 0.000000 0.000000 0.012363 0.000000 0.048396
#
#
# Mechanical properties :
#
#
# Convention : Reuss Voigt Hill
#
# Bulk Modulus (GPa) = 27.45844 34.66127 31.05986
# Shear Modulus (GPa) = 22.34865 24.41410 23.38137
#
# Velocity S-wave (km/s) = 3.24930 3.39613 3.32353
# Velocity P-wave (km/s) = 5.20088 5.63498 5.42228
#
# Compressibility (1/GPa) = 0.03641867
#
# Stress axis : x y z
#
# Youngs Moduli (GPa) = 53.31857 72.43719 51.14841
#
# Poissons Ratio (x) = 0.37125 -0.05609
# Poissons Ratio (y) = 0.27326 0.19528
# Poissons Ratio (z) = -0.05847 0.27655
#
# Static dielectric constant tensor:
#      x y z
#    x 3.785650 0.000000 -0.145220 
#    y 0.000000 4.041230 0.000000 
#    z -0.145220 0.000000 3.655530 
# 
# 
# High freq. dielectric constant tensor:
#      x y z
#    x 1.827480 0.000000 -0.009170 
#    y 0.000000 1.823880 0.000000 
#    z -0.009170 0.000000 1.808930 
# 
# From -- ./inp_files/39492.got.cif
#   From: 2010.06.25/outbox.cif.g09.slc.cpg/sg13_20_cif.got.tgz:39492.got - 2010.06.28 04:50:58.
