data_PCOD8117705
_publ_section_title
;
Structure prediction by ZEFSAII (Michael W. Deem and Ramdas Pophale) SiO2 
 PCOD8117705
Probable space group: P 2/C
;
_chemical_formula_sum "Si O2"
_cell_formula_units_Z 32
_cell_length_a 20.516554
_cell_length_b 9.067125
_cell_length_c 29.176277
_cell_angle_alpha 90.000000
_cell_angle_beta 19.348783
_cell_angle_gamma 90.000000
_cell_volume 1798.244437
_symmetry_space_group_name_H-M "P 2/C"
_symmetry_group_IT_number 13
_symmetry_cell_setting 'monoclinic'
loop_
_space_group_symop_operation_xyz
x,y,z
-x,y,1/2-z
-x,-y,-z
x,-y,1/2+z
loop_
_atom_site_type_symbol
_atom_site_label
_atom_site_fract_x
_atom_site_fract_y
_atom_site_fract_z
Si Si1 0.077846 0.853249 0.078844
Si Si2 0.253471 0.339677 0.254632
Si Si3 0.455650 0.910931 0.461102
Si Si4 0.055689 0.231189 0.976034
Si Si5 0.217893 0.096518 0.204642
Si Si6 0.241520 0.673443 0.259947
Si Si7 0.746590 0.955861 0.630183
Si Si8 0.571303 0.149437 0.095624
O O1 0.909968 0.734301 0.177883
O O2 0.212935 0.884120 0.945366
O O3 0.218522 0.787945 0.025721
O O4 0.986771 0.008414 0.156346
O O5 0.208801 0.248991 0.238283
O O6 0.298767 0.506493 0.209999
O O7 0.442290 0.276714 0.157096
O O8 0.052183 0.343566 0.417968
O O9 0.272534 0.869585 0.615506
O O10 0.555047 0.764052 0.374702
O O11 0.619808 0.993583 0.380882
O O12 0.381024 0.015840 0.470283
O O13 0.145507 0.319166 0.873937
O O14 0.223259 0.133750 0.890346
O O15 0.889266 0.113672 0.073420
O O16 0.529245 0.918434 0.792079
#
# Coordination Sequence:
#
# PCOD8117705 Si02
#       8
#     4   4   4   4   4   4   4   4
#     4  10  19  32  52  75 101 131 170 218 261 301
#     4  10  19  32  52  77 105 139 170 206 253 311
#     4   9  18  33  52  73  96 128 173 213 246 294
#     4   9  15  28  51  75  99 131 171 207 244 300
#     4   9  18  33  52  73  96 128 173 213 246 294
#     4  10  19  32  52  77 105 139 170 206 253 311
#     4   9  15  28  51  75  98 125 166 214 255 294
#     4  10  19  32  52  75 101 131 170 218 261 301
#
# _framework density 17.795133
#
# number of rings (size 3 to 8) (size 9 to 14) (size 15 to 20)
#    0.000    2.500    2.500    0.750    0.000    1.000 
#    0.000    1.250    0.000    0.000    0.000    0.000 
#    0.000    0.000    0.000    0.000    0.000    0.000 
#
# Total GULP energy -396620.596597 kJ/mol
# GULP energy per Si atom -12394.393644 kJ/mol
# Density = 1.775463 g / cm^3
# Si number density = 17.795133 Si / 1000 Ang^3
#
#
#
# Elastic Constant Matrix: (Units=GPa)
#
#
# Indices 1 2 3 4 5 6 
#
# 1 63.1670 34.9693 45.1011 0.0000 -1.8295 0.0000
# 2 34.9693 110.1734 23.5439 0.0000 0.1626 0.0000
# 3 45.1011 23.5439 56.3414 0.0000 17.0654 0.0000
# 4 0.0000 0.0000 0.0000 11.8811 0.0000 -0.7976
# 5 -1.8295 0.1626 17.0654 0.0000 35.4348 0.0000
# 6 0.0000 0.0000 0.0000 -0.7976 0.0000 12.7386
#
#
#
# Elastic Compliance Matrix: (Units=1/GPa)
#
#
# Indices 1 2 3 4 5 6 
#
# 1 0.057016 -0.007251 -0.050945 0.000000 0.027512 0.000000
# 2 -0.007251 0.011051 0.001540 0.000000 -0.001167 0.000000
# 3 -0.050945 0.001540 0.068708 0.000000 -0.035727 0.000000
# 4 0.000000 0.000000 0.000000 0.084522 0.000000 0.005292
# 5 0.027512 -0.001167 -0.035727 0.000000 0.046853 0.000000
# 6 0.000000 0.000000 0.000000 0.005292 0.000000 0.078833
#
#
# Mechanical properties :
#
#
# Convention : Reuss Voigt Hill
#
# Bulk Modulus (GPa) = 42.61904 48.54561 45.58232
# Shear Modulus (GPa) = 10.68112 20.41542 15.54827
#
# Velocity S-wave (km/s) = 2.45261 3.39078 2.95911
# Velocity P-wave (km/s) = 5.65882 6.53218 6.11112
#
# Compressibility (1/GPa) = 0.02346369
#
# Stress axis : x y z
#
# Youngs Moduli (GPa) = 17.53884 90.49191 14.55435
#
# Poissons Ratio (x) = 0.65615 0.74147
# Poissons Ratio (y) = 0.12717 -0.02241
# Poissons Ratio (z) = 0.89351 -0.13934
#
# Static dielectric constant tensor:
#      x y z
#    x 3.189260 0.000000 0.211580 
#    y 0.000000 3.034970 0.000000 
#    z 0.211580 0.000000 3.444760 
# 
# 
# High freq. dielectric constant tensor:
#      x y z
#    x 1.672280 0.000000 0.015840 
#    y 0.000000 1.662700 0.000000 
#    z 0.015840 0.000000 1.685740 
# 
# From -- ./inp_files/97542.got.cif
#   From: 2010.06.25/outbox.cif.g09.slc.cpg/sg13_49_cif.got.tgz:97542.got - 2010.06.28 04:50:58.
