data_PCOD8117958
_publ_section_title
;
Structure prediction by ZEFSAII (Michael W. Deem and Ramdas Pophale) SiO2 
 PCOD8117958
Probable space group: P 2/C
;
_chemical_formula_sum "Si O2"
_cell_formula_units_Z 28
_cell_length_a 7.604633
_cell_length_b 15.930462
_cell_length_c 19.323740
_cell_angle_alpha 90.000000
_cell_angle_beta 142.558321
_cell_angle_gamma 90.000000
_cell_volume 1423.207506
_symmetry_space_group_name_H-M "P 2/C"
_symmetry_group_IT_number 13
_symmetry_cell_setting 'monoclinic'
loop_
_space_group_symop_operation_xyz
x,y,z
-x,y,1/2-z
-x,-y,-z
x,-y,1/2+z
loop_
_atom_site_type_symbol
_atom_site_label
_atom_site_fract_x
_atom_site_fract_y
_atom_site_fract_z
Si Si1 0.253670 0.657582 0.723735
Si Si2 0.210296 0.899638 0.505459
Si Si3 0.612791 0.630976 0.498602
Si Si4 0.724669 0.804991 0.114813
Si Si5 0.670539 0.518772 0.649003
Si Si6 0.174583 0.095350 0.482930
Si Si7 0.302806 0.835059 0.755862
O O1 0.500000 0.685186 0.750000
O O2 0.363345 0.572324 0.792336
O O3 0.239178 0.741164 0.767119
O O4 0.948049 0.649805 0.589115
O O5 0.164506 0.840890 0.424205
O O6 0.538555 0.887448 0.634915
O O7 0.974650 0.875930 0.491205
O O8 0.179637 0.995925 0.476070
O O9 0.418493 0.713563 0.439384
O O10 0.575357 0.581778 0.558740
O O11 0.515895 0.566333 0.407646
O O12 0.000000 0.795775 0.250000
O O13 0.496389 0.866940 0.080407
O O14 0.000000 0.489604 0.750000
O O15 0.004612 0.126159 0.361641
O O16 0.500000 0.837695 0.750000
#
# Coordination Sequence:
#
# PCOD8117958 Si02
#       7
#     4   4   4   4   4   4   4
#     4  10  19  34  60  87 115 149 196 254 305 358
#     4  10  23  40  65  89 121 165 201 254 310 357
#     4  10  20  38  56  83 118 154 197 248 293 363
#     4  12  25  39  60  89 125 164 205 243 304 371
#     4   9  19  35  60  82 112 155 194 239 308 361
#     4  10  22  42  62  90 124 156 204 260 304 356
#     4   9  18  36  62  89 116 154 204 250 305 360
#
# _framework density 19.673870999999998
#
# number of rings (size 3 to 8) (size 9 to 14) (size 15 to 20)
#    0.000    2.000    1.429    1.714    2.000    1.714 
#    0.000    0.000    3.143    0.000    0.000    0.000 
#    0.000    0.000    0.000    0.000    0.000    0.000 
#
# Total GULP energy -346976.774902 kJ/mol
# GULP energy per Si atom -12392.027675 kJ/mol
# Density = 1.962909 g / cm^3
# Si number density = 19.673871 Si / 1000 Ang^3
#
#
#
# Elastic Constant Matrix: (Units=GPa)
#
#
# Indices 1 2 3 4 5 6 
#
# 1 71.4705 36.6586 41.5798 0.0000 5.7600 0.0000
# 2 36.6586 125.1880 56.5735 0.0000 1.7142 0.0000
# 3 41.5798 56.5735 126.3776 0.0000 2.5139 0.0000
# 4 0.0000 0.0000 0.0000 41.8007 0.0000 5.2892
# 5 5.7600 1.7142 2.5139 0.0000 24.0429 0.0000
# 6 0.0000 0.0000 0.0000 5.2892 0.0000 28.0314
#
#
#
# Elastic Compliance Matrix: (Units=1/GPa)
#
#
# Indices 1 2 3 4 5 6 
#
# 1 0.018671 -0.003352 -0.004568 0.000000 -0.003757 0.000000
# 2 -0.003352 0.010617 -0.003658 0.000000 0.000429 0.000000
# 3 -0.004568 -0.003658 0.011049 0.000000 0.000200 0.000000
# 4 0.000000 0.000000 0.000000 0.024508 0.000000 -0.004624
# 5 -0.003757 0.000429 0.000200 0.000000 0.042441 0.000000
# 6 0.000000 0.000000 0.000000 -0.004624 0.000000 0.036547
#
#
# Mechanical properties :
#
#
# Convention : Reuss Voigt Hill
#
# Bulk Modulus (GPa) = 58.20277 65.85111 62.02694
# Shear Modulus (GPa) = 28.94912 31.32327 30.13619
#
# Velocity S-wave (km/s) = 3.84011 3.99447 3.91805
# Velocity P-wave (km/s) = 7.02210 7.40395 7.21555
#
# Compressibility (1/GPa) = 0.01718131
#
# Stress axis : x y z
#
# Youngs Moduli (GPa) = 53.55844 94.18949 90.50228
#
# Poissons Ratio (x) = 0.31570 0.41341
# Poissons Ratio (y) = 0.17951 0.33110
# Poissons Ratio (z) = 0.24465 0.34459
#
# Static dielectric constant tensor:
#      x y z
#    x 3.340170 0.000000 0.109170 
#    y 0.000000 3.781290 0.000000 
#    z 0.109170 0.000000 3.802730 
# 
# 
# High freq. dielectric constant tensor:
#      x y z
#    x 1.745270 0.000000 0.010690 
#    y 0.000000 1.783870 0.000000 
#    z 0.010690 0.000000 1.771980 
# 
# From -- ./inp_files/76770.got.cif
#   From: 2010.06.25/outbox.cif.g09.slc.cpg/sg13_39_cif.got.tgz:76770.got - 2010.06.28 04:50:58.
