data_PCOD8117959
_publ_section_title
;
Structure prediction by ZEFSAII (Michael W. Deem and Ramdas Pophale) SiO2 
 PCOD8117959
Probable space group: P 2/C
;
_chemical_formula_sum "Si O2"
_cell_formula_units_Z 28
_cell_length_a 10.063839
_cell_length_b 11.356220
_cell_length_c 13.989866
_cell_angle_alpha 90.000000
_cell_angle_beta 115.479288
_cell_angle_gamma 90.000000
_cell_volume 1443.358216
_symmetry_space_group_name_H-M "P 2/C"
_symmetry_group_IT_number 13
_symmetry_cell_setting 'monoclinic'
loop_
_space_group_symop_operation_xyz
x,y,z
-x,y,1/2-z
-x,-y,-z
x,-y,1/2+z
loop_
_atom_site_type_symbol
_atom_site_label
_atom_site_fract_x
_atom_site_fract_y
_atom_site_fract_z
Si Si1 0.714193 0.698536 0.150937
Si Si2 0.152906 0.354745 0.013998
Si Si3 0.830595 0.954978 0.223719
Si Si4 0.199207 0.061245 0.472615
Si Si5 0.182949 0.594839 0.129164
Si Si6 0.887200 0.878961 0.908556
Si Si7 0.581976 0.231570 0.872217
O O1 0.773789 0.821854 0.213535
O O2 0.768972 0.598874 0.243734
O O3 0.536922 0.710681 0.092576
O O4 0.761505 0.663082 0.059324
O O5 0.204842 0.466609 0.090334
O O6 0.186256 0.248396 0.098418
O O7 0.982711 0.360238 0.932274
O O8 0.000000 0.949367 0.250000
O O9 0.746076 0.028129 0.116082
O O10 0.803716 0.032296 0.310426
O O11 0.344454 0.112524 0.566363
O O12 0.057063 0.147963 0.430878
O O13 0.130445 0.941479 0.494726
O O14 0.288801 0.675812 0.100099
O O15 0.500000 0.196987 0.750000
#
# Coordination Sequence:
#
# PCOD8117959 Si02
#       7
#     4   4   4   4   4   4   4
#     4  11  22  39  63  87 119 158 204 236 297 370
#     4  11  21  39  62  89 114 152 203 257 291 339
#     4  10  20  34  60  90 120 157 194 246 299 355
#     4  10  19  35  59  89 121 154 194 241 299 354
#     4  10  22  39  61  85 116 155 202 250 293 347
#     4  10  19  34  60  90 122 151 192 252 298 343
#     4  10  21  38  61  86 121 164 196 237 293 366
#
# _framework density 19.399204999999998
#
# number of rings (size 3 to 8) (size 9 to 14) (size 15 to 20)
#    0.000    1.714    2.857    3.000    2.000    1.143 
#    2.571    1.429    0.000    0.000    0.000    0.000 
#    0.000    0.000    0.000    0.000    0.000    0.000 
#
# Total GULP energy -346998.479846 kJ/mol
# GULP energy per Si atom -12392.802852 kJ/mol
# Density = 1.935505 g / cm^3
# Si number density = 19.399205 Si / 1000 Ang^3
#
#
#
# Elastic Constant Matrix: (Units=GPa)
#
#
# Indices 1 2 3 4 5 6 
#
# 1 97.2970 34.4072 40.4212 0.0000 -6.7213 0.0000
# 2 34.4072 91.5246 54.3291 0.0000 -11.2823 0.0000
# 3 40.4212 54.3291 90.6964 0.0000 -10.6225 0.0000
# 4 0.0000 0.0000 0.0000 37.7974 0.0000 0.6085
# 5 -6.7213 -11.2823 -10.6225 0.0000 32.3109 0.0000
# 6 0.0000 0.0000 0.0000 0.6085 0.0000 21.5802
#
#
#
# Elastic Compliance Matrix: (Units=1/GPa)
#
#
# Indices 1 2 3 4 5 6 
#
# 1 0.012907 -0.002191 -0.004384 0.000000 0.000479 0.000000
# 2 -0.002191 0.017554 -0.009229 0.000000 0.002639 0.000000
# 3 -0.004384 -0.009229 0.018746 0.000000 0.002028 0.000000
# 4 0.000000 0.000000 0.000000 0.026469 0.000000 -0.000746
# 5 0.000479 0.002639 0.002028 0.000000 0.032637 0.000000
# 6 0.000000 0.000000 0.000000 -0.000746 0.000000 0.046360
#
#
# Mechanical properties :
#
#
# Convention : Reuss Voigt Hill
#
# Bulk Modulus (GPa) = 56.82494 59.75922 58.29208
# Shear Modulus (GPa) = 26.02182 28.36173 27.19178
#
# Velocity S-wave (km/s) = 3.66647 3.82777 3.74798
# Velocity P-wave (km/s) = 6.87604 7.09983 6.98883
#
# Compressibility (1/GPa) = 0.01759791
#
# Stress axis : x y z
#
# Youngs Moduli (GPa) = 77.47817 56.96824 53.34540
#
# Poissons Ratio (x) = 0.12481 0.23386
# Poissons Ratio (y) = 0.16975 0.49235
# Poissons Ratio (z) = 0.33965 0.52579
#
# Static dielectric constant tensor:
#      x y z
#    x 3.752920 0.000000 -0.050720 
#    y 0.000000 3.490530 0.000000 
#    z -0.050720 0.000000 3.590310 
# 
# 
# High freq. dielectric constant tensor:
#      x y z
#    x 1.759200 0.000000 -0.010750 
#    y 0.000000 1.744440 0.000000 
#    z -0.010750 0.000000 1.745470 
# 
# From -- ./inp_files/47326.got.cif
#   From: 2010.06.25/outbox.cif.g09.slc.cpg/sg13_24_cif.got.tgz:47326.got - 2010.06.28 04:50:58.
