data_PCOD8117060
_publ_section_title
;
Structure prediction by ZEFSAII (Michael W. Deem and Ramdas Pophale) SiO2 
 PCOD8117060
Probable space group: P 2/C
;
_chemical_formula_sum "Si O2"
_cell_formula_units_Z 28
_cell_length_a 8.871731
_cell_length_b 15.126717
_cell_length_c 20.635992
_cell_angle_alpha 90.000000
_cell_angle_beta 30.702328
_cell_angle_gamma 90.000000
_cell_volume 1413.970575
_symmetry_space_group_name_H-M "P 2/C"
_symmetry_group_IT_number 13
_symmetry_cell_setting 'monoclinic'
loop_
_space_group_symop_operation_xyz
x,y,z
-x,y,1/2-z
-x,-y,-z
x,-y,1/2+z
loop_
_atom_site_type_symbol
_atom_site_label
_atom_site_fract_x
_atom_site_fract_y
_atom_site_fract_z
Si Si1 0.000000 0.500000 0.750000
Si Si2 0.819807 0.103405 0.500000
Si Si3 0.326111 0.800378 0.747155
Si Si4 0.534603 0.619620 0.857576
Si Si5 0.314731 0.199622 0.752845
Si Si6 0.500000 0.500000 0.250000
Si Si7 0.821533 0.095793 0.000000
Si Si8 0.964909 0.380380 0.642424
O O1 0.720361 0.561393 0.839024
O O2 0.076455 0.438607 0.660977
O O3 0.511265 0.154556 0.624266
O O4 0.008327 0.154556 0.375735
O O5 0.998915 0.098076 0.500000
O O6 0.756755 0.003718 0.500000
O O7 0.500000 0.793857 0.750000
O O8 0.272976 0.702033 0.739261
O O9 0.507996 0.856870 0.627162
O O10 0.421956 0.560107 0.840112
O O11 0.246554 0.657415 1.000000
O O12 0.500000 0.206143 0.750000
O O13 0.230022 0.297966 0.760739
O O14 0.016642 0.143130 0.872839
O O15 0.217594 0.560108 0.340112
#
# Coordination Sequence:
#
# PCOD8117060 Si02
#       8
#     2   4   4   4   4   2   4   4
#     4  10  26  42  56  80 110 156 204 242 294 344
#     4   9  18  28  46  82 119 149 181 225 283 349
#     4  10  18  30  53  82 115 150 186 232 283 343
#     4  11  21  40  58  84 114 151 194 243 292 349
#     4  10  18  30  53  82 115 150 186 232 283 343
#     4  10  22  34  60  88 110 144 184 250 298 340
#     4   9  16  30  48  76 119 155 181 223 285 339
#     4  11  21  40  58  84 114 151 194 243 292 349
#
# _framework density 19.802391
#
# number of rings (size 3 to 8) (size 9 to 14) (size 15 to 20)
#    0.000    2.000    2.857    1.714    0.000    3.429 
#   12.857    0.000    0.000    0.000    0.000    6.000 
#    0.000    0.000    0.000    0.000    0.000    0.000 
#
# Total GULP energy -347240.899377 kJ/mol
# GULP energy per Si atom -12401.460692 kJ/mol
# Density = 1.975732 g / cm^3
# Si number density = 19.802391 Si / 1000 Ang^3
#
#
#
# Elastic Constant Matrix: (Units=GPa)
#
#
# Indices 1 2 3 4 5 6 
#
# 1 59.3556 35.8825 24.7447 0.0000 -0.1805 0.0000
# 2 35.8825 173.4237 78.2185 0.0000 0.3729 0.0000
# 3 24.7447 78.2185 162.2871 0.0000 1.0873 0.0000
# 4 0.0000 0.0000 0.0000 41.3618 0.0000 3.2185
# 5 -0.1805 0.3729 1.0873 0.0000 7.0493 0.0000
# 6 0.0000 0.0000 0.0000 3.2185 0.0000 -324.5723
#
#
#
# Elastic Compliance Matrix: (Units=1/GPa)
#
#
# Indices 1 2 3 4 5 6 
#
# 1 0.019478 -0.003437 -0.001319 0.000000 0.000884 0.000000
# 2 -0.003437 0.007975 -0.003319 0.000000 0.000002 0.000000
# 3 -0.001319 -0.003319 0.007970 0.000000 -0.001088 0.000000
# 4 0.000000 0.000000 0.000000 0.024158 0.000000 0.000240
# 5 0.000884 0.000002 -0.001088 0.000000 0.142048 0.000000
# 6 0.000000 0.000000 0.000000 0.000240 0.000000 -0.003079
#
#
# Mechanical properties :
#
#
# Convention : Reuss Voigt Hill
#
# Bulk Modulus (GPa) = 51.89059 74.75086 63.32073
# Shear Modulus (GPa) = 22.61153 -38.15085 -7.76966
#
# Velocity S-wave (km/s) = 3.38281 -4.39404 -1.98296
# Velocity P-wave (km/s) = 6.44352 3.47662 5.17715
#
# Compressibility (1/GPa) = 0.01927132
#
# Stress axis : x y z
#
# Youngs Moduli (GPa) = 51.33975 125.39910 125.46614
#
# Poissons Ratio (x) = 0.43100 0.16552
# Poissons Ratio (y) = 0.17646 0.41648
# Poissons Ratio (z) = 0.06773 0.41626
#
# Static dielectric constant tensor:
#      x y z
#    x 3.145120 0.000000 0.003900 
#    y 0.000000 3.752040 0.000000 
#    z 0.003900 0.000000 3.589050 
# 
# 
# High freq. dielectric constant tensor:
#      x y z
#    x 1.718740 0.000000 0.000520 
#    y 0.000000 1.790170 0.000000 
#    z 0.000520 0.000000 1.777440 
# 
# From -- ./inp_files/76725.got.cif
#   From: 2010.06.25/outbox.cif.g09.slc.cpg/sg13_39_cif.got.tgz:76725.got - 2010.06.28 04:50:58.
