data_PCOD8117670
_publ_section_title
;
Structure prediction by ZEFSAII (Michael W. Deem and Ramdas Pophale) SiO2 
 PCOD8117670
Probable space group: P 2/C
;
_chemical_formula_sum "Si O2"
_cell_formula_units_Z 28
_cell_length_a 9.358965
_cell_length_b 10.195256
_cell_length_c 20.131042
_cell_angle_alpha 90.000000
_cell_angle_beta 130.215640
_cell_angle_gamma 90.000000
_cell_volume 1466.794929
_symmetry_space_group_name_H-M "P 2/C"
_symmetry_group_IT_number 13
_symmetry_cell_setting 'monoclinic'
loop_
_space_group_symop_operation_xyz
x,y,z
-x,y,1/2-z
-x,-y,-z
x,-y,1/2+z
loop_
_atom_site_type_symbol
_atom_site_label
_atom_site_fract_x
_atom_site_fract_y
_atom_site_fract_z
Si Si1 0.692086 0.810905 0.700583
Si Si2 0.336518 0.071986 0.873262
Si Si3 0.659612 0.340165 0.574824
Si Si4 0.733341 0.757219 0.954042
Si Si5 0.234218 0.028252 0.481065
Si Si6 0.953059 0.738663 0.895822
Si Si7 0.253128 0.625928 0.901432
O O1 0.478508 0.763728 0.635787
O O2 0.780691 0.776178 0.797020
O O3 0.789644 0.732843 0.668692
O O4 0.715724 0.970478 0.701179
O O5 0.276645 0.226779 0.853039
O O6 0.226669 0.013105 0.902469
O O7 0.558163 0.080777 0.945387
O O8 0.747828 0.319591 0.527948
O O9 0.727501 0.479927 0.623688
O O10 0.435706 0.336581 0.498760
O O11 0.863540 0.687004 0.937979
O O12 0.808917 0.904914 0.985045
O O13 0.082085 0.137158 0.450395
O O14 0.077574 0.625998 0.899139
#
# Coordination Sequence:
#
# PCOD8117670 Si02
#       7
#     4   4   4   4   4   4   4
#     4  10  20  33  52  77 106 138 169 212 267 308
#     4   9  15  32  53  75 100 131 175 212 258 300
#     4   9  18  35  53  74  99 133 176 216 262 298
#     4   9  20  33  50  77 107 136 169 212 260 310
#     4   9  16  29  51  77 100 129 169 216 246 297
#     4  12  19  30  52  80 108 133 170 215 259 309
#     4  10  19  31  54  78  96 132 181 218 251 306
#
# _framework density 19.08924
#
# number of rings (size 3 to 8) (size 9 to 14) (size 15 to 20)
#    0.000    2.286    2.857    3.000    0.000    0.571 
#    0.000    0.000   12.571    0.000    0.000    4.000 
#    0.000    0.000    0.000    0.000    0.000    0.000 
#
# Total GULP energy -346894.105765 kJ/mol
# GULP energy per Si atom -12389.075206 kJ/mol
# Density = 1.904579 g / cm^3
# Si number density = 19.089240 Si / 1000 Ang^3
#
#
#
# Elastic Constant Matrix: (Units=GPa)
#
#
# Indices 1 2 3 4 5 6 
#
# 1 90.4482 7.4527 3.6900 0.0000 -0.5073 0.0000
# 2 7.4527 104.4825 10.7958 0.0000 -2.3882 0.0000
# 3 3.6900 10.7958 43.9104 0.0000 -1.4297 0.0000
# 4 0.0000 0.0000 0.0000 13.5672 0.0000 3.8793
# 5 -0.5073 -2.3882 -1.4297 0.0000 11.5547 0.0000
# 6 0.0000 0.0000 0.0000 3.8793 0.0000 18.8769
#
#
#
# Elastic Compliance Matrix: (Units=1/GPa)
#
#
# Indices 1 2 3 4 5 6 
#
# 1 0.011147 -0.000712 -0.000754 0.000000 0.000249 0.000000
# 2 -0.000712 0.009901 -0.002318 0.000000 0.001728 0.000000
# 3 -0.000754 -0.002318 0.023485 0.000000 0.002394 0.000000
# 4 0.000000 0.000000 0.000000 0.078309 0.000000 -0.016093
# 5 0.000249 0.001728 0.002394 0.000000 0.087209 0.000000
# 6 0.000000 0.000000 0.000000 -0.016093 0.000000 0.056282
#
#
# Mechanical properties :
#
#
# Convention : Reuss Voigt Hill
#
# Bulk Modulus (GPa) = 27.05207 31.41312 29.23260
# Shear Modulus (GPa) = 17.46901 23.25992 20.36447
#
# Velocity S-wave (km/s) = 3.02838 3.49447 3.26974
# Velocity P-wave (km/s) = 5.14104 5.72480 5.44076
#
# Compressibility (1/GPa) = 0.03696575
#
# Stress axis : x y z
#
# Youngs Moduli (GPa) = 89.71163 101.00234 42.58068
#
# Poissons Ratio (x) = 0.07187 0.03209
# Poissons Ratio (y) = 0.06383 0.09871
# Poissons Ratio (z) = 0.06761 0.23414
#
# Static dielectric constant tensor:
#      x y z
#    x 3.449790 0.000000 0.077820 
#    y 0.000000 3.582760 0.000000 
#    z 0.077820 0.000000 3.114790 
# 
# 
# High freq. dielectric constant tensor:
#      x y z
#    x 1.738520 0.000000 0.013310 
#    y 0.000000 1.738120 0.000000 
#    z 0.013310 0.000000 1.702750 
# 
# From -- ./inp_files/69798.got.cif
#   From: 2010.06.25/outbox.cif.g09.slc.cpg/sg13_35_cif.got.tgz:69798.got - 2010.06.28 04:50:58.
