data_PCOD8117546
_publ_section_title
;
Structure prediction by ZEFSAII (Michael W. Deem and Ramdas Pophale) SiO2 
 PCOD8117546
Probable space group: P 2/C
;
_chemical_formula_sum "Si O2"
_cell_formula_units_Z 24
_cell_length_a 17.831214
_cell_length_b 8.779476
_cell_length_c 17.442133
_cell_angle_alpha 90.000000
_cell_angle_beta 156.547705
_cell_angle_gamma 90.000000
_cell_volume 1086.716393
_symmetry_space_group_name_H-M "P 2/C"
_symmetry_group_IT_number 13
_symmetry_cell_setting 'monoclinic'
loop_
_space_group_symop_operation_xyz
x,y,z
-x,y,1/2-z
-x,-y,-z
x,-y,1/2+z
loop_
_atom_site_type_symbol
_atom_site_label
_atom_site_fract_x
_atom_site_fract_y
_atom_site_fract_z
Si Si1 0.608347 0.238827 0.211963
Si Si2 0.993486 0.391161 0.594837
Si Si3 0.773743 0.656150 0.433317
Si Si4 0.000000 0.807363 0.250000
Si Si5 0.699854 0.019745 0.903379
Si Si6 0.500000 0.438103 0.250000
Si Si7 0.375385 0.354144 0.867708
O O1 0.797742 0.335606 0.372313
O O2 0.487069 0.327378 0.163986
O O3 0.666660 0.069023 0.292254
O O4 0.478491 0.222312 0.014306
O O5 0.966321 0.570684 0.589640
O O6 0.037420 0.294762 0.711448
O O7 0.159312 0.375462 0.689917
O O8 0.820567 0.825608 0.506289
O O9 0.681578 0.548024 0.412590
O O10 0.626324 0.679647 0.224363
O O11 0.186128 0.909939 0.432871
O O12 0.500000 0.067611 0.750000
O O13 0.500000 0.500000 0.000000
#
# Coordination Sequence:
#
# PCOD8117546 Si02
#       7
#     4   4   4   2   4   2   4
#     4  10  22  40  68  90 128 173 216 256 324 392
#     4  10  23  40  65  94 125 166 226 261 307 397
#     4  11  24  39  64  99 134 159 214 280 318 370
#     4  10  24  44  68  96 120 184 216 258 334 386
#     4  11  22  43  64  96 140 162 211 275 323 384
#     4  10  18  38  62  96 118 170 216 254 308 380
#     4  12  23  40  67  94 126 175 216 265 330 376
#
# _framework density 22.084879000000001
#
# number of rings (size 3 to 8) (size 9 to 14) (size 15 to 20)
#    0.000    1.333    5.000    1.500    4.667    1.333 
#    3.000    3.333    0.000    0.000    0.000    0.000 
#    0.000    0.000    0.000    0.000    0.000    0.000 
#
# Total GULP energy -297541.559551 kJ/mol
# GULP energy per Si atom -12397.564981 kJ/mol
# Density = 2.203461 g / cm^3
# Si number density = 22.084879 Si / 1000 Ang^3
#
#
#
# Elastic Constant Matrix: (Units=GPa)
#
#
# Indices 1 2 3 4 5 6 
#
# 1 59.0546 8.5631 28.5537 0.0000 6.5965 0.0000
# 2 8.5631 126.3330 21.2954 0.0000 0.7217 0.0000
# 3 28.5537 21.2954 101.6848 0.0000 1.2860 0.0000
# 4 0.0000 0.0000 0.0000 25.5984 0.0000 1.5695
# 5 6.5965 0.7217 1.2860 0.0000 37.0227 0.0000
# 6 0.0000 0.0000 0.0000 1.5695 0.0000 9.9685
#
#
#
# Elastic Compliance Matrix: (Units=1/GPa)
#
#
# Indices 1 2 3 4 5 6 
#
# 1 0.020026 -0.000412 -0.005495 0.000000 -0.003369 0.000000
# 2 -0.000412 0.008214 -0.001604 0.000000 -0.000031 0.000000
# 3 -0.005495 -0.001604 0.011706 0.000000 0.000604 0.000000
# 4 0.000000 0.000000 0.000000 0.039446 0.000000 -0.006211
# 5 -0.003369 -0.000031 0.000604 0.000000 0.027590 0.000000
# 6 0.000000 0.000000 0.000000 -0.006211 0.000000 0.101294
#
#
# Mechanical properties :
#
#
# Convention : Reuss Voigt Hill
#
# Bulk Modulus (GPa) = 40.12127 44.87744 42.49936
# Shear Modulus (GPa) = 21.58845 29.76193 25.67519
#
# Velocity S-wave (km/s) = 3.12993 3.67497 3.41335
# Velocity P-wave (km/s) = 5.59180 6.19449 5.90085
#
# Compressibility (1/GPa) = 0.02492443
#
# Stress axis : x y z
#
# Youngs Moduli (GPa) = 49.93432 121.74195 85.42953
#
# Poissons Ratio (x) = 0.05015 0.46940
# Poissons Ratio (y) = 0.02057 0.13704
# Poissons Ratio (z) = 0.27437 0.19529
#
# Static dielectric constant tensor:
#      x y z
#    x 4.103330 0.000000 -0.205190 
#    y 0.000000 3.998400 0.000000 
#    z -0.205190 0.000000 4.170790 
# 
# 
# High freq. dielectric constant tensor:
#      x y z
#    x 1.857960 0.000000 0.000060 
#    y 0.000000 1.862510 0.000000 
#    z 0.000060 0.000000 1.865540 
# 
# From -- ./inp_files/81741.got.cif
#   From: 2010.06.25/outbox.cif.g09.slc.cpg/sg13_41_cif.got.tgz:81741.got - 2010.06.28 04:50:58.
