data_PCOD8117089
_publ_section_title
;
Structure prediction by ZEFSAII (Michael W. Deem and Ramdas Pophale) SiO2 
 PCOD8117089
Probable space group: P 2/C
;
_chemical_formula_sum "Si O2"
_cell_formula_units_Z 28
_cell_length_a 8.886891
_cell_length_b 16.748876
_cell_length_c 10.071460
_cell_angle_alpha 90.000000
_cell_angle_beta 83.881720
_cell_angle_gamma 90.000000
_cell_volume 1490.552013
_symmetry_space_group_name_H-M "P 2/C"
_symmetry_group_IT_number 13
_symmetry_cell_setting 'monoclinic'
loop_
_space_group_symop_operation_xyz
x,y,z
-x,y,1/2-z
-x,-y,-z
x,-y,1/2+z
loop_
_atom_site_type_symbol
_atom_site_label
_atom_site_fract_x
_atom_site_fract_y
_atom_site_fract_z
Si Si1 0.589897 0.324678 0.876383
Si Si2 0.198669 0.084115 0.470741
Si Si3 0.621934 0.333593 0.353622
Si Si4 0.822936 0.816721 0.782318
Si Si5 0.394438 0.505679 0.134394
Si Si6 0.150362 0.903383 0.453333
Si Si7 0.334838 0.840527 0.201945
O O1 0.500000 0.324781 0.750000
O O2 0.690008 0.407676 0.875322
O O3 0.694930 0.246375 0.862971
O O4 0.464962 0.315127 0.002752
O O5 0.244308 0.140002 0.341855
O O6 0.311735 0.097175 0.583708
O O7 0.029942 0.102384 0.536693
O O8 0.210194 0.992777 0.423388
O O9 0.500000 0.331996 0.250000
O O10 0.750276 0.269585 0.311357
O O11 0.701655 0.422883 0.349875
O O12 0.000000 0.802660 0.750000
O O13 0.787678 0.872663 0.911384
O O14 0.500000 0.512703 0.250000
O O15 0.500000 0.500000 0.000000
O O16 0.211793 0.849363 0.328745
O O17 0.500000 0.852439 0.250000
#
# Coordination Sequence:
#
# PCOD8117089 Si02
#       7
#     4   4   4   4   4   4   4
#     4   9  17  30  48  74 103 129 162 202 246 297
#     4  10  21  38  56  72  97 136 179 210 241 301
#     4  10  18  31  51  74 101 131 164 204 249 296
#     4  10  20  33  52  76 100 131 171 212 252 294
#     4   8  15  27  46  71  95 127 165 197 233 291
#     4  10  21  38  56  72  96 137 179 209 243 298
#     4  11  21  33  53  81 107 129 159 212 267 299
#
# _framework density 18.784987999999998
#
# number of rings (size 3 to 8) (size 9 to 14) (size 15 to 20)
#    0.000    2.286    0.000    3.857    0.000    2.857 
#    0.000    2.857    0.000    1.714    0.000   38.000 
#    0.000    0.000    0.000    0.000    0.000    0.000 
#
# Total GULP energy -346891.237846 kJ/mol
# GULP energy per Si atom -12388.972780 kJ/mol
# Density = 1.874223 g / cm^3
# Si number density = 18.784988 Si / 1000 Ang^3
#
#
#
# Elastic Constant Matrix: (Units=GPa)
#
#
# Indices 1 2 3 4 5 6 
#
# 1 28.2625 31.6654 21.0729 0.0000 2.9737 0.0000
# 2 31.6654 133.8617 30.3244 0.0000 -14.1305 0.0000
# 3 21.0729 30.3244 124.0043 0.0000 -2.0919 0.0000
# 4 0.0000 0.0000 0.0000 29.1467 0.0000 -10.9724
# 5 2.9737 -14.1305 -2.0919 0.0000 26.7389 0.0000
# 6 0.0000 0.0000 0.0000 -10.9724 0.0000 15.1752
#
#
#
# Elastic Compliance Matrix: (Units=1/GPa)
#
#
# Indices 1 2 3 4 5 6 
#
# 1 0.056796 -0.013408 -0.006608 0.000000 -0.013919 0.000000
# 2 -0.013408 0.011533 -0.000415 0.000000 0.007554 0.000000
# 3 -0.006608 -0.000415 0.009309 0.000000 0.001244 0.000000
# 4 0.000000 0.000000 0.000000 0.047141 0.000000 0.034085
# 5 -0.013919 0.007554 0.001244 0.000000 0.043036 0.000000
# 6 0.000000 0.000000 0.000000 0.034085 0.000000 0.090542
#
#
# Mechanical properties :
#
#
# Convention : Reuss Voigt Hill
#
# Bulk Modulus (GPa) = 27.18959 50.25042 38.72001
# Shear Modulus (GPa) = 16.05256 27.74988 21.90122
#
# Velocity S-wave (km/s) = 2.92643 3.84765 3.41822
# Velocity P-wave (km/s) = 5.09158 6.82258 6.01963
#
# Compressibility (1/GPa) = 0.03677878
#
# Stress axis : x y z
#
# Youngs Moduli (GPa) = 17.60694 86.70568 107.41719
#
# Poissons Ratio (x) = 1.16252 0.70979
# Poissons Ratio (y) = 0.23607 0.04452
# Poissons Ratio (z) = 0.11634 0.03594
#
# Static dielectric constant tensor:
#      x y z
#    x 2.960340 0.000000 0.020900 
#    y 0.000000 4.551140 0.000000 
#    z 0.020900 0.000000 3.649120 
# 
# 
# High freq. dielectric constant tensor:
#      x y z
#    x 1.666150 0.000000 -0.000460 
#    y 0.000000 1.754980 0.000000 
#    z -0.000460 0.000000 1.759230 
# 
# From -- ./inp_files/13121.got.cif
#   From: 2010.06.25/outbox.cif.g09.slc.cpg/sg13_7_cif.got.tgz:13121.got - 2010.06.28 04:50:58.
