data_PCOD8117876
_publ_section_title
;
Structure prediction by ZEFSAII (Michael W. Deem and Ramdas Pophale) SiO2 
 PCOD8117876
Probable space group: P 2/C
;
_chemical_formula_sum "Si O2"
_cell_formula_units_Z 26
_cell_length_a 10.969538
_cell_length_b 25.151459
_cell_length_c 5.157958
_cell_angle_alpha 90.000000
_cell_angle_beta 114.166848
_cell_angle_gamma 90.000000
_cell_volume 1298.357231
_symmetry_space_group_name_H-M "P 2/C"
_symmetry_group_IT_number 13
_symmetry_cell_setting 'monoclinic'
loop_
_space_group_symop_operation_xyz
x,y,z
-x,y,1/2-z
-x,-y,-z
x,-y,1/2+z
loop_
_atom_site_type_symbol
_atom_site_label
_atom_site_fract_x
_atom_site_fract_y
_atom_site_fract_z
Si Si1 0.230733 0.120849 0.463740
Si Si2 0.000000 0.964286 0.750000
Si Si3 0.348399 0.534014 0.130514
Si Si4 0.354012 0.976542 0.921157
Si Si5 0.840763 0.367482 0.111056
Si Si6 0.842491 0.302798 0.614950
Si Si7 0.159714 0.182814 0.905776
O O1 0.125715 0.073944 0.344170
O O2 0.363825 0.086450 0.509330
O O3 0.230656 0.147221 0.747366
O O4 0.205293 0.166277 0.231066
O O5 0.000000 0.000000 0.500000
O O6 0.500000 0.556845 0.250000
O O7 0.325616 0.512473 0.400596
O O8 0.238414 0.577753 0.968440
O O9 0.279290 0.988523 0.582336
O O10 0.500000 0.000000 0.000000
O O11 0.793263 0.334815 0.320881
O O12 0.000000 0.378955 0.250000
O O13 0.793059 0.333288 0.825148
O O14 0.786989 0.242927 0.576858
O O15 0.000000 0.299017 0.750000
O O16 0.000000 0.177745 0.750000
#
# Coordination Sequence:
#
# PCOD8117876 Si02
#       7
#     4   2   4   4   4   4   4
#     4  12  21  34  53  79 107 139 173 215 274 332
#     4  12  22  32  46  72 114 134 160 210 260 336
#     4  10  21  36  55  84 120 157 197 238 284 333
#     4  10  21  38  56  75  95 130 179 214 256 324
#     4  10  19  34  55  85 115 155 196 234 282 333
#     4   9  19  33  54  80 113 145 186 232 273 330
#     4  11  20  35  52  81 114 143 172 219 281 333
#
# _framework density 20.025304999999999
#
# number of rings (size 3 to 8) (size 9 to 14) (size 15 to 20)
#    0.000    1.538    1.538    4.615    0.000    3.077 
#    0.000    0.000    0.000    0.000   40.000    0.000 
#    0.000    0.000    0.000    0.000    0.000    0.000 
#
# Total GULP energy -322247.654349 kJ/mol
# GULP energy per Si atom -12394.140552 kJ/mol
# Density = 1.997973 g / cm^3
# Si number density = 20.025305 Si / 1000 Ang^3
#
#
#
# Elastic Constant Matrix: (Units=GPa)
#
#
# Indices 1 2 3 4 5 6 
#
# 1 63.3355 44.3305 37.0169 0.0000 -8.1533 0.0000
# 2 44.3305 123.1163 39.9559 0.0000 -3.9545 0.0000
# 3 37.0169 39.9559 107.1063 0.0000 -37.8377 0.0000
# 4 0.0000 0.0000 0.0000 36.2854 0.0000 -9.5168
# 5 -8.1533 -3.9545 -37.8377 0.0000 34.4173 0.0000
# 6 0.0000 0.0000 0.0000 -9.5168 0.0000 24.6145
#
#
#
# Elastic Compliance Matrix: (Units=1/GPa)
#
#
# Indices 1 2 3 4 5 6 
#
# 1 0.023968 -0.006530 -0.006715 0.000000 -0.002454 0.000000
# 2 -0.006530 0.011459 -0.003432 0.000000 -0.004004 0.000000
# 3 -0.006715 -0.003432 0.020007 0.000000 0.020010 0.000000
# 4 0.000000 0.000000 0.000000 0.030669 0.000000 0.011858
# 5 -0.002454 -0.004004 0.020010 0.000000 0.050012 0.000000
# 6 0.000000 0.000000 0.000000 0.011858 0.000000 0.045211
#
#
# Mechanical properties :
#
#
# Convention : Reuss Voigt Hill
#
# Bulk Modulus (GPa) = 45.29063 59.57385 52.43224
# Shear Modulus (GPa) = 22.51854 30.54707 26.53281
#
# Velocity S-wave (km/s) = 3.35700 3.90990 3.64395
# Velocity P-wave (km/s) = 6.13936 7.08498 6.62905
#
# Compressibility (1/GPa) = 0.02207962
#
# Stress axis : x y z
#
# Youngs Moduli (GPa) = 41.72273 87.26812 49.98366
#
# Poissons Ratio (x) = 0.56984 0.33562
# Poissons Ratio (y) = 0.27244 0.17157
# Poissons Ratio (z) = 0.28015 0.29954
#
# Static dielectric constant tensor:
#      x y z
#    x 2.959370 0.000000 0.433200 
#    y 0.000000 3.751800 0.000000 
#    z 0.433200 0.000000 2.460680 
# 
# 
# High freq. dielectric constant tensor:
#      x y z
#    x 1.765870 0.000000 -0.027480 
#    y 0.000000 1.780160 0.000000 
#    z -0.027480 0.000000 1.796740 
# 
# From -- ./inp_files/4211.got.cif
#   From: 2010.06.25/outbox.cif.g09.slc.cpg/sg13_3_cif.got.tgz:4211.got - 2010.06.28 04:50:58.
