data_PCOD8117353
_publ_section_title
;
Structure prediction by ZEFSAII (Michael W. Deem and Ramdas Pophale) SiO2 
 PCOD8117353
Probable space group: P 2/C
;
_chemical_formula_sum "Si O2"
_cell_formula_units_Z 18
_cell_length_a 8.892963
_cell_length_b 10.938150
_cell_length_c 9.202521
_cell_angle_alpha 90.000000
_cell_angle_beta 61.713783
_cell_angle_gamma 90.000000
_cell_volume 788.263839
_symmetry_space_group_name_H-M "P 2/C"
_symmetry_group_IT_number 13
_symmetry_cell_setting 'monoclinic'
loop_
_space_group_symop_operation_xyz
x,y,z
-x,y,1/2-z
-x,-y,-z
x,-y,1/2+z
loop_
_atom_site_type_symbol
_atom_site_label
_atom_site_fract_x
_atom_site_fract_y
_atom_site_fract_z
Si Si1 0.500000 0.284801 0.250000
Si Si2 0.169718 0.072555 0.962700
Si Si3 0.640674 0.929578 0.848395
Si Si4 0.292342 0.336049 0.835772
Si Si5 0.318334 0.541866 0.030245
O O1 0.421447 0.207302 0.153785
O O2 0.344259 0.363013 0.386239
O O3 0.185817 0.210258 0.894000
O O4 0.323135 0.994847 0.820868
O O5 0.190898 0.074979 0.127122
O O6 0.000000 0.000000 0.000000
O O7 0.500000 0.000000 0.000000
O O8 0.500000 0.316011 0.750000
O O9 0.228977 0.396539 0.711468
O O10 0.227416 0.423741 0.997986
O O11 0.500000 0.500000 0.000000
#
# Coordination Sequence:
#
# PCOD8117353 Si02
#       5
#     2   4   4   4   4
#     4  12  20  34  68 104 136 170 240 294 346 396
#     4  12  26  43  64 101 143 186 226 289 353 411
#     4  12  23  43  68 100 131 183 240 289 341 407
#     4  10  20  37  65 101 139 172 235 285 348 413
#     4  10  18  34  61 104 135 171 221 298 348 398
#
# _framework density 22.834994999999999
#
# number of rings (size 3 to 8) (size 9 to 14) (size 15 to 20)
#    0.000    0.889    5.556    6.000    0.000    0.000 
#    0.000    0.000    0.000    1.333    5.778    0.000 
#    0.000    0.000    0.000    0.000    0.000    0.000 
#
# Total GULP energy -223065.377066 kJ/mol
# GULP energy per Si atom -12392.520948 kJ/mol
# Density = 2.278302 g / cm^3
# Si number density = 22.834995 Si / 1000 Ang^3
#
#
#
# Elastic Constant Matrix: (Units=GPa)
#
#
# Indices 1 2 3 4 5 6 
#
# 1 81.3666 37.4236 24.0484 0.0000 13.3021 0.0000
# 2 37.4236 163.3831 42.5480 0.0000 3.8652 0.0000
# 3 24.0484 42.5480 78.9650 0.0000 23.1475 0.0000
# 4 0.0000 0.0000 0.0000 54.2491 0.0000 9.6904
# 5 13.3021 3.8652 23.1475 0.0000 30.3768 0.0000
# 6 0.0000 0.0000 0.0000 9.6904 0.0000 41.4116
#
#
#
# Elastic Compliance Matrix: (Units=1/GPa)
#
#
# Indices 1 2 3 4 5 6 
#
# 1 0.014886 -0.002900 -0.001505 0.000000 -0.005003 0.000000
# 2 -0.002900 0.007847 -0.004410 0.000000 0.003631 0.000000
# 3 -0.001505 -0.004410 0.019495 0.000000 -0.013636 0.000000
# 4 0.000000 0.000000 0.000000 0.019238 0.000000 -0.004502
# 5 -0.005003 0.003631 -0.013636 0.000000 0.045039 0.000000
# 6 0.000000 0.000000 0.000000 -0.004502 0.000000 0.025201
#
#
# Mechanical properties :
#
#
# Convention : Reuss Voigt Hill
#
# Bulk Modulus (GPa) = 40.64871 59.08385 49.86628
# Shear Modulus (GPa) = 31.73902 39.85381 35.79641
#
# Velocity S-wave (km/s) = 3.73222 4.18221 3.96360
# Velocity P-wave (km/s) = 6.03426 7.01794 6.54461
#
# Compressibility (1/GPa) = 0.02460103
#
# Stress axis : x y z
#
# Youngs Moduli (GPa) = 67.17576 127.43386 51.29477
#
# Poissons Ratio (x) = 0.36951 0.07717
# Poissons Ratio (y) = 0.19478 0.22619
# Poissons Ratio (z) = 0.10107 0.56195
#
# Static dielectric constant tensor:
#      x y z
#    x 3.915720 0.000000 0.757040 
#    y 0.000000 4.249360 0.000000 
#    z 0.757040 0.000000 4.475080 
# 
# 
# High freq. dielectric constant tensor:
#      x y z
#    x 1.864110 0.000000 0.043150 
#    y 0.000000 1.919440 0.000000 
#    z 0.043150 0.000000 1.903450 
# 
# From -- ./inp_files/11596.got.cif
#   From: 2010.06.25/outbox.cif.g09.slc.cpg/sg13_6_cif.got.tgz:11596.got - 2010.06.28 04:50:58.
