data_PCOD8117611
_publ_section_title
;
Structure prediction by ZEFSAII (Michael W. Deem and Ramdas Pophale) SiO2 
 PCOD8117611
Probable space group: P 2/C
;
_chemical_formula_sum "Si O2"
_cell_formula_units_Z 28
_cell_length_a 9.188260
_cell_length_b 33.629605
_cell_length_c 5.211525
_cell_angle_alpha 90.000000
_cell_angle_beta 124.763365
_cell_angle_gamma 90.000000
_cell_volume 1322.923751
_symmetry_space_group_name_H-M "P 2/C"
_symmetry_group_IT_number 13
_symmetry_cell_setting 'monoclinic'
loop_
_space_group_symop_operation_xyz
x,y,z
-x,y,1/2-z
-x,-y,-z
x,-y,1/2+z
loop_
_atom_site_type_symbol
_atom_site_label
_atom_site_fract_x
_atom_site_fract_y
_atom_site_fract_z
Si Si1 0.705887 0.742354 0.962354
Si Si2 0.292168 0.791668 0.036185
Si Si3 0.211974 0.387416 0.465430
Si Si4 0.789117 0.522438 0.536554
Si Si5 0.199672 0.653304 0.453325
Si Si6 0.000000 0.910177 0.250000
Si Si7 0.295951 0.025259 0.056688
Si Si8 0.000000 0.856947 0.750000
O O1 0.500000 0.732776 0.750000
O O2 0.761952 0.770003 0.781368
O O3 0.760473 0.763418 0.280956
O O4 0.805231 0.700810 0.043193
O O5 0.500000 0.802973 0.250000
O O6 0.178910 0.831412 0.947358
O O7 0.281406 0.432531 0.539354
O O8 0.292284 0.363946 0.791017
O O9 0.000000 0.385375 0.250000
O O10 0.292974 0.365108 0.298443
O O11 0.714729 0.499463 0.213749
O O12 0.000000 0.521982 0.750000
O O13 0.000000 0.637387 0.250000
O O14 0.176474 0.936207 0.403431
O O15 0.015100 0.883551 0.515073
O O16 0.500000 0.038967 0.250000
O O17 0.251573 0.005329 0.284351
#
# Coordination Sequence:
#
# PCOD8117611 Si02
#       8
#     4   4   4   4   4   2   4   2
#     4  10  21  38  58  79 104 138 181 228 278 335
#     4  10  23  41  59  81 112 148 191 243 283 338
#     4   9  17  28  39  65 101 124 160 207 257 314
#     4   9  15  23  37  55  84 130 165 191 238 305
#     4  10  19  29  48  73  98 129 157 210 273 322
#     4  12  24  39  60  94 124 160 202 254 294 345
#     4  10  21  39  64  92 125 166 206 249 302 354
#     4  12  26  39  62  88 120 162 202 240 300 351
#
# _framework density 21.165240000000001
#
# number of rings (size 3 to 8) (size 9 to 14) (size 15 to 20)
#    0.000    2.000    0.000    3.857    2.000    4.571 
#    0.000    0.000    0.000    0.000    0.000    0.000 
#    0.000   11.429    0.000    0.000    0.000    0.000 
#
# Total GULP energy -347257.058896 kJ/mol
# GULP energy per Si atom -12402.037818 kJ/mol
# Density = 2.111707 g / cm^3
# Si number density = 21.165240 Si / 1000 Ang^3
#
#
#
# Elastic Constant Matrix: (Units=GPa)
#
#
# Indices 1 2 3 4 5 6 
#
# 1 66.8079 48.4779 56.4914 0.0000 -16.3598 0.0000
# 2 48.4779 125.3282 36.8812 0.0000 -2.3759 0.0000
# 3 56.4914 36.8812 80.4872 0.0000 -32.4816 0.0000
# 4 0.0000 0.0000 0.0000 -6.0627 0.0000 -51.9926
# 5 -16.3598 -2.3759 -32.4816 0.0000 38.3401 0.0000
# 6 0.0000 0.0000 0.0000 -51.9926 0.0000 -11.7809
#
#
#
# Elastic Compliance Matrix: (Units=1/GPa)
#
#
# Indices 1 2 3 4 5 6 
#
# 1 0.045801 -0.008692 -0.031140 0.000000 -0.007378 0.000000
# 2 -0.008692 0.011432 -0.000530 0.000000 -0.003449 0.000000
# 3 -0.031140 -0.000530 0.044291 0.000000 0.024202 0.000000
# 4 0.000000 0.000000 0.000000 0.004476 0.000000 -0.019755
# 5 -0.007378 -0.003449 0.024202 0.000000 0.043225 0.000000
# 6 0.000000 0.000000 0.000000 -0.019755 0.000000 0.002304
#
#
# Mechanical properties :
#
#
# Convention : Reuss Voigt Hill
#
# Bulk Modulus (GPa) = 48.07925 61.81382 54.94654
# Shear Modulus (GPa) = 20.90435 12.81748 16.86092
#
# Velocity S-wave (km/s) = 3.14614 2.46355 2.82553
# Velocity P-wave (km/s) = 5.99692 6.11235 6.05491
#
# Compressibility (1/GPa) = 0.02079899
#
# Stress axis : x y z
#
# Youngs Moduli (GPa) = 21.83378 87.47663 22.57810
#
# Poissons Ratio (x) = 0.76034 0.70309
# Poissons Ratio (y) = 0.18978 0.01196
# Poissons Ratio (z) = 0.67991 0.04632
#
# Static dielectric constant tensor:
#      x y z
#    x 3.788690 0.000000 -0.318920 
#    y 0.000000 3.709340 0.000000 
#    z -0.318920 0.000000 4.112260 
# 
# 
# High freq. dielectric constant tensor:
#      x y z
#    x 1.826250 0.000000 -0.020210 
#    y 0.000000 1.827920 0.000000 
#    z -0.020210 0.000000 1.840510 
# 
# From -- ./inp_files/2764.got.cif
#   From: 2010.06.25/outbox.cif.g09.slc.cpg/sg13_2_cif.got.tgz:2764.got - 2010.06.28 04:50:58.
