data_PCOD8117185
_publ_section_title
;
Structure prediction by ZEFSAII (Michael W. Deem and Ramdas Pophale) SiO2 
 PCOD8117185
Probable space group: P 2/C
;
_chemical_formula_sum "Si O2"
_cell_formula_units_Z 26
_cell_length_a 8.684904
_cell_length_b 11.271830
_cell_length_c 13.098137
_cell_angle_alpha 90.000000
_cell_angle_beta 86.544342
_cell_angle_gamma 90.000000
_cell_volume 1279.907561
_symmetry_space_group_name_H-M "P 2/C"
_symmetry_group_IT_number 13
_symmetry_cell_setting 'monoclinic'
loop_
_space_group_symop_operation_xyz
x,y,z
-x,y,1/2-z
-x,-y,-z
x,-y,1/2+z
loop_
_atom_site_type_symbol
_atom_site_label
_atom_site_fract_x
_atom_site_fract_y
_atom_site_fract_z
Si Si1 0.532191 0.791656 0.899188
Si Si2 0.056417 0.707163 0.445647
Si Si3 0.801393 0.365602 0.361518
Si Si4 0.000000 0.172899 0.250000
Si Si5 0.304120 0.097837 0.924683
Si Si6 0.500000 0.014307 0.250000
Si Si7 0.805234 0.149547 0.069948
Si Si8 0.000000 0.446346 0.750000
O O1 0.617828 0.665710 0.870152
O O2 0.590937 0.898512 0.824123
O O3 0.348061 0.775342 0.892555
O O4 0.570727 0.834094 0.011885
O O5 0.133271 0.618200 0.525838
O O6 0.160201 0.818326 0.412547
O O7 0.895362 0.762128 0.491425
O O8 0.038245 0.632477 0.344729
O O9 0.849508 0.474364 0.286264
O O10 0.879533 0.247169 0.319396
O O11 0.097784 0.105099 0.333564
O O12 0.378804 0.069270 0.812353
O O13 0.247661 0.974195 0.980310
#
# Coordination Sequence:
#
# PCOD8117185 Si02
#       8
#     4   4   4   2   4   2   4   2
#     4  10  20  35  58  83 112 154 192 235 288 340
#     4  10  22  36  56  83 113 152 192 233 290 346
#     4   9  19  38  56  76 107 145 195 241 283 330
#     4   9  18  31  56  82 108 145 182 231 282 338
#     4  10  21  35  55  84 120 154 185 233 288 347
#     4  10  18  32  58  88 116 148 186 232 286 340
#     4  10  19  35  57  87 118 147 187 235 285 351
#     4  11  22  37  60  82 110 157 196 245 290 328
#
# _framework density 20.313967000000002
#
# number of rings (size 3 to 8) (size 9 to 14) (size 15 to 20)
#    0.000    2.154    0.000    4.615    0.000    3.077 
#    0.000    2.308    0.000   19.385    0.000    3.231 
#    0.000    0.000    0.000    0.000    0.000    0.000 
#
# Total GULP energy -322121.810190 kJ/mol
# GULP energy per Si atom -12389.300392 kJ/mol
# Density = 2.026773 g / cm^3
# Si number density = 20.313967 Si / 1000 Ang^3
#
#
#
# Elastic Constant Matrix: (Units=GPa)
#
#
# Indices 1 2 3 4 5 6 
#
# 1 131.3704 52.7863 50.0881 0.0000 -9.0512 0.0000
# 2 52.7863 78.6951 44.2232 0.0000 -11.8854 0.0000
# 3 50.0881 44.2232 114.9714 0.0000 -14.7870 0.0000
# 4 0.0000 0.0000 0.0000 7.7806 0.0000 27.6713
# 5 -9.0512 -11.8854 -14.7870 0.0000 22.9559 0.0000
# 6 0.0000 0.0000 0.0000 27.6713 0.0000 -12.9190
#
#
#
# Elastic Compliance Matrix: (Units=1/GPa)
#
#
# Indices 1 2 3 4 5 6 
#
# 1 0.010952 -0.005992 -0.002519 0.000000 -0.000407 0.000000
# 2 -0.005992 0.019984 -0.004415 0.000000 0.005140 0.000000
# 3 -0.002519 -0.004415 0.012072 0.000000 0.004497 0.000000
# 4 0.000000 0.000000 0.000000 0.014914 0.000000 0.031945
# 5 -0.000407 0.005140 0.004497 0.000000 0.048959 0.000000
# 6 0.000000 0.000000 0.000000 0.031945 0.000000 -0.008982
#
#
# Mechanical properties :
#
#
# Convention : Reuss Voigt Hill
#
# Bulk Modulus (GPa) = 58.28993 68.80357 63.54675
# Shear Modulus (GPa) = 38.61879 15.42612 27.02245
#
# Velocity S-wave (km/s) = 4.36489 2.75868 3.65120
# Velocity P-wave (km/s) = 7.35933 6.64008 7.00894
#
# Compressibility (1/GPa) = 0.01715562
#
# Stress axis : x y z
#
# Youngs Moduli (GPa) = 91.30588 50.03951 82.83798
#
# Poissons Ratio (x) = 0.29986 0.20865
# Poissons Ratio (y) = 0.54714 0.36574
# Poissons Ratio (z) = 0.22998 0.22093
#
# Static dielectric constant tensor:
#      x y z
#    x 3.879950 0.000000 -0.008110 
#    y 0.000000 3.449530 0.000000 
#    z -0.008110 0.000000 3.896960 
# 
# 
# High freq. dielectric constant tensor:
#      x y z
#    x 1.796110 0.000000 -0.005310 
#    y 0.000000 1.761070 0.000000 
#    z -0.005310 0.000000 1.799680 
# 
# From -- ./inp_files/29524.got.cif
#   From: 2010.06.25/outbox.cif.g09.slc.cpg/sg13_15_cif.got.tgz:29524.got - 2010.06.28 04:50:58.
