data_PCOD8117669
_publ_section_title
;
Structure prediction by ZEFSAII (Michael W. Deem and Ramdas Pophale) SiO2 
 PCOD8117669
Probable space group: P 2/C
;
_chemical_formula_sum "Si O2"
_cell_formula_units_Z 30
_cell_length_a 10.596755
_cell_length_b 9.638029
_cell_length_c 23.032418
_cell_angle_alpha 90.000000
_cell_angle_beta 134.754676
_cell_angle_gamma 90.000000
_cell_volume 1670.464468
_symmetry_space_group_name_H-M "P 2/C"
_symmetry_group_IT_number 13
_symmetry_cell_setting 'monoclinic'
loop_
_space_group_symop_operation_xyz
x,y,z
-x,y,1/2-z
-x,-y,-z
x,-y,1/2+z
loop_
_atom_site_type_symbol
_atom_site_label
_atom_site_fract_x
_atom_site_fract_y
_atom_site_fract_z
Si Si1 0.819311 0.140108 0.470449
Si Si2 0.957330 0.337616 0.610176
Si Si3 0.000000 0.625831 0.250000
Si Si4 0.824642 0.828286 0.479553
Si Si5 0.310632 0.627547 0.158306
Si Si6 0.355795 0.463872 0.368589
Si Si7 0.439704 0.348292 0.165325
Si Si8 0.701065 0.601943 0.523887
O O1 0.650334 0.213193 0.388988
O O2 0.883058 0.207890 0.550940
O O3 0.968576 0.156289 0.469298
O O4 0.755573 0.984750 0.464793
O O5 0.964618 0.286852 0.679786
O O6 0.154658 0.379867 0.654730
O O7 0.827270 0.467819 0.558692
O O8 0.828848 0.533550 0.206977
O O9 0.716136 0.756419 0.392749
O O10 0.797834 0.737832 0.529122
O O11 0.500000 0.645125 0.250000
O O12 0.308498 0.482639 0.121792
O O13 0.395240 0.373706 0.324234
O O14 0.513987 0.575574 0.430622
O O15 0.336984 0.369090 0.420347
O O16 0.500000 0.317651 0.250000
#
# Coordination Sequence:
#
# PCOD8117669 Si02
#       8
#     4   4   2   4   4   4   4   4
#     4  10  21  36  54  81 112 145 190 221 279 331
#     4  10  19  34  57  82 109 141 181 232 276 329
#     4  10  20  32  56  84 110 140 178 232 288 322
#     4  10  20  35  56  78 109 152 182 228 273 336
#     4  10  19  31  53  84 109 138 185 232 278 330
#     4  10  20  34  55  86 108 141 184 236 282 334
#     4  11  20  34  57  82 112 140 186 236 278 325
#     4  10  19  35  59  79 111 142 186 229 280 330
#
# _framework density 17.959076
#
# number of rings (size 3 to 8) (size 9 to 14) (size 15 to 20)
#    0.000    1.867    2.667    2.400    0.000    3.733 
#    0.000    0.667    0.000    3.200    0.000    0.000 
#    0.000    0.000    0.000    0.000    0.000    0.000 
#
# Total GULP energy -371892.509927 kJ/mol
# GULP energy per Si atom -12396.416998 kJ/mol
# Density = 1.791820 g / cm^3
# Si number density = 17.959076 Si / 1000 Ang^3
#
#
#
# Elastic Constant Matrix: (Units=GPa)
#
#
# Indices 1 2 3 4 5 6 
#
# 1 111.2213 39.4228 40.4329 0.0000 -17.3914 0.0000
# 2 39.4228 106.9858 29.4426 0.0000 -9.7004 0.0000
# 3 40.4329 29.4426 83.5141 0.0000 -5.9403 0.0000
# 4 0.0000 0.0000 0.0000 17.5407 0.0000 2.0249
# 5 -17.3914 -9.7004 -5.9403 0.0000 38.1722 0.0000
# 6 0.0000 0.0000 0.0000 2.0249 0.0000 24.0705
#
#
#
# Elastic Compliance Matrix: (Units=1/GPa)
#
#
# Indices 1 2 3 4 5 6 
#
# 1 0.012367 -0.002893 -0.004671 0.000000 0.004172 0.000000
# 2 -0.002893 0.011195 -0.002465 0.000000 0.001143 0.000000
# 3 -0.004671 -0.002465 0.015075 0.000000 -0.000408 0.000000
# 4 0.000000 0.000000 0.000000 0.057569 0.000000 -0.004843
# 5 0.004172 0.001143 -0.000408 0.000000 0.028325 0.000000
# 6 0.000000 0.000000 0.000000 -0.004843 0.000000 0.041952
#
#
# Mechanical properties :
#
#
# Convention : Reuss Voigt Hill
#
# Bulk Modulus (GPa) = 53.82143 57.81307 55.81725
# Shear Modulus (GPa) = 25.94247 28.78489 27.36368
#
# Velocity S-wave (km/s) = 3.80482 4.00785 3.90765
# Velocity P-wave (km/s) = 7.02398 7.32657 7.17687
#
# Compressibility (1/GPa) = 0.01857996
#
# Stress axis : x y z
#
# Youngs Moduli (GPa) = 80.86039 89.32442 66.33442
#
# Poissons Ratio (x) = 0.25845 0.30982
# Poissons Ratio (y) = 0.23396 0.16349
# Poissons Ratio (z) = 0.37766 0.22016
#
# Static dielectric constant tensor:
#      x y z
#    x 3.668040 0.000000 -0.079930 
#    y 0.000000 3.155750 0.000000 
#    z -0.079930 0.000000 3.358070 
# 
# 
# High freq. dielectric constant tensor:
#      x y z
#    x 1.713340 0.000000 -0.005030 
#    y 0.000000 1.658720 0.000000 
#    z -0.005030 0.000000 1.701470 
# 
# From -- ./inp_files/86376.got.cif
#   From: 2010.06.25/outbox.cif.g09.slc.cpg/sg13_44_cif.got.tgz:86376.got - 2010.06.28 04:50:58.
