data_PCOD8117606
_publ_section_title
;
Structure prediction by ZEFSAII (Michael W. Deem and Ramdas Pophale) SiO2 
 PCOD8117606
Probable space group: P 2/C
;
_chemical_formula_sum "Si O2"
_cell_formula_units_Z 32
_cell_length_a 17.575920
_cell_length_b 5.349046
_cell_length_c 23.286656
_cell_angle_alpha 90.000000
_cell_angle_beta 137.845954
_cell_angle_gamma 90.000000
_cell_volume 1469.283931
_symmetry_space_group_name_H-M "P 2/C"
_symmetry_group_IT_number 13
_symmetry_cell_setting 'monoclinic'
loop_
_space_group_symop_operation_xyz
x,y,z
-x,y,1/2-z
-x,-y,-z
x,-y,1/2+z
loop_
_atom_site_type_symbol
_atom_site_label
_atom_site_fract_x
_atom_site_fract_y
_atom_site_fract_z
Si Si1 0.799499 0.249987 0.247899
Si Si2 0.643931 0.750001 0.563041
Si Si3 0.409190 0.249848 0.148252
Si Si4 0.953688 0.250010 0.519641
Si Si5 0.018634 0.750010 0.930438
Si Si6 0.219406 0.250015 0.697874
Si Si7 0.439127 0.250002 0.035414
Si Si8 0.634934 0.250152 0.833986
O O1 0.767181 0.249999 0.162435
O O2 0.937496 0.249990 0.329709
O O3 0.750239 0.502543 0.248741
O O4 0.750241 0.997422 0.248740
O O5 0.632206 0.500345 0.518591
O O6 0.555567 0.749989 0.566129
O O7 0.632208 0.999672 0.518599
O O8 0.500000 0.249726 0.250000
O O9 0.468550 0.249983 0.119264
O O10 0.331544 0.498495 0.111963
O O11 0.331590 0.001110 0.111944
O O12 0.903232 0.500742 0.521488
O O13 0.088788 0.250012 0.606356
O O14 0.934234 0.250000 0.440160
O O15 0.903234 0.999282 0.521490
O O16 0.301587 0.249996 0.690227
O O17 0.500000 0.250281 0.750000
#
# Coordination Sequence:
#
# PCOD8117606 Si02
#       8
#     4   4   4   4   4   4   4   4
#     4  10  19  29  48  68  94 124 156 191 225 282
#     4  10  21  33  50  68  90 126 150 200 225 282
#     4  10  21  35  50  67  86 122 154 203 231 274
#     4   8  14  25  40  59  92 123 145 181 227 272
#     4   8  14  25  40  63  87 120 152 177 224 278
#     4  10  19  29  44  69  98 125 156 191 226 282
#     4  10  21  36  48  66  92 119 162 189 241 267
#     4  10  21  30  44  68  89 123 156 192 230 263
#
# _framework density 21.779318
#
# number of rings (size 3 to 8) (size 9 to 14) (size 15 to 20)
#    0.000    2.500    0.000    2.250    7.000    0.000 
#    0.000    0.000    0.000    0.000    0.000    0.000 
#    0.000    6.000    0.000    0.000    0.000    0.000 
#
# Total GULP energy -396463.773832 kJ/mol
# GULP energy per Si atom -12389.492932 kJ/mol
# Density = 2.172975 g / cm^3
# Si number density = 21.779318 Si / 1000 Ang^3
#
#
#
# Elastic Constant Matrix: (Units=GPa)
#
#
# Indices 1 2 3 4 5 6 
#
# 1 35.7752 5.7323 8.7179 0.0000 -12.8554 0.0000
# 2 5.7323 242.4062 24.9162 0.0000 -18.3686 0.0000
# 3 8.7179 24.9162 115.3085 0.0000 -16.4012 0.0000
# 4 0.0000 0.0000 0.0000 26.3835 0.0000 -12.1199
# 5 -12.8554 -18.3686 -16.4012 0.0000 26.3057 0.0000
# 6 0.0000 0.0000 0.0000 -12.1199 0.0000 9.9274
#
#
#
# Elastic Compliance Matrix: (Units=1/GPa)
#
#
# Indices 1 2 3 4 5 6 
#
# 1 0.033968 0.000497 -0.000291 0.000000 0.016766 0.000000
# 2 0.000497 0.004396 -0.000567 0.000000 0.002959 0.000000
# 3 -0.000291 -0.000567 0.009591 0.000000 0.005442 0.000000
# 4 0.000000 0.000000 0.000000 0.086305 0.000000 0.105366
# 5 0.016766 0.002959 0.005442 0.000000 0.051667 0.000000
# 6 0.000000 0.000000 0.000000 0.105366 0.000000 0.229368
#
#
# Mechanical properties :
#
#
# Convention : Reuss Voigt Hill
#
# Bulk Modulus (GPa) = 21.17099 52.46920 36.82009
# Shear Modulus (GPa) = 11.58047 36.13154 23.85600
#
# Velocity S-wave (km/s) = 2.30840 4.07748 3.31320
# Velocity P-wave (km/s) = 4.10448 6.80525 5.61953
#
# Compressibility (1/GPa) = 0.04723446
#
# Stress axis : x y z
#
# Youngs Moduli (GPa) = 29.43929 227.47789 104.26592
#
# Poissons Ratio (x) = -0.11308 0.03032
# Poissons Ratio (y) = -0.01463 0.05907
# Poissons Ratio (z) = 0.00856 0.12888
#
# Static dielectric constant tensor:
#      x y z
#    x 2.973030 0.000000 0.167420 
#    y 0.000000 4.640510 0.000000 
#    z 0.167420 0.000000 3.619200 
# 
# 
# High freq. dielectric constant tensor:
#      x y z
#    x 1.776740 0.000000 0.006930 
#    y 0.000000 1.907380 0.000000 
#    z 0.006930 0.000000 1.845680 
# 
# From -- ./inp_files/72208.got.cif
#   From: 2010.06.25/outbox.cif.g09.slc.cpg/sg13_37_cif.got.tgz:72208.got - 2010.06.28 04:50:58.
