data_PCOD8117205
_publ_section_title
;
Structure prediction by ZEFSAII (Michael W. Deem and Ramdas Pophale) SiO2 
 PCOD8117205
Probable space group: P 2/C
;
_chemical_formula_sum "Si O2"
_cell_formula_units_Z 22
_cell_length_a 6.349779
_cell_length_b 12.196228
_cell_length_c 11.187398
_cell_angle_alpha 90.000000
_cell_angle_beta 77.089412
_cell_angle_gamma 90.000000
_cell_volume 844.487209
_symmetry_space_group_name_H-M "P 2/C"
_symmetry_group_IT_number 13
_symmetry_cell_setting 'monoclinic'
loop_
_space_group_symop_operation_xyz
x,y,z
-x,y,1/2-z
-x,-y,-z
x,-y,1/2+z
loop_
_atom_site_type_symbol
_atom_site_label
_atom_site_fract_x
_atom_site_fract_y
_atom_site_fract_z
Si Si1 0.874994 0.466986 0.137402
Si Si2 0.309201 0.692394 0.352630
Si Si3 0.000000 0.166231 0.750000
Si Si4 0.230638 0.224697 0.346683
Si Si5 0.275369 0.815121 0.582984
Si Si6 0.777778 0.955072 0.473007
O O1 0.703100 0.563849 0.175449
O O2 0.758168 0.352916 0.120630
O O3 0.000000 0.454394 0.250000
O O4 0.000000 0.500000 0.000000
O O5 0.500000 0.742884 0.250000
O O6 0.092107 0.756997 0.343618
O O7 0.350414 0.716208 0.487059
O O8 0.819767 0.090016 0.834021
O O9 0.362356 0.209969 0.205009
O O10 0.334362 0.143656 0.434934
O O11 0.983456 0.185462 0.370572
O O12 0.364561 0.933008 0.520939
O O13 0.000000 0.000000 0.500000
#
# Coordination Sequence:
#
# PCOD8117205 Si02
#       6
#     4   4   2   4   4   4
#     4  12  21  40  68  95 130 179 228 274 334 399
#     4  12  26  42  65 100 134 173 220 276 331 400
#     4  12  20  40  66  96 130 176 220 262 338 394
#     4  10  18  34  64  95 125 172 220 270 325 389
#     4  10  19  37  61  98 133 166 219 274 327 391
#     4  10  18  32  66  98 122 170 221 263 324 399
#
# _framework density 26.051313
#
# number of rings (size 3 to 8) (size 9 to 14) (size 15 to 20)
#    0.000    1.091    8.182    2.182    0.000    0.000 
#    0.000    4.545    0.000    0.000    0.000    0.000 
#    0.000    0.000    0.000    0.000    0.000    0.000 
#
# Total GULP energy -272751.894303 kJ/mol
# GULP energy per Si atom -12397.813377 kJ/mol
# Density = 2.599202 g / cm^3
# Si number density = 26.051313 Si / 1000 Ang^3
#
#
#
# Elastic Constant Matrix: (Units=GPa)
#
#
# Indices 1 2 3 4 5 6 
#
# 1 50.6255 38.1988 33.2489 0.0000 19.7942 0.0000
# 2 38.1988 235.3906 72.6675 0.0000 16.5440 0.0000
# 3 33.2489 72.6675 206.8428 0.0000 6.6847 0.0000
# 4 0.0000 0.0000 0.0000 52.5212 0.0000 -1.2285
# 5 19.7942 16.5440 6.6847 0.0000 35.1738 0.0000
# 6 0.0000 0.0000 0.0000 -1.2285 0.0000 34.1130
#
#
#
# Elastic Compliance Matrix: (Units=1/GPa)
#
#
# Indices 1 2 3 4 5 6 
#
# 1 0.029848 -0.002766 -0.003346 0.000000 -0.014860 0.000000
# 2 -0.002766 0.005156 -0.001347 0.000000 -0.000612 0.000000
# 3 -0.003346 -0.001347 0.005800 0.000000 0.001414 0.000000
# 4 0.000000 0.000000 0.000000 0.019056 0.000000 0.000686
# 5 -0.014860 -0.000612 0.001414 0.000000 0.036812 0.000000
# 6 0.000000 0.000000 0.000000 0.000686 0.000000 0.029339
#
#
# Mechanical properties :
#
#
# Convention : Reuss Voigt Hill
#
# Bulk Modulus (GPa) = 38.63162 86.78768 62.70965
# Shear Modulus (GPa) = 33.43202 47.61119 40.52160
#
# Velocity S-wave (km/s) = 3.58622 4.27967 3.94820
# Velocity P-wave (km/s) = 5.65767 7.60311 6.70136
#
# Compressibility (1/GPa) = 0.02588553
#
# Stress axis : x y z
#
# Youngs Moduli (GPa) = 33.50343 193.94761 172.41677
#
# Poissons Ratio (x) = 0.53653 0.57686
# Poissons Ratio (y) = 0.09268 0.23223
# Poissons Ratio (z) = 0.11209 0.26123
#
# Static dielectric constant tensor:
#      x y z
#    x 4.738880 0.000000 0.030390 
#    y 0.000000 5.180960 0.000000 
#    z 0.030390 0.000000 5.173670 
# 
# 
# High freq. dielectric constant tensor:
#      x y z
#    x 2.050550 0.000000 -0.005740 
#    y 0.000000 2.058370 0.000000 
#    z -0.005740 0.000000 2.062690 
# 
# From -- ./inp_files/29356.got.cif
#   From: 2010.06.25/outbox.cif.g09.slc.cpg/sg13_15_cif.got.tgz:29356.got - 2010.06.28 04:50:58.
