data_PCOD8117657
_publ_section_title
;
Structure prediction by ZEFSAII (Michael W. Deem and Ramdas Pophale) SiO2 
 PCOD8117657
Probable space group: P 2/C
;
_chemical_formula_sum "Si O2"
_cell_formula_units_Z 28
_cell_length_a 19.034251
_cell_length_b 8.162684
_cell_length_c 13.977993
_cell_angle_alpha 90.000000
_cell_angle_beta 138.688327
_cell_angle_gamma 90.000000
_cell_volume 1433.703421
_symmetry_space_group_name_H-M "P 2/C"
_symmetry_group_IT_number 13
_symmetry_cell_setting 'monoclinic'
loop_
_space_group_symop_operation_xyz
x,y,z
-x,y,1/2-z
-x,-y,-z
x,-y,1/2+z
loop_
_atom_site_type_symbol
_atom_site_label
_atom_site_fract_x
_atom_site_fract_y
_atom_site_fract_z
Si Si1 0.094814 0.882227 0.482415
Si Si2 0.797594 0.972618 0.575535
Si Si3 0.253317 0.428448 0.846835
Si Si4 0.749807 0.605638 0.843846
Si Si5 0.870591 0.387769 0.117837
Si Si6 0.623387 0.233881 0.374532
Si Si7 0.876267 0.130953 0.832074
O O1 0.183100 0.764305 0.616624
O O2 0.980882 0.802542 0.384764
O O3 0.115676 0.915572 0.391924
O O4 0.098756 0.059269 0.538486
O O5 0.807723 0.785320 0.553628
O O6 0.683018 0.057129 0.436945
O O7 0.823009 0.987827 0.713461
O O8 0.297102 0.540525 0.805102
O O9 0.166238 0.516800 0.824634
O O10 0.199043 0.283838 0.731836
O O11 0.347827 0.350357 0.006056
O O12 0.650929 0.661017 0.808156
O O13 0.829743 0.483157 0.982189
O O14 0.000000 0.368598 0.250000
O O15 0.500000 0.192313 0.250000
#
# Coordination Sequence:
#
# PCOD8117657 Si02
#       7
#     4   4   4   4   4   4   4
#     4  10  19  31  50  76 109 148 181 211 256 318
#     4  10  20  34  52  74 104 140 184 226 262 314
#     4  10  21  35  54  82 113 140 178 226 271 322
#     4  10  21  35  54  82 113 140 178 226 271 322
#     4  11  21  33  54  84 118 151 177 211 264 324
#     4   9  21  41  60  76 100 139 185 233 280 320
#     4  10  19  31  50  76 109 148 181 211 256 318
#
# _framework density 19.529841000000001
#
# number of rings (size 3 to 8) (size 9 to 14) (size 15 to 20)
#    0.000    2.000    0.000    4.714    0.000    5.143 
#    0.000    2.857    0.000   29.143    0.000    0.000 
#    0.000    0.000    0.000    0.000    0.000    0.000 
#
# Total GULP energy -347004.595324 kJ/mol
# GULP energy per Si atom -12393.021262 kJ/mol
# Density = 1.948539 g / cm^3
# Si number density = 19.529841 Si / 1000 Ang^3
#
#
#
# Elastic Constant Matrix: (Units=GPa)
#
#
# Indices 1 2 3 4 5 6 
#
# 1 75.6684 24.2073 44.2020 0.0000 2.6020 0.0000
# 2 24.2073 71.7888 18.3290 0.0000 6.4264 0.0000
# 3 44.2020 18.3290 68.9891 0.0000 12.9762 0.0000
# 4 0.0000 0.0000 0.0000 17.5111 0.0000 -1.6383
# 5 2.6020 6.4264 12.9762 0.0000 35.7420 0.0000
# 6 0.0000 0.0000 0.0000 -1.6383 0.0000 26.1170
#
#
#
# Elastic Compliance Matrix: (Units=1/GPa)
#
#
# Indices 1 2 3 4 5 6 
#
# 1 0.022809 -0.004440 -0.014245 0.000000 0.004310 0.000000
# 2 -0.004440 0.015867 -0.000961 0.000000 -0.002181 0.000000
# 3 -0.014245 -0.000961 0.025383 0.000000 -0.008006 0.000000
# 4 0.000000 0.000000 0.000000 0.057444 0.000000 0.003603
# 5 0.004310 -0.002181 -0.008006 0.000000 0.030963 0.000000
# 6 0.000000 0.000000 0.000000 0.003603 0.000000 0.038515
#
#
# Mechanical properties :
#
#
# Convention : Reuss Voigt Hill
#
# Bulk Modulus (GPa) = 40.37442 43.32477 41.84960
# Shear Modulus (GPa) = 20.96182 24.52122 22.74152
#
# Velocity S-wave (km/s) = 3.27971 3.54726 3.41611
# Velocity P-wave (km/s) = 5.92116 6.24575 6.08562
#
# Compressibility (1/GPa) = 0.02476815
#
# Stress axis : x y z
#
# Youngs Moduli (GPa) = 43.84219 63.02213 39.39652
#
# Poissons Ratio (x) = 0.27982 0.56120
# Poissons Ratio (y) = 0.19466 0.03785
# Poissons Ratio (z) = 0.62453 0.06054
#
# Static dielectric constant tensor:
#      x y z
#    x 3.488910 0.000000 -0.172210 
#    y 0.000000 3.625880 0.000000 
#    z -0.172210 0.000000 3.245230 
# 
# 
# High freq. dielectric constant tensor:
#      x y z
#    x 1.759650 0.000000 -0.023900 
#    y 0.000000 1.765630 0.000000 
#    z -0.023900 0.000000 1.735690 
# 
# From -- ./inp_files/55318.got.cif
#   From: 2010.06.25/outbox.cif.g09.slc.cpg/sg13_28_cif.got.tgz:55318.got - 2010.06.28 04:50:58.
