data_PCOD8117693
_publ_section_title
;
Structure prediction by ZEFSAII (Michael W. Deem and Ramdas Pophale) SiO2 
 PCOD8117693
Probable space group: P 2/C
;
_chemical_formula_sum "Si O2"
_cell_formula_units_Z 24
_cell_length_a 24.331446
_cell_length_b 9.141616
_cell_length_c 18.590895
_cell_angle_alpha 90.000000
_cell_angle_beta 161.022547
_cell_angle_gamma 90.000000
_cell_volume 1344.734208
_symmetry_space_group_name_H-M "P 2/C"
_symmetry_group_IT_number 13
_symmetry_cell_setting 'monoclinic'
loop_
_space_group_symop_operation_xyz
x,y,z
-x,y,1/2-z
-x,-y,-z
x,-y,1/2+z
loop_
_atom_site_type_symbol
_atom_site_label
_atom_site_fract_x
_atom_site_fract_y
_atom_site_fract_z
Si Si1 0.749549 0.409957 0.833197
Si Si2 0.582262 0.410095 0.998650
Si Si3 0.658614 0.659594 0.990378
Si Si4 0.832440 0.167470 0.336812
Si Si5 0.176336 0.832666 0.180697
Si Si6 0.004864 0.340592 0.836618
O O1 0.617033 0.387112 0.734074
O O2 0.665707 0.499866 0.665697
O O3 0.806506 0.253007 0.873195
O O4 0.911217 0.498611 0.061670
O O5 0.610167 0.498792 0.959704
O O6 0.673246 0.253217 0.106576
O O7 0.695080 0.771419 0.100330
O O8 0.817242 0.643564 0.134521
O O9 0.500000 0.723609 0.750000
O O10 0.984947 0.186696 0.469866
O O11 0.884670 0.228689 0.479445
O O12 0.777563 0.000067 0.277604
O O13 0.000000 0.276524 0.750000
#
# Coordination Sequence:
#
# PCOD8117693 Si02
#       6
#     4   4   4   4   4   4
#     4   9  17  30  49  72  96 124 161 201 240 287
#     4   9  17  30  49  72  96 124 161 201 240 287
#     4  10  19  32  51  73  98 128 164 206 250 295
#     4   9  18  33  52  73  99 133 168 202 246 299
#     4   9  18  33  52  73  99 133 168 202 246 299
#     4  10  19  32  51  73  98 128 164 206 250 295
#
# _framework density 17.847391999999999
#
# number of rings (size 3 to 8) (size 9 to 14) (size 15 to 20)
#    0.000    2.667    0.000    2.000    0.000    6.000 
#    0.000    1.667    0.000    4.000    0.000    0.000 
#    0.000    0.000    0.000    0.000    0.000    0.000 
#
# Total GULP energy -297622.128454 kJ/mol
# GULP energy per Si atom -12400.922019 kJ/mol
# Density = 1.780677 g / cm^3
# Si number density = 17.847392 Si / 1000 Ang^3
#
#
#
# Elastic Constant Matrix: (Units=GPa)
#
#
# Indices 1 2 3 4 5 6 
#
# 1 100.3215 48.0236 34.2868 0.0000 6.8601 0.0000
# 2 48.0236 134.5518 45.0590 0.0000 8.1750 0.0000
# 3 34.2868 45.0590 94.0451 0.0000 10.2129 0.0000
# 4 0.0000 0.0000 0.0000 20.3166 0.0000 4.6302
# 5 6.8601 8.1750 10.2129 0.0000 22.5609 0.0000
# 6 0.0000 0.0000 0.0000 4.6302 0.0000 22.0592
#
#
#
# Elastic Compliance Matrix: (Units=1/GPa)
#
#
# Indices 1 2 3 4 5 6 
#
# 1 0.012698 -0.003513 -0.002803 0.000000 -0.001319 0.000000
# 2 -0.003513 0.009864 -0.003337 0.000000 -0.000995 0.000000
# 3 -0.002803 -0.003337 0.013704 0.000000 -0.004142 0.000000
# 4 0.000000 0.000000 0.000000 0.051694 0.000000 -0.010850
# 5 -0.001319 -0.000995 -0.004142 0.000000 0.046961 0.000000
# 6 0.000000 0.000000 0.000000 -0.010850 0.000000 0.047610
#
#
# Mechanical properties :
#
#
# Convention : Reuss Voigt Hill
#
# Bulk Modulus (GPa) = 58.96508 64.85082 61.90795
# Shear Modulus (GPa) = 24.09751 26.42392 25.26071
#
# Velocity S-wave (km/s) = 3.67849 3.85196 3.76623
# Velocity P-wave (km/s) = 7.15206 7.49658 7.32634
#
# Compressibility (1/GPa) = 0.01695919
#
# Stress axis : x y z
#
# Youngs Moduli (GPa) = 78.75325 101.37831 72.97289
#
# Poissons Ratio (x) = 0.35617 0.20453
# Poissons Ratio (y) = 0.27668 0.24352
# Poissons Ratio (z) = 0.22073 0.33831
#
# Static dielectric constant tensor:
#      x y z
#    x 3.330970 0.000000 0.130560 
#    y 0.000000 3.257750 0.000000 
#    z 0.130560 0.000000 3.281220 
# 
# 
# High freq. dielectric constant tensor:
#      x y z
#    x 1.689800 0.000000 0.014710 
#    y 0.000000 1.676590 0.000000 
#    z 0.014710 0.000000 1.684320 
# 
# From -- ./inp_files/69417.got.cif
#   From: 2010.06.25/outbox.cif.g09.slc.cpg/sg13_35_cif.got.tgz:69417.got - 2010.06.28 04:50:58.
