data_PCOD8117476
_publ_section_title
;
Structure prediction by ZEFSAII (Michael W. Deem and Ramdas Pophale) SiO2 
 PCOD8117476
Probable space group: P 2/C
;
_chemical_formula_sum "Si O2"
_cell_formula_units_Z 32
_cell_length_a 8.794665
_cell_length_b 14.819729
_cell_length_c 15.328205
_cell_angle_alpha 90.000000
_cell_angle_beta 127.068630
_cell_angle_gamma 90.000000
_cell_volume 1594.068528
_symmetry_space_group_name_H-M "P 2/C"
_symmetry_group_IT_number 13
_symmetry_cell_setting 'monoclinic'
loop_
_space_group_symop_operation_xyz
x,y,z
-x,y,1/2-z
-x,-y,-z
x,-y,1/2+z
loop_
_atom_site_type_symbol
_atom_site_label
_atom_site_fract_x
_atom_site_fract_y
_atom_site_fract_z
Si Si1 0.853854 0.097659 0.780028
Si Si2 0.918894 0.803801 0.483116
Si Si3 0.244650 0.510814 0.496518
Si Si4 0.086301 0.617422 0.596313
Si Si5 0.473559 0.628974 0.461869
Si Si6 0.492331 0.216044 0.847062
Si Si7 0.224490 0.285340 0.300780
Si Si8 0.868159 0.104215 0.286778
O O1 0.935328 0.153155 0.891926
O O2 0.646953 0.133553 0.681837
O O3 0.000000 0.107061 0.750000
O O4 0.795023 0.995397 0.785256
O O5 0.706085 0.808469 0.449150
O O6 0.988412 0.699217 0.507672
O O7 0.036618 0.861928 0.591663
O O8 0.208990 0.552098 0.578437
O O9 0.282349 0.594119 0.443623
O O10 0.438198 0.452932 0.563300
O O11 0.072366 0.444327 0.409823
O O12 0.235726 0.653271 0.718759
O O13 0.401984 0.702486 0.369766
O O14 0.632747 0.673357 0.580156
O O15 0.500000 0.246768 0.750000
O O16 0.284609 0.181643 0.296195
O O17 0.000000 0.281517 0.250000
O O18 0.000000 0.087384 0.250000
#
# Coordination Sequence:
#
# PCOD8117476 Si02
#       8
#     4   4   4   4   4   4   4   4
#     4  10  22  37  58  90 118 149 203 239 284 349
#     4  10  19  38  64  81 119 159 189 239 296 351
#     4  10  22  37  59  82 119 144 195 243 275 351
#     4  10  20  39  60  87 113 151 195 233 294 335
#     4  11  21  40  57  87 119 151 191 236 294 331
#     4  10  21  39  59  83 120 158 191 233 291 352
#     4  10  18  36  62  85 115 151 189 233 290 346
#     4   9  18  35  62  88 113 150 197 239 287 350
#
# _framework density 20.07442
#
# number of rings (size 3 to 8) (size 9 to 14) (size 15 to 20)
#    0.000    2.000    2.500    1.875    1.750    0.500 
#    4.500    8.125   16.500    0.000    0.000    0.000 
#    0.000    0.000    0.000    0.000    0.000    0.000 
#
# Total GULP energy -396479.467859 kJ/mol
# GULP energy per Si atom -12389.983371 kJ/mol
# Density = 2.002873 g / cm^3
# Si number density = 20.074420 Si / 1000 Ang^3
#
#
#
# Elastic Constant Matrix: (Units=GPa)
#
#
# Indices 1 2 3 4 5 6 
#
# 1 80.4816 45.3826 27.8289 0.0000 -10.7504 0.0000
# 2 45.3826 149.5420 55.6771 0.0000 -5.2684 0.0000
# 3 27.8289 55.6771 53.3224 0.0000 -6.1838 0.0000
# 4 0.0000 0.0000 0.0000 22.3648 0.0000 10.5348
# 5 -10.7504 -5.2684 -6.1838 0.0000 19.9652 0.0000
# 6 0.0000 0.0000 0.0000 10.5348 0.0000 -46.7393
#
#
#
# Elastic Compliance Matrix: (Units=1/GPa)
#
#
# Indices 1 2 3 4 5 6 
#
# 1 0.016686 -0.003067 -0.004727 0.000000 0.006711 0.000000
# 2 -0.003067 0.011513 -0.010642 0.000000 -0.001910 0.000000
# 3 -0.004727 -0.010642 0.032894 0.000000 0.004834 0.000000
# 4 0.000000 0.000000 0.000000 0.040421 0.000000 0.009111
# 5 0.006711 -0.001910 0.004834 0.000000 0.054694 0.000000
# 6 0.000000 0.000000 0.000000 0.009111 0.000000 -0.019342
#
#
# Mechanical properties :
#
#
# Convention : Reuss Voigt Hill
#
# Bulk Modulus (GPa) = 41.28952 60.12481 50.70717
# Shear Modulus (GPa) = 27.50088 9.41529 18.45809
#
# Velocity S-wave (km/s) = 3.70529 2.16804 3.03559
# Velocity P-wave (km/s) = 6.23847 6.02355 6.13195
#
# Compressibility (1/GPa) = 0.02421922
#
# Stress axis : x y z
#
# Youngs Moduli (GPa) = 59.93099 86.85976 30.40110
#
# Poissons Ratio (x) = 0.26642 0.14372
# Poissons Ratio (y) = 0.18383 0.32352
# Poissons Ratio (z) = 0.28331 0.92435
#
# Static dielectric constant tensor:
#      x y z
#    x 3.742410 0.000000 -0.138630 
#    y 0.000000 4.153240 0.000000 
#    z -0.138630 0.000000 3.536870 
# 
# 
# High freq. dielectric constant tensor:
#      x y z
#    x 1.769260 0.000000 -0.020830 
#    y 0.000000 1.805240 0.000000 
#    z -0.020830 0.000000 1.769030 
# 
# From -- ./inp_files/47701.got.cif
#   From: 2010.06.25/outbox.cif.g09.slc.cpg/sg13_24_cif.got.tgz:47701.got - 2010.06.28 04:50:58.
