data_PCOD8117586
_publ_section_title
;
Structure prediction by ZEFSAII (Michael W. Deem and Ramdas Pophale) SiO2 
 PCOD8117586
Probable space group: P 2/C
;
_chemical_formula_sum "Si O2"
_cell_formula_units_Z 18
_cell_length_a 5.540916
_cell_length_b 9.830024
_cell_length_c 16.843114
_cell_angle_alpha 90.000000
_cell_angle_beta 118.205276
_cell_angle_gamma 90.000000
_cell_volume 808.467485
_symmetry_space_group_name_H-M "P 2/C"
_symmetry_group_IT_number 13
_symmetry_cell_setting 'monoclinic'
loop_
_space_group_symop_operation_xyz
x,y,z
-x,y,1/2-z
-x,-y,-z
x,-y,1/2+z
loop_
_atom_site_type_symbol
_atom_site_label
_atom_site_fract_x
_atom_site_fract_y
_atom_site_fract_z
Si Si1 0.133192 0.329171 0.099886
Si Si2 0.505083 0.912911 0.657789
Si Si3 0.604435 0.430132 0.938395
Si Si4 0.000000 0.264629 0.250000
Si Si5 0.331587 0.198730 0.805973
O O1 0.241330 0.177535 0.093212
O O2 0.349189 0.448782 0.116734
O O3 0.095511 0.351694 0.188912
O O4 0.875792 0.346299 0.002353
O O5 0.500000 0.936140 0.750000
O O6 0.768523 0.827637 0.673873
O O7 0.535914 0.066065 0.628176
O O8 0.378090 0.328285 0.869079
O O9 0.500000 0.500000 0.000000
O O10 0.500000 0.222939 0.750000
O O11 0.000000 0.179799 0.750000
#
# Coordination Sequence:
#
# PCOD8117586 Si02
#       5
#     4   4   4   2   4
#     4  10  23  41  68  99 136 180 227 288 340 419
#     4   9  19  40  68  98 132 173 231 280 343 411
#     4  11  26  46  63 100 144 180 235 282 348 413
#     4  10  18  40  68 102 128 172 230 278 350 410
#     4  11  26  47  73 102 138 185 231 290 350 415
#
# _framework density 22.264344999999999
#
# number of rings (size 3 to 8) (size 9 to 14) (size 15 to 20)
#    0.000    1.778    1.111    1.333    6.222    5.333 
#    2.000    4.444    0.000    0.000    0.000    0.000 
#    0.000    0.000    0.000    0.000    0.000    0.000 
#
# Total GULP energy -223006.164309 kJ/mol
# GULP energy per Si atom -12389.231351 kJ/mol
# Density = 2.221367 g / cm^3
# Si number density = 22.264345 Si / 1000 Ang^3
#
#
#
# Elastic Constant Matrix: (Units=GPa)
#
#
# Indices 1 2 3 4 5 6 
#
# 1 129.8372 60.1151 34.0330 0.0000 -12.0627 0.0000
# 2 60.1151 174.3021 63.0248 0.0000 -4.8744 0.0000
# 3 34.0330 63.0248 58.3344 0.0000 -9.7198 0.0000
# 4 0.0000 0.0000 0.0000 39.1949 0.0000 10.1158
# 5 -12.0627 -4.8744 -9.7198 0.0000 34.0055 0.0000
# 6 0.0000 0.0000 0.0000 10.1158 0.0000 51.6117
#
#
#
# Elastic Compliance Matrix: (Units=1/GPa)
#
#
# Indices 1 2 3 4 5 6 
#
# 1 0.009705 -0.002256 -0.002841 0.000000 0.002307 0.000000
# 2 -0.002256 0.010027 -0.009882 0.000000 -0.002187 0.000000
# 3 -0.002841 -0.009882 0.030526 0.000000 0.006301 0.000000
# 4 0.000000 0.000000 0.000000 0.026873 0.000000 -0.005267
# 5 0.002307 -0.002187 0.006301 0.000000 0.031713 0.000000
# 6 0.000000 0.000000 0.000000 -0.005267 0.000000 0.020408
#
#
# Mechanical properties :
#
#
# Convention : Reuss Voigt Hill
#
# Bulk Modulus (GPa) = 49.25582 75.20219 62.22900
# Shear Modulus (GPa) = 30.12486 38.64913 34.38700
#
# Velocity S-wave (km/s) = 3.68238 4.17096 3.93426
# Velocity P-wave (km/s) = 6.34438 7.55289 6.97486
#
# Compressibility (1/GPa) = 0.02030217
#
# Stress axis : x y z
#
# Youngs Moduli (GPa) = 103.03662 99.73074 32.75879
#
# Poissons Ratio (x) = 0.22495 0.09306
# Poissons Ratio (y) = 0.23240 0.32371
# Poissons Ratio (z) = 0.29271 0.98552
#
# Static dielectric constant tensor:
#      x y z
#    x 3.849600 0.000000 0.006710 
#    y 0.000000 4.448740 0.000000 
#    z 0.006710 0.000000 4.157770 
# 
# 
# High freq. dielectric constant tensor:
#      x y z
#    x 1.894030 0.000000 0.001500 
#    y 0.000000 1.890880 0.000000 
#    z 0.001500 0.000000 1.842750 
# 
# From -- ./inp_files/60337.got.cif
#   From: 2010.06.25/outbox.cif.g09.slc.cpg/sg13_31_cif.got.tgz:60337.got - 2010.06.28 04:50:58.
