data_PCOD8117335
_publ_section_title
;
Structure prediction by ZEFSAII (Michael W. Deem and Ramdas Pophale) SiO2 
 PCOD8117335
Probable space group: P 2/C
;
_chemical_formula_sum "Si O2"
_cell_formula_units_Z 30
_cell_length_a 13.853938
_cell_length_b 9.387843
_cell_length_c 13.097721
_cell_angle_alpha 90.000000
_cell_angle_beta 63.949970
_cell_angle_gamma 90.000000
_cell_volume 1530.417124
_symmetry_space_group_name_H-M "P 2/C"
_symmetry_group_IT_number 13
_symmetry_cell_setting 'monoclinic'
loop_
_space_group_symop_operation_xyz
x,y,z
-x,y,1/2-z
-x,-y,-z
x,-y,1/2+z
loop_
_atom_site_type_symbol
_atom_site_label
_atom_site_fract_x
_atom_site_fract_y
_atom_site_fract_z
Si Si1 0.265577 0.313798 0.023644
Si Si2 0.898669 0.425042 0.245390
Si Si3 0.568376 0.396240 0.399293
Si Si4 0.263355 0.510716 0.835608
Si Si5 0.500000 0.208703 0.250000
Si Si6 0.852639 0.973094 0.916206
Si Si7 0.733848 0.833234 0.603672
Si Si8 0.917079 0.105036 0.169387
O O1 0.290273 0.390137 0.904767
O O2 0.185487 0.412926 0.124162
O O3 0.368661 0.294675 0.049872
O O4 0.218798 0.161433 0.018021
O O5 0.850249 0.512519 0.171379
O O6 0.936707 0.270167 0.188391
O O7 0.000000 0.505741 0.250000
O O8 0.500000 0.500000 0.500000
O O9 0.645718 0.491725 0.292984
O O10 0.497170 0.301580 0.355581
O O11 0.261019 0.663620 0.892302
O O12 0.388732 0.117725 0.309773
O O13 0.876093 0.980975 0.786193
O O14 0.968694 0.961732 0.920698
O O15 0.778306 0.111631 0.974409
O O16 0.819679 0.912164 0.636491
#
# Coordination Sequence:
#
# PCOD8117335 Si02
#       8
#     4   4   4   4   2   4   4   4
#     4  10  19  34  54  82 105 138 181 221 265 319
#     4   9  15  31  52  76 105 144 173 210 266 323
#     4  10  19  35  59  75 103 148 184 217 264 333
#     4   9  20  33  53  81 110 134 181 225 269 319
#     4  10  20  36  54  82 112 140 180 228 278 318
#     4  10  18  34  59  77 105 142 182 220 266 325
#     4  10  20  35  54  78 107 145 179 222 272 322
#     4   9  17  34  56  76 104 146 189 209 258 340
#
# _framework density 19.602499000000002
#
# number of rings (size 3 to 8) (size 9 to 14) (size 15 to 20)
#    0.000    2.400    2.667    4.400    0.000    0.533 
#    0.000    8.000    2.933    0.000    0.000    0.000 
#    0.000    0.000    0.000    0.000    0.000    0.000 
#
# Total GULP energy -371655.817914 kJ/mol
# GULP energy per Si atom -12388.527264 kJ/mol
# Density = 1.955788 g / cm^3
# Si number density = 19.602499 Si / 1000 Ang^3
#
#
#
# Elastic Constant Matrix: (Units=GPa)
#
#
# Indices 1 2 3 4 5 6 
#
# 1 136.3362 27.0022 40.1464 0.0000 -2.4765 0.0000
# 2 27.0022 45.9526 48.5045 0.0000 -9.5756 0.0000
# 3 40.1464 48.5045 92.3256 0.0000 -7.0448 0.0000
# 4 0.0000 0.0000 0.0000 24.7426 0.0000 -9.1590
# 5 -2.4765 -9.5756 -7.0448 0.0000 36.5478 0.0000
# 6 0.0000 0.0000 0.0000 -9.1590 0.0000 17.7982
#
#
#
# Elastic Compliance Matrix: (Units=1/GPa)
#
#
# Indices 1 2 3 4 5 6 
#
# 1 0.008546 -0.002631 -0.002377 0.000000 -0.000568 0.000000
# 2 -0.002631 0.052061 -0.025556 0.000000 0.008536 0.000000
# 3 -0.002377 -0.025556 0.025137 0.000000 -0.002011 0.000000
# 4 0.000000 0.000000 0.000000 0.049927 0.000000 0.025692
# 5 -0.000568 0.008536 -0.002011 0.000000 0.029172 0.000000
# 6 0.000000 0.000000 0.000000 0.025692 0.000000 0.069407
#
#
# Mechanical properties :
#
#
# Convention : Reuss Voigt Hill
#
# Bulk Modulus (GPa) = 40.62267 56.21342 48.41805
# Shear Modulus (GPa) = 16.47002 26.41513 21.44258
#
# Velocity S-wave (km/s) = 2.90176 3.67487 3.31096
# Velocity P-wave (km/s) = 5.65643 6.83704 6.27456
#
# Compressibility (1/GPa) = 0.02461679
#
# Stress axis : x y z
#
# Youngs Moduli (GPa) = 117.02056 19.20826 39.78123
#
# Poissons Ratio (x) = 0.05053 0.09457
# Poissons Ratio (y) = 0.30784 1.01664
# Poissons Ratio (z) = 0.27818 0.49088
#
# Static dielectric constant tensor:
#      x y z
#    x 4.149460 0.000000 0.045640 
#    y 0.000000 3.045060 0.000000 
#    z 0.045640 0.000000 3.543310 
# 
# 
# High freq. dielectric constant tensor:
#      x y z
#    x 1.787920 0.000000 0.004150 
#    y 0.000000 1.704610 0.000000 
#    z 0.004150 0.000000 1.764130 
# 
# From -- ./inp_files/36911.got.cif
#   From: 2010.06.25/outbox.cif.g09.slc.cpg/sg13_19_cif.got.tgz:36911.got - 2010.06.28 04:50:58.
