data_PCOD8117571
_publ_section_title
;
Structure prediction by ZEFSAII (Michael W. Deem and Ramdas Pophale) SiO2 
 PCOD8117571
Probable space group: P 2/C
;
_chemical_formula_sum "Si O2"
_cell_formula_units_Z 32
_cell_length_a 12.294301
_cell_length_b 14.329692
_cell_length_c 18.583697
_cell_angle_alpha 90.000000
_cell_angle_beta 27.767532
_cell_angle_gamma 90.000000
_cell_volume 1525.287875
_symmetry_space_group_name_H-M "P 2/C"
_symmetry_group_IT_number 13
_symmetry_cell_setting 'monoclinic'
loop_
_space_group_symop_operation_xyz
x,y,z
-x,y,1/2-z
-x,-y,-z
x,-y,1/2+z
loop_
_atom_site_type_symbol
_atom_site_label
_atom_site_fract_x
_atom_site_fract_y
_atom_site_fract_z
Si Si1 0.024033 0.929280 0.322051
Si Si2 0.579156 0.816333 0.624641
Si Si3 0.720608 0.621512 0.489150
Si Si4 0.800148 0.121735 0.250316
Si Si5 0.574610 0.430887 0.626166
Si Si6 0.878617 0.725297 0.898065
Si Si7 0.521266 0.825622 0.435043
Si Si8 0.255740 0.364661 0.682970
O O1 0.275610 0.897034 0.206136
O O2 0.000000 0.917079 0.250000
O O3 0.823671 0.871106 0.478989
O O4 0.014233 0.037249 0.352421
O O5 0.500000 0.791079 0.750000
O O6 0.583673 0.718672 0.578983
O O7 0.381848 0.885226 0.708173
O O8 0.617613 0.541321 0.600407
O O9 0.702811 0.581921 0.417297
O O10 0.984100 0.640265 0.360170
O O11 0.650679 0.121255 0.410635
O O12 0.943245 0.218158 0.156076
O O13 0.500000 0.401126 0.750000
O O14 0.815466 0.375321 0.468316
O O15 0.382714 0.408209 0.677526
O O16 0.000000 0.708932 0.750000
O O17 0.639088 0.786179 0.035572
O O18 0.655448 0.737970 0.390648
#
# Coordination Sequence:
#
# PCOD8117571 Si02
#       8
#     4   4   4   4   4   4   4   4
#     4  12  22  39  71  96 123 168 221 268 322 390
#     4  12  27  43  63  96 134 171 216 273 333 385
#     4  11  22  42  67  95 127 172 225 267 321 383
#     4  11  23  39  67  96 129 166 214 273 322 381
#     4  11  25  41  64  98 133 172 216 268 333 390
#     4   9  22  40  62  95 130 171 214 261 324 385
#     4  10  18  39  65  98 124 159 217 272 305 386
#     4  10  21  39  68  96 126 171 220 269 318 384
#
# _framework density 20.979647
#
# number of rings (size 3 to 8) (size 9 to 14) (size 15 to 20)
#    0.000    1.250    3.750    2.250    3.500    3.000 
#    0.000    0.625    0.000    0.000    0.000    0.000 
#    0.000    0.000    0.000    0.000    0.000    0.000 
#
# Total GULP energy -396668.659752 kJ/mol
# GULP energy per Si atom -12395.895617 kJ/mol
# Density = 2.093190 g / cm^3
# Si number density = 20.979647 Si / 1000 Ang^3
#
#
#
# Elastic Constant Matrix: (Units=GPa)
#
#
# Indices 1 2 3 4 5 6 
#
# 1 77.3469 30.4700 51.6022 0.0000 -2.8536 0.0000
# 2 30.4700 108.7081 40.9682 0.0000 -1.2909 0.0000
# 3 51.6022 40.9682 91.3546 0.0000 -2.3257 0.0000
# 4 0.0000 0.0000 0.0000 25.6026 0.0000 -8.3233
# 5 -2.8536 -1.2909 -2.3257 0.0000 30.7798 0.0000
# 6 0.0000 0.0000 0.0000 -8.3233 0.0000 18.6899
#
#
#
# Elastic Compliance Matrix: (Units=1/GPa)
#
#
# Indices 1 2 3 4 5 6 
#
# 1 0.021040 -0.001704 -0.011094 0.000000 0.001041 0.000000
# 2 -0.001704 0.011208 -0.004064 0.000000 0.000005 0.000000
# 3 -0.011094 -0.004064 0.019041 0.000000 0.000240 0.000000
# 4 0.000000 0.000000 0.000000 0.045671 0.000000 0.020339
# 5 0.001041 0.000005 0.000240 0.000000 0.032604 0.000000
# 6 0.000000 0.000000 0.000000 0.020339 0.000000 0.062562
#
#
# Mechanical properties :
#
#
# Convention : Reuss Voigt Hill
#
# Bulk Modulus (GPa) = 56.92771 58.16560 57.54665
# Shear Modulus (GPa) = 21.57928 25.30573 23.44251
#
# Velocity S-wave (km/s) = 3.21063 3.47681 3.34637
# Velocity P-wave (km/s) = 6.39827 6.62590 6.51308
#
# Compressibility (1/GPa) = 0.01756614
#
# Stress axis : x y z
#
# Youngs Moduli (GPa) = 47.52930 89.22141 52.51793
#
# Poissons Ratio (x) = 0.15204 0.58262
# Poissons Ratio (y) = 0.08099 0.21341
# Poissons Ratio (z) = 0.52727 0.36256
#
# Static dielectric constant tensor:
#      x y z
#    x 3.703710 0.000000 -0.309040 
#    y 0.000000 3.811990 0.000000 
#    z -0.309040 0.000000 3.747530 
# 
# 
# High freq. dielectric constant tensor:
#      x y z
#    x 1.807250 0.000000 -0.025160 
#    y 0.000000 1.825640 0.000000 
#    z -0.025160 0.000000 1.812310 
# 
# From -- ./inp_files/39487.got.cif
#   From: 2010.06.25/outbox.cif.g09.slc.cpg/sg13_20_cif.got.tgz:39487.got - 2010.06.28 04:50:58.
