data_PCOD8117477
_publ_section_title
;
Structure prediction by ZEFSAII (Michael W. Deem and Ramdas Pophale) SiO2 
 PCOD8117477
Probable space group: P 2/C
;
_chemical_formula_sum "Si O2"
_cell_formula_units_Z 32
_cell_length_a 23.465447
_cell_length_b 11.585102
_cell_length_c 17.692999
_cell_angle_alpha 90.000000
_cell_angle_beta 19.411480
_cell_angle_gamma 90.000000
_cell_volume 1598.549088
_symmetry_space_group_name_H-M "P 2/C"
_symmetry_group_IT_number 13
_symmetry_cell_setting 'monoclinic'
loop_
_space_group_symop_operation_xyz
x,y,z
-x,y,1/2-z
-x,-y,-z
x,-y,1/2+z
loop_
_atom_site_type_symbol
_atom_site_label
_atom_site_fract_x
_atom_site_fract_y
_atom_site_fract_z
Si Si1 0.256921 0.805714 0.305785
Si Si2 0.012228 0.829793 0.988854
Si Si3 0.765819 0.001060 0.367027
Si Si4 0.986949 0.589690 0.449163
Si Si5 0.500977 0.857974 0.625533
Si Si6 0.366817 0.619355 0.974678
Si Si7 0.680976 0.548738 0.296729
Si Si8 0.195017 0.988538 0.513528
O O1 0.283416 0.669932 0.290183
O O2 0.091506 0.816592 0.459536
O O3 0.237022 0.880659 0.406339
O O4 0.422002 0.852423 0.054647
O O5 0.179339 0.904938 0.763516
O O6 0.083071 0.709320 0.930048
O O7 0.893037 0.890289 0.201129
O O8 0.576131 0.963479 0.580780
O O9 0.770039 0.054553 0.445107
O O10 0.840602 0.537579 0.575915
O O11 0.000000 0.500000 0.500000
O O12 0.175095 0.618292 0.176807
O O13 0.543978 0.742561 0.618747
O O14 0.302139 0.893236 0.863979
O O15 0.500000 0.557201 0.750000
O O16 0.337007 0.555757 0.090497
O O17 0.500000 0.500000 0.500000
O O18 0.000000 0.027424 0.750000
#
# Coordination Sequence:
#
# PCOD8117477 Si02
#       8
#     4   4   4   4   4   4   4   4
#     4  10  20  41  58  82 124 166 195 249 316 370
#     4  10  18  36  62  87 115 161 209 241 302 373
#     4  10  20  35  58  88 120 155 205 249 289 375
#     4  10  18  37  67  84 112 165 206 245 306 369
#     4  10  21  39  59  83 123 162 201 247 305 372
#     4  10  19  38  62  86 118 157 207 258 304 359
#     4  10  22  41  62  90 119 157 212 260 311 373
#     4  12  23  35  56  89 126 163 198 244 316 371
#
# _framework density 20.018153999999999
#
# number of rings (size 3 to 8) (size 9 to 14) (size 15 to 20)
#    0.000    1.750    6.250    1.500    0.000    1.000 
#    4.500    4.375    0.000    0.000    0.000    0.000 
#    0.000    0.000    0.000    0.000    0.000    0.000 
#
# Total GULP energy -396463.543596 kJ/mol
# GULP energy per Si atom -12389.485737 kJ/mol
# Density = 1.997259 g / cm^3
# Si number density = 20.018154 Si / 1000 Ang^3
#
#
#
# Elastic Constant Matrix: (Units=GPa)
#
#
# Indices 1 2 3 4 5 6 
#
# 1 73.2623 36.4856 41.7018 0.0000 -0.3093 0.0000
# 2 36.4856 116.9642 54.6211 0.0000 -11.0861 0.0000
# 3 41.7018 54.6211 128.8080 0.0000 -17.5745 0.0000
# 4 0.0000 0.0000 0.0000 23.3296 0.0000 -9.3447
# 5 -0.3093 -11.0861 -17.5745 0.0000 34.3653 0.0000
# 6 0.0000 0.0000 0.0000 -9.3447 0.0000 20.9902
#
#
#
# Elastic Compliance Matrix: (Units=1/GPa)
#
#
# Indices 1 2 3 4 5 6 
#
# 1 0.018241 -0.003792 -0.004775 0.000000 -0.003501 0.000000
# 2 -0.003792 0.011496 -0.003382 0.000000 0.001945 0.000000
# 3 -0.004775 -0.003382 0.011383 0.000000 0.004687 0.000000
# 4 0.000000 0.000000 0.000000 0.052167 0.000000 0.023224
# 5 -0.003501 0.001945 0.004687 0.000000 0.032092 0.000000
# 6 0.000000 0.000000 0.000000 0.023224 0.000000 0.057981
#
#
# Mechanical properties :
#
#
# Convention : Reuss Voigt Hill
#
# Bulk Modulus (GPa) = 58.06469 64.96129 61.51299
# Shear Modulus (GPa) = 23.47420 28.15207 25.81313
#
# Velocity S-wave (km/s) = 3.42811 3.75417 3.59484
# Velocity P-wave (km/s) = 6.68866 7.16334 6.93006
#
# Compressibility (1/GPa) = 0.01722217
#
# Stress axis : x y z
#
# Youngs Moduli (GPa) = 54.82006 86.98557 87.84870
#
# Poissons Ratio (x) = 0.32985 0.41952
# Poissons Ratio (y) = 0.20788 0.29710
# Poissons Ratio (z) = 0.26179 0.29418
#
# Static dielectric constant tensor:
#      x y z
#    x 3.501240 0.000000 -0.028680 
#    y 0.000000 3.309090 0.000000 
#    z -0.028680 0.000000 3.878120 
# 
# 
# High freq. dielectric constant tensor:
#      x y z
#    x 1.754430 0.000000 -0.005520 
#    y 0.000000 1.770570 0.000000 
#    z -0.005520 0.000000 1.792080 
# 
# From -- ./inp_files/71473.got.cif
#   From: 2010.06.25/outbox.cif.g09.slc.cpg/sg13_36_cif.got.tgz:71473.got - 2010.06.28 04:50:58.
