data_PCOD8117119
_publ_section_title
;
Structure prediction by ZEFSAII (Michael W. Deem and Ramdas Pophale) SiO2 
 PCOD8117119
Probable space group: P 2/C
;
_chemical_formula_sum "Si O2"
_cell_formula_units_Z 30
_cell_length_a 11.496469
_cell_length_b 8.805844
_cell_length_c 24.043031
_cell_angle_alpha 90.000000
_cell_angle_beta 43.105825
_cell_angle_gamma 90.000000
_cell_volume 1663.284750
_symmetry_space_group_name_H-M "P 2/C"
_symmetry_group_IT_number 13
_symmetry_cell_setting 'monoclinic'
loop_
_space_group_symop_operation_xyz
x,y,z
-x,y,1/2-z
-x,-y,-z
x,-y,1/2+z
loop_
_atom_site_type_symbol
_atom_site_label
_atom_site_fract_x
_atom_site_fract_y
_atom_site_fract_z
Si Si1 0.371892 0.533232 0.718094
Si Si2 0.954293 0.517796 0.110259
Si Si3 0.286601 0.610332 0.040018
Si Si4 0.650114 0.768084 0.595482
Si Si5 0.966690 0.282715 0.505133
Si Si6 0.500000 0.276575 0.750000
Si Si7 0.350553 0.115224 0.901801
Si Si8 0.477291 0.643184 0.078819
O O1 0.184709 0.579513 0.805801
O O2 0.511999 0.666766 0.678320
O O3 0.394840 0.383740 0.746436
O O4 0.377740 0.477378 0.652613
O O5 0.062644 0.406574 0.032845
O O6 0.082382 0.592948 0.110224
O O7 0.888330 0.649327 0.090337
O O8 0.343303 0.691682 0.077657
O O9 0.346100 0.715876 0.968991
O O10 0.367229 0.442485 0.005771
O O11 0.833382 0.754808 0.560847
O O12 0.592631 0.941863 0.612880
O O13 0.854880 0.139056 0.522926
O O14 0.387353 0.167165 0.826717
O O15 0.453099 0.210750 0.912532
#
# Coordination Sequence:
#
# PCOD8117119 Si02
#       8
#     4   4   4   4   4   2   4   4
#     4  10  19  34  51  80 102 144 175 232 262 325
#     4  10  18  31  58  78 104 135 187 222 272 306
#     4   9  18  36  54  81  97 140 180 235 254 327
#     4  10  22  33  54  79 114 139 184 216 283 324
#     4  10  19  33  51  82 110 141 176 224 266 328
#     4  10  20  32  52  74 110 138 182 210 274 318
#     4  11  20  35  52  82 111 150 171 225 274 336
#     4   9  19  34  56  74 107 133 189 217 273 311
#
# _framework density 18.036597
#
# number of rings (size 3 to 8) (size 9 to 14) (size 15 to 20)
#    0.000    2.133    2.667    1.200    3.733    2.667 
#    0.000    0.000    0.000    0.000    0.000    0.000 
#    0.000    0.000    0.000    0.000    0.000    0.000 
#
# Total GULP energy -371701.793045 kJ/mol
# GULP energy per Si atom -12390.059768 kJ/mol
# Density = 1.799555 g / cm^3
# Si number density = 18.036597 Si / 1000 Ang^3
#
#
#
# Elastic Constant Matrix: (Units=GPa)
#
#
# Indices 1 2 3 4 5 6 
#
# 1 117.6112 35.6202 47.0586 0.0000 1.0902 0.0000
# 2 35.6202 101.1968 31.7832 0.0000 -6.8832 0.0000
# 3 47.0586 31.7832 91.7421 0.0000 -12.5107 0.0000
# 4 0.0000 0.0000 0.0000 17.0800 0.0000 -3.7168
# 5 1.0902 -6.8832 -12.5107 0.0000 19.9290 0.0000
# 6 0.0000 0.0000 0.0000 -3.7168 0.0000 16.5714
#
#
#
# Elastic Compliance Matrix: (Units=1/GPa)
#
#
# Indices 1 2 3 4 5 6 
#
# 1 0.011660 -0.002644 -0.005771 0.000000 -0.005174 0.000000
# 2 -0.002644 0.011732 -0.002336 0.000000 0.002730 0.000000
# 3 -0.005771 -0.002336 0.015970 0.000000 0.009534 0.000000
# 4 0.000000 0.000000 0.000000 0.061552 0.000000 0.013806
# 5 -0.005174 0.002730 0.009534 0.000000 0.057389 0.000000
# 6 0.000000 0.000000 0.000000 0.013806 0.000000 0.063441
#
#
# Mechanical properties :
#
#
# Convention : Reuss Voigt Hill
#
# Bulk Modulus (GPa) = 55.98866 59.94157 57.96511
# Shear Modulus (GPa) = 20.06433 23.78862 21.92648
#
# Velocity S-wave (km/s) = 3.33892 3.63562 3.49042
# Velocity P-wave (km/s) = 6.78038 7.13646 6.96070
#
# Compressibility (1/GPa) = 0.01786076
#
# Stress axis : x y z
#
# Youngs Moduli (GPa) = 85.76192 85.23936 62.61934
#
# Poissons Ratio (x) = 0.22535 0.36135
# Poissons Ratio (y) = 0.22673 0.14627
# Poissons Ratio (z) = 0.49490 0.19911
#
# Static dielectric constant tensor:
#      x y z
#    x 3.353660 0.000000 0.055380 
#    y 0.000000 3.127400 0.000000 
#    z 0.055380 0.000000 3.498040 
# 
# 
# High freq. dielectric constant tensor:
#      x y z
#    x 1.694760 0.000000 -0.000460 
#    y 0.000000 1.672090 0.000000 
#    z -0.000460 0.000000 1.695410 
# 
# From -- ./inp_files/65983.got.cif
#   From: 2010.06.25/outbox.cif.g09.slc.cpg/sg13_33_cif.got.tgz:65983.got - 2010.06.28 04:50:58.
