data_PCOD8117391
_publ_section_title
;
Structure prediction by ZEFSAII (Michael W. Deem and Ramdas Pophale) SiO2 
 PCOD8117391
Probable space group: P 2/C
;
_chemical_formula_sum "Si O2"
_cell_formula_units_Z 26
_cell_length_a 17.532741
_cell_length_b 10.072325
_cell_length_c 17.656754
_cell_angle_alpha 90.000000
_cell_angle_beta 153.283986
_cell_angle_gamma 90.000000
_cell_volume 1401.801298
_symmetry_space_group_name_H-M "P 2/C"
_symmetry_group_IT_number 13
_symmetry_cell_setting 'monoclinic'
loop_
_space_group_symop_operation_xyz
x,y,z
-x,y,1/2-z
-x,-y,-z
x,-y,1/2+z
loop_
_atom_site_type_symbol
_atom_site_label
_atom_site_fract_x
_atom_site_fract_y
_atom_site_fract_z
Si Si1 0.286246 0.796333 0.806792
Si Si2 0.611023 0.718191 0.187381
Si Si3 0.179841 0.032340 0.624644
Si Si4 0.021380 0.157830 0.355599
Si Si5 0.823901 0.460300 0.377559
Si Si6 0.854697 0.448243 0.061973
Si Si7 0.500000 0.351633 0.750000
O O1 0.222766 0.679256 0.697970
O O2 0.158565 0.835736 0.761032
O O3 0.311183 0.919929 0.769887
O O4 0.459644 0.750220 0.996807
O O5 0.756363 0.822728 0.293500
O O6 0.678257 0.569664 0.232059
O O7 0.552888 0.735869 0.223838
O O8 0.145517 0.047032 0.503505
O O9 0.000000 0.000000 0.500000
O O10 0.103531 0.303554 0.435416
O O11 0.000000 0.115097 0.250000
O O12 0.852346 0.444310 0.492957
O O13 0.000000 0.500000 0.500000
O O14 0.000000 0.491385 0.250000
O O15 0.661421 0.440283 0.922633
#
# Coordination Sequence:
#
# PCOD8117391 Si02
#       7
#     4   4   4   4   4   4   2
#     4  11  22  34  57  87 119 150 190 244 298 345
#     4  11  21  37  58  88 115 151 197 243 287 344
#     4  10  20  37  56  84 116 151 190 240 288 349
#     4  10  18  35  58  84 112 150 197 235 284 341
#     4  11  20  36  55  87 119 154 192 235 294 352
#     4  10  19  35  58  86 115 152 197 243 287 338
#     4  10  20  32  60  90 112 140 206 250 276 330
#
# _framework density 18.547564999999999
#
# number of rings (size 3 to 8) (size 9 to 14) (size 15 to 20)
#    0.000    1.538    4.615    3.692    0.000    0.000 
#    0.000    0.769    0.000    3.692    0.000    0.000 
#    0.000    0.000    0.000    0.000    0.000    0.000 
#
# Total GULP energy -322108.501972 kJ/mol
# GULP energy per Si atom -12388.788537 kJ/mol
# Density = 1.850535 g / cm^3
# Si number density = 18.547565 Si / 1000 Ang^3
#
#
#
# Elastic Constant Matrix: (Units=GPa)
#
#
# Indices 1 2 3 4 5 6 
#
# 1 85.4802 32.7850 43.2959 0.0000 -14.5931 0.0000
# 2 32.7850 62.3174 22.1329 0.0000 -20.7038 0.0000
# 3 43.2959 22.1329 135.8320 0.0000 -18.5490 0.0000
# 4 0.0000 0.0000 0.0000 34.5359 0.0000 -2.5338
# 5 -14.5931 -20.7038 -18.5490 0.0000 38.1687 0.0000
# 6 0.0000 0.0000 0.0000 -2.5338 0.0000 24.3819
#
#
#
# Elastic Compliance Matrix: (Units=1/GPa)
#
#
# Indices 1 2 3 4 5 6 
#
# 1 0.016563 -0.007106 -0.004052 0.000000 0.000509 0.000000
# 2 -0.007106 0.023073 -0.000168 0.000000 0.009717 0.000000
# 3 -0.004052 -0.000168 0.009058 0.000000 0.002762 0.000000
# 4 0.000000 0.000000 0.000000 0.029178 0.000000 0.003032
# 5 0.000509 0.009717 0.002762 0.000000 0.033007 0.000000
# 6 0.000000 0.000000 0.000000 0.003032 0.000000 0.041329
#
#
# Mechanical properties :
#
#
# Convention : Reuss Voigt Hill
#
# Bulk Modulus (GPa) = 38.39722 53.33968 45.86845
# Shear Modulus (GPa) = 27.24193 31.77835 29.51014
#
# Velocity S-wave (km/s) = 3.83660 4.14375 3.99313
# Velocity P-wave (km/s) = 6.35397 7.19131 6.78557
#
# Compressibility (1/GPa) = 0.02604356
#
# Stress axis : x y z
#
# Youngs Moduli (GPa) = 60.37478 43.34061 110.39827
#
# Poissons Ratio (x) = 0.30796 0.44735
# Poissons Ratio (y) = 0.42899 0.01852
# Poissons Ratio (z) = 0.24465 0.00727
#
# Static dielectric constant tensor:
#      x y z
#    x 3.468130 0.000000 -0.053000 
#    y 0.000000 3.476340 0.000000 
#    z -0.053000 0.000000 3.819220 
# 
# 
# High freq. dielectric constant tensor:
#      x y z
#    x 1.709050 0.000000 -0.002900 
#    y 0.000000 1.687830 0.000000 
#    z -0.002900 0.000000 1.748540 
# 
# From -- ./inp_files/69695.got.cif
#   From: 2010.06.25/outbox.cif.g09.slc.cpg/sg13_35_cif.got.tgz:69695.got - 2010.06.28 04:50:58.
