data_PCOD8117095
_publ_section_title
;
Structure prediction by ZEFSAII (Michael W. Deem and Ramdas Pophale) SiO2 
 PCOD8117095
Probable space group: P 2/C
;
_chemical_formula_sum "Si O2"
_cell_formula_units_Z 24
_cell_length_a 10.386838
_cell_length_b 9.239920
_cell_length_c 16.028105
_cell_angle_alpha 90.000000
_cell_angle_beta 50.971888
_cell_angle_gamma 90.000000
_cell_volume 1194.988437
_symmetry_space_group_name_H-M "P 2/C"
_symmetry_group_IT_number 13
_symmetry_cell_setting 'monoclinic'
loop_
_space_group_symop_operation_xyz
x,y,z
-x,y,1/2-z
-x,-y,-z
x,-y,1/2+z
loop_
_atom_site_type_symbol
_atom_site_label
_atom_site_fract_x
_atom_site_fract_y
_atom_site_fract_z
Si Si1 0.404433 0.822036 0.206289
Si Si2 0.935486 0.055411 0.938266
Si Si3 0.221783 0.904246 0.743839
Si Si4 0.010770 0.653152 0.845001
Si Si5 0.941077 0.670553 0.178931
Si Si6 0.704380 0.158278 0.473551
O O1 0.500000 0.772714 0.250000
O O2 0.249208 0.718175 0.252923
O O3 0.350567 0.991188 0.239561
O O4 0.522484 0.797883 0.078243
O O5 0.942081 0.229144 0.927408
O O6 0.047194 0.992720 0.815431
O O7 0.751175 0.993782 0.999906
O O8 0.000000 0.000000 0.000000
O O9 0.170490 0.751189 0.808816
O O10 0.299137 0.869804 0.622987
O O11 0.037346 0.490797 0.866378
O O12 0.000000 0.659385 0.750000
O O13 0.837283 0.719606 0.949066
O O14 0.000000 0.679353 0.250000
#
# Coordination Sequence:
#
# PCOD8117095 Si02
#       6
#     4   4   4   4   4   4
#     4  11  22  36  54  84 117 144 181 238 287 329
#     4  10  18  31  52  79 108 143 184 227 274 332
#     4   9  18  34  54  75 104 145 186 225 273 335
#     4   8  17  35  58  81 108 144 189 231 273 335
#     4  10  20  38  59  82 111 150 189 226 278 345
#     4  10  18  34  57  81 107 144 190 237 278 326
#
# _framework density 20.083876
#
# number of rings (size 3 to 8) (size 9 to 14) (size 15 to 20)
#    0.000    2.333    0.000    6.000    0.000    0.667 
#    0.000   17.500    0.000    0.000    0.000    0.000 
#    0.000    0.000    0.000    0.000    0.000    0.000 
#
# Total GULP energy -297328.650055 kJ/mol
# GULP energy per Si atom -12388.693752 kJ/mol
# Density = 2.003816 g / cm^3
# Si number density = 20.083876 Si / 1000 Ang^3
#
#
#
# Elastic Constant Matrix: (Units=GPa)
#
#
# Indices 1 2 3 4 5 6 
#
# 1 84.7408 36.5133 15.0884 0.0000 -12.3192 0.0000
# 2 36.5133 166.2269 30.9524 0.0000 -17.7951 0.0000
# 3 15.0884 30.9524 60.8015 0.0000 -12.2689 0.0000
# 4 0.0000 0.0000 0.0000 13.6767 0.0000 -6.7929
# 5 -12.3192 -17.7951 -12.2689 0.0000 27.8272 0.0000
# 6 0.0000 0.0000 0.0000 -6.7929 0.0000 22.2682
#
#
#
# Elastic Compliance Matrix: (Units=1/GPa)
#
#
# Indices 1 2 3 4 5 6 
#
# 1 0.013618 -0.002308 -0.001411 0.000000 0.003931 0.000000
# 2 -0.002308 0.007278 -0.002634 0.000000 0.002471 0.000000
# 3 -0.001411 -0.002634 0.019398 0.000000 0.006243 0.000000
# 4 0.000000 0.000000 0.000000 0.086173 0.000000 0.026287
# 5 0.003931 0.002471 0.006243 0.000000 0.042009 0.000000
# 6 0.000000 0.000000 0.000000 0.026287 0.000000 0.052926
#
#
# Mechanical properties :
#
#
# Convention : Reuss Voigt Hill
#
# Bulk Modulus (GPa) = 36.24784 52.98636 44.61710
# Shear Modulus (GPa) = 20.55054 28.03543 24.29299
#
# Velocity S-wave (km/s) = 3.20228 3.74025 3.48167
# Velocity P-wave (km/s) = 5.63562 6.71509 6.19890
#
# Compressibility (1/GPa) = 0.02758785
#
# Stress axis : x y z
#
# Youngs Moduli (GPa) = 73.43362 137.40588 51.55249
#
# Poissons Ratio (x) = 0.31709 0.07276
# Poissons Ratio (y) = 0.16946 0.13577
# Poissons Ratio (z) = 0.10365 0.36187
#
# Static dielectric constant tensor:
#      x y z
#    x 3.419000 0.000000 -0.151790 
#    y 0.000000 4.048620 0.000000 
#    z -0.151790 0.000000 3.632270 
# 
# 
# High freq. dielectric constant tensor:
#      x y z
#    x 1.758850 0.000000 -0.001850 
#    y 0.000000 1.777680 0.000000 
#    z -0.001850 0.000000 1.780740 
# 
# From -- ./inp_files/65927.got.cif
#   From: 2010.06.25/outbox.cif.g09.slc.cpg/sg13_33_cif.got.tgz:65927.got - 2010.06.28 04:50:58.
