data_PCOD8117682
_publ_section_title
;
Structure prediction by ZEFSAII (Michael W. Deem and Ramdas Pophale) SiO2 
 PCOD8117682
Probable space group: P 2/C
;
_chemical_formula_sum "Si O2"
_cell_formula_units_Z 26
_cell_length_a 8.131743
_cell_length_b 9.462475
_cell_length_c 17.636757
_cell_angle_alpha 90.000000
_cell_angle_beta 82.255038
_cell_angle_gamma 90.000000
_cell_volume 1344.705551
_symmetry_space_group_name_H-M "P 2/C"
_symmetry_group_IT_number 13
_symmetry_cell_setting 'monoclinic'
loop_
_space_group_symop_operation_xyz
x,y,z
-x,y,1/2-z
-x,-y,-z
x,-y,1/2+z
loop_
_atom_site_type_symbol
_atom_site_label
_atom_site_fract_x
_atom_site_fract_y
_atom_site_fract_z
Si Si1 0.412827 0.628843 0.105128
Si Si2 0.500000 0.473879 0.250000
Si Si3 0.352418 0.657659 0.537301
Si Si4 0.248698 0.771776 0.784928
Si Si5 0.722746 0.087195 0.926832
Si Si6 0.891508 0.167786 0.365027
Si Si7 0.426614 0.117188 0.409168
O O1 0.450630 0.580142 0.186779
O O2 0.328014 0.504556 0.061622
O O3 0.281991 0.758853 0.112262
O O4 0.586405 0.673300 0.053408
O O5 0.661173 0.380073 0.219015
O O6 0.179805 0.740222 0.560537
O O7 0.492137 0.728650 0.582329
O O8 0.232786 0.822414 0.699594
O O9 0.353669 0.883335 0.828449
O O10 0.067969 0.766294 0.834621
O O11 0.886212 0.998042 0.890453
O O12 0.558604 0.006687 0.908565
O O13 0.718711 0.097422 0.018752
#
# Coordination Sequence:
#
# PCOD8117682 Si02
#       7
#     4   2   4   4   4   4   4
#     4  10  19  31  60  82 113 138 183 232 282 328
#     4  12  20  36  58  90 104 154 202 234 272 344
#     4   9  17  35  57  82 107 149 183 226 277 339
#     4  11  21  35  60  80 106 153 200 230 266 345
#     4   9  19  34  55  84 109 140 176 238 291 326
#     4  10  21  37  57  80 115 149 189 231 286 338
#     4   9  17  34  59  80 106 144 192 221 268 347
#
# _framework density 19.335087999999999
#
# number of rings (size 3 to 8) (size 9 to 14) (size 15 to 20)
#    0.000    2.154    3.077    1.846    0.000    1.846 
#    0.000    0.769   10.154    0.000    0.000    0.000 
#    0.000    0.000    0.000    0.000    0.000    0.000 
#
# Total GULP energy -322218.625146 kJ/mol
# GULP energy per Si atom -12393.024044 kJ/mol
# Density = 1.929108 g / cm^3
# Si number density = 19.335088 Si / 1000 Ang^3
#
#
#
# Elastic Constant Matrix: (Units=GPa)
#
#
# Indices 1 2 3 4 5 6 
#
# 1 63.1639 31.8562 23.5074 0.0000 -18.7148 0.0000
# 2 31.8562 127.3163 30.5612 0.0000 -15.7951 0.0000
# 3 23.5074 30.5612 78.9701 0.0000 -9.2665 0.0000
# 4 0.0000 0.0000 0.0000 32.9879 0.0000 -6.5641
# 5 -18.7148 -15.7951 -9.2665 0.0000 32.4565 0.0000
# 6 0.0000 0.0000 0.0000 -6.5641 0.0000 17.1115
#
#
#
# Elastic Compliance Matrix: (Units=1/GPa)
#
#
# Indices 1 2 3 4 5 6 
#
# 1 0.021941 -0.003279 -0.004103 0.000000 0.009884 0.000000
# 2 -0.003279 0.009520 -0.002469 0.000000 0.002038 0.000000
# 3 -0.004103 -0.002469 0.014921 0.000000 0.000693 0.000000
# 4 0.000000 0.000000 0.000000 0.032819 0.000000 0.012590
# 5 0.009884 0.002038 0.000693 0.000000 0.037699 0.000000
# 6 0.000000 0.000000 0.000000 0.012590 0.000000 0.063270
#
#
# Mechanical properties :
#
#
# Convention : Reuss Voigt Hill
#
# Bulk Modulus (GPa) = 37.47952 49.03332 43.25642
# Shear Modulus (GPa) = 23.95029 28.74622 26.34825
#
# Velocity S-wave (km/s) = 3.52333 3.86001 3.69550
# Velocity P-wave (km/s) = 5.99817 6.72912 6.37413
#
# Compressibility (1/GPa) = 0.02668124
#
# Stress axis : x y z
#
# Youngs Moduli (GPa) = 45.57685 105.03806 67.01913
#
# Poissons Ratio (x) = 0.34441 0.27495
# Poissons Ratio (y) = 0.14944 0.16549
# Poissons Ratio (z) = 0.18698 0.25936
#
# Static dielectric constant tensor:
#      x y z
#    x 3.230100 0.000000 -0.178340 
#    y 0.000000 3.646830 0.000000 
#    z -0.178340 0.000000 3.736800 
# 
# 
# High freq. dielectric constant tensor:
#      x y z
#    x 1.713480 0.000000 -0.016090 
#    y 0.000000 1.749960 0.000000 
#    z -0.016090 0.000000 1.761130 
# 
# From -- ./inp_files/63423.got.cif
#   From: 2010.06.25/outbox.cif.g09.slc.cpg/sg13_32_cif.got.tgz:63423.got - 2010.06.28 04:50:58.
