data_PCOD8117954
_publ_section_title
;
Structure prediction by ZEFSAII (Michael W. Deem and Ramdas Pophale) SiO2 
 PCOD8117954
Probable space group: P 2/C
;
_chemical_formula_sum "Si O2"
_cell_formula_units_Z 26
_cell_length_a 9.736909
_cell_length_b 10.189272
_cell_length_c 25.138392
_cell_angle_alpha 90.000000
_cell_angle_beta 146.250559
_cell_angle_gamma 90.000000
_cell_volume 1385.588877
_symmetry_space_group_name_H-M "P 2/C"
_symmetry_group_IT_number 13
_symmetry_cell_setting 'monoclinic'
loop_
_space_group_symop_operation_xyz
x,y,z
-x,y,1/2-z
-x,-y,-z
x,-y,1/2+z
loop_
_atom_site_type_symbol
_atom_site_label
_atom_site_fract_x
_atom_site_fract_y
_atom_site_fract_z
Si Si1 0.000531 0.204880 0.837305
Si Si2 0.825938 0.823795 0.923533
Si Si3 0.126004 0.551232 0.127064
Si Si4 0.757245 0.387625 0.945424
Si Si5 0.820298 0.005519 0.520712
Si Si6 0.500000 0.346537 0.250000
Si Si7 0.390916 0.201376 0.875343
O O1 0.221563 0.247476 0.869642
O O2 0.920760 0.325756 0.849619
O O3 0.768956 0.155433 0.727319
O O4 0.104788 0.080169 0.901904
O O5 0.739507 0.890353 0.950213
O O6 0.588614 0.747915 0.825708
O O7 0.047367 0.724970 0.005311
O O8 0.928877 0.931850 0.915587
O O9 0.318803 0.572880 0.139362
O O10 0.267998 0.429401 0.200718
O O11 0.868038 0.506236 0.016571
O O12 0.524771 0.335727 0.902603
O O13 0.587441 0.909677 0.455775
#
# Coordination Sequence:
#
# PCOD8117954 Si02
#       7
#     4   4   4   4   4   2   4
#     4  11  22  38  56  85 113 155 189 229 287 340
#     4   9  19  34  55  85 112 135 188 236 285 327
#     4  10  19  34  60  81 115 144 187 232 282 333
#     4   9  18  37  55  84 109 144 186 233 279 336
#     4  10  20  38  56  82 114 150 184 238 283 335
#     4  10  20  32  54  88 112 144 178 244 278 332
#     4  10  23  37  57  82 116 149 194 232 278 343
#
# _framework density 18.764583999999999
#
# number of rings (size 3 to 8) (size 9 to 14) (size 15 to 20)
#    0.000    2.154    1.538    1.385    2.154    0.615 
#    0.000    0.000    0.000    0.000    4.000    0.000 
#    0.000    0.000    0.000    0.000    0.000    0.000 
#
# Total GULP energy -322221.513126 kJ/mol
# GULP energy per Si atom -12393.135120 kJ/mol
# Density = 1.872188 g / cm^3
# Si number density = 18.764584 Si / 1000 Ang^3
#
#
#
# Elastic Constant Matrix: (Units=GPa)
#
#
# Indices 1 2 3 4 5 6 
#
# 1 74.1255 26.1967 42.5562 0.0000 -7.8394 0.0000
# 2 26.1967 75.3133 40.7104 0.0000 -9.6898 0.0000
# 3 42.5562 40.7104 92.6989 0.0000 -10.2537 0.0000
# 4 0.0000 0.0000 0.0000 35.8977 0.0000 0.9503
# 5 -7.8394 -9.6898 -10.2537 0.0000 19.2013 0.0000
# 6 0.0000 0.0000 0.0000 0.9503 0.0000 20.9280
#
#
#
# Elastic Compliance Matrix: (Units=1/GPa)
#
#
# Indices 1 2 3 4 5 6 
#
# 1 0.018774 -0.002218 -0.007355 0.000000 0.002618 0.000000
# 2 -0.002218 0.018136 -0.006414 0.000000 0.004822 0.000000
# 3 -0.007355 -0.006414 0.017313 0.000000 0.003006 0.000000
# 4 0.000000 0.000000 0.000000 0.027890 0.000000 -0.001266
# 5 0.002618 0.004822 0.003006 0.000000 0.057187 0.000000
# 6 0.000000 0.000000 0.000000 -0.001266 0.000000 0.047840
#
#
# Mechanical properties :
#
#
# Convention : Reuss Voigt Hill
#
# Bulk Modulus (GPa) = 44.94161 51.22939 48.08550
# Shear Modulus (GPa) = 22.07196 24.05036 23.06116
#
# Velocity S-wave (km/s) = 3.43338 3.58395 3.50947
# Velocity P-wave (km/s) = 6.30236 6.66983 6.48870
#
# Compressibility (1/GPa) = 0.02225109
#
# Stress axis : x y z
#
# Youngs Moduli (GPa) = 53.26523 55.13760 57.75879
#
# Poissons Ratio (x) = 0.12227 0.42483
# Poissons Ratio (y) = 0.11812 0.37044
# Poissons Ratio (z) = 0.39178 0.35363
#
# Static dielectric constant tensor:
#      x y z
#    x 3.328420 0.000000 0.032990 
#    y 0.000000 3.641580 0.000000 
#    z 0.032990 0.000000 3.605000 
# 
# 
# High freq. dielectric constant tensor:
#      x y z
#    x 1.705420 0.000000 -0.001000 
#    y 0.000000 1.734220 0.000000 
#    z -0.001000 0.000000 1.740180 
# 
# From -- ./inp_files/76505.got.cif
#   From: 2010.06.25/outbox.cif.g09.slc.cpg/sg13_39_cif.got.tgz:76505.got - 2010.06.28 04:50:58.
