data_PCOD8117500
_publ_section_title
;
Structure prediction by ZEFSAII (Michael W. Deem and Ramdas Pophale) SiO2 
 PCOD8117500
Probable space group: P 2/C
;
_chemical_formula_sum "Si O2"
_cell_formula_units_Z 30
_cell_length_a 16.977205
_cell_length_b 8.581661
_cell_length_c 20.753640
_cell_angle_alpha 90.000000
_cell_angle_beta 27.106611
_cell_angle_gamma 90.000000
_cell_volume 1377.719905
_symmetry_space_group_name_H-M "P 2/C"
_symmetry_group_IT_number 13
_symmetry_cell_setting 'monoclinic'
loop_
_space_group_symop_operation_xyz
x,y,z
-x,y,1/2-z
-x,-y,-z
x,-y,1/2+z
loop_
_atom_site_type_symbol
_atom_site_label
_atom_site_fract_x
_atom_site_fract_y
_atom_site_fract_z
Si Si1 0.756992 0.335604 0.661379
Si Si2 0.168526 0.637516 0.656991
Si Si3 0.781306 0.079709 0.467510
Si Si4 0.295393 0.050546 0.709989
Si Si5 0.493021 0.537311 0.579945
Si Si6 0.048371 0.220476 0.368672
Si Si7 0.500000 0.773069 0.250000
Si Si8 0.631983 0.126026 0.980825
O O1 0.756348 0.174348 0.699459
O O2 0.689141 0.478617 0.755835
O O3 0.952438 0.336249 0.489912
O O4 0.634191 0.338319 0.688559
O O5 0.169241 0.808336 0.626752
O O6 0.342584 0.551050 0.508804
O O7 0.000000 0.547777 0.750000
O O8 0.150154 0.660343 0.747371
O O9 0.918894 0.101842 0.424905
O O10 0.592176 0.115177 0.632135
O O11 0.763028 0.909736 0.445639
O O12 0.262331 0.128077 0.663479
O O13 0.498029 0.016885 0.571871
O O14 0.185537 0.893224 0.802617
O O15 0.500000 0.500000 0.500000
O O16 0.521964 0.718183 0.572966
#
# Coordination Sequence:
#
# PCOD8117500 Si02
#       8
#     4   4   4   4   4   4   2   4
#     4  11  22  39  64  91 123 162 211 251 321 380
#     4  10  20  40  62  89 121 165 211 247 308 384
#     4  10  19  38  64  89 116 163 210 253 308 369
#     4  11  20  39  62  95 123 160 211 265 316 363
#     4  12  23  40  62  92 125 170 212 252 316 392
#     4  10  22  36  69  91 122 160 213 272 313 365
#     4  10  18  36  66  84 116 154 210 252 292 378
#     4  11  22  36  65  93 124 163 212 263 303 385
#
# _framework density 21.775107999999999
#
# number of rings (size 3 to 8) (size 9 to 14) (size 15 to 20)
#    0.000    1.333    5.333    1.200    0.000    0.000 
#    2.400    3.333    0.000    0.000    0.000    0.000 
#    0.000    0.000    0.000    0.000    0.000    0.000 
#
# Total GULP energy -371761.366866 kJ/mol
# GULP energy per Si atom -12392.045562 kJ/mol
# Density = 2.172555 g / cm^3
# Si number density = 21.775108 Si / 1000 Ang^3
#
#
#
# Elastic Constant Matrix: (Units=GPa)
#
#
# Indices 1 2 3 4 5 6 
#
# 1 49.5593 5.5835 6.8016 0.0000 7.2075 0.0000
# 2 5.5835 61.2196 20.2064 0.0000 7.6048 0.0000
# 3 6.8016 20.2064 124.4352 0.0000 15.2886 0.0000
# 4 0.0000 0.0000 0.0000 35.8609 0.0000 6.4546
# 5 7.2075 7.6048 15.2886 0.0000 35.1827 0.0000
# 6 0.0000 0.0000 0.0000 6.4546 0.0000 15.2275
#
#
#
# Elastic Compliance Matrix: (Units=1/GPa)
#
#
# Indices 1 2 3 4 5 6 
#
# 1 0.020941 -0.001282 -0.000468 0.000000 -0.003809 0.000000
# 2 -0.001282 0.017576 -0.002482 0.000000 -0.002458 0.000000
# 3 -0.000468 -0.002482 0.008860 0.000000 -0.003218 0.000000
# 4 0.000000 0.000000 0.000000 0.030189 0.000000 -0.012796
# 5 -0.003809 -0.002458 -0.003218 0.000000 0.031133 0.000000
# 6 0.000000 0.000000 0.000000 -0.012796 0.000000 0.071094
#
#
# Mechanical properties :
#
#
# Convention : Reuss Voigt Hill
#
# Bulk Modulus (GPa) = 25.69907 33.37747 29.53827
# Shear Modulus (GPa) = 24.84735 30.76242 27.80488
#
# Velocity S-wave (km/s) = 3.38167 3.76271 3.57727
# Velocity P-wave (km/s) = 5.20339 5.85140 5.53688
#
# Compressibility (1/GPa) = 0.03891191
#
# Stress axis : x y z
#
# Youngs Moduli (GPa) = 47.75428 56.89537 112.86288
#
# Poissons Ratio (x) = 0.07295 0.05287
# Poissons Ratio (y) = 0.06123 0.28013
# Poissons Ratio (z) = 0.02237 0.14122
#
# Static dielectric constant tensor:
#      x y z
#    x -29.321720 0.000000 10.699650 
#    y 0.000000 3.523870 0.000000 
#    z 10.699650 0.000000 0.781550 
# 
# 
# High freq. dielectric constant tensor:
#      x y z
#    x 1.854520 0.000000 0.000000 
#    y 0.000000 1.812550 0.000000 
#    z 0.000000 0.000000 1.871020 
# 
# From -- ./inp_files/80924.got.cif
#   From: 2010.06.25/outbox.cif.g09.slc.cpg/sg13_41_cif.got.tgz:80924.got - 2010.06.28 04:50:58.
