data_PCOD8117845
_publ_section_title
;
Structure prediction by ZEFSAII (Michael W. Deem and Ramdas Pophale) SiO2 
 PCOD8117845
Probable space group: P 2/C
;
_chemical_formula_sum "Si O2"
_cell_formula_units_Z 32
_cell_length_a 21.500423
_cell_length_b 12.272027
_cell_length_c 22.128634
_cell_angle_alpha 90.000000
_cell_angle_beta 17.680788
_cell_angle_gamma 90.000000
_cell_volume 1773.299772
_symmetry_space_group_name_H-M "P 2/C"
_symmetry_group_IT_number 13
_symmetry_cell_setting 'monoclinic'
loop_
_space_group_symop_operation_xyz
x,y,z
-x,y,1/2-z
-x,-y,-z
x,-y,1/2+z
loop_
_atom_site_type_symbol
_atom_site_label
_atom_site_fract_x
_atom_site_fract_y
_atom_site_fract_z
Si Si1 0.073418 0.275279 0.034421
Si Si2 0.076373 0.830206 0.409110
Si Si3 0.141214 0.141057 0.172024
Si Si4 0.696219 0.013950 0.374246
Si Si5 0.474579 0.688038 0.342662
Si Si6 0.372010 0.850449 0.671809
Si Si7 0.298900 0.424979 0.114644
Si Si8 0.622498 0.345194 0.911426
O O1 0.996821 0.233016 0.169517
O O2 0.918196 0.374915 0.160624
O O3 0.061751 0.177374 0.995700
O O4 0.306921 0.310866 0.826311
O O5 0.195185 0.936211 0.275905
O O6 0.174568 0.716597 0.298228
O O7 0.848338 0.840464 0.593172
O O8 0.000000 0.092720 0.250000
O O9 0.173506 0.040511 0.187443
O O10 0.359004 0.193983 0.950111
O O11 0.495381 0.952288 0.585722
O O12 0.639885 0.125427 0.390444
O O13 0.500000 0.647910 0.250000
O O14 0.338169 0.603339 0.507814
O O15 0.489207 0.737376 0.575439
O O16 0.296105 0.555192 0.123776
O O17 0.487301 0.380252 0.979617
#
# Coordination Sequence:
#
# PCOD8117845 Si02
#       8
#     4   4   4   4   4   4   4   4
#     4  11  21  34  54  84 115 146 177 224 274 336
#     4  11  20  33  55  81 114 150 181 216 280 338
#     4  11  22  37  54  81 115 142 183 230 271 321
#     4  10  22  32  53  84 112 150 181 225 276 331
#     4  11  22  37  56  82 111 147 182 221 275 336
#     4  10  19  34  51  80 116 141 180 225 270 329
#     4  10  21  34  54  81 115 139 176 230 272 324
#     4  10  20  34  51  84 112 142 176 224 276 325
#
# _framework density 18.045453999999999
#
# number of rings (size 3 to 8) (size 9 to 14) (size 15 to 20)
#    0.000    1.500    5.000    1.125    3.500    1.500 
#    0.000    0.000    0.000    0.000   19.500    0.000 
#    0.000    0.000    0.000    0.000    0.000    0.000 
#
# Total GULP energy -396606.240813 kJ/mol
# GULP energy per Si atom -12393.945025 kJ/mol
# Density = 1.800438 g / cm^3
# Si number density = 18.045454 Si / 1000 Ang^3
#
#
#
# Elastic Constant Matrix: (Units=GPa)
#
#
# Indices 1 2 3 4 5 6 
#
# 1 92.5439 43.1858 31.0950 0.0000 -6.6525 0.0000
# 2 43.1858 90.3012 34.0928 0.0000 -8.4022 0.0000
# 3 31.0950 34.0928 108.1045 0.0000 -16.8800 0.0000
# 4 0.0000 0.0000 0.0000 21.9355 0.0000 -2.4596
# 5 -6.6525 -8.4022 -16.8800 0.0000 29.2433 0.0000
# 6 0.0000 0.0000 0.0000 -2.4596 0.0000 21.1391
#
#
#
# Elastic Compliance Matrix: (Units=1/GPa)
#
#
# Indices 1 2 3 4 5 6 
#
# 1 0.014371 -0.006020 -0.002192 0.000000 0.000274 0.000000
# 2 -0.006020 0.015149 -0.002836 0.000000 0.001346 0.000000
# 3 -0.002192 -0.002836 0.011617 0.000000 0.005392 0.000000
# 4 0.000000 0.000000 0.000000 0.046191 0.000000 0.005375
# 5 0.000274 0.001346 0.005392 0.000000 0.037758 0.000000
# 6 0.000000 0.000000 0.000000 0.005375 0.000000 0.047931
#
#
# Mechanical properties :
#
#
# Convention : Reuss Voigt Hill
#
# Bulk Modulus (GPa) = 52.51707 56.41075 54.46391
# Shear Modulus (GPa) = 24.81890 26.63532 25.72711
#
# Velocity S-wave (km/s) = 3.71260 3.84606 3.77992
# Velocity P-wave (km/s) = 6.89519 7.14501 7.02121
#
# Compressibility (1/GPa) = 0.01904143
#
# Stress axis : x y z
#
# Youngs Moduli (GPa) = 69.58397 66.01199 86.07894
#
# Poissons Ratio (x) = 0.39737 0.18873
# Poissons Ratio (y) = 0.41887 0.24410
# Poissons Ratio (z) = 0.15256 0.18719
#
# Static dielectric constant tensor:
#      x y z
#    x 3.086600 0.000000 -0.162860 
#    y 0.000000 3.249090 0.000000 
#    z -0.162860 0.000000 3.636650 
# 
# 
# High freq. dielectric constant tensor:
#      x y z
#    x 1.663180 0.000000 -0.014040 
#    y 0.000000 1.681310 0.000000 
#    z -0.014040 0.000000 1.720890 
# 
# From -- ./inp_files/81805.got.cif
#   From: 2010.06.25/outbox.cif.g09.slc.cpg/sg13_41_cif.got.tgz:81805.got - 2010.06.28 04:50:58.
