data_PCOD8117995
_publ_section_title
;
Structure prediction by ZEFSAII (Michael W. Deem and Ramdas Pophale) SiO2 
 PCOD8117995
Probable space group: P 2/C
;
_chemical_formula_sum "Si O2"
_cell_formula_units_Z 30
_cell_length_a 24.610360
_cell_length_b 9.348619
_cell_length_c 8.447603
_cell_angle_alpha 90.000000
_cell_angle_beta 49.571612
_cell_angle_gamma 90.000000
_cell_volume 1479.474402
_symmetry_space_group_name_H-M "P 2/C"
_symmetry_group_IT_number 13
_symmetry_cell_setting 'monoclinic'
loop_
_space_group_symop_operation_xyz
x,y,z
-x,y,1/2-z
-x,-y,-z
x,-y,1/2+z
loop_
_atom_site_type_symbol
_atom_site_label
_atom_site_fract_x
_atom_site_fract_y
_atom_site_fract_z
Si Si1 0.311755 0.368934 0.066671
Si Si2 0.981809 0.845727 0.098749
Si Si3 0.217062 0.124973 0.197526
Si Si4 0.177727 0.438332 0.808747
Si Si5 0.598219 0.576601 0.821081
Si Si6 0.107117 0.323244 0.251313
Si Si7 0.814970 0.167040 0.882127
Si Si8 0.500000 0.586057 0.750000
O O1 0.287171 0.221533 0.025770
O O2 0.242823 0.464100 0.245840
O O3 0.349421 0.331692 0.164844
O O4 0.361013 0.448738 0.846693
O O5 0.899921 0.821762 0.213622
O O6 0.000000 0.832412 0.250000
O O7 0.024468 0.723270 0.919728
O O8 0.000000 0.000000 0.000000
O O9 0.149055 0.183791 0.232890
O O10 0.209243 0.142953 0.396914
O O11 0.222437 0.957571 0.150266
O O12 0.119700 0.537001 0.832630
O O13 0.213200 0.318907 0.628488
O O14 0.134170 0.356155 0.025575
O O15 0.556531 0.669750 0.760438
O O16 0.542046 0.512733 0.049286
#
# Coordination Sequence:
#
# PCOD8117995 Si02
#       8
#     4   4   4   4   4   4   4   2
#     4  10  19  35  56  83 120 156 193 232 291 350
#     4  12  25  42  62  80 103 145 200 252 312 390
#     4  11  22  38  58  82 110 152 194 247 299 363
#     4  11  24  39  59  85 116 152 190 256 309 359
#     4   9  16  30  54  85 128 164 188 228 277 340
#     4  11  23  41  59  81 112 143 194 245 318 369
#     4  12  23  40  59  79 112 145 195 256 307 364
#     4   8  16  28  50  90 132 160 188 226 280 322
#
# _framework density 20.277471999999999
#
# number of rings (size 3 to 8) (size 9 to 14) (size 15 to 20)
#    0.000    1.333    2.667    4.800    1.867    0.533 
#    0.000    0.000    0.000    0.000    0.000    0.000 
#    0.000  247.467    0.000    0.000    0.000    0.000 
#
# Total GULP energy -371696.965252 kJ/mol
# GULP energy per Si atom -12389.898842 kJ/mol
# Density = 2.023132 g / cm^3
# Si number density = 20.277472 Si / 1000 Ang^3
#
#
#
# Elastic Constant Matrix: (Units=GPa)
#
#
# Indices 1 2 3 4 5 6 
#
# 1 101.8792 28.7061 12.0258 0.0000 4.8354 0.0000
# 2 28.7061 97.6815 14.9356 0.0000 -2.9295 0.0000
# 3 12.0258 14.9356 100.0139 0.0000 4.4034 0.0000
# 4 0.0000 0.0000 0.0000 23.3717 0.0000 17.1741
# 5 4.8354 -2.9295 4.4034 0.0000 25.8937 0.0000
# 6 0.0000 0.0000 0.0000 17.1741 0.0000 30.2138
#
#
#
# Elastic Compliance Matrix: (Units=1/GPa)
#
#
# Indices 1 2 3 4 5 6 
#
# 1 0.010900 -0.003158 -0.000739 0.000000 -0.002267 0.000000
# 2 -0.003158 0.011447 -0.001423 0.000000 0.002127 0.000000
# 3 -0.000739 -0.001423 0.010379 0.000000 -0.001788 0.000000
# 4 0.000000 0.000000 0.000000 0.073478 0.000000 -0.041766
# 5 -0.002267 0.002127 -0.001788 0.000000 0.039588 0.000000
# 6 0.000000 0.000000 0.000000 -0.041766 0.000000 0.056838
#
#
# Mechanical properties :
#
#
# Convention : Reuss Voigt Hill
#
# Bulk Modulus (GPa) = 45.28091 45.65662 45.46876
# Shear Modulus (GPa) = 22.66212 32.15631 27.40921
#
# Velocity S-wave (km/s) = 3.34668 3.98655 3.68055
# Velocity P-wave (km/s) = 6.10842 6.61475 6.36662
#
# Compressibility (1/GPa) = 0.02208436
#
# Stress axis : x y z
#
# Youngs Moduli (GPa) = 91.74061 87.35989 96.35057
#
# Poissons Ratio (x) = 0.27591 0.07122
# Poissons Ratio (y) = 0.28974 0.13714
# Poissons Ratio (z) = 0.06782 0.12434
#
# Static dielectric constant tensor:
#      x y z
#    x 4.197990 0.000000 0.060490 
#    y 0.000000 3.069030 0.000000 
#    z 0.060490 0.000000 3.786600 
# 
# 
# High freq. dielectric constant tensor:
#      x y z
#    x 1.803740 0.000000 0.014410 
#    y 0.000000 1.760370 0.000000 
#    z 0.014410 0.000000 1.801420 
# 
# From -- ./inp_files/22801.got.cif
#   From: 2010.06.25/outbox.cif.g09.slc.cpg/sg13_12_cif.got.tgz:22801.got - 2010.06.28 04:50:58.
