data_PCOD8117540
_publ_section_title
;
Structure prediction by ZEFSAII (Michael W. Deem and Ramdas Pophale) SiO2 
 PCOD8117540
Probable space group: P 2/C
;
_chemical_formula_sum "Si O2"
_cell_formula_units_Z 30
_cell_length_a 11.929480
_cell_length_b 13.601426
_cell_length_c 9.812431
_cell_angle_alpha 90.000000
_cell_angle_beta 118.069130
_cell_angle_gamma 90.000000
_cell_volume 1404.877573
_symmetry_space_group_name_H-M "P 2/C"
_symmetry_group_IT_number 13
_symmetry_cell_setting 'monoclinic'
loop_
_space_group_symop_operation_xyz
x,y,z
-x,y,1/2-z
-x,-y,-z
x,-y,1/2+z
loop_
_atom_site_type_symbol
_atom_site_label
_atom_site_fract_x
_atom_site_fract_y
_atom_site_fract_z
Si Si1 0.816837 0.794721 0.930036
Si Si2 0.446513 0.216223 0.084997
Si Si3 0.000000 0.252797 0.750000
Si Si4 0.649366 0.104198 0.833672
Si Si5 0.322962 0.927129 0.841985
Si Si6 0.144800 0.586683 0.188853
Si Si7 0.386180 0.689965 0.278379
Si Si8 0.062055 0.622975 0.652973
O O1 0.699031 0.810943 0.965563
O O2 0.795361 0.868624 0.792119
O O3 0.833845 0.688577 0.866948
O O4 0.945384 0.814026 0.094030
O O5 0.500000 0.271621 0.250000
O O6 0.537886 0.120500 0.111233
O O7 0.452734 0.287262 0.960817
O O8 0.883750 0.326159 0.719819
O O9 0.500000 0.112415 0.750000
O O10 0.693668 0.215272 0.824162
O O11 0.687321 0.034895 0.729614
O O12 0.701646 0.066838 0.009530
O O13 0.291289 0.598575 0.231313
O O14 0.129223 0.477842 0.242670
O O15 0.054956 0.597552 0.009289
O O16 0.500000 0.654312 0.250000
O O17 0.000000 0.675981 0.750000
#
# Coordination Sequence:
#
# PCOD8117540 Si02
#       8
#     4   4   2   4   4   4   4   4
#     4  10  22  37  62  92 121 164 210 268 324 371
#     4  10  20  36  58  86 130 163 205 253 314 384
#     4  10  18  38  62  88 116 162 216 266 316 372
#     4  11  22  35  60  91 127 169 213 255 309 380
#     4  11  23  38  60  94 129 165 217 258 317 381
#     4  10  21  37  63  92 121 160 212 261 314 375
#     4  11  22  37  59  95 132 165 202 262 324 380
#     4  10  22  39  65  90 119 160 218 268 301 368
#
# _framework density 21.354174
#
# number of rings (size 3 to 8) (size 9 to 14) (size 15 to 20)
#    0.000    1.600    4.667    1.600    5.600    0.000 
#    0.000    2.000    0.000   12.000    1.733    0.000 
#    0.000    0.000    0.000    0.000    0.000    0.000 
#
# Total GULP energy -371759.696017 kJ/mol
# GULP energy per Si atom -12391.989867 kJ/mol
# Density = 2.130557 g / cm^3
# Si number density = 21.354174 Si / 1000 Ang^3
#
#
#
# Elastic Constant Matrix: (Units=GPa)
#
#
# Indices 1 2 3 4 5 6 
#
# 1 79.4590 25.6776 21.5163 0.0000 -4.0943 0.0000
# 2 25.6776 46.7384 19.1476 0.0000 8.6860 0.0000
# 3 21.5163 19.1476 110.7434 0.0000 -15.8280 0.0000
# 4 0.0000 0.0000 0.0000 20.7234 0.0000 -6.9030
# 5 -4.0943 8.6860 -15.8280 0.0000 32.7042 0.0000
# 6 0.0000 0.0000 0.0000 -6.9030 0.0000 -7.2752
#
#
#
# Elastic Compliance Matrix: (Units=1/GPa)
#
#
# Indices 1 2 3 4 5 6 
#
# 1 0.016001 -0.009133 -0.000964 0.000000 0.003962 0.000000
# 2 -0.009133 0.030761 -0.005237 0.000000 -0.011848 0.000000
# 3 -0.000964 -0.005237 0.011070 0.000000 0.006628 0.000000
# 4 0.000000 0.000000 0.000000 0.036666 0.000000 -0.034790
# 5 0.003962 -0.011848 0.006628 0.000000 0.037428 0.000000
# 6 0.000000 0.000000 0.000000 -0.034790 0.000000 -0.104442
#
#
# Mechanical properties :
#
#
# Convention : Reuss Voigt Hill
#
# Bulk Modulus (GPa) = 36.81265 41.06930 38.94098
# Shear Modulus (GPa) = 74.39855 20.60376 47.50116
#
# Velocity S-wave (km/s) = 5.90897 3.10959 4.72152
# Velocity P-wave (km/s) = 7.98944 5.67159 6.92813
#
# Compressibility (1/GPa) = 0.02716458
#
# Stress axis : x y z
#
# Youngs Moduli (GPa) = 62.49422 32.50914 90.33459
#
# Poissons Ratio (x) = 0.29690 0.08704
# Poissons Ratio (y) = 0.57074 0.47313
# Poissons Ratio (z) = 0.06022 0.17027
#
# Static dielectric constant tensor:
#      x y z
#    x 3.778490 0.000000 -0.174590 
#    y 0.000000 3.959060 0.000000 
#    z -0.174590 0.000000 4.202080 
# 
# 
# High freq. dielectric constant tensor:
#      x y z
#    x 1.817200 0.000000 -0.013810 
#    y 0.000000 1.803380 0.000000 
#    z -0.013810 0.000000 1.857540 
# 
# From -- ./inp_files/16826.got.cif
#   From: 2010.06.25/outbox.cif.g09.slc.cpg/sg13_9_cif.got.tgz:16826.got - 2010.06.28 04:50:58.
