data_PCOD8117856
_publ_section_title
;
Structure prediction by ZEFSAII (Michael W. Deem and Ramdas Pophale) SiO2 
 PCOD8117856
Probable space group: P 2/C
;
_chemical_formula_sum "Si O2"
_cell_formula_units_Z 28
_cell_length_a 15.141361
_cell_length_b 14.677545
_cell_length_c 7.812966
_cell_angle_alpha 90.000000
_cell_angle_beta 119.922581
_cell_angle_gamma 90.000000
_cell_volume 1504.884525
_symmetry_space_group_name_H-M "P 2/C"
_symmetry_group_IT_number 13
_symmetry_cell_setting 'monoclinic'
loop_
_space_group_symop_operation_xyz
x,y,z
-x,y,1/2-z
-x,-y,-z
x,-y,1/2+z
loop_
_atom_site_type_symbol
_atom_site_label
_atom_site_fract_x
_atom_site_fract_y
_atom_site_fract_z
Si Si1 0.886053 0.401872 0.092158
Si Si2 0.614138 0.814269 0.874621
Si Si3 0.749522 0.520280 0.742311
Si Si4 0.722393 0.883048 0.656311
Si Si5 0.887952 0.808561 0.605453
Si Si6 0.616307 0.604260 0.898384
Si Si7 0.272802 0.916260 0.215147
O O1 0.797724 0.414370 0.147483
O O2 0.889238 0.296005 0.047215
O O3 0.000000 0.435399 0.250000
O O4 0.847128 0.461603 0.896298
O O5 0.500000 0.849925 0.750000
O O6 0.656819 0.822706 0.723017
O O7 0.619493 0.710793 0.945201
O O8 0.666184 0.876219 0.067273
O O9 0.696791 0.586768 0.825617
O O10 0.658054 0.453425 0.597733
O O11 0.825778 0.825838 0.721942
O O12 0.670780 0.900707 0.416799
O O13 0.746443 0.977605 0.773827
O O14 0.837411 0.866596 0.402013
O O15 0.000000 0.845446 0.750000
O O16 0.500000 0.573388 0.750000
#
# Coordination Sequence:
#
# PCOD8117856 Si02
#       7
#     4   4   4   4   4   4   4
#     4  10  19  34  53  81 108 141 183 221 269 329
#     4  11  22  38  59  84 113 150 189 232 278 333
#     4  10  20  34  56  78 110 150 172 230 276 314
#     4  10  21  39  58  83 116 143 188 231 278 334
#     4   9  20  36  57  80 113 148 183 230 280 329
#     4  10  21  36  55  81 110 143 189 225 269 331
#     4  10  21  39  58  83 116 143 188 231 278 334
#
# _framework density 18.606078
#
# number of rings (size 3 to 8) (size 9 to 14) (size 15 to 20)
#    0.857    1.143    1.429    2.571    0.000    1.714 
#    0.000    0.714    0.000    5.143    0.000    0.000 
#    0.000    0.000    0.000    0.000    0.000    0.000 
#
# Total GULP energy -346948.542195 kJ/mol
# GULP energy per Si atom -12391.019364 kJ/mol
# Density = 1.856373 g / cm^3
# Si number density = 18.606078 Si / 1000 Ang^3
#
#
#
# Elastic Constant Matrix: (Units=GPa)
#
#
# Indices 1 2 3 4 5 6 
#
# 1 80.6540 1.2561 22.8370 0.0000 7.8243 0.0000
# 2 1.2561 51.1517 17.1405 0.0000 14.1814 0.0000
# 3 22.8370 17.1405 87.9401 0.0000 13.8595 0.0000
# 4 0.0000 0.0000 0.0000 11.1548 0.0000 -10.0451
# 5 7.8243 14.1814 13.8595 0.0000 39.6287 0.0000
# 6 0.0000 0.0000 0.0000 -10.0451 0.0000 -19.1509
#
#
#
# Elastic Compliance Matrix: (Units=1/GPa)
#
#
# Indices 1 2 3 4 5 6 
#
# 1 0.013552 0.001374 -0.003480 0.000000 -0.001950 0.000000
# 2 0.001374 0.022717 -0.003663 0.000000 -0.007120 0.000000
# 3 -0.003480 -0.003663 0.013413 0.000000 -0.002693 0.000000
# 4 0.000000 0.000000 0.000000 0.060888 0.000000 -0.031937
# 5 -0.001950 -0.007120 -0.002693 0.000000 0.029109 0.000000
# 6 0.000000 0.000000 0.000000 -0.031937 0.000000 -0.035465
#
#
# Mechanical properties :
#
#
# Convention : Reuss Voigt Hill
#
# Bulk Modulus (GPa) = 26.21522 33.57921 29.89721
# Shear Modulus (GPa) = 38.92102 18.22736 28.57419
#
# Velocity S-wave (km/s) = 4.57863 3.13332 3.92311
# Velocity P-wave (km/s) = 6.48629 5.58363 6.05181
#
# Compressibility (1/GPa) = 0.03814578
#
# Stress axis : x y z
#
# Youngs Moduli (GPa) = 73.79152 44.01965 74.55263
#
# Poissons Ratio (x) = -0.06048 0.25942
# Poissons Ratio (y) = -0.10139 0.27305
# Poissons Ratio (z) = 0.25677 0.16122
#
# Static dielectric constant tensor:
#      x y z
#    x 3.341450 0.000000 -0.013960 
#    y 0.000000 3.337580 0.000000 
#    z -0.013960 0.000000 3.506010 
# 
# 
# High freq. dielectric constant tensor:
#      x y z
#    x 1.715940 0.000000 0.001320 
#    y 0.000000 1.729640 0.000000 
#    z 0.001320 0.000000 1.718280 
# 
# From -- ./inp_files/19704.got.cif
#   From: 2010.06.25/outbox.cif.g09.slc.cpg/sg13_10_cif.got.tgz:19704.got - 2010.06.28 04:50:58.
