data_PCOD8117548
_publ_section_title
;
Structure prediction by ZEFSAII (Michael W. Deem and Ramdas Pophale) SiO2 
 PCOD8117548
Probable space group: P 2/C
;
_chemical_formula_sum "Si O2"
_cell_formula_units_Z 24
_cell_length_a 9.230281
_cell_length_b 7.660088
_cell_length_c 22.003515
_cell_angle_alpha 90.000000
_cell_angle_beta 48.601758
_cell_angle_gamma 90.000000
_cell_volume 1167.019378
_symmetry_space_group_name_H-M "P 2/C"
_symmetry_group_IT_number 13
_symmetry_cell_setting 'monoclinic'
loop_
_space_group_symop_operation_xyz
x,y,z
-x,y,1/2-z
-x,-y,-z
x,-y,1/2+z
loop_
_atom_site_type_symbol
_atom_site_label
_atom_site_fract_x
_atom_site_fract_y
_atom_site_fract_z
Si Si1 0.208215 0.150530 0.169439
Si Si2 0.682586 0.670797 0.981388
Si Si3 0.666870 0.139590 0.940911
Si Si4 0.166311 0.324448 0.497955
Si Si5 0.170595 0.863969 0.450348
Si Si6 0.443780 0.855105 0.834211
O O1 0.254352 0.294859 0.105206
O O2 0.362866 0.158827 0.180146
O O3 0.000000 0.204831 0.250000
O O4 0.199090 0.949728 0.147311
O O5 0.773374 0.499443 0.985030
O O6 0.445008 0.680027 0.048910
O O7 0.755949 0.829745 0.002444
O O8 0.788942 0.167867 0.967703
O O9 0.500000 0.000000 0.000000
O O10 0.291104 0.288634 0.402196
O O11 0.933069 0.312678 0.549218
O O12 0.347763 0.949478 0.362931
O O13 0.000000 0.000000 0.500000
O O14 0.500000 0.807534 0.750000
#
# Coordination Sequence:
#
# PCOD8117548 Si02
#       6
#     4   4   4   4   4   4
#     4  11  23  38  63  89 121 164 211 257 304 356
#     4  11  21  40  66  90 122 157 208 257 302 367
#     4  10  18  38  63  87 113 158 210 247 287 362
#     4  11  22  38  67  93 119 162 202 253 314 365
#     4  10  21  39  63  89 117 160 208 247 296 374
#     4  11  23  39  61  89 125 164 205 257 309 362
#
# _framework density 20.565211999999999
#
# number of rings (size 3 to 8) (size 9 to 14) (size 15 to 20)
#    0.000    1.333    5.000    4.000    7.000    0.000 
#    0.000    1.667    0.000    0.000    0.000    0.000 
#    0.000    0.000    0.000    0.000    0.000    0.000 
#
# Total GULP energy -297316.401073 kJ/mol
# GULP energy per Si atom -12388.183378 kJ/mol
# Density = 2.051840 g / cm^3
# Si number density = 20.565212 Si / 1000 Ang^3
#
#
#
# Elastic Constant Matrix: (Units=GPa)
#
#
# Indices 1 2 3 4 5 6 
#
# 1 143.0324 18.9993 67.4304 0.0000 8.3265 0.0000
# 2 18.9993 60.1328 50.3614 0.0000 3.9698 0.0000
# 3 67.4304 50.3614 116.4636 0.0000 15.4150 0.0000
# 4 0.0000 0.0000 0.0000 16.7709 0.0000 2.3712
# 5 8.3265 3.9698 15.4150 0.0000 37.9381 0.0000
# 6 0.0000 0.0000 0.0000 2.3712 0.0000 45.3671
#
#
#
# Elastic Compliance Matrix: (Units=1/GPa)
#
#
# Indices 1 2 3 4 5 6 
#
# 1 0.009876 0.002641 -0.006908 0.000000 0.000363 0.000000
# 2 0.002641 0.026917 -0.013442 0.000000 0.002066 0.000000
# 3 -0.006908 -0.013442 0.019036 0.000000 -0.004812 0.000000
# 4 0.000000 0.000000 0.000000 0.060071 0.000000 -0.003140
# 5 0.000363 0.002066 -0.004812 0.000000 0.028018 0.000000
# 6 0.000000 0.000000 0.000000 -0.003140 0.000000 0.022206
#
#
# Mechanical properties :
#
#
# Convention : Reuss Voigt Hill
#
# Bulk Modulus (GPa) = 48.99433 65.91232 57.45333
# Shear Modulus (GPa) = 23.99850 32.20441 28.10145
#
# Velocity S-wave (km/s) = 3.41977 3.96152 3.70057
# Velocity P-wave (km/s) = 6.28241 7.28319 6.80123
#
# Compressibility (1/GPa) = 0.02041053
#
# Stress axis : x y z
#
# Youngs Moduli (GPa) = 101.25231 37.15161 52.53253
#
# Poissons Ratio (x) = -0.09813 0.36292
# Poissons Ratio (y) = -0.26745 0.70615
# Poissons Ratio (z) = 0.69950 0.49940
#
# Static dielectric constant tensor:
#      x y z
#    x 4.782170 0.000000 -0.419570 
#    y 0.000000 4.359730 0.000000 
#    z -0.419570 0.000000 4.322750 
# 
# 
# High freq. dielectric constant tensor:
#      x y z
#    x 1.843830 0.000000 0.005040 
#    y 0.000000 1.797870 0.000000 
#    z 0.005040 0.000000 1.761380 
# 
# From -- ./inp_files/75384.got.cif
#   From: 2010.06.25/outbox.cif.g09.slc.cpg/sg13_38_cif.got.tgz:75384.got - 2010.06.28 04:50:58.
