data_PCOD8117057
_publ_section_title
;
Structure prediction by ZEFSAII (Michael W. Deem and Ramdas Pophale) SiO2 
 PCOD8117057
Probable space group: P 2/C
;
_chemical_formula_sum "Si O2"
_cell_formula_units_Z 32
_cell_length_a 10.277406
_cell_length_b 10.303372
_cell_length_c 22.920883
_cell_angle_alpha 90.000000
_cell_angle_beta 50.126470
_cell_angle_gamma 90.000000
_cell_volume 1862.733763
_symmetry_space_group_name_H-M "P 2/C"
_symmetry_group_IT_number 13
_symmetry_cell_setting 'monoclinic'
loop_
_space_group_symop_operation_xyz
x,y,z
-x,y,1/2-z
-x,-y,-z
x,-y,1/2+z
loop_
_atom_site_type_symbol
_atom_site_label
_atom_site_fract_x
_atom_site_fract_y
_atom_site_fract_z
Si Si1 0.220311 0.620991 0.458209
Si Si2 0.918989 0.219382 0.211177
Si Si3 0.210475 0.130385 0.463672
Si Si4 0.470059 0.480230 0.692339
Si Si5 0.916476 0.519498 0.212905
Si Si6 0.938604 0.621187 0.441962
Si Si7 0.074359 0.129194 0.050879
Si Si8 0.471334 0.217366 0.191798
O O1 0.413501 0.607998 0.382319
O O2 0.179017 0.501620 0.511969
O O3 0.199871 0.752703 0.500292
O O4 0.103674 0.618642 0.434763
O O5 0.013670 0.133749 0.135258
O O6 0.000000 0.186009 0.250000
O O7 0.943824 0.369801 0.186666
O O8 0.720300 0.185593 0.271575
O O9 0.169708 0.249171 0.518259
O O10 0.404507 0.136440 0.386228
O O11 0.092648 0.136927 0.440656
O O12 0.180511 0.000714 0.509210
O O13 0.500000 0.436970 0.750000
O O14 0.281421 0.450308 0.726015
O O15 0.518270 0.631339 0.671269
O O16 0.000000 0.552490 0.250000
O O17 0.001571 0.614443 0.141787
O O18 0.500000 0.172999 0.250000
#
# Coordination Sequence:
#
# PCOD8117057 Si02
#       8
#     4   4   4   4   4   4   4   4
#     4  10  18  30  54  80 105 134 173 223 263 307
#     4  10  20  35  55  79 108 143 177 215 267 323
#     4  10  20  34  54  83 108 140 178 223 265 310
#     4  10  18  30  52  83 106 134 182 221 262 311
#     4  10  20  34  52  80 113 141 173 220 271 318
#     4  10  18  31  53  79 106 135 175 216 269 306
#     4  10  20  35  53  80 114 139 176 219 269 315
#     4  10  18  31  55  80 106 134 181 222 257 314
#
# _framework density 17.179051000000001
#
# number of rings (size 3 to 8) (size 9 to 14) (size 15 to 20)
#    0.000    2.000    5.000    0.000    0.000    0.000 
#    0.000    5.000    0.000    0.000    0.000    0.000 
#    0.000    0.000    0.000    0.000    0.000    0.000 
#
# Total GULP energy -396895.620684 kJ/mol
# GULP energy per Si atom -12402.988146 kJ/mol
# Density = 1.713995 g / cm^3
# Si number density = 17.179051 Si / 1000 Ang^3
#
#
#
# Elastic Constant Matrix: (Units=GPa)
#
#
# Indices 1 2 3 4 5 6 
#
# 1 87.8086 31.3471 54.5388 0.0000 -6.8850 0.0000
# 2 31.3471 105.9514 71.8402 0.0000 -1.9660 0.0000
# 3 54.5388 71.8402 156.0063 0.0000 -9.5556 0.0000
# 4 0.0000 0.0000 0.0000 30.2450 0.0000 -1.4036
# 5 -6.8850 -1.9660 -9.5556 0.0000 21.0250 0.0000
# 6 0.0000 0.0000 0.0000 -1.4036 0.0000 12.4623
#
#
#
# Elastic Compliance Matrix: (Units=1/GPa)
#
#
# Indices 1 2 3 4 5 6 
#
# 1 0.014811 -0.001358 -0.004385 0.000000 0.002730 0.000000
# 2 -0.001358 0.013903 -0.006043 0.000000 -0.001891 0.000000
# 3 -0.004385 -0.006043 0.010907 0.000000 0.002956 0.000000
# 4 0.000000 0.000000 0.000000 0.033237 0.000000 0.003743
# 5 0.002730 -0.001891 0.002956 0.000000 0.049623 0.000000
# 6 0.000000 0.000000 0.000000 0.003743 0.000000 0.080664
#
#
# Mechanical properties :
#
#
# Convention : Reuss Voigt Hill
#
# Bulk Modulus (GPa) = 62.31413 73.91316 68.11365
# Shear Modulus (GPa) = 21.54557 25.54914 23.54736
#
# Velocity S-wave (km/s) = 3.54528 3.86064 3.70632
# Velocity P-wave (km/s) = 7.28771 7.93671 7.61912
#
# Compressibility (1/GPa) = 0.01604772
#
# Stress axis : x y z
#
# Youngs Moduli (GPa) = 67.51738 71.92950 91.68449
#
# Poissons Ratio (x) = 0.09768 0.40206
# Poissons Ratio (y) = 0.09168 0.55406
# Poissons Ratio (z) = 0.29608 0.43468
#
# Static dielectric constant tensor:
#      x y z
#    x 2.972350 0.000000 -0.064950 
#    y 0.000000 3.044480 0.000000 
#    z -0.064950 0.000000 3.226080 
# 
# 
# High freq. dielectric constant tensor:
#      x y z
#    x 1.640260 0.000000 -0.006090 
#    y 0.000000 1.639660 0.000000 
#    z -0.006090 0.000000 1.677190 
# 
# From -- ./inp_files/69856.got.cif
#   From: 2010.06.25/outbox.cif.g09.slc.cpg/sg13_35_cif.got.tgz:69856.got - 2010.06.28 04:50:58.
