data_PCOD8117769
_publ_section_title
;
Structure prediction by ZEFSAII (Michael W. Deem and Ramdas Pophale) SiO2 
 PCOD8117769
Probable space group: P 2/C
;
_chemical_formula_sum "Si O2"
_cell_formula_units_Z 16
_cell_length_a 7.656360
_cell_length_b 18.332578
_cell_length_c 7.529337
_cell_angle_alpha 90.000000
_cell_angle_beta 38.049282
_cell_angle_gamma 90.000000
_cell_volume 651.361825
_symmetry_space_group_name_H-M "P 2/C"
_symmetry_group_IT_number 13
_symmetry_cell_setting 'monoclinic'
loop_
_space_group_symop_operation_xyz
x,y,z
-x,y,1/2-z
-x,-y,-z
x,-y,1/2+z
loop_
_atom_site_type_symbol
_atom_site_label
_atom_site_fract_x
_atom_site_fract_y
_atom_site_fract_z
Si Si1 0.309009 0.811305 0.566673
Si Si2 0.192327 0.938587 0.935626
Si Si3 0.062803 0.417278 0.403824
Si Si4 0.438057 0.662623 0.092456
O O1 0.260513 0.875395 0.743267
O O2 0.481966 0.745713 0.523971
O O3 0.000000 0.782602 0.750000
O O4 0.500000 0.840778 0.250000
O O5 0.500000 0.970428 0.750000
O O6 0.000000 0.906905 0.250000
O O7 0.000000 0.000000 0.000000
O O8 0.000000 0.402075 0.250000
O O9 0.000000 0.500000 0.500000
O O10 0.886891 0.361755 0.671840
O O11 0.388825 0.394419 0.169593
O O12 0.500000 0.652251 0.250000
#
# Coordination Sequence:
#
# PCOD8117769 Si02
#       4
#     4   4   4   4
#     4  11  22  42  70  97 126 171 224 276 331 399
#     4  12  27  47  70 101 139 179 222 278 339 405
#     4  10  19  33  53  81 115 155 202 253 309 375
#     4   9  18  34  58  83 114 157 205 255 313 383
#
# _framework density 24.563924
#
# number of rings (size 3 to 8) (size 9 to 14) (size 15 to 20)
#    0.000    1.500    0.000    7.500    0.000    2.000 
#    0.000    3.750    0.000    0.000    0.000    0.000 
#    0.000    0.000    0.000    0.000    0.000    0.000 
#
# Total GULP energy -198256.487012 kJ/mol
# GULP energy per Si atom -12391.030438 kJ/mol
# Density = 2.450801 g / cm^3
# Si number density = 24.563924 Si / 1000 Ang^3
#
#
#
# Elastic Constant Matrix: (Units=GPa)
#
#
# Indices 1 2 3 4 5 6 
#
# 1 53.7625 35.1432 35.9294 0.0000 -6.5831 0.0000
# 2 35.1432 189.1113 86.1932 0.0000 13.4018 0.0000
# 3 35.9294 86.1932 204.5626 0.0000 5.3825 0.0000
# 4 0.0000 0.0000 0.0000 59.4177 0.0000 -0.2977
# 5 -6.5831 13.4018 5.3825 0.0000 31.8471 0.0000
# 6 0.0000 0.0000 0.0000 -0.2977 0.0000 19.6268
#
#
#
# Elastic Compliance Matrix: (Units=1/GPa)
#
#
# Indices 1 2 3 4 5 6 
#
# 1 0.023686 -0.003603 -0.002823 0.000000 0.006890 0.000000
# 2 -0.003603 0.007265 -0.002339 0.000000 -0.003407 0.000000
# 3 -0.002823 -0.002339 0.006388 0.000000 -0.000679 0.000000
# 4 0.000000 0.000000 0.000000 0.016831 0.000000 0.000255
# 5 0.006890 -0.003407 -0.000679 0.000000 0.034373 0.000000
# 6 0.000000 0.000000 0.000000 0.000255 0.000000 0.050955
#
#
# Mechanical properties :
#
#
# Convention : Reuss Voigt Hill
#
# Bulk Modulus (GPa) = 50.48350 84.66311 67.57330
# Shear Modulus (GPa) = 30.55681 41.52300 36.03991
#
# Velocity S-wave (km/s) = 3.53082 4.11592 3.83455
# Velocity P-wave (km/s) = 6.10072 7.55837 6.86832
#
# Compressibility (1/GPa) = 0.01980845
#
# Stress axis : x y z
#
# Youngs Moduli (GPa) = 42.21901 137.65096 156.55346
#
# Poissons Ratio (x) = 0.49597 0.44200
# Poissons Ratio (y) = 0.15212 0.36611
# Poissons Ratio (z) = 0.11920 0.32190
#
# Static dielectric constant tensor:
#      x y z
#    x 4.270700 0.000000 -0.240200 
#    y 0.000000 4.505100 0.000000 
#    z -0.240200 0.000000 5.624660 
# 
# 
# High freq. dielectric constant tensor:
#      x y z
#    x 1.944060 0.000000 -0.002800 
#    y 0.000000 1.969820 0.000000 
#    z -0.002800 0.000000 2.021050 
# 
# From -- ./inp_files/12972.got.cif
#   From: 2010.06.25/outbox.cif.g09.slc.cpg/sg13_7_cif.got.tgz:12972.got - 2010.06.28 04:50:58.
