data_PCOD8117724
_publ_section_title
;
Structure prediction by ZEFSAII (Michael W. Deem and Ramdas Pophale) SiO2 
 PCOD8117724
Probable space group: P 2/C
;
_chemical_formula_sum "Si O2"
_cell_formula_units_Z 32
_cell_length_a 12.734142
_cell_length_b 24.238013
_cell_length_c 5.196621
_cell_angle_alpha 90.000000
_cell_angle_beta 75.881372
_cell_angle_gamma 90.000000
_cell_volume 1555.488068
_symmetry_space_group_name_H-M "P 2/C"
_symmetry_group_IT_number 13
_symmetry_cell_setting 'monoclinic'
loop_
_space_group_symop_operation_xyz
x,y,z
-x,y,1/2-z
-x,-y,-z
x,-y,1/2+z
loop_
_atom_site_type_symbol
_atom_site_label
_atom_site_fract_x
_atom_site_fract_y
_atom_site_fract_z
Si Si1 0.625524 0.966539 0.163424
Si Si2 0.873992 0.822836 0.381013
Si Si3 0.235553 0.138694 0.070765
Si Si4 0.553503 0.803796 0.968476
Si Si5 0.880711 0.650359 0.894019
Si Si6 0.540620 0.316650 0.978546
Si Si7 0.120784 0.522837 0.479289
Si Si8 0.787454 0.701857 0.451914
O O1 0.500000 0.948682 0.250000
O O2 0.651884 0.985637 0.438369
O O3 0.699940 0.917129 0.019392
O O4 0.849285 0.863728 0.638698
O O5 0.822338 0.764157 0.481439
O O6 0.000000 0.817253 0.250000
O O7 0.823625 0.846804 0.154441
O O8 0.318602 0.186994 0.102267
O O9 0.500000 0.832443 0.750000
O O10 0.500000 0.832118 0.250000
O O11 0.533582 0.738559 0.977470
O O12 0.800042 0.668420 0.712263
O O13 0.000000 0.670507 0.750000
O O14 0.875786 0.585124 0.930541
O O15 0.859563 0.677304 0.181609
O O16 0.500000 0.349894 0.750000
O O17 0.665829 0.301801 0.916958
O O18 0.500000 0.351600 0.250000
O O19 0.179740 0.486548 0.668926
O O20 0.000000 0.500000 0.500000
#
# Coordination Sequence:
#
# PCOD8117724 Si02
#       8
#     4   4   4   4   4   4   4   4
#     4  10  22  40  64  98 131 151 183 252 336 394
#     4  12  25  42  59  84 123 167 220 254 282 347
#     4  12  23  40  67  88 117 165 210 248 301 374
#     4  10  19  32  54  85 110 142 193 242 290 340
#     4  12  23  37  57  84 127 168 197 240 306 368
#     4  10  19  36  56  77 112 150 194 250 291 338
#     4  10  19  34  58  83 113 156 198 252 306 346
#     4  12  25  38  56  88 124 166 207 242 308 370
#
# _framework density 20.572319
#
# number of rings (size 3 to 8) (size 9 to 14) (size 15 to 20)
#    0.000    1.000    1.250    8.625    1.750    1.500 
#    0.000    0.000    0.000    7.500    0.000    0.000 
#    0.000   35.000    0.000    0.000    0.000    0.000 
#
# Total GULP energy -396567.054153 kJ/mol
# GULP energy per Si atom -12392.720442 kJ/mol
# Density = 2.052550 g / cm^3
# Si number density = 20.572319 Si / 1000 Ang^3
#
#
#
# Elastic Constant Matrix: (Units=GPa)
#
#
# Indices 1 2 3 4 5 6 
#
# 1 79.0467 32.0515 41.7891 0.0000 11.5230 0.0000
# 2 32.0515 56.3531 36.5729 0.0000 8.2742 0.0000
# 3 41.7891 36.5729 179.2313 0.0000 26.1521 0.0000
# 4 0.0000 0.0000 0.0000 10.3904 0.0000 -13.1178
# 5 11.5230 8.2742 26.1521 0.0000 43.8015 0.0000
# 6 0.0000 0.0000 0.0000 -13.1178 0.0000 1.9454
#
#
#
# Elastic Compliance Matrix: (Units=1/GPa)
#
#
# Indices 1 2 3 4 5 6 
#
# 1 0.017367 -0.008251 -0.002110 0.000000 -0.001750 0.000000
# 2 -0.008251 0.024465 -0.002969 0.000000 -0.000678 0.000000
# 3 -0.002110 -0.002969 0.007136 0.000000 -0.003145 0.000000
# 4 0.000000 0.000000 0.000000 -0.012810 0.000000 -0.086379
# 5 -0.001750 -0.000678 -0.003145 0.000000 0.025296 0.000000
# 6 0.000000 0.000000 0.000000 -0.086379 0.000000 -0.068419
#
#
# Mechanical properties :
#
#
# Convention : Reuss Voigt Hill
#
# Bulk Modulus (GPa) = 44.83006 59.49535 52.16271
# Shear Modulus (GPa) = 184.28215 24.84196 104.56206
#
# Velocity S-wave (km/s) = 9.47482 3.47874 7.13701
# Velocity P-wave (km/s) = 11.89685 6.71702 9.66058
#
# Compressibility (1/GPa) = 0.02230646
#
# Stress axis : x y z
#
# Youngs Moduli (GPa) = 57.57990 40.87478 140.13149
#
# Poissons Ratio (x) = 0.33727 0.29570
# Poissons Ratio (y) = 0.47511 0.41611
# Poissons Ratio (z) = 0.12150 0.12137
#
# Static dielectric constant tensor:
#      x y z
#    x -12.564080 0.000000 -33.160720 
#    y 0.000000 3.485280 0.000000 
#    z -33.160720 0.000000 -62.033920 
# 
# 
# High freq. dielectric constant tensor:
#      x y z
#    x 1.789440 0.000000 0.017780 
#    y 0.000000 1.766810 0.000000 
#    z 0.017780 0.000000 1.846140 
# 
# From -- ./inp_files/4426.got.cif
#   From: 2010.06.25/outbox.cif.g09.slc.cpg/sg13_3_cif.got.tgz:4426.got - 2010.06.28 04:50:58.
