data_PCOD8117450
_publ_section_title
;
Structure prediction by ZEFSAII (Michael W. Deem and Ramdas Pophale) SiO2 
 PCOD8117450
Probable space group: P 2/C
;
_chemical_formula_sum "Si O2"
_cell_formula_units_Z 32
_cell_length_a 17.352403
_cell_length_b 10.977596
_cell_length_c 23.463376
_cell_angle_alpha 90.000000
_cell_angle_beta 21.372789
_cell_angle_gamma 90.000000
_cell_volume 1628.834390
_symmetry_space_group_name_H-M "P 2/C"
_symmetry_group_IT_number 13
_symmetry_cell_setting 'monoclinic'
loop_
_space_group_symop_operation_xyz
x,y,z
-x,y,1/2-z
-x,-y,-z
x,-y,1/2+z
loop_
_atom_site_type_symbol
_atom_site_label
_atom_site_fract_x
_atom_site_fract_y
_atom_site_fract_z
Si Si1 0.868194 0.474275 0.945349
Si Si2 0.290874 0.672323 0.168410
Si Si3 0.712474 0.669311 0.135718
Si Si4 0.520300 0.455402 0.603874
Si Si5 0.070537 0.851927 0.903574
Si Si6 0.977695 0.875577 0.093503
Si Si7 0.522657 0.274985 0.396108
Si Si8 0.662618 0.780366 0.590421
O O1 0.109649 0.426249 0.774046
O O2 0.855922 0.568985 0.005352
O O3 0.764086 0.540120 0.960185
O O4 0.717506 0.361060 0.063596
O O5 0.491370 0.607420 0.061632
O O6 0.211161 0.779755 0.265045
O O7 0.373848 0.731897 0.053378
O O8 0.500000 0.703503 0.250000
O O9 0.647705 0.614713 0.241016
O O10 0.839753 0.795713 0.051096
O O11 0.437205 0.591332 0.655166
O O12 0.247507 0.777158 0.747975
O O13 0.101362 0.987201 0.858101
O O14 0.104958 0.842340 0.947976
O O15 0.131432 0.864055 0.042009
O O16 0.414497 0.194667 0.420639
O O17 0.500000 0.823221 0.750000
#
# Coordination Sequence:
#
# PCOD8117450 Si02
#       8
#     4   4   4   4   4   4   4   4
#     4   9  20  33  57  89 122 154 202 244 302 370
#     4  11  22  39  59  92 126 165 197 254 309 369
#     4  10  20  36  60  90 122 157 203 253 300 365
#     4  10  20  35  59  90 125 159 194 248 317 365
#     4  11  22  40  58  87 113 158 210 254 292 359
#     4  10  23  38  60  82 117 159 209 253 300 346
#     4  11  23  36  63  91 124 155 203 245 311 372
#     4  10  18  36  58  86 116 152 194 253 304 354
#
# _framework density 19.645949999999999
#
# number of rings (size 3 to 8) (size 9 to 14) (size 15 to 20)
#    0.000    1.750    2.500    3.000    1.750    6.500 
#    0.000    1.250    0.000    3.000    0.000    0.000 
#    0.000    0.000    0.000    0.000    0.000    0.000 
#
# Total GULP energy -396604.689912 kJ/mol
# GULP energy per Si atom -12393.896560 kJ/mol
# Density = 1.960123 g / cm^3
# Si number density = 19.645950 Si / 1000 Ang^3
#
#
#
# Elastic Constant Matrix: (Units=GPa)
#
#
# Indices 1 2 3 4 5 6 
#
# 1 110.4776 40.5784 43.7447 0.0000 5.8627 0.0000
# 2 40.5784 71.2061 31.2413 0.0000 -6.6828 0.0000
# 3 43.7447 31.2413 79.7523 0.0000 3.2288 0.0000
# 4 0.0000 0.0000 0.0000 16.6639 0.0000 -5.0875
# 5 5.8627 -6.6828 3.2288 0.0000 21.9443 0.0000
# 6 0.0000 0.0000 0.0000 -5.0875 0.0000 19.5866
#
#
#
# Elastic Compliance Matrix: (Units=1/GPa)
#
#
# Indices 1 2 3 4 5 6 
#
# 1 0.013400 -0.005958 -0.004826 0.000000 -0.004684 0.000000
# 2 -0.005958 0.020484 -0.005103 0.000000 0.008581 0.000000
# 3 -0.004826 -0.005103 0.017299 0.000000 -0.002810 0.000000
# 4 0.000000 0.000000 0.000000 0.065179 0.000000 0.016930
# 5 -0.004684 0.008581 -0.002810 0.000000 0.049848 0.000000
# 6 0.000000 0.000000 0.000000 0.016930 0.000000 0.055453
#
#
# Mechanical properties :
#
#
# Convention : Reuss Voigt Hill
#
# Bulk Modulus (GPa) = 51.52847 54.72942 53.12895
# Shear Modulus (GPa) = 19.23778 21.36374 20.30076
#
# Velocity S-wave (km/s) = 3.13265 3.30121 3.21803
# Velocity P-wave (km/s) = 6.27456 6.51529 6.39606
#
# Compressibility (1/GPa) = 0.01940675
#
# Stress axis : x y z
#
# Youngs Moduli (GPa) = 74.62912 48.81976 57.80745
#
# Poissons Ratio (x) = 0.29088 0.27898
# Poissons Ratio (y) = 0.44466 0.29500
# Poissons Ratio (z) = 0.36017 0.24914
#
# Static dielectric constant tensor:
#      x y z
#    x 3.818620 0.000000 -0.116310 
#    y 0.000000 3.381840 0.000000 
#    z -0.116310 0.000000 3.329210 
# 
# 
# High freq. dielectric constant tensor:
#      x y z
#    x 1.774000 0.000000 -0.009920 
#    y 0.000000 1.745640 0.000000 
#    z -0.009920 0.000000 1.750870 
# 
# From -- ./inp_files/88166.got.cif
#   From: 2010.06.25/outbox.cif.g09.slc.cpg/sg13_45_cif.got.tgz:88166.got - 2010.06.28 04:50:58.
