data_PCOD8117607
_publ_section_title
;
Structure prediction by ZEFSAII (Michael W. Deem and Ramdas Pophale) SiO2 
 PCOD8117607
Probable space group: P 2/C
;
_chemical_formula_sum "Si O2"
_cell_formula_units_Z 28
_cell_length_a 22.233891
_cell_length_b 11.663927
_cell_length_c 9.730304
_cell_angle_alpha 90.000000
_cell_angle_beta 144.575557
_cell_angle_gamma 90.000000
_cell_volume 1462.637408
_symmetry_space_group_name_H-M "P 2/C"
_symmetry_group_IT_number 13
_symmetry_cell_setting 'monoclinic'
loop_
_space_group_symop_operation_xyz
x,y,z
-x,y,1/2-z
-x,-y,-z
x,-y,1/2+z
loop_
_atom_site_type_symbol
_atom_site_label
_atom_site_fract_x
_atom_site_fract_y
_atom_site_fract_z
Si Si1 0.075909 0.104754 0.507845
Si Si2 0.500000 0.512666 0.750000
Si Si3 0.704466 0.069402 0.522289
Si Si4 0.604760 0.811783 0.602309
Si Si5 0.046546 0.165536 0.976357
Si Si6 0.724610 0.197132 0.048995
Si Si7 0.500000 0.997997 0.250000
Si Si8 0.431762 0.643739 0.362973
O O1 0.199300 0.120631 0.709996
O O2 0.042620 0.181151 0.576052
O O3 0.063934 0.969735 0.501724
O O4 0.000000 0.152062 0.250000
O O5 0.429310 0.586111 0.510418
O O6 0.573148 0.440642 0.780042
O O7 0.696986 0.144653 0.371350
O O8 0.719652 0.937578 0.506115
O O9 0.597639 0.081348 0.407666
O O10 0.660451 0.773151 0.566937
O O11 0.523081 0.915452 0.423118
O O12 0.541823 0.709005 0.553898
O O13 0.153971 0.230891 0.211963
O O14 0.000000 0.216867 0.750000
O O15 0.668653 0.272587 0.827230
#
# Coordination Sequence:
#
# PCOD8117607 Si02
#       8
#     4   2   4   4   4   4   2   4
#     4   9  18  33  45  68 104 152 185 232 257 294
#     4  10  23  39  62  74 110 140 183 241 292 348
#     4  10  20  30  49  74 117 155 186 217 270 319
#     4  11  18  34  49  78 114 149 183 225 271 333
#     4   9  17  30  50  71  99 143 195 213 263 317
#     4  10  19  33  54  78 111 151 186 233 265 334
#     4  10  19  29  44  72 112 162 183 223 260 318
#     4  11  20  40  57  82 107 144 183 230 290 344
#
# _framework density 19.143498999999998
#
# number of rings (size 3 to 8) (size 9 to 14) (size 15 to 20)
#    0.000    2.000    4.286    1.286    0.000    7.429 
#    5.143    0.000    0.000    0.000    0.000    1.000 
#    0.000    0.000    0.000    0.000    0.000    0.000 
#
# Total GULP energy -346899.506644 kJ/mol
# GULP energy per Si atom -12389.268094 kJ/mol
# Density = 1.909993 g / cm^3
# Si number density = 19.143499 Si / 1000 Ang^3
#
#
#
# Elastic Constant Matrix: (Units=GPa)
#
#
# Indices 1 2 3 4 5 6 
#
# 1 84.8658 20.7691 56.9177 0.0000 8.8025 0.0000
# 2 20.7691 45.9287 44.5471 0.0000 -3.6208 0.0000
# 3 56.9177 44.5471 162.2378 0.0000 10.9587 0.0000
# 4 0.0000 0.0000 0.0000 26.3763 0.0000 -9.5345
# 5 8.8025 -3.6208 10.9587 0.0000 42.0357 0.0000
# 6 0.0000 0.0000 0.0000 -9.5345 0.0000 15.1534
#
#
#
# Elastic Compliance Matrix: (Units=1/GPa)
#
#
# Indices 1 2 3 4 5 6 
#
# 1 0.015817 -0.002878 -0.004600 0.000000 -0.002361 0.000000
# 2 -0.002878 0.031168 -0.007910 0.000000 0.005349 0.000000
# 3 -0.004600 -0.007910 0.010108 0.000000 -0.002353 0.000000
# 4 0.000000 0.000000 0.000000 0.049074 0.000000 0.030878
# 5 -0.002361 0.005349 -0.002353 0.000000 0.025358 0.000000
# 6 0.000000 0.000000 0.000000 0.030878 0.000000 0.085420
#
#
# Mechanical properties :
#
#
# Convention : Reuss Voigt Hill
#
# Bulk Modulus (GPa) = 37.99474 59.72222 48.85848
# Shear Modulus (GPa) = 19.49371 28.09962 23.79667
#
# Velocity S-wave (km/s) = 3.19453 3.83540 3.52954
# Velocity P-wave (km/s) = 5.78767 7.13292 6.49522
#
# Compressibility (1/GPa) = 0.02631943
#
# Stress axis : x y z
#
# Youngs Moduli (GPa) = 63.22217 32.08448 98.92876
#
# Poissons Ratio (x) = 0.09232 0.45503
# Poissons Ratio (y) = 0.18192 0.78251
# Poissons Ratio (z) = 0.29079 0.25378
#
# Static dielectric constant tensor:
#      x y z
#    x 3.484940 0.000000 0.041780 
#    y 0.000000 3.112930 0.000000 
#    z 0.041780 0.000000 3.870470 
# 
# 
# High freq. dielectric constant tensor:
#      x y z
#    x 1.733710 0.000000 -0.004160 
#    y 0.000000 1.680650 0.000000 
#    z -0.004160 0.000000 1.757710 
# 
# From -- ./inp_files/23411.got.cif
#   From: 2010.06.25/outbox.cif.g09.slc.cpg/sg13_12_cif.got.tgz:23411.got - 2010.06.28 04:50:58.
