data_PCOD8117356
_publ_section_title
;
Structure prediction by ZEFSAII (Michael W. Deem and Ramdas Pophale) SiO2 
 PCOD8117356
Probable space group: P 2/C
;
_chemical_formula_sum "Si O2"
_cell_formula_units_Z 26
_cell_length_a 11.758160
_cell_length_b 8.001007
_cell_length_c 20.254140
_cell_angle_alpha 90.000000
_cell_angle_beta 136.823216
_cell_angle_gamma 90.000000
_cell_volume 1303.808154
_symmetry_space_group_name_H-M "P 2/C"
_symmetry_group_IT_number 13
_symmetry_cell_setting 'monoclinic'
loop_
_space_group_symop_operation_xyz
x,y,z
-x,y,1/2-z
-x,-y,-z
x,-y,1/2+z
loop_
_atom_site_type_symbol
_atom_site_label
_atom_site_fract_x
_atom_site_fract_y
_atom_site_fract_z
Si Si1 0.438204 0.377446 0.418647
Si Si2 0.959300 0.803170 0.906137
Si Si3 0.766218 0.808178 0.066132
Si Si4 0.155352 0.840318 0.861911
Si Si5 0.204841 0.499544 0.719773
Si Si6 0.069085 0.178818 0.598983
Si Si7 0.000000 0.598838 0.250000
O O1 0.500000 0.500000 0.500000
O O2 0.587876 0.253275 0.465064
O O3 0.272747 0.289913 0.375303
O O4 0.386101 0.476142 0.329757
O O5 0.825122 0.652824 0.843880
O O6 0.096557 0.773627 0.908051
O O7 0.871304 0.987057 0.861768
O O8 0.054699 0.789167 0.015445
O O9 0.841112 0.706496 0.159826
O O10 0.889777 0.797172 0.056368
O O11 0.737936 0.993829 0.080456
O O12 0.000000 0.886001 0.750000
O O13 0.197443 0.316312 0.682413
O O14 0.061571 0.515021 0.715599
#
# Coordination Sequence:
#
# PCOD8117356 Si02
#       7
#     4   4   4   4   4   4   2
#     4  12  24  35  55  92 130 153 192 253 307 356
#     4  10  20  39  65  91 110 156 215 242 292 359
#     4  10  21  38  60  89 119 155 200 247 306 352
#     4  11  21  38  65  88 116 158 203 250 303 363
#     4  11  20  35  59  87 119 162 193 242 300 354
#     4   9  22  39  64  88 117 156 205 254 288 356
#     4  10  18  34  62  84 118 154 200 246 290 354
#
# _framework density 19.941583999999999
#
# number of rings (size 3 to 8) (size 9 to 14) (size 15 to 20)
#    0.000    1.538    3.846    1.846    2.154    0.000 
#    2.769    0.769    0.000    0.000    0.000    0.000 
#    0.000    0.000    0.000    0.000    0.000    0.000 
#
# Total GULP energy -322332.203367 kJ/mol
# GULP energy per Si atom -12397.392437 kJ/mol
# Density = 1.989620 g / cm^3
# Si number density = 19.941584 Si / 1000 Ang^3
#
#
#
# Elastic Constant Matrix: (Units=GPa)
#
#
# Indices 1 2 3 4 5 6 
#
# 1 49.8544 14.2122 26.9491 0.0000 -12.8880 0.0000
# 2 14.2122 139.4211 61.3922 0.0000 -1.0005 0.0000
# 3 26.9491 61.3922 114.3589 0.0000 -0.0629 0.0000
# 4 0.0000 0.0000 0.0000 39.1447 0.0000 -1.6965
# 5 -12.8880 -1.0005 -0.0629 0.0000 29.2358 0.0000
# 6 0.0000 0.0000 0.0000 -1.6965 0.0000 20.4034
#
#
#
# Elastic Compliance Matrix: (Units=1/GPa)
#
#
# Indices 1 2 3 4 5 6 
#
# 1 0.026433 0.000169 -0.006313 0.000000 0.011645 0.000000
# 2 0.000169 0.009397 -0.005084 0.000000 0.000385 0.000000
# 3 -0.006313 -0.005084 0.012960 0.000000 -0.002929 0.000000
# 4 0.000000 0.000000 0.000000 0.025639 0.000000 0.002132
# 5 0.011645 0.000385 -0.002929 0.000000 0.039345 0.000000
# 6 0.000000 0.000000 0.000000 0.002132 0.000000 0.049189
#
#
# Mechanical properties :
#
#
# Convention : Reuss Voigt Hill
#
# Bulk Modulus (GPa) = 37.97528 56.52682 47.25105
# Shear Modulus (GPa) = 25.74703 31.16217 28.45460
#
# Velocity S-wave (km/s) = 3.59712 3.95735 3.78153
# Velocity P-wave (km/s) = 6.02801 7.02058 6.54315
#
# Compressibility (1/GPa) = 0.02633292
#
# Stress axis : x y z
#
# Youngs Moduli (GPa) = 37.83102 106.41926 77.16074
#
# Poissons Ratio (x) = -0.01799 0.48715
# Poissons Ratio (y) = -0.00640 0.39230
# Poissons Ratio (z) = 0.23884 0.54105
#
# Static dielectric constant tensor:
#      x y z
#    x 3.439870 0.000000 -0.133840 
#    y 0.000000 3.973930 0.000000 
#    z -0.133840 0.000000 3.469310 
# 
# 
# High freq. dielectric constant tensor:
#      x y z
#    x 1.745420 0.000000 -0.021860 
#    y 0.000000 1.801120 0.000000 
#    z -0.021860 0.000000 1.771280 
# 
# From -- ./inp_files/49904.got.cif
#   From: 2010.06.25/outbox.cif.g09.slc.cpg/sg13_25_cif.got.tgz:49904.got - 2010.06.28 04:50:58.
