data_PCOD8117201
_publ_section_title
;
Structure prediction by ZEFSAII (Michael W. Deem and Ramdas Pophale) SiO2 
 PCOD8117201
Probable space group: P 2/C
;
_chemical_formula_sum "Si O2"
_cell_formula_units_Z 18
_cell_length_a 8.261797
_cell_length_b 11.641520
_cell_length_c 13.484129
_cell_angle_alpha 90.000000
_cell_angle_beta 39.845879
_cell_angle_gamma 90.000000
_cell_volume 830.957030
_symmetry_space_group_name_H-M "P 2/C"
_symmetry_group_IT_number 13
_symmetry_cell_setting 'monoclinic'
loop_
_space_group_symop_operation_xyz
x,y,z
-x,y,1/2-z
-x,-y,-z
x,-y,1/2+z
loop_
_atom_site_type_symbol
_atom_site_label
_atom_site_fract_x
_atom_site_fract_y
_atom_site_fract_z
Si Si1 0.387775 0.739686 0.505869
Si Si2 0.236192 0.982978 0.569556
Si Si3 0.672820 0.204012 0.074138
Si Si4 0.110786 0.333862 0.798732
Si Si5 0.000000 0.554470 0.750000
O O1 0.226293 0.848894 0.541850
O O2 0.506118 0.761516 0.557945
O O3 0.603086 0.711236 0.322613
O O4 0.210510 0.629724 0.597557
O O5 0.000000 0.012617 0.750000
O O6 0.500000 0.000000 0.500000
O O7 0.230103 0.071586 0.480168
O O8 0.500000 0.219062 0.250000
O O9 0.918129 0.287656 0.973692
O O10 0.112683 0.472702 0.784684
O O11 0.000000 0.276029 0.750000
#
# Coordination Sequence:
#
# PCOD8117201 Si02
#       5
#     4   4   4   4   2
#     4  10  18  35  58  82 103 142 187 228 261 321
#     4  10  19  34  57  81 108 142 188 227 266 329
#     4  10  20  35  54  81 114 145 173 219 285 326
#     4   8  18  32  56  77 107 140 181 221 261 319
#     4  10  18  32  62  80 102 136 198 222 258 312
#
# _framework density 21.661771000000002
#
# number of rings (size 3 to 8) (size 9 to 14) (size 15 to 20)
#    0.667    1.778    1.111    4.000    0.000    0.000 
#    0.000   11.111    0.000    0.000    0.000    0.000 
#    0.000    0.000    0.000    0.000    0.000    0.000 
#
# Total GULP energy -223012.765748 kJ/mol
# GULP energy per Si atom -12389.598097 kJ/mol
# Density = 2.161247 g / cm^3
# Si number density = 21.661771 Si / 1000 Ang^3
#
#
#
# Elastic Constant Matrix: (Units=GPa)
#
#
# Indices 1 2 3 4 5 6 
#
# 1 13.9222 8.5034 20.9095 0.0000 -13.4904 0.0000
# 2 8.5034 161.4756 72.3408 0.0000 -13.0683 0.0000
# 3 20.9095 72.3408 194.5397 0.0000 -37.2128 0.0000
# 4 0.0000 0.0000 0.0000 39.1558 0.0000 -20.6530
# 5 -13.4904 -13.0683 -37.2128 0.0000 28.3525 0.0000
# 6 0.0000 0.0000 0.0000 -20.6530 0.0000 16.5171
#
#
#
# Elastic Compliance Matrix: (Units=1/GPa)
#
#
# Indices 1 2 3 4 5 6 
#
# 1 0.134691 -0.001073 -0.002555 0.000000 0.060239 0.000000
# 2 -0.001073 0.007441 -0.002795 0.000000 -0.000749 0.000000
# 3 -0.002555 -0.002795 0.007978 0.000000 0.007968 0.000000
# 4 0.000000 0.000000 0.000000 0.075011 0.000000 0.093793
# 5 0.060239 -0.000749 0.007968 0.000000 0.074045 0.000000
# 6 0.000000 0.000000 0.000000 0.093793 0.000000 0.177822
#
#
# Mechanical properties :
#
#
# Convention : Reuss Voigt Hill
#
# Bulk Modulus (GPa) = 7.28520 63.71610 35.50065
# Shear Modulus (GPa) = 9.33553 34.68401 22.00977
#
# Velocity S-wave (km/s) = 2.07823 4.00579 3.19104
# Velocity P-wave (km/s) = 3.02145 7.13254 5.47733
#
# Compressibility (1/GPa) = 0.13726464
#
# Stress axis : x y z
#
# Youngs Moduli (GPa) = 7.42439 134.39266 125.33865
#
# Poissons Ratio (x) = 0.14422 0.32022
# Poissons Ratio (y) = 0.00797 0.35031
# Poissons Ratio (z) = 0.01897 0.37562
#
# Static dielectric constant tensor:
#      x y z
#    x 3.366080 0.000000 -0.460060 
#    y 0.000000 4.430410 0.000000 
#    z -0.460060 0.000000 3.924560 
# 
# 
# High freq. dielectric constant tensor:
#      x y z
#    x 1.789010 0.000000 -0.044880 
#    y 0.000000 1.869010 0.000000 
#    z -0.044880 0.000000 1.854030 
# 
# From -- ./inp_files/28763.got.cif
#   From: 2010.06.25/outbox.cif.g09.slc.cpg/sg13_15_cif.got.tgz:28763.got - 2010.06.28 04:50:58.
