data_PCOD8117999
_publ_section_title
;
Structure prediction by ZEFSAII (Michael W. Deem and Ramdas Pophale) SiO2 
 PCOD8117999
Probable space group: P 2/C
;
_chemical_formula_sum "Si O2"
_cell_formula_units_Z 30
_cell_length_a 9.459881
_cell_length_b 10.424537
_cell_length_c 18.681213
_cell_angle_alpha 90.000000
_cell_angle_beta 126.003489
_cell_angle_gamma 90.000000
_cell_volume 1490.342031
_symmetry_space_group_name_H-M "P 2/C"
_symmetry_group_IT_number 13
_symmetry_cell_setting 'monoclinic'
loop_
_space_group_symop_operation_xyz
x,y,z
-x,y,1/2-z
-x,-y,-z
x,-y,1/2+z
loop_
_atom_site_type_symbol
_atom_site_label
_atom_site_fract_x
_atom_site_fract_y
_atom_site_fract_z
Si Si1 0.885822 0.721507 0.001342
Si Si2 0.257355 0.626260 0.405459
Si Si3 0.000000 0.194405 0.750000
Si Si4 0.829081 0.785545 0.519011
Si Si5 0.524842 0.787081 0.839475
Si Si6 0.629050 0.345805 0.080853
Si Si7 0.021206 0.962372 0.115757
Si Si8 0.617991 0.064854 0.848169
O O1 0.880532 0.623443 0.068079
O O2 0.903391 0.867270 0.034046
O O3 0.702789 0.711333 0.907524
O O4 0.046891 0.697175 0.994976
O O5 0.169083 0.717073 0.318902
O O6 0.310766 0.491345 0.386270
O O7 0.439056 0.681866 0.489896
O O8 0.053672 0.098818 0.702765
O O9 0.771866 0.700457 0.567700
O O10 0.925216 0.902487 0.586691
O O11 0.661266 0.831263 0.422300
O O12 0.500000 0.755107 0.750000
O O13 0.369679 0.728567 0.842854
O O14 0.523160 0.940143 0.853378
O O15 0.204927 0.987691 0.133541
O O16 0.500000 0.128257 0.750000
#
# Coordination Sequence:
#
# PCOD8117999 Si02
#       8
#     4   4   2   4   4   4   4   4
#     4   9  17  38  60  77 117 162 189 232 311 365
#     4   9  21  44  61  82 118 166 207 244 302 358
#     4  10  22  38  66  82 122 160 200 256 314 348
#     4  11  20  36  59  93 122 152 200 256 297 369
#     4  10  19  36  56  83 116 164 188 241 311 359
#     4  10  23  39  63  87 118 158 214 256 289 355
#     4  10  19  35  56  88 118 157 193 247 302 379
#     4  10  20  33  56  85 126 157 190 237 310 376
#
# _framework density 20.129608000000001
#
# number of rings (size 3 to 8) (size 9 to 14) (size 15 to 20)
#    0.000    2.133    2.667    0.800    1.867    3.200 
#    2.400    0.000   11.733    0.000    0.000    0.000 
#    0.000    0.000    0.000    0.000    0.000    0.000 
#
# Total GULP energy -371783.642916 kJ/mol
# GULP energy per Si atom -12392.788097 kJ/mol
# Density = 2.008379 g / cm^3
# Si number density = 20.129608 Si / 1000 Ang^3
#
#
#
# Elastic Constant Matrix: (Units=GPa)
#
#
# Indices 1 2 3 4 5 6 
#
# 1 94.1636 27.6707 21.8408 0.0000 -28.2874 0.0000
# 2 27.6707 37.0971 12.2881 0.0000 -3.6693 0.0000
# 3 21.8408 12.2881 87.1575 0.0000 -7.6470 0.0000
# 4 0.0000 0.0000 0.0000 18.6042 0.0000 -5.6786
# 5 -28.2874 -3.6693 -7.6470 0.0000 31.4355 0.0000
# 6 0.0000 0.0000 0.0000 -5.6786 0.0000 32.9772
#
#
#
# Elastic Compliance Matrix: (Units=1/GPa)
#
#
# Indices 1 2 3 4 5 6 
#
# 1 0.019288 -0.012276 -0.001743 0.000000 0.015499 0.000000
# 2 -0.012276 0.036266 -0.002692 0.000000 -0.007469 0.000000
# 3 -0.001743 -0.002692 0.012389 0.000000 0.001131 0.000000
# 4 0.000000 0.000000 0.000000 0.056733 0.000000 0.009769
# 5 0.015499 -0.007469 0.001131 0.000000 0.045162 0.000000
# 6 0.000000 0.000000 0.000000 0.009769 0.000000 0.032006
#
#
# Mechanical properties :
#
#
# Convention : Reuss Voigt Hill
#
# Bulk Modulus (GPa) = 28.96806 38.00195 33.48501
# Shear Modulus (GPa) = 20.26155 27.04460 23.65308
#
# Velocity S-wave (km/s) = 3.17607 3.66939 3.43160
# Velocity P-wave (km/s) = 5.27938 6.07224 5.68964
#
# Compressibility (1/GPa) = 0.03452077
#
# Stress axis : x y z
#
# Youngs Moduli (GPa) = 51.84693 27.57390 80.71696
#
# Poissons Ratio (x) = 0.33851 0.14066
# Poissons Ratio (y) = 0.63649 0.21729
# Poissons Ratio (z) = 0.09035 0.07423
#
# Static dielectric constant tensor:
#      x y z
#    x 3.760060 0.000000 -0.032090 
#    y 0.000000 3.390200 0.000000 
#    z -0.032090 0.000000 3.866070 
# 
# 
# High freq. dielectric constant tensor:
#      x y z
#    x 1.783900 0.000000 -0.004530 
#    y 0.000000 1.759540 0.000000 
#    z -0.004530 0.000000 1.790040 
# 
# From -- ./inp_files/64453.got.cif
#   From: 2010.06.25/outbox.cif.g09.slc.cpg/sg13_33_cif.got.tgz:64453.got - 2010.06.28 04:50:58.
