data_PCOD8117715
_publ_section_title
;
Structure prediction by ZEFSAII (Michael W. Deem and Ramdas Pophale) SiO2 
 PCOD8117715
Probable space group: P 2/C
;
_chemical_formula_sum "Si O2"
_cell_formula_units_Z 32
_cell_length_a 5.437719
_cell_length_b 13.382412
_cell_length_c 22.540204
_cell_angle_alpha 90.000000
_cell_angle_beta 99.532960
_cell_angle_gamma 90.000000
_cell_volume 1617.595058
_symmetry_space_group_name_H-M "P 2/C"
_symmetry_group_IT_number 13
_symmetry_cell_setting 'monoclinic'
loop_
_space_group_symop_operation_xyz
x,y,z
-x,y,1/2-z
-x,-y,-z
x,-y,1/2+z
loop_
_atom_site_type_symbol
_atom_site_label
_atom_site_fract_x
_atom_site_fract_y
_atom_site_fract_z
Si Si1 0.768283 0.619153 0.418438
Si Si2 0.604023 0.785347 0.089227
Si Si3 0.992034 0.077635 0.445304
Si Si4 0.065634 0.656948 0.317757
Si Si5 0.124821 0.275323 0.010073
Si Si6 0.520351 0.996286 0.571619
Si Si7 0.887502 0.429601 0.182888
Si Si8 0.354278 0.404046 0.114421
O O1 0.603295 0.706960 0.437980
O O2 0.633306 0.512452 0.416848
O O3 0.831035 0.646074 0.352512
O O4 0.001284 0.627355 0.473197
O O5 0.746239 0.740116 0.151267
O O6 0.498075 0.894168 0.100647
O O7 0.766757 0.796369 0.036692
O O8 0.049521 0.193835 0.463661
O O9 0.706552 0.068413 0.408797
O O10 0.203738 0.049975 0.404625
O O11 0.000000 0.000000 0.500000
O O12 0.184898 0.546706 0.318087
O O13 0.000000 0.695723 0.250000
O O14 0.328360 0.319498 0.063463
O O15 0.500000 0.000000 0.500000
O O16 0.616664 0.379775 0.158296
O O17 0.000000 0.393180 0.250000
O O18 0.102203 0.402770 0.144081
#
# Coordination Sequence:
#
# PCOD8117715 Si02
#       8
#     4   4   4   4   4   4   4   4
#     4  10  21  35  51  80 121 159 181 229 286 346
#     4  11  20  33  55  80 115 155 183 235 290 347
#     4  10  19  35  51  76 108 146 187 226 268 331
#     4   9  20  36  54  79 109 151 200 240 279 335
#     4  11  23  33  55  81 123 150 186 230 286 353
#     4  10  19  32  53  76 108 142 187 223 276 332
#     4  10  21  41  60  79 111 151 198 245 279 326
#     4  11  23  37  55  88 114 154 193 227 288 345
#
# _framework density 19.782453
#
# number of rings (size 3 to 8) (size 9 to 14) (size 15 to 20)
#    0.000    1.750    3.750    2.250    3.500    1.000 
#    0.000    0.000    0.000    0.000    0.000    5.250 
#    0.000    0.000    0.000    0.000    0.000    0.000 
#
# Total GULP energy -396435.949213 kJ/mol
# GULP energy per Si atom -12388.623413 kJ/mol
# Density = 1.973743 g / cm^3
# Si number density = 19.782453 Si / 1000 Ang^3
#
#
#
# Elastic Constant Matrix: (Units=GPa)
#
#
# Indices 1 2 3 4 5 6 
#
# 1 113.0011 18.1257 25.3229 0.0000 19.9643 0.0000
# 2 18.1257 65.1699 39.2421 0.0000 11.1909 0.0000
# 3 25.3229 39.2421 96.5335 0.0000 20.7290 0.0000
# 4 0.0000 0.0000 0.0000 13.7441 0.0000 7.0260
# 5 19.9643 11.1909 20.7290 0.0000 15.9694 0.0000
# 6 0.0000 0.0000 0.0000 7.0260 0.0000 28.3231
#
#
#
# Elastic Compliance Matrix: (Units=1/GPa)
#
#
# Indices 1 2 3 4 5 6 
#
# 1 0.011409 -0.001021 0.000459 0.000000 -0.014144 0.000000
# 2 -0.001021 0.020687 -0.007352 0.000000 -0.003677 0.000000
# 3 0.000459 -0.007352 0.016976 0.000000 -0.017458 0.000000
# 4 0.000000 0.000000 0.000000 0.083325 0.000000 -0.020670
# 5 -0.014144 -0.003677 -0.017458 0.000000 0.105541 0.000000
# 6 0.000000 0.000000 0.000000 -0.020670 0.000000 0.040434
#
#
# Mechanical properties :
#
#
# Convention : Reuss Voigt Hill
#
# Bulk Modulus (GPa) = 30.07987 48.89846 39.48917
# Shear Modulus (GPa) = 16.37835 24.40824 20.39330
#
# Velocity S-wave (km/s) = 2.88049 3.51641 3.21421
# Velocity P-wave (km/s) = 5.12848 6.42328 5.81205
#
# Compressibility (1/GPa) = 0.03324482
#
# Stress axis : x y z
#
# Youngs Moduli (GPa) = 87.64872 48.33958 58.90621
#
# Poissons Ratio (x) = 0.04936 -0.02706
# Poissons Ratio (y) = 0.08949 0.43308
# Poissons Ratio (z) = -0.04027 0.35540
#
# Static dielectric constant tensor:
#      x y z
#    x 3.713190 0.000000 0.249240 
#    y 0.000000 3.324260 0.000000 
#    z 0.249240 0.000000 3.311500 
# 
# 
# High freq. dielectric constant tensor:
#      x y z
#    x 1.780770 0.000000 0.014300 
#    y 0.000000 1.758350 0.000000 
#    z 0.014300 0.000000 1.725690 
# 
# From -- ./inp_files/83806.got.cif
#   From: 2010.06.25/outbox.cif.g09.slc.cpg/sg13_42_cif.got.tgz:83806.got - 2010.06.28 04:50:58.
