data_PCOD8117224
_publ_section_title
;
Structure prediction by ZEFSAII (Michael W. Deem and Ramdas Pophale) SiO2 
 PCOD8117224
Probable space group: P 2/C
;
_chemical_formula_sum "Si O2"
_cell_formula_units_Z 32
_cell_length_a 16.439893
_cell_length_b 8.465663
_cell_length_c 20.845582
_cell_angle_alpha 90.000000
_cell_angle_beta 35.985659
_cell_angle_gamma 90.000000
_cell_volume 1704.680593
_symmetry_space_group_name_H-M "P 2/C"
_symmetry_group_IT_number 13
_symmetry_cell_setting 'monoclinic'
loop_
_space_group_symop_operation_xyz
x,y,z
-x,y,1/2-z
-x,-y,-z
x,-y,1/2+z
loop_
_atom_site_type_symbol
_atom_site_label
_atom_site_fract_x
_atom_site_fract_y
_atom_site_fract_z
Si Si1 0.357472 0.317055 0.522093
Si Si2 0.096476 0.186642 0.129276
Si Si3 0.937691 0.187976 0.605675
Si Si4 0.644085 0.815528 0.338223
Si Si5 0.642528 0.317055 0.477907
Si Si6 0.937691 0.187976 0.105675
Si Si7 0.644085 0.184472 0.338223
Si Si8 0.903524 0.186643 0.870724
O O1 0.330375 0.213748 0.602754
O O2 0.347394 0.500000 0.546498
O O3 0.510817 0.279103 0.397188
O O4 0.245074 0.270531 0.540554
O O5 0.245074 0.270531 0.040554
O O6 0.000000 0.237642 0.250000
O O7 0.027799 0.251155 0.107835
O O8 0.118760 1.000000 0.113561
O O9 0.778860 0.244538 0.713613
O O10 0.000000 0.257108 0.500000
O O11 0.027799 0.251156 0.607835
O O12 0.942445 0.000000 0.603292
O O13 0.510817 0.720897 0.397188
O O14 0.618714 0.000000 0.343501
O O15 0.669625 0.213748 0.397246
O O16 0.778860 0.244538 0.213613
O O17 0.000000 0.237642 0.750000
#
# Coordination Sequence:
#
# PCOD8117224 Si02
#       8
#     4   4   4   4   4   4   4   4
#     4  11  21  32  50  79 110 138 174 217 261 306
#     4  10  18  33  55  80 104 134 175 219 261 304
#     4   9  18  33  55  81 106 132 171 220 264 308
#     4  10  18  33  55  78 105 138 175 215 264 308
#     4  11  21  32  50  79 110 138 174 217 261 306
#     4   9  18  33  55  81 106 132 171 220 264 308
#     4  10  18  33  55  78 105 138 175 215 264 308
#     4  10  18  33  55  80 104 134 175 219 261 304
#
# _framework density 18.771846
#
# number of rings (size 3 to 8) (size 9 to 14) (size 15 to 20)
#    0.000    2.000    2.500    4.500    0.000    0.500 
#    0.000    1.250    0.000   14.250    0.000    0.000 
#    0.000    0.000    0.000    0.000    0.000    0.000 
#
# Total GULP energy -396832.528920 kJ/mol
# GULP energy per Si atom -12401.016529 kJ/mol
# Density = 1.872912 g / cm^3
# Si number density = 18.771846 Si / 1000 Ang^3
#
#
#
# Elastic Constant Matrix: (Units=GPa)
#
#
# Indices 1 2 3 4 5 6 
#
# 1 131.6424 19.1391 81.3328 0.0000 -13.2079 0.0000
# 2 19.1391 40.9225 18.0554 0.0000 -7.6668 0.0000
# 3 81.3328 18.0554 154.9781 0.0000 -13.4190 0.0000
# 4 0.0000 0.0000 0.0000 3.0267 0.0000 -1.6480
# 5 -13.2079 -7.6668 -13.4190 0.0000 34.3502 0.0000
# 6 0.0000 0.0000 0.0000 -1.6480 0.0000 7.9344
#
#
#
# Elastic Compliance Matrix: (Units=1/GPa)
#
#
# Indices 1 2 3 4 5 6 
#
# 1 0.011644 -0.002635 -0.005658 0.000000 0.001679 0.000000
# 2 -0.002635 0.027124 -0.001388 0.000000 0.004499 0.000000
# 3 -0.005658 -0.001388 0.009697 0.000000 0.001303 0.000000
# 4 0.000000 0.000000 0.000000 0.372526 0.000000 0.077374
# 5 0.001679 0.004499 0.001303 0.000000 0.031270 0.000000
# 6 0.000000 0.000000 0.000000 0.077374 0.000000 0.142104
#
#
# Mechanical properties :
#
#
# Convention : Reuss Voigt Hill
#
# Bulk Modulus (GPa) = 34.36142 62.73306 48.54724
# Shear Modulus (GPa) = 8.02018 22.99662 15.50840
#
# Velocity S-wave (km/s) = 2.06923 3.50388 2.87740
# Velocity P-wave (km/s) = 4.90443 7.06122 6.07924
#
# Compressibility (1/GPa) = 0.02910241
#
# Stress axis : x y z
#
# Youngs Moduli (GPa) = 85.88333 36.86797 103.12997
#
# Poissons Ratio (x) = 0.09714 0.58355
# Poissons Ratio (y) = 0.22627 0.14312
# Poissons Ratio (z) = 0.48596 0.05116
#
# Static dielectric constant tensor:
#      x y z
#    x 3.479360 0.000000 -0.206900 
#    y 0.000000 3.100790 0.000000 
#    z -0.206900 0.000000 3.642340 
# 
# 
# High freq. dielectric constant tensor:
#      x y z
#    x 1.718440 0.000000 -0.028420 
#    y 0.000000 1.706020 0.000000 
#    z -0.028420 0.000000 1.724030 
# 
# From -- ./inp_files/79808.got.cif
#   From: 2010.06.25/outbox.cif.g09.slc.cpg/sg13_40_cif.got.tgz:79808.got - 2010.06.28 04:50:58.
