data_PCOD8117886
_publ_section_title
;
Structure prediction by ZEFSAII (Michael W. Deem and Ramdas Pophale) SiO2 
 PCOD8117886
Probable space group: P 2/C
;
_chemical_formula_sum "Si O2"
_cell_formula_units_Z 32
_cell_length_a 15.531965
_cell_length_b 8.170215
_cell_length_c 15.604879
_cell_angle_alpha 90.000000
_cell_angle_beta 55.673069
_cell_angle_gamma 90.000000
_cell_volume 1635.357469
_symmetry_space_group_name_H-M "P 2/C"
_symmetry_group_IT_number 13
_symmetry_cell_setting 'monoclinic'
loop_
_space_group_symop_operation_xyz
x,y,z
-x,y,1/2-z
-x,-y,-z
x,-y,1/2+z
loop_
_atom_site_type_symbol
_atom_site_label
_atom_site_fract_x
_atom_site_fract_y
_atom_site_fract_z
Si Si1 0.677189 0.209517 0.618890
Si Si2 0.270031 0.200042 0.561119
Si Si3 0.016457 0.682060 0.642327
Si Si4 0.125528 0.994006 0.539061
Si Si5 0.533486 0.045055 0.138054
Si Si6 0.217659 0.476301 0.482128
Si Si7 0.318528 0.966040 0.208926
Si Si8 0.839854 0.779573 0.626241
O O1 0.777494 0.125197 0.523690
O O2 0.575421 0.141345 0.627066
O O3 0.689187 0.402139 0.596888
O O4 0.671963 0.164603 0.721060
O O5 0.250810 0.393987 0.554765
O O6 0.281274 0.145960 0.652069
O O7 0.160726 0.122751 0.590884
O O8 0.373686 0.154661 0.450325
O O9 0.033510 0.878402 0.624485
O O10 0.106126 0.567606 0.552108
O O11 0.000000 0.632017 0.750000
O O12 0.911013 0.662275 0.645851
O O13 0.095386 0.088031 0.467578
O O14 0.500000 0.116777 0.250000
O O15 0.434270 0.042390 0.129533
O O16 0.218308 0.338432 0.408043
O O17 0.241695 0.118417 0.269959
#
# Coordination Sequence:
#
# PCOD8117886 Si02
#       8
#     4   4   4   4   4   4   4   4
#     4   8  17  33  52  71 105 144 172 205 262 324
#     4  10  19  34  56  82 106 133 178 230 264 302
#     4  11  21  34  53  80 109 140 176 222 270 313
#     4   8  17  34  53  73 100 138 179 215 258 313
#     4   9  17  34  56  78 106 144 179 215 263 314
#     4  10  21  37  53  76 110 145 174 210 269 335
#     4  10  19  34  56  82 105 135 181 230 262 298
#     4  10  20  36  57  78 104 143 182 219 263 319
#
# _framework density 19.567588000000001
#
# number of rings (size 3 to 8) (size 9 to 14) (size 15 to 20)
#    0.000    2.500    0.000    4.125    0.000    1.000 
#    0.000   12.500    0.000    0.000    0.000    0.000 
#    0.000    0.000    0.000    0.000    0.000    0.000 
#
# Total GULP energy -396482.281981 kJ/mol
# GULP energy per Si atom -12390.071312 kJ/mol
# Density = 1.952305 g / cm^3
# Si number density = 19.567588 Si / 1000 Ang^3
#
#
#
# Elastic Constant Matrix: (Units=GPa)
#
#
# Indices 1 2 3 4 5 6 
#
# 1 99.4686 31.0134 26.0380 0.0000 7.8471 0.0000
# 2 31.0134 97.2876 28.6081 0.0000 -2.3424 0.0000
# 3 26.0380 28.6081 59.9329 0.0000 0.7270 0.0000
# 4 0.0000 0.0000 0.0000 26.4953 0.0000 -2.4680
# 5 7.8471 -2.3424 0.7270 0.0000 24.3437 0.0000
# 6 0.0000 0.0000 0.0000 -2.4680 0.0000 24.2510
#
#
#
# Elastic Compliance Matrix: (Units=1/GPa)
#
#
# Indices 1 2 3 4 5 6 
#
# 1 0.012300 -0.002866 -0.003926 0.000000 -0.004123 0.000000
# 2 -0.002866 0.012668 -0.004829 0.000000 0.002287 0.000000
# 3 -0.003926 -0.004829 0.020694 0.000000 0.000183 0.000000
# 4 0.000000 0.000000 0.000000 0.038104 0.000000 0.003878
# 5 -0.004123 0.002287 0.000183 0.000000 0.042622 0.000000
# 6 0.000000 0.000000 0.000000 0.003878 0.000000 0.041630
#
#
# Mechanical properties :
#
#
# Convention : Reuss Voigt Hill
#
# Bulk Modulus (GPa) = 44.60407 47.55645 46.08026
# Shear Modulus (GPa) = 25.15950 26.41999 25.78974
#
# Velocity S-wave (km/s) = 3.58966 3.67848 3.63434
# Velocity P-wave (km/s) = 6.32655 6.51138 6.41963
#
# Compressibility (1/GPa) = 0.02241948
#
# Stress axis : x y z
#
# Youngs Moduli (GPa) = 81.30146 78.94189 48.32350
#
# Poissons Ratio (x) = 0.22624 0.18970
# Poissons Ratio (y) = 0.23300 0.23337
# Poissons Ratio (z) = 0.31917 0.38124
#
# Static dielectric constant tensor:
#      x y z
#    x 3.656760 0.000000 -0.050770 
#    y 0.000000 3.661150 0.000000 
#    z -0.050770 0.000000 3.497540 
# 
# 
# High freq. dielectric constant tensor:
#      x y z
#    x 1.763010 0.000000 -0.001010 
#    y 0.000000 1.747430 0.000000 
#    z -0.001010 0.000000 1.751110 
# 
# From -- ./inp_files/53036.got.cif
#   From: 2010.06.25/outbox.cif.g09.slc.cpg/sg13_27_cif.got.tgz:53036.got - 2010.06.28 04:50:58.
