data_PCOD8117978
_publ_section_title
;
Structure prediction by ZEFSAII (Michael W. Deem and Ramdas Pophale) SiO2 
 PCOD8117978
Probable space group: P 2/C
;
_chemical_formula_sum "Si O2"
_cell_formula_units_Z 24
_cell_length_a 15.870300
_cell_length_b 5.102576
_cell_length_c 22.693493
_cell_angle_alpha 90.000000
_cell_angle_beta 36.705369
_cell_angle_gamma 90.000000
_cell_volume 1098.397214
_symmetry_space_group_name_H-M "P 2/C"
_symmetry_group_IT_number 13
_symmetry_cell_setting 'monoclinic'
loop_
_space_group_symop_operation_xyz
x,y,z
-x,y,1/2-z
-x,-y,-z
x,-y,1/2+z
loop_
_atom_site_type_symbol
_atom_site_label
_atom_site_fract_x
_atom_site_fract_y
_atom_site_fract_z
Si Si1 0.959533 0.187556 0.676120
Si Si2 0.285373 0.391368 0.611888
Si Si3 0.403951 0.419115 0.247261
Si Si4 0.453623 0.241971 0.099786
Si Si5 0.724545 0.071418 0.723078
Si Si6 0.905400 0.323361 0.359847
O O1 0.845202 0.208068 0.794206
O O2 0.038386 0.464660 0.623844
O O3 0.882182 0.119348 0.658245
O O4 0.079519 0.968037 0.622081
O O5 0.412802 0.202059 0.518066
O O6 0.333171 0.573877 0.638920
O O7 0.248168 0.586353 0.577541
O O8 0.500000 0.389887 0.250000
O O9 0.500615 0.386098 0.134453
O O10 0.283891 0.190813 0.312267
O O11 0.325889 0.696353 0.290810
O O12 0.378289 0.966541 0.160861
O O13 0.000000 0.348569 0.250000
#
# Coordination Sequence:
#
# PCOD8117978 Si02
#       6
#     4   4   4   4   4   4
#     4  11  19  35  49  77 110 143 180 210 253 311
#     4  10  19  37  51  82 120 148 169 219 261 335
#     4  10  20  37  55  79 105 135 183 227 269 320
#     4   9  21  35  53  83 113 145 173 212 288 317
#     4  10  19  35  54  80 106 135 181 218 274 316
#     4  10  20  31  49  72 107 149 182 205 243 311
#
# _framework density 21.850021000000002
#
# number of rings (size 3 to 8) (size 9 to 14) (size 15 to 20)
#    1.000    1.000    1.667    5.000    0.000    0.667 
#    9.000    0.000    0.000    0.000    0.000    7.000 
#    0.000    0.000    0.000    0.000    0.000    0.000 
#
# Total GULP energy -297320.003711 kJ/mol
# GULP energy per Si atom -12388.333488 kJ/mol
# Density = 2.180029 g / cm^3
# Si number density = 21.850021 Si / 1000 Ang^3
#
#
#
# Elastic Constant Matrix: (Units=GPa)
#
#
# Indices 1 2 3 4 5 6 
#
# 1 139.2383 30.1935 3.7735 0.0000 -10.1023 0.0000
# 2 30.1935 122.8937 -2.0015 0.0000 -0.3771 0.0000
# 3 3.7735 -2.0015 18.4961 0.0000 -4.7183 0.0000
# 4 0.0000 0.0000 0.0000 11.3215 0.0000 -4.0242
# 5 -10.1023 -0.3771 -4.7183 0.0000 9.0816 0.0000
# 6 0.0000 0.0000 0.0000 -4.0242 0.0000 31.4023
#
#
#
# Elastic Compliance Matrix: (Units=1/GPa)
#
#
# Indices 1 2 3 4 5 6 
#
# 1 0.008283 -0.001998 0.000488 0.000000 0.009384 0.000000
# 2 -0.001998 0.008640 0.001000 0.000000 -0.001345 0.000000
# 3 0.000488 0.001000 0.062507 0.000000 0.033060 0.000000
# 4 0.000000 0.000000 0.000000 0.092543 0.000000 0.011859
# 5 0.009384 -0.001345 0.033060 0.000000 0.137672 0.000000
# 6 0.000000 0.000000 0.000000 0.011859 0.000000 0.033365
#
#
# Mechanical properties :
#
#
# Convention : Reuss Voigt Hill
#
# Bulk Modulus (GPa) = 12.75367 38.28435 25.51901
# Shear Modulus (GPa) = 13.50741 26.93859 20.22300
#
# Velocity S-wave (km/s) = 2.48904 3.51506 3.04556
# Velocity P-wave (km/s) = 3.75633 5.83384 4.90630
#
# Compressibility (1/GPa) = 0.07840879
#
# Stress axis : x y z
#
# Youngs Moduli (GPa) = 120.73075 115.73785 15.99811
#
# Poissons Ratio (x) = 0.23128 -0.00780
# Poissons Ratio (y) = 0.24125 -0.01599
# Poissons Ratio (z) = -0.05890 -0.11569
#
# Static dielectric constant tensor:
#      x y z
#    x 4.143380 0.000000 -0.523710 
#    y 0.000000 4.062910 0.000000 
#    z -0.523710 0.000000 3.414720 
# 
# 
# High freq. dielectric constant tensor:
#      x y z
#    x 1.862840 0.000000 -0.034710 
#    y 0.000000 1.871100 0.000000 
#    z -0.034710 0.000000 1.781810 
# 
# From -- ./inp_files/96768.got.cif
#   From: 2010.06.25/outbox.cif.g09.slc.cpg/sg13_49_cif.got.tgz:96768.got - 2010.06.28 04:50:58.
