data_PCOD8117858
_publ_section_title
;
Structure prediction by ZEFSAII (Michael W. Deem and Ramdas Pophale) SiO2 
 PCOD8117858
Probable space group: P 2/C
;
_chemical_formula_sum "Si O2"
_cell_formula_units_Z 20
_cell_length_a 11.677165
_cell_length_b 9.013635
_cell_length_c 8.700467
_cell_angle_alpha 90.000000
_cell_angle_beta 88.526439
_cell_angle_gamma 90.000000
_cell_volume 915.453528
_symmetry_space_group_name_H-M "P 2/C"
_symmetry_group_IT_number 13
_symmetry_cell_setting 'monoclinic'
loop_
_space_group_symop_operation_xyz
x,y,z
-x,y,1/2-z
-x,-y,-z
x,-y,1/2+z
loop_
_atom_site_type_symbol
_atom_site_label
_atom_site_fract_x
_atom_site_fract_y
_atom_site_fract_z
Si Si1 0.167100 0.196622 0.056089
Si Si2 0.256049 0.513208 0.472976
Si Si3 0.627604 0.331332 0.804866
Si Si4 0.210826 0.081921 0.730699
Si Si5 0.051667 0.684080 0.087344
O O1 0.193774 0.092831 0.200648
O O2 0.254068 0.334212 0.071249
O O3 0.193324 0.091714 0.911594
O O4 0.040586 0.265070 0.036927
O O5 0.358825 0.406458 0.527673
O O6 0.281598 0.570416 0.298900
O O7 0.132220 0.432953 0.493556
O O8 0.500000 0.345389 0.750000
O O9 0.665046 0.158149 0.810179
O O10 0.118133 0.168931 0.634322
O O11 0.000000 0.616521 0.250000
#
# Coordination Sequence:
#
# PCOD8117858 Si02
#       5
#     4   4   4   4   4
#     4  10  19  34  53  81 115 146 181 225 275 338
#     4  10  21  36  58  85 109 143 192 233 278 337
#     4  10  21  40  59  79 110 148 191 243 282 317
#     4   9  20  35  53  79 112 149 186 222 273 337
#     4   9  18  35  56  82 116 150 181 225 279 335
#
# _framework density 21.847096000000001
#
# number of rings (size 3 to 8) (size 9 to 14) (size 15 to 20)
#    0.000    2.400    0.000    3.000    0.000    3.200 
#    0.000   10.000    0.000    0.000    0.000    0.000 
#    0.000    0.000    0.000    0.000    0.000    0.000 
#
# Total GULP energy -247769.986331 kJ/mol
# GULP energy per Si atom -12388.499317 kJ/mol
# Density = 2.179737 g / cm^3
# Si number density = 21.847096 Si / 1000 Ang^3
#
#
#
# Elastic Constant Matrix: (Units=GPa)
#
#
# Indices 1 2 3 4 5 6 
#
# 1 86.0149 29.5375 20.8072 0.0000 7.5012 0.0000
# 2 29.5375 93.7638 19.5037 0.0000 4.9293 0.0000
# 3 20.8072 19.5037 20.1707 0.0000 7.3387 0.0000
# 4 0.0000 0.0000 0.0000 40.8890 0.0000 1.8810
# 5 7.5012 4.9293 7.3387 0.0000 24.0543 0.0000
# 6 0.0000 0.0000 0.0000 1.8810 0.0000 11.9027
#
#
#
# Elastic Compliance Matrix: (Units=1/GPa)
#
#
# Indices 1 2 3 4 5 6 
#
# 1 0.015782 -0.001989 -0.014302 0.000000 -0.000151 0.000000
# 2 -0.001989 0.013640 -0.011638 0.000000 0.001376 0.000000
# 3 -0.014302 -0.011638 0.082219 0.000000 -0.018239 0.000000
# 4 0.000000 0.000000 0.000000 0.024636 0.000000 -0.003893
# 5 -0.000151 0.001376 -0.018239 0.000000 0.046902 0.000000
# 6 0.000000 0.000000 0.000000 -0.003893 0.000000 0.084630
#
#
# Mechanical properties :
#
#
# Convention : Reuss Voigt Hill
#
# Bulk Modulus (GPa) = 17.92639 37.73844 27.83242
# Shear Modulus (GPa) = 14.60876 24.04261 19.32568
#
# Velocity S-wave (km/s) = 2.58869 3.32097 2.97743
# Velocity P-wave (km/s) = 4.14226 5.65831 4.95857
#
# Compressibility (1/GPa) = 0.05578367
#
# Stress axis : x y z
#
# Youngs Moduli (GPa) = 63.36499 73.31328 12.16259
#
# Poissons Ratio (x) = 0.14580 0.17395
# Poissons Ratio (y) = 0.12601 0.14155
# Poissons Ratio (z) = 0.90624 0.85323
#
# Static dielectric constant tensor:
#      x y z
#    x 3.722060 0.000000 -0.114310 
#    y 0.000000 3.964280 0.000000 
#    z -0.114310 0.000000 3.838500 
# 
# 
# High freq. dielectric constant tensor:
#      x y z
#    x 1.834020 0.000000 0.008050 
#    y 0.000000 1.864490 0.000000 
#    z 0.008050 0.000000 1.845990 
# 
# From -- ./inp_files/14834.got.cif
#   From: 2010.06.25/outbox.cif.g09.slc.cpg/sg13_8_cif.got.tgz:14834.got - 2010.06.28 04:50:58.
