data_PCOD8117028
_publ_section_title
;
Structure prediction by ZEFSAII (Michael W. Deem and Ramdas Pophale) SiO2 
 PCOD8117028
Probable space group: P 2/C
;
_chemical_formula_sum "Si O2"
_cell_formula_units_Z 30
_cell_length_a 7.945527
_cell_length_b 8.514661
_cell_length_c 22.056943
_cell_angle_alpha 90.000000
_cell_angle_beta 86.466086
_cell_angle_gamma 90.000000
_cell_volume 1489.391216
_symmetry_space_group_name_H-M "P 2/C"
_symmetry_group_IT_number 13
_symmetry_cell_setting 'monoclinic'
loop_
_space_group_symop_operation_xyz
x,y,z
-x,y,1/2-z
-x,-y,-z
x,-y,1/2+z
loop_
_atom_site_type_symbol
_atom_site_label
_atom_site_fract_x
_atom_site_fract_y
_atom_site_fract_z
Si Si1 0.000000 0.458068 0.750000
Si Si2 0.363774 0.875163 0.522456
Si Si3 0.728227 0.946971 0.779028
Si Si4 0.074003 0.981795 0.609494
Si Si5 0.449097 0.171384 0.368300
Si Si6 0.679325 0.274513 0.726476
Si Si7 0.740024 0.154152 0.601665
Si Si8 0.126113 0.272726 0.323705
O O1 0.831551 0.353273 0.761161
O O2 0.964887 0.564514 0.691374
O O3 0.198735 0.967203 0.549902
O O4 0.444109 0.769783 0.575127
O O5 0.310473 0.776560 0.463646
O O6 0.500000 0.000000 0.500000
O O7 0.826033 0.029917 0.832168
O O8 0.570252 0.848672 0.807767
O O9 0.846799 0.829979 0.738148
O O10 0.672506 0.087818 0.737075
O O11 0.990764 0.812606 0.624617
O O12 0.939136 0.116619 0.598236
O O13 0.308611 0.299455 0.351864
O O14 0.363158 0.004904 0.384442
O O15 0.500000 0.350854 0.750000
O O16 0.702102 0.287534 0.652989
#
# Coordination Sequence:
#
# PCOD8117028 Si02
#       8
#     2   4   4   4   4   4   4   4
#     4  12  28  38  54  90 132 156 200 240 296 366
#     4   9  19  32  49  91 121 142 189 247 307 348
#     4  11  17  34  61  89 114 147 197 243 305 359
#     4  10  18  29  58  84 116 154 180 250 299 349
#     4   9  18  31  61  85 112 148 190 247 289 349
#     4  12  23  39  59  88 123 162 193 243 310 357
#     4  10  18  33  54  85 123 146 191 236 300 359
#     4  11  20  37  55  87 116 151 196 242 294 352
#
# _framework density 20.142458000000001
#
# number of rings (size 3 to 8) (size 9 to 14) (size 15 to 20)
#    0.000    1.600    5.333    1.600    0.000    1.067 
#    0.000    0.000    0.000    1.600    0.000    0.000 
#    0.000    0.000    0.000    0.000    0.000    0.000 
#
# Total GULP energy -371781.932287 kJ/mol
# GULP energy per Si atom -12392.731076 kJ/mol
# Density = 2.009661 g / cm^3
# Si number density = 20.142458 Si / 1000 Ang^3
#
#
#
# Elastic Constant Matrix: (Units=GPa)
#
#
# Indices 1 2 3 4 5 6 
#
# 1 150.1786 27.5713 57.4055 0.0000 -6.6942 0.0000
# 2 27.5713 41.4521 22.9835 0.0000 -0.0038 0.0000
# 3 57.4055 22.9835 134.4682 0.0000 7.5278 0.0000
# 4 0.0000 0.0000 0.0000 15.8933 0.0000 10.9528
# 5 -6.6942 -0.0038 7.5278 0.0000 41.4156 0.0000
# 6 0.0000 0.0000 0.0000 10.9528 0.0000 20.3714
#
#
#
# Elastic Compliance Matrix: (Units=1/GPa)
#
#
# Indices 1 2 3 4 5 6 
#
# 1 0.008684 -0.004042 -0.003127 0.000000 0.001972 0.000000
# 2 -0.004042 0.028560 -0.003152 0.000000 -0.000078 0.000000
# 3 -0.003127 -0.003152 0.009434 0.000000 -0.002221 0.000000
# 4 0.000000 0.000000 0.000000 0.099955 0.000000 -0.053741
# 5 0.001972 -0.000078 -0.002221 0.000000 0.024868 0.000000
# 6 0.000000 0.000000 0.000000 -0.053741 0.000000 0.077983
#
#
# Mechanical properties :
#
#
# Convention : Reuss Voigt Hill
#
# Bulk Modulus (GPa) = 38.40576 60.22440 49.31508
# Shear Modulus (GPa) = 17.93371 30.07862 24.00616
#
# Velocity S-wave (km/s) = 2.98710 3.86851 3.45602
# Velocity P-wave (km/s) = 5.56826 7.06526 6.36095
#
# Compressibility (1/GPa) = 0.02603776
#
# Stress axis : x y z
#
# Youngs Moduli (GPa) = 115.15566 35.01370 105.99405
#
# Poissons Ratio (x) = 0.14153 0.33141
# Poissons Ratio (y) = 0.46548 0.33405
# Poissons Ratio (z) = 0.36006 0.11035
#
# Static dielectric constant tensor:
#      x y z
#    x 4.178690 0.000000 0.325830 
#    y 0.000000 2.968910 0.000000 
#    z 0.325830 0.000000 4.165500 
# 
# 
# High freq. dielectric constant tensor:
#      x y z
#    x 1.817410 0.000000 0.012640 
#    y 0.000000 1.706550 0.000000 
#    z 0.012640 0.000000 1.792170 
# 
# From -- ./inp_files/84579.got.cif
#   From: 2010.06.25/outbox.cif.g09.slc.cpg/sg13_43_cif.got.tgz:84579.got - 2010.06.28 04:50:58.
