data_PCOD8117568
_publ_section_title
;
Structure prediction by ZEFSAII (Michael W. Deem and Ramdas Pophale) SiO2 
 PCOD8117568
Probable space group: P 2/C
;
_chemical_formula_sum "Si O2"
_cell_formula_units_Z 24
_cell_length_a 11.910151
_cell_length_b 10.642854
_cell_length_c 14.336641
_cell_angle_alpha 90.000000
_cell_angle_beta 138.928368
_cell_angle_gamma 90.000000
_cell_volume 1193.959284
_symmetry_space_group_name_H-M "P 2/C"
_symmetry_group_IT_number 13
_symmetry_cell_setting 'monoclinic'
loop_
_space_group_symop_operation_xyz
x,y,z
-x,y,1/2-z
-x,-y,-z
x,-y,1/2+z
loop_
_atom_site_type_symbol
_atom_site_label
_atom_site_fract_x
_atom_site_fract_y
_atom_site_fract_z
Si Si1 0.816797 0.029149 0.844363
Si Si2 0.000000 0.574098 0.250000
Si Si3 0.111231 0.614495 0.979025
Si Si4 0.781171 0.681358 0.264856
Si Si5 0.868189 0.186767 0.245359
Si Si6 0.408630 0.277843 0.559706
Si Si7 0.500000 0.066407 0.750000
O O1 0.809985 0.174402 0.811159
O O2 0.671863 0.990429 0.830431
O O3 0.786842 0.937219 0.738784
O O4 0.000000 0.000000 0.000000
O O5 0.923912 0.495353 0.116528
O O6 0.853691 0.658996 0.206165
O O7 0.971106 0.724614 0.881153
O O8 0.122800 0.588478 0.098540
O O9 0.305492 0.658097 0.079597
O O10 0.579559 0.647643 0.136580
O O11 0.000000 0.140266 0.250000
O O12 0.714355 0.268855 0.106784
O O13 0.460346 0.142091 0.630669
#
# Coordination Sequence:
#
# PCOD8117568 Si02
#       7
#     4   2   4   4   4   4   2
#     4  11  20  39  63  89 127 162 196 250 307 373
#     4  12  26  40  60  92 120 156 212 260 298 364
#     4  11  19  43  65  82 118 165 207 245 303 369
#     4  11  24  39  62  91 121 159 205 252 309 358
#     4  10  20  35  64  92 117 164 203 236 305 374
#     4  10  18  39  62  88 118 158 209 245 297 370
#     4  10  20  34  60  90 122 158 200 246 302 374
#
# _framework density 20.101188
#
# number of rings (size 3 to 8) (size 9 to 14) (size 15 to 20)
#    0.000    1.333    7.500    1.500    1.167    3.333 
#    3.000    0.000    0.000    0.000    0.000    0.000 
#    0.000    0.000    0.000    0.000    0.000    0.000 
#
# Total GULP energy -297395.796049 kJ/mol
# GULP energy per Si atom -12391.491502 kJ/mol
# Density = 2.005544 g / cm^3
# Si number density = 20.101188 Si / 1000 Ang^3
#
#
#
# Elastic Constant Matrix: (Units=GPa)
#
#
# Indices 1 2 3 4 5 6 
#
# 1 139.8961 27.1290 72.3733 0.0000 4.4212 0.0000
# 2 27.1290 43.3715 18.5485 0.0000 -2.3865 0.0000
# 3 72.3733 18.5485 91.6868 0.0000 13.6430 0.0000
# 4 0.0000 0.0000 0.0000 19.0966 0.0000 -8.0612
# 5 4.4212 -2.3865 13.6430 0.0000 35.5897 0.0000
# 6 0.0000 0.0000 0.0000 -8.0612 0.0000 23.3253
#
#
#
# Elastic Compliance Matrix: (Units=1/GPa)
#
#
# Indices 1 2 3 4 5 6 
#
# 1 0.012795 -0.003794 -0.009606 0.000000 0.001838 0.000000
# 2 -0.003794 0.026878 -0.002949 0.000000 0.003404 0.000000
# 3 -0.009606 -0.002949 0.020083 0.000000 -0.006703 0.000000
# 4 0.000000 0.000000 0.000000 0.061310 0.000000 0.021189
# 5 0.001838 0.003404 -0.006703 0.000000 0.030668 0.000000
# 6 0.000000 0.000000 0.000000 0.021189 0.000000 0.050195
#
#
# Mechanical properties :
#
#
# Convention : Reuss Voigt Hill
#
# Bulk Modulus (GPa) = 36.95721 56.78398 46.87060
# Shear Modulus (GPa) = 20.52146 26.06255 23.29201
#
# Velocity S-wave (km/s) = 3.19863 3.60469 3.40772
# Velocity P-wave (km/s) = 5.66279 6.75540 6.23308
#
# Compressibility (1/GPa) = 0.02705832
#
# Stress axis : x y z
#
# Youngs Moduli (GPa) = 78.15294 37.20450 49.79245
#
# Poissons Ratio (x) = 0.14116 0.47831
# Poissons Ratio (y) = 0.29653 0.14685
# Poissons Ratio (z) = 0.75074 0.10972
#
# Static dielectric constant tensor:
#      x y z
#    x 4.440600 0.000000 0.276030 
#    y 0.000000 3.503940 0.000000 
#    z 0.276030 0.000000 3.843630 
# 
# 
# High freq. dielectric constant tensor:
#      x y z
#    x 1.794630 0.000000 0.009560 
#    y 0.000000 1.747590 0.000000 
#    z 0.009560 0.000000 1.797160 
# 
# From -- ./inp_files/50948.got.cif
#   From: 2010.06.25/outbox.cif.g09.slc.cpg/sg13_26_cif.got.tgz:50948.got - 2010.06.28 04:50:58.
