data_PCOD8117756
_publ_section_title
;
Structure prediction by ZEFSAII (Michael W. Deem and Ramdas Pophale) SiO2 
 PCOD8117756
Probable space group: P 2/C
;
_chemical_formula_sum "Si O2"
_cell_formula_units_Z 26
_cell_length_a 11.216200
_cell_length_b 25.702628
_cell_length_c 5.199401
_cell_angle_alpha 90.000000
_cell_angle_beta 116.792740
_cell_angle_gamma 90.000000
_cell_volume 1337.994611
_symmetry_space_group_name_H-M "P 2/C"
_symmetry_group_IT_number 13
_symmetry_cell_setting 'monoclinic'
loop_
_space_group_symop_operation_xyz
x,y,z
-x,y,1/2-z
-x,-y,-z
x,-y,1/2+z
loop_
_atom_site_type_symbol
_atom_site_label
_atom_site_fract_x
_atom_site_fract_y
_atom_site_fract_z
Si Si1 0.347017 0.802212 0.103327
Si Si2 0.847008 0.966826 0.117372
Si Si3 0.160978 0.296763 0.409051
Si Si4 0.500000 0.534089 0.750000
Si Si5 0.853897 0.351596 0.605459
Si Si6 0.211714 0.464628 0.973757
Si Si7 0.651990 0.129583 0.395478
O O1 0.500000 0.780762 0.250000
O O2 0.319160 0.835320 0.329827
O O3 0.237271 0.757361 0.992565
O O4 0.319918 0.837299 0.830328
O O5 0.000000 0.947461 0.250000
O O6 0.816865 0.991820 0.364449
O O7 0.750894 0.918462 0.988500
O O8 0.214617 0.331525 0.700176
O O9 0.000000 0.288779 0.250000
O O10 0.216355 0.328759 0.216582
O O11 0.500000 0.500000 0.500000
O O12 0.641037 0.563797 0.886543
O O13 0.878720 0.413919 0.620217
O O14 0.000000 0.326368 0.750000
O O15 0.185128 0.498681 0.202380
O O16 0.500000 0.108695 0.250000
#
# Coordination Sequence:
#
# PCOD8117756 Si02
#       7
#     4   4   4   2   4   4   4
#     4  10  21  38  57  82 110 136 181 232 270 317
#     4  10  21  36  54  81 117 151 187 229 265 311
#     4  10  21  38  56  76 107 141 172 218 272 320
#     4   8  16  30  46  66  94 126 158 200 240 288
#     4  10  21  36  53  77 106 134 173 216 259 318
#     4  10  19  33  52  73 102 134 169 209 256 307
#     4  10  21  36  57  82 111 145 181 228 274 317
#
# _framework density 19.432065000000001
#
# number of rings (size 3 to 8) (size 9 to 14) (size 15 to 20)
#    0.000    2.154    0.000    2.769    0.000    2.462 
#    2.769    0.000    0.000    0.000    0.000    0.000 
#    0.000    0.000    0.000    0.000    0.000    0.000 
#
# Total GULP energy -322176.355504 kJ/mol
# GULP energy per Si atom -12391.398289 kJ/mol
# Density = 1.938784 g / cm^3
# Si number density = 19.432065 Si / 1000 Ang^3
#
#
#
# Elastic Constant Matrix: (Units=GPa)
#
#
# Indices 1 2 3 4 5 6 
#
# 1 65.3224 51.4461 58.2473 0.0000 -1.9616 0.0000
# 2 51.4461 122.3498 66.8092 0.0000 5.1979 0.0000
# 3 58.2473 66.8092 141.9505 0.0000 -29.3828 0.0000
# 4 0.0000 0.0000 0.0000 11.4170 0.0000 -23.6048
# 5 -1.9616 5.1979 -29.3828 0.0000 33.5789 0.0000
# 6 0.0000 0.0000 0.0000 -23.6048 0.0000 -13.8530
#
#
#
# Elastic Compliance Matrix: (Units=1/GPa)
#
#
# Indices 1 2 3 4 5 6 
#
# 1 0.029431 -0.006454 -0.010352 0.000000 -0.006340 0.000000
# 2 -0.006454 0.014279 -0.005627 0.000000 -0.007511 0.000000
# 3 -0.010352 -0.005627 0.017091 0.000000 0.015222 0.000000
# 4 0.000000 0.000000 0.000000 0.019365 0.000000 -0.032998
# 5 -0.006340 -0.007511 0.015222 0.000000 0.043893 0.000000
# 6 0.000000 0.000000 0.000000 -0.032998 0.000000 -0.015960
#
#
# Mechanical properties :
#
#
# Convention : Reuss Voigt Hill
#
# Bulk Modulus (GPa) = 62.74562 75.84756 69.29659
# Shear Modulus (GPa) = 31.59034 16.43658 24.01346
#
# Velocity S-wave (km/s) = 4.03635 2.91150 3.51916
# Velocity P-wave (km/s) = 7.35409 7.10066 7.22849
#
# Compressibility (1/GPa) = 0.01593737
#
# Stress axis : x y z
#
# Youngs Moduli (GPa) = 33.97723 70.03522 58.50864
#
# Poissons Ratio (x) = 0.45198 0.60566
# Poissons Ratio (y) = 0.21927 0.32922
# Poissons Ratio (z) = 0.35172 0.39407
#
# Static dielectric constant tensor:
#      x y z
#    x 3.836110 0.000000 -0.053720 
#    y 0.000000 3.185870 0.000000 
#    z -0.053720 0.000000 3.989190 
# 
# 
# High freq. dielectric constant tensor:
#      x y z
#    x 1.761080 0.000000 -0.012590 
#    y 0.000000 1.736920 0.000000 
#    z -0.012590 0.000000 1.781940 
# 
# From -- ./inp_files/4040.got.cif
#   From: 2010.06.25/outbox.cif.g09.slc.cpg/sg13_3_cif.got.tgz:4040.got - 2010.06.28 04:50:58.
