data_PCOD8117292
_publ_section_title
;
Structure prediction by ZEFSAII (Michael W. Deem and Ramdas Pophale) SiO2 
 PCOD8117292
Probable space group: P 2/C
;
_chemical_formula_sum "Si O2"
_cell_formula_units_Z 28
_cell_length_a 8.666149
_cell_length_b 12.654744
_cell_length_c 14.516545
_cell_angle_alpha 90.000000
_cell_angle_beta 112.027322
_cell_angle_gamma 90.000000
_cell_volume 1475.791181
_symmetry_space_group_name_H-M "P 2/C"
_symmetry_group_IT_number 13
_symmetry_cell_setting 'monoclinic'
loop_
_space_group_symop_operation_xyz
x,y,z
-x,y,1/2-z
-x,-y,-z
x,-y,1/2+z
loop_
_atom_site_type_symbol
_atom_site_label
_atom_site_fract_x
_atom_site_fract_y
_atom_site_fract_z
Si Si1 0.626859 0.405078 0.514191
Si Si2 0.657835 0.263800 0.041551
Si Si3 0.327373 0.177513 0.261851
Si Si4 0.838882 0.331895 0.405311
Si Si5 0.927574 0.005798 0.334529
Si Si6 0.898745 0.453030 0.135496
Si Si7 0.919590 0.841676 0.485773
O O1 0.500000 0.500000 0.500000
O O2 0.528357 0.302015 0.530277
O O3 0.675416 0.379424 0.418787
O O4 0.803333 0.434577 0.600792
O O5 0.646666 0.180403 0.122528
O O6 0.762905 0.360791 0.106734
O O7 0.745305 0.215257 0.971484
O O8 0.500000 0.185115 0.250000
O O9 0.212975 0.275609 0.202105
O O10 0.246119 0.066067 0.216865
O O11 0.966532 0.427780 0.414052
O O12 0.930519 0.242904 0.488474
O O13 0.000000 0.981655 0.250000
O O14 0.051447 0.076133 0.424198
O O15 0.897550 0.896349 0.381837
O O16 0.000000 0.463662 0.250000
#
# Coordination Sequence:
#
# PCOD8117292 Si02
#       7
#     4   4   4   4   4   4   4
#     4  10  21  34  52  82 116 147 183 237 285 329
#     4  10  18  34  54  84 116 148 185 235 286 333
#     4  11  19  31  56  86 115 140 184 239 287 336
#     4  10  19  33  56  79 113 147 192 228 277 334
#     4  10  19  35  57  84 112 143 190 239 281 339
#     4  10  19  32  55  81 109 148 193 232 272 329
#     4   9  20  34  57  84 109 149 190 233 286 332
#
# _framework density 18.972873
#
# number of rings (size 3 to 8) (size 9 to 14) (size 15 to 20)
#    0.000    2.000    4.286    0.429    0.000    0.000 
#    0.000    2.857    0.000    1.714    0.000    0.000 
#    0.000    0.000    0.000    0.000    0.000    0.000 
#
# Total GULP energy -346957.762282 kJ/mol
# GULP energy per Si atom -12391.348653 kJ/mol
# Density = 1.892969 g / cm^3
# Si number density = 18.972873 Si / 1000 Ang^3
#
#
#
# Elastic Constant Matrix: (Units=GPa)
#
#
# Indices 1 2 3 4 5 6 
#
# 1 123.3037 48.7340 37.8274 0.0000 -5.3504 0.0000
# 2 48.7340 76.6864 50.3795 0.0000 0.6316 0.0000
# 3 37.8274 50.3795 77.9704 0.0000 -8.7187 0.0000
# 4 0.0000 0.0000 0.0000 19.7532 0.0000 -3.0406
# 5 -5.3504 0.6316 -8.7187 0.0000 27.7168 0.0000
# 6 0.0000 0.0000 0.0000 -3.0406 0.0000 29.2951
#
#
#
# Elastic Compliance Matrix: (Units=1/GPa)
#
#
# Indices 1 2 3 4 5 6 
#
# 1 0.011016 -0.006340 -0.001030 0.000000 0.001947 0.000000
# 2 -0.006340 0.027086 -0.015165 0.000000 -0.006611 0.000000
# 3 -0.001030 -0.015165 0.023984 0.000000 0.007691 0.000000
# 4 0.000000 0.000000 0.000000 0.051447 0.000000 0.005340
# 5 0.001947 -0.006611 0.007691 0.000000 0.039025 0.000000
# 6 0.000000 0.000000 0.000000 0.005340 0.000000 0.034690
#
#
# Mechanical properties :
#
#
# Convention : Reuss Voigt Hill
#
# Bulk Modulus (GPa) = 58.76813 61.31579 60.04196
# Shear Modulus (GPa) = 21.00925 24.75432 22.88179
#
# Velocity S-wave (km/s) = 3.33127 3.61601 3.47656
# Velocity P-wave (km/s) = 6.77042 7.05846 6.91594
#
# Compressibility (1/GPa) = 0.01701603
#
# Stress axis : x y z
#
# Youngs Moduli (GPa) = 90.77332 36.91912 41.69469
#
# Poissons Ratio (x) = 0.23407 0.04296
# Poissons Ratio (y) = 0.57550 0.63229
# Poissons Ratio (z) = 0.09353 0.55987
#
# Static dielectric constant tensor:
#      x y z
#    x 3.716880 0.000000 0.103270 
#    y 0.000000 3.533990 0.000000 
#    z 0.103270 0.000000 3.328990 
# 
# 
# High freq. dielectric constant tensor:
#      x y z
#    x 1.752560 0.000000 -0.005410 
#    y 0.000000 1.719910 0.000000 
#    z -0.005410 0.000000 1.705320 
# 
# From -- ./inp_files/46982.got.cif
#   From: 2010.06.25/outbox.cif.g09.slc.cpg/sg13_24_cif.got.tgz:46982.got - 2010.06.28 04:50:58.
