data_PCOD8117832
_publ_section_title
;
Structure prediction by ZEFSAII (Michael W. Deem and Ramdas Pophale) SiO2 
 PCOD8117832
Probable space group: P 2/C
;
_chemical_formula_sum "Si O2"
_cell_formula_units_Z 28
_cell_length_a 8.349238
_cell_length_b 16.368906
_cell_length_c 18.063893
_cell_angle_alpha 90.000000
_cell_angle_beta 33.683627
_cell_angle_gamma 90.000000
_cell_volume 1369.187517
_symmetry_space_group_name_H-M "P 2/C"
_symmetry_group_IT_number 13
_symmetry_cell_setting 'monoclinic'
loop_
_space_group_symop_operation_xyz
x,y,z
-x,y,1/2-z
-x,-y,-z
x,-y,1/2+z
loop_
_atom_site_type_symbol
_atom_site_label
_atom_site_fract_x
_atom_site_fract_y
_atom_site_fract_z
Si Si1 0.860057 0.181893 0.469823
Si Si2 0.560460 0.364419 0.372659
Si Si3 0.169138 0.353197 0.074980
Si Si4 0.318505 0.477313 0.895171
Si Si5 0.202446 0.197114 0.489932
Si Si6 0.674843 0.109602 0.758328
Si Si7 0.657081 0.072632 0.267324
O O1 0.791171 0.257638 0.445403
O O2 0.538170 0.150220 0.602518
O O3 0.043531 0.205475 0.472109
O O4 0.035246 0.115980 0.355706
O O5 0.671183 0.380631 0.412467
O O6 0.404490 0.446986 0.412125
O O7 0.348643 0.285151 0.450442
O O8 0.822715 0.362630 0.213163
O O9 0.315423 0.396667 0.947782
O O10 0.500000 0.461327 0.750000
O O11 0.000000 0.500000 0.000000
O O12 0.445903 0.126538 0.399867
O O13 0.961244 0.166316 0.641418
O O14 0.500000 0.103083 0.750000
O O15 0.734797 0.018166 0.765950
O O16 0.500000 0.065095 0.250000
#
# Coordination Sequence:
#
# PCOD8117832 Si02
#       7
#     4   4   4   4   4   4   4
#     4  10  19  33  58  87 120 159 207 259 302 359
#     4  11  24  43  65  92 128 167 204 247 310 377
#     4  11  24  43  65  92 129 165 204 249 309 376
#     4  12  25  44  71  98 124 155 204 257 306 365
#     4  10  19  33  60  88 116 164 211 253 303 365
#     4   9  18  31  50  88 126 153 201 265 315 347
#     4   9  16  29  54  84 119 160 204 257 310 358
#
# _framework density 20.450085000000001
#
# number of rings (size 3 to 8) (size 9 to 14) (size 15 to 20)
#    0.000    1.714    2.857    2.143    0.000    6.286 
#    0.000    2.143    0.000    5.143    0.000    0.000 
#    0.000    0.000    0.000    0.000    0.000    0.000 
#
# Total GULP energy -346922.887957 kJ/mol
# GULP energy per Si atom -12390.103141 kJ/mol
# Density = 2.040354 g / cm^3
# Si number density = 20.450085 Si / 1000 Ang^3
#
#
#
# Elastic Constant Matrix: (Units=GPa)
#
#
# Indices 1 2 3 4 5 6 
#
# 1 45.3606 38.2334 42.3313 0.0000 0.6135 0.0000
# 2 38.2334 248.5877 124.5336 0.0000 -5.4671 0.0000
# 3 42.3313 124.5336 208.3221 0.0000 -7.3733 0.0000
# 4 0.0000 0.0000 0.0000 41.5055 0.0000 -7.1899
# 5 0.6135 -5.4671 -7.3733 0.0000 21.0365 0.0000
# 6 0.0000 0.0000 0.0000 -7.1899 0.0000 15.4258
#
#
#
# Elastic Compliance Matrix: (Units=1/GPa)
#
#
# Indices 1 2 3 4 5 6 
#
# 1 0.028115 -0.002105 -0.004559 0.000000 -0.002965 0.000000
# 2 -0.002105 0.005902 -0.003082 0.000000 0.000515 0.000000
# 3 -0.004559 -0.003082 0.007640 0.000000 0.002010 0.000000
# 4 0.000000 0.000000 0.000000 0.026209 0.000000 0.012216
# 5 -0.002965 0.000515 0.002010 0.000000 0.048461 0.000000
# 6 0.000000 0.000000 0.000000 0.012216 0.000000 0.070520
#
#
# Mechanical properties :
#
#
# Convention : Reuss Voigt Hill
#
# Bulk Modulus (GPa) = 45.11881 101.38522 73.25202
# Shear Modulus (GPa) = 23.39407 35.40504 29.39956
#
# Velocity S-wave (km/s) = 3.38592 4.16539 3.79572
# Velocity P-wave (km/s) = 6.11528 8.53338 7.42345
#
# Compressibility (1/GPa) = 0.02216370
#
# Stress axis : x y z
#
# Youngs Moduli (GPa) = 35.56807 169.43836 130.88446
#
# Poissons Ratio (x) = 0.35671 0.59676
# Poissons Ratio (y) = 0.07488 0.40340
# Poissons Ratio (z) = 0.16217 0.52222
#
# Static dielectric constant tensor:
#      x y z
#    x 3.291600 0.000000 -0.103780 
#    y 0.000000 3.821190 0.000000 
#    z -0.103780 0.000000 3.706360 
# 
# 
# High freq. dielectric constant tensor:
#      x y z
#    x 1.769440 0.000000 -0.009390 
#    y 0.000000 1.813480 0.000000 
#    z -0.009390 0.000000 1.811100 
# 
# From -- ./inp_files/76715.got.cif
#   From: 2010.06.25/outbox.cif.g09.slc.cpg/sg13_39_cif.got.tgz:76715.got - 2010.06.28 04:50:58.
