data_PCOD8117502
_publ_section_title
;
Structure prediction by ZEFSAII (Michael W. Deem and Ramdas Pophale) SiO2 
 PCOD8117502
Probable space group: P 2/C
;
_chemical_formula_sum "Si O2"
_cell_formula_units_Z 30
_cell_length_a 14.436817
_cell_length_b 8.464826
_cell_length_c 16.307152
_cell_angle_alpha 90.000000
_cell_angle_beta 48.114699
_cell_angle_gamma 90.000000
_cell_volume 1483.618720
_symmetry_space_group_name_H-M "P 2/C"
_symmetry_group_IT_number 13
_symmetry_cell_setting 'monoclinic'
loop_
_space_group_symop_operation_xyz
x,y,z
-x,y,1/2-z
-x,-y,-z
x,-y,1/2+z
loop_
_atom_site_type_symbol
_atom_site_label
_atom_site_fract_x
_atom_site_fract_y
_atom_site_fract_z
Si Si1 0.274195 0.584893 0.399628
Si Si2 0.000000 0.658626 0.750000
Si Si3 0.620683 0.591550 0.897546
Si Si4 0.243239 0.192499 0.068326
Si Si5 0.210296 0.665722 0.261559
Si Si6 0.457934 0.334112 0.355659
Si Si7 0.935889 0.392554 0.910232
Si Si8 0.756343 0.173243 0.918177
O O1 0.243661 0.727711 0.478853
O O2 0.287382 0.662502 0.301110
O O3 0.399344 0.499269 0.356949
O O4 0.165133 0.449315 0.462611
O O5 0.882195 0.772180 0.807218
O O6 0.977172 0.550601 0.841240
O O7 0.643413 0.739939 0.943876
O O8 0.745793 0.483632 0.821077
O O9 0.589518 0.641738 0.823468
O O10 0.500000 0.500000 0.000000
O O11 0.250892 0.006774 0.050661
O O12 0.241522 0.813468 0.182794
O O13 0.064119 0.673729 0.372436
O O14 0.500000 0.234305 0.250000
O O15 0.367265 0.249204 0.471787
O O16 0.877320 0.261626 0.883773
#
# Coordination Sequence:
#
# PCOD8117502 Si02
#       8
#     4   2   4   4   4   4   4   4
#     4  10  22  38  63  91 125 158 223 271 306 365
#     4  10  18  36  68  84 118 168 220 256 296 374
#     4  12  21  40  67  89 118 162 226 257 301 380
#     4  11  24  41  60  95 132 168 206 262 328 380
#     4  12  20  38  65  93 118 166 218 267 313 374
#     4  11  22  42  65  92 121 167 213 269 313 371
#     4  10  19  39  62  91 119 167 213 263 314 373
#     4  11  24  40  63  92 136 166 205 263 335 389
#
# _framework density 20.220828999999998
#
# number of rings (size 3 to 8) (size 9 to 14) (size 15 to 20)
#    0.000    1.067    6.667    1.200    1.867    0.533 
#    2.400    1.333    0.000    0.000    0.000    0.000 
#    0.000    0.000    0.000    0.000    0.000    0.000 
#
# Total GULP energy -371784.409146 kJ/mol
# GULP energy per Si atom -12392.813638 kJ/mol
# Density = 2.017481 g / cm^3
# Si number density = 20.220829 Si / 1000 Ang^3
#
#
#
# Elastic Constant Matrix: (Units=GPa)
#
#
# Indices 1 2 3 4 5 6 
#
# 1 97.7719 40.0394 35.4684 0.0000 5.2704 0.0000
# 2 40.0394 94.1339 25.2971 0.0000 5.2443 0.0000
# 3 35.4684 25.2971 88.1501 0.0000 5.7029 0.0000
# 4 0.0000 0.0000 0.0000 10.2663 0.0000 4.3955
# 5 5.2704 5.2443 5.7029 0.0000 40.7733 0.0000
# 6 0.0000 0.0000 0.0000 4.3955 0.0000 16.1493
#
#
#
# Elastic Compliance Matrix: (Units=1/GPa)
#
#
# Indices 1 2 3 4 5 6 
#
# 1 0.013668 -0.004674 -0.004120 0.000000 -0.000589 0.000000
# 2 -0.004674 0.013152 -0.001840 0.000000 -0.000830 0.000000
# 3 -0.004120 -0.001840 0.013604 0.000000 -0.001133 0.000000
# 4 0.000000 0.000000 0.000000 0.110254 0.000000 -0.030009
# 5 -0.000589 -0.000830 -0.001133 0.000000 0.024867 0.000000
# 6 0.000000 0.000000 0.000000 -0.030009 0.000000 0.070090
#
#
# Mechanical properties :
#
#
# Convention : Reuss Voigt Hill
#
# Bulk Modulus (GPa) = 52.20386 53.51841 52.86113
# Shear Modulus (GPa) = 18.29573 25.38784 21.84178
#
# Velocity S-wave (km/s) = 3.01125 3.54719 3.29015
# Velocity P-wave (km/s) = 6.16142 6.58036 6.37433
#
# Compressibility (1/GPa) = 0.01915567
#
# Stress axis : x y z
#
# Youngs Moduli (GPa) = 73.16194 76.03507 73.51039
#
# Poissons Ratio (x) = 0.35536 0.30288
# Poissons Ratio (y) = 0.34193 0.13526
# Poissons Ratio (z) = 0.30145 0.13991
#
# Static dielectric constant tensor:
#      x y z
#    x 4.067480 0.000000 -0.233330 
#    y 0.000000 3.326680 0.000000 
#    z -0.233330 0.000000 3.988700 
# 
# 
# High freq. dielectric constant tensor:
#      x y z
#    x 1.793630 0.000000 -0.007760 
#    y 0.000000 1.745920 0.000000 
#    z -0.007760 0.000000 1.805090 
# 
# From -- ./inp_files/67962.got.cif
#   From: 2010.06.25/outbox.cif.g09.slc.cpg/sg13_34_cif.got.tgz:67962.got - 2010.06.28 04:50:58.
