data_PCOD8117981
_publ_section_title
;
Structure prediction by ZEFSAII (Michael W. Deem and Ramdas Pophale) SiO2 
 PCOD8117981
Probable space group: P 2/C
;
_chemical_formula_sum "Si O2"
_cell_formula_units_Z 18
_cell_length_a 17.179839
_cell_length_b 8.414926
_cell_length_c 15.430452
_cell_angle_alpha 90.000000
_cell_angle_beta 26.078381
_cell_angle_gamma 90.000000
_cell_volume 980.631887
_symmetry_space_group_name_H-M "P 2/C"
_symmetry_group_IT_number 13
_symmetry_cell_setting 'monoclinic'
loop_
_space_group_symop_operation_xyz
x,y,z
-x,y,1/2-z
-x,-y,-z
x,-y,1/2+z
loop_
_atom_site_type_symbol
_atom_site_label
_atom_site_fract_x
_atom_site_fract_y
_atom_site_fract_z
Si Si1 0.999996 0.210891 0.346218
Si Si2 0.702587 0.578994 0.205973
Si Si3 0.000000 0.093311 0.750000
Si Si4 0.297388 0.578984 0.611181
Si Si5 0.296274 0.351021 0.453733
O O1 0.175185 0.266322 0.222143
O O2 0.000000 0.289195 0.250000
O O3 0.824791 0.266310 0.572536
O O4 0.000016 0.018997 0.336219
O O5 0.499988 0.636416 0.401935
O O6 0.745228 0.499982 0.254758
O O7 0.748741 0.451439 0.086409
O O8 0.177507 0.194973 0.572488
O O9 0.251245 0.451396 0.583932
O O10 0.500000 0.295958 0.250000
#
# Coordination Sequence:
#
# PCOD8117981 Si02
#       5
#     4   4   2   4   4
#     4  10  20  34  55  78 106 144 175 215 264 317
#     4  10  20  36  60  83 103 137 184 229 268 308
#     4  10  22  34  52  80 110 150 178 200 274 330
#     4  10  20  36  60  83 103 137 184 229 268 308
#     4  10  19  35  55  77 109 140 176 226 266 314
#
# _framework density 18.355512000000001
#
# number of rings (size 3 to 8) (size 9 to 14) (size 15 to 20)
#    0.667    1.333    2.222    2.000    0.000    1.778 
#    0.000    4.444    0.000    8.000    0.000    0.000 
#    0.000    0.000    0.000    0.000    0.000    0.000 
#
# Total GULP energy -223180.642684 kJ/mol
# GULP energy per Si atom -12398.924594 kJ/mol
# Density = 1.831373 g / cm^3
# Si number density = 18.355512 Si / 1000 Ang^3
#
#
#
# Elastic Constant Matrix: (Units=GPa)
#
#
# Indices 1 2 3 4 5 6 
#
# 1 94.9351 44.0395 52.9652 0.0000 12.5597 0.0000
# 2 44.0395 105.6368 56.0921 0.0000 -12.4881 0.0000
# 3 52.9652 56.0921 91.6220 0.0000 -9.3034 0.0000
# 4 0.0000 0.0000 0.0000 16.3177 0.0000 -5.4683
# 5 12.5597 -12.4881 -9.3034 0.0000 37.3333 0.0000
# 6 0.0000 0.0000 0.0000 -5.4683 0.0000 11.0250
#
#
#
# Elastic Compliance Matrix: (Units=1/GPa)
#
#
# Indices 1 2 3 4 5 6 
#
# 1 0.019129 -0.004087 -0.009591 0.000000 -0.010192 0.000000
# 2 -0.004087 0.015153 -0.006423 0.000000 0.004843 0.000000
# 3 -0.009591 -0.006423 0.021032 0.000000 0.006319 0.000000
# 4 0.000000 0.000000 0.000000 0.073500 0.000000 0.036455
# 5 -0.010192 0.004843 0.006319 0.000000 0.033409 0.000000
# 6 0.000000 0.000000 0.000000 0.036455 0.000000 0.108785
#
#
# Mechanical properties :
#
#
# Convention : Reuss Voigt Hill
#
# Bulk Modulus (GPa) = 66.16611 66.48752 66.32681
# Shear Modulus (GPa) = 15.81047 22.20835 19.00941
#
# Velocity S-wave (km/s) = 2.93806 3.48214 3.22160
# Velocity P-wave (km/s) = 6.90180 7.24346 7.07469
#
# Compressibility (1/GPa) = 0.01511348
#
# Stress axis : x y z
#
# Youngs Moduli (GPa) = 52.27759 65.99324 47.54579
#
# Poissons Ratio (x) = 0.26971 0.45600
# Poissons Ratio (y) = 0.21365 0.30536
# Poissons Ratio (z) = 0.50139 0.42384
#
# Static dielectric constant tensor:
#      x y z
#    x 3.476700 0.000000 -0.012480 
#    y 0.000000 3.024870 0.000000 
#    z -0.012480 0.000000 3.488490 
# 
# 
# High freq. dielectric constant tensor:
#      x y z
#    x 1.718760 0.000000 -0.006410 
#    y 0.000000 1.683200 0.000000 
#    z -0.006410 0.000000 1.724950 
# 
# From -- ./inp_files/54804.got.cif
#   From: 2010.06.25/outbox.cif.g09.slc.cpg/sg13_28_cif.got.tgz:54804.got - 2010.06.28 04:50:58.
