data_PCOD8117162
_publ_section_title
;
Structure prediction by ZEFSAII (Michael W. Deem and Ramdas Pophale) SiO2 
 PCOD8117162
Probable space group: P 2/C
;
_chemical_formula_sum "Si O2"
_cell_formula_units_Z 28
_cell_length_a 9.568079
_cell_length_b 9.535310
_cell_length_c 27.847002
_cell_angle_alpha 90.000000
_cell_angle_beta 143.491576
_cell_angle_gamma 90.000000
_cell_volume 1511.513017
_symmetry_space_group_name_H-M "P 2/C"
_symmetry_group_IT_number 13
_symmetry_cell_setting 'monoclinic'
loop_
_space_group_symop_operation_xyz
x,y,z
-x,y,1/2-z
-x,-y,-z
x,-y,1/2+z
loop_
_atom_site_type_symbol
_atom_site_label
_atom_site_fract_x
_atom_site_fract_y
_atom_site_fract_z
Si Si1 0.716984 0.134277 0.424686
Si Si2 0.470177 0.863574 0.522825
Si Si3 0.214207 0.852516 0.100125
Si Si4 0.407633 0.326008 0.278400
Si Si5 0.595089 0.357191 0.722598
Si Si6 0.005678 0.837978 0.146902
Si Si7 0.023852 0.141663 0.313863
O O1 0.615146 0.094903 0.448092
O O2 0.596712 0.268205 0.368025
O O3 0.993213 0.169303 0.503917
O O4 0.661305 0.000217 0.376466
O O5 0.725926 0.791608 0.599254
O O6 0.258508 0.777852 0.437867
O O7 0.500000 0.000000 0.500000
O O8 0.395962 0.727429 0.138089
O O9 0.143051 0.865082 0.135649
O O10 0.500000 0.318536 0.250000
O O11 0.367815 0.484944 0.285357
O O12 0.168677 0.238361 0.214403
O O13 0.500000 0.360280 0.750000
O O14 0.846893 0.281013 0.784780
O O15 0.999349 0.980523 0.175917
O O16 0.000000 0.147758 0.250000
#
# Coordination Sequence:
#
# PCOD8117162 Si02
#       7
#     4   4   4   4   4   4   4
#     4  10  18  32  55  84 111 140 185 235 279 323
#     4   9  19  34  55  79 110 143 181 227 282 328
#     4   9  18  32  56  85 111 135 186 235 277 324
#     4  11  22  35  55  80 113 150 188 226 274 331
#     4   9  19  35  53  79 112 150 184 225 278 332
#     4   9  18  35  57  79 107 146 181 232 279 321
#     4  11  20  34  57  83 111 144 185 228 280 329
#
# _framework density 18.524486
#
# number of rings (size 3 to 8) (size 9 to 14) (size 15 to 20)
#    0.000    2.286    1.429    1.714    0.000    2.857 
#    0.000    1.429    0.000    0.000    0.000    0.000 
#    0.000    0.000    0.000    0.000    0.000    0.000 
#
# Total GULP energy -346988.194100 kJ/mol
# GULP energy per Si atom -12392.435504 kJ/mol
# Density = 1.848232 g / cm^3
# Si number density = 18.524486 Si / 1000 Ang^3
#
#
#
# Elastic Constant Matrix: (Units=GPa)
#
#
# Indices 1 2 3 4 5 6 
#
# 1 66.1433 37.5031 44.2954 0.0000 8.6281 0.0000
# 2 37.5031 125.3822 70.7063 0.0000 13.7562 0.0000
# 3 44.2954 70.7063 135.3566 0.0000 26.8202 0.0000
# 4 0.0000 0.0000 0.0000 18.6240 0.0000 -1.9680
# 5 8.6281 13.7562 26.8202 0.0000 31.1597 0.0000
# 6 0.0000 0.0000 0.0000 -1.9680 0.0000 16.4508
#
#
#
# Elastic Compliance Matrix: (Units=1/GPa)
#
#
# Indices 1 2 3 4 5 6 
#
# 1 0.020278 -0.003293 -0.004933 0.000000 0.000084 0.000000
# 2 -0.003293 0.011841 -0.005127 0.000000 0.000097 0.000000
# 3 -0.004933 -0.005127 0.013215 0.000000 -0.007745 0.000000
# 4 0.000000 0.000000 0.000000 0.054382 0.000000 0.006506
# 5 0.000084 0.000097 -0.007745 0.000000 0.038693 0.000000
# 6 0.000000 0.000000 0.000000 0.006506 0.000000 0.061566
#
#
# Mechanical properties :
#
#
# Convention : Reuss Voigt Hill
#
# Bulk Modulus (GPa) = 53.68012 70.21020 61.94516
# Shear Modulus (GPa) = 21.46937 24.87205 23.17071
#
# Velocity S-wave (km/s) = 3.40806 3.66820 3.54052
# Velocity P-wave (km/s) = 6.67288 7.47827 7.08703
#
# Compressibility (1/GPa) = 0.01862887
#
# Stress axis : x y z
#
# Youngs Moduli (GPa) = 49.31435 84.45036 75.67140
#
# Poissons Ratio (x) = 0.27810 0.37325
# Poissons Ratio (y) = 0.16240 0.38798
# Poissons Ratio (z) = 0.24324 0.43299
#
# Static dielectric constant tensor:
#      x y z
#    x 3.411290 0.000000 0.327060 
#    y 0.000000 3.374640 0.000000 
#    z 0.327060 0.000000 3.918570 
# 
# 
# High freq. dielectric constant tensor:
#      x y z
#    x 1.713010 0.000000 0.012760 
#    y 0.000000 1.689650 0.000000 
#    z 0.012760 0.000000 1.739010 
# 
# From -- ./inp_files/91458.got.cif
#   From: 2010.06.25/outbox.cif.g09.slc.cpg/sg13_46_cif.got.tgz:91458.got - 2010.06.28 04:50:58.
