data_PCOD8117010
_publ_section_title
;
Structure prediction by ZEFSAII (Michael W. Deem and Ramdas Pophale) SiO2 
 PCOD8117010
Probable space group: P 2/C
;
_chemical_formula_sum "Si O2"
_cell_formula_units_Z 30
_cell_length_a 16.799051
_cell_length_b 10.813957
_cell_length_c 9.500024
_cell_angle_alpha 90.000000
_cell_angle_beta 105.209430
_cell_angle_gamma 90.000000
_cell_volume 1665.364871
_symmetry_space_group_name_H-M "P 2/C"
_symmetry_group_IT_number 13
_symmetry_cell_setting 'monoclinic'
loop_
_space_group_symop_operation_xyz
x,y,z
-x,y,1/2-z
-x,-y,-z
x,-y,1/2+z
loop_
_atom_site_type_symbol
_atom_site_label
_atom_site_fract_x
_atom_site_fract_y
_atom_site_fract_z
Si Si1 0.792349 0.908039 0.393694
Si Si2 0.507802 0.876999 0.414284
Si Si3 0.319815 0.855684 0.927346
Si Si4 0.026607 0.117885 0.600233
Si Si5 0.665194 0.139442 0.598379
Si Si6 0.000000 0.502139 0.750000
Si Si7 0.074040 0.347150 0.030669
Si Si8 0.234966 0.808189 0.607413
O O1 0.765956 0.837083 0.525190
O O2 0.875753 0.857053 0.363955
O O3 0.715662 0.870122 0.264244
O O4 0.806020 0.055461 0.420289
O O5 0.500000 0.917319 0.250000
O O6 0.592006 0.796874 0.482308
O O7 0.424791 0.799310 0.415769
O O8 0.500000 0.000000 0.500000
O O9 0.300184 0.804690 0.764750
O O10 0.341343 0.999675 0.961099
O O11 0.000000 0.103665 0.750000
O O12 0.987689 0.233359 0.504391
O O13 0.000000 0.000000 0.500000
O O14 0.712931 0.222921 0.507510
O O15 0.055640 0.579974 0.666703
O O16 0.938322 0.422984 0.621245
O O17 0.167075 0.298505 0.087144
#
# Coordination Sequence:
#
# PCOD8117010 Si02
#       8
#     4   4   4   4   4   2   4   4
#     4  10  19  31  47  78 111 146 188 226 280 334
#     4  10  18  29  43  67 105 158 199 216 261 334
#     4   9  19  29  46  73 107 148 189 224 270 335
#     4  12  25  35  56  87 116 152 193 240 299 351
#     4   9  18  29  46  69 111 149 181 228 270 332
#     4  10  26  44  62  78 104 166 198 256 294 354
#     4  11  23  44  61  81 114 149 202 246 299 344
#     4  10  20  33  52  77 109 142 182 240 282 334
#
# _framework density 18.014071000000001
#
# number of rings (size 3 to 8) (size 9 to 14) (size 15 to 20)
#    0.000    1.867    3.333    0.800   12.133    0.000 
#    0.000    0.000    0.000    0.000    0.000    0.000 
#    0.000    4.267    0.000    0.000    0.000    0.000 
#
# Total GULP energy -371649.224099 kJ/mol
# GULP energy per Si atom -12388.307470 kJ/mol
# Density = 1.797307 g / cm^3
# Si number density = 18.014071 Si / 1000 Ang^3
#
#
#
# Elastic Constant Matrix: (Units=GPa)
#
#
# Indices 1 2 3 4 5 6 
#
# 1 142.8184 31.6393 33.7154 0.0000 0.2804 0.0000
# 2 31.6393 56.1247 33.9297 0.0000 1.3884 0.0000
# 3 33.7154 33.9297 91.3514 0.0000 -9.9540 0.0000
# 4 0.0000 0.0000 0.0000 17.6149 0.0000 -2.6473
# 5 0.2804 1.3884 -9.9540 0.0000 32.5322 0.0000
# 6 0.0000 0.0000 0.0000 -2.6473 0.0000 11.8752
#
#
#
# Elastic Compliance Matrix: (Units=1/GPa)
#
#
# Indices 1 2 3 4 5 6 
#
# 1 0.008205 -0.003550 -0.001759 0.000000 -0.000458 0.000000
# 2 -0.003550 0.024955 -0.008350 0.000000 -0.003589 0.000000
# 3 -0.001759 -0.008350 0.015246 0.000000 0.005036 0.000000
# 4 0.000000 0.000000 0.000000 0.058738 0.000000 0.013094
# 5 -0.000458 -0.003589 0.005036 0.000000 0.032437 0.000000
# 6 0.000000 0.000000 0.000000 0.013094 0.000000 0.087128
#
#
# Mechanical properties :
#
#
# Convention : Reuss Voigt Hill
#
# Bulk Modulus (GPa) = 47.42151 54.31816 50.86983
# Shear Modulus (GPa) = 19.15288 25.13846 22.14567
#
# Velocity S-wave (km/s) = 3.26424 3.73968 3.51002
# Velocity P-wave (km/s) = 6.37094 6.99039 6.68784
#
# Compressibility (1/GPa) = 0.02108747
#
# Stress axis : x y z
#
# Youngs Moduli (GPa) = 121.88226 40.07147 65.59061
#
# Poissons Ratio (x) = 0.14227 0.11539
# Poissons Ratio (y) = 0.43272 0.54766
# Poissons Ratio (z) = 0.21443 0.33458
#
# Static dielectric constant tensor:
#      x y z
#    x 3.887230 0.000000 -0.016870 
#    y 0.000000 2.882860 0.000000 
#    z -0.016870 0.000000 3.443790 
# 
# 
# High freq. dielectric constant tensor:
#      x y z
#    x 1.720460 0.000000 -0.003150 
#    y 0.000000 1.617620 0.000000 
#    z -0.003150 0.000000 1.718860 
# 
# From -- ./inp_files/21614.got.cif
#   From: 2010.06.25/outbox.cif.g09.slc.cpg/sg13_11_cif.got.tgz:21614.got - 2010.06.28 04:50:58.
