data_PCOD8117690
_publ_section_title
;
Structure prediction by ZEFSAII (Michael W. Deem and Ramdas Pophale) SiO2 
 PCOD8117690
Probable space group: P 2/C
;
_chemical_formula_sum "Si O2"
_cell_formula_units_Z 32
_cell_length_a 15.731400
_cell_length_b 5.064703
_cell_length_c 20.994744
_cell_angle_alpha 90.000000
_cell_angle_beta 65.588183
_cell_angle_gamma 90.000000
_cell_volume 1523.206704
_symmetry_space_group_name_H-M "P 2/C"
_symmetry_group_IT_number 13
_symmetry_cell_setting 'monoclinic'
loop_
_space_group_symop_operation_xyz
x,y,z
-x,y,1/2-z
-x,-y,-z
x,-y,1/2+z
loop_
_atom_site_type_symbol
_atom_site_label
_atom_site_fract_x
_atom_site_fract_y
_atom_site_fract_z
Si Si1 0.166975 0.072992 0.040443
Si Si2 0.900935 0.580062 0.503711
Si Si3 0.270653 0.575472 0.852419
Si Si4 0.659096 0.930613 0.104274
Si Si5 0.425623 0.217738 0.509267
Si Si6 0.741845 0.038059 0.866893
Si Si7 0.305076 0.467648 0.199845
Si Si8 0.498029 0.570443 0.392791
O O1 0.130768 0.366813 0.038664
O O2 0.268110 0.046719 0.975570
O O3 0.094904 0.861999 0.032820
O O4 0.167354 0.029358 0.117753
O O5 0.830316 0.604987 0.584664
O O6 0.000000 0.500000 0.500000
O O7 0.314583 0.293264 0.853353
O O8 0.254992 0.595218 0.781773
O O9 0.343860 0.797815 0.854534
O O10 0.557453 0.839812 0.107045
O O11 0.324467 0.102573 0.552837
O O12 0.425813 0.331937 0.435272
O O13 0.442661 0.433203 0.559317
O O14 0.500000 0.000000 0.500000
O O15 0.747900 0.282866 0.816127
O O16 0.705877 0.785329 0.840857
O O17 0.416461 0.514831 0.182193
#
# Coordination Sequence:
#
# PCOD8117690 Si02
#       8
#     4   4   4   4   4   4   4   4
#     4  10  21  36  61  95 116 141 193 243 302 344
#     4  10  21  40  67  92 115 145 185 245 304 361
#     4  10  23  41  59  83 115 159 199 240 301 366
#     4  10  22  36  59  80 116 155 201 258 289 334
#     4  10  19  32  50  78 115 151 202 247 293 328
#     4  11  22  35  60  83 118 158 194 251 289 352
#     4  11  23  39  55  81 120 166 204 232 299 356
#     4  10  22  32  51  81 112 158 202 249 287 333
#
# _framework density 21.008313000000001
#
# number of rings (size 3 to 8) (size 9 to 14) (size 15 to 20)
#    0.000    1.750    1.250    2.625   10.500    0.500 
#    0.000    1.250    0.000    4.500    0.000    0.000 
#    0.000    0.000    0.000    0.000    0.000    0.000 
#
# Total GULP energy -396467.001613 kJ/mol
# GULP energy per Si atom -12389.593800 kJ/mol
# Density = 2.096050 g / cm^3
# Si number density = 21.008313 Si / 1000 Ang^3
#
#
#
# Elastic Constant Matrix: (Units=GPa)
#
#
# Indices 1 2 3 4 5 6 
#
# 1 79.0568 19.9111 50.4066 0.0000 12.9289 0.0000
# 2 19.9111 109.6445 46.1828 0.0000 10.4381 0.0000
# 3 50.4066 46.1828 76.1886 0.0000 18.2672 0.0000
# 4 0.0000 0.0000 0.0000 24.4219 0.0000 6.9040
# 5 12.9289 10.4381 18.2672 0.0000 22.0619 0.0000
# 6 0.0000 0.0000 0.0000 6.9040 0.0000 30.9496
#
#
#
# Elastic Compliance Matrix: (Units=1/GPa)
#
#
# Indices 1 2 3 4 5 6 
#
# 1 0.022580 0.002936 -0.016486 0.000000 -0.000971 0.000000
# 2 0.002936 0.012633 -0.009675 0.000000 0.000314 0.000000
# 3 -0.016486 -0.009675 0.033043 0.000000 -0.013121 0.000000
# 4 0.000000 0.000000 0.000000 0.043703 0.000000 -0.009749
# 5 -0.000971 0.000314 -0.013121 0.000000 0.056612 0.000000
# 6 0.000000 0.000000 0.000000 -0.009749 0.000000 0.034485
#
#
# Mechanical properties :
#
#
# Convention : Reuss Voigt Hill
#
# Bulk Modulus (GPa) = 45.85949 55.32120 50.59035
# Shear Modulus (GPa) = 19.47249 25.37932 22.42590
#
# Velocity S-wave (km/s) = 3.04780 3.47949 3.27077
# Velocity P-wave (km/s) = 5.85338 6.52170 6.19656
#
# Compressibility (1/GPa) = 0.02180574
#
# Stress axis : x y z
#
# Youngs Moduli (GPa) = 44.28747 79.16078 30.26393
#
# Poissons Ratio (x) = -0.23240 0.49892
# Poissons Ratio (y) = -0.13002 0.29280
# Poissons Ratio (z) = 0.73010 0.76587
#
# Static dielectric constant tensor:
#      x y z
#    x 3.673490 0.000000 0.212280 
#    y 0.000000 4.205490 0.000000 
#    z 0.212280 0.000000 3.775250 
# 
# 
# High freq. dielectric constant tensor:
#      x y z
#    x 1.798720 0.000000 0.031120 
#    y 0.000000 1.847430 0.000000 
#    z 0.031120 0.000000 1.799280 
# 
# From -- ./inp_files/79333.got.cif
#   From: 2010.06.25/outbox.cif.g09.slc.cpg/sg13_40_cif.got.tgz:79333.got - 2010.06.28 04:50:58.
