data_PCOD8117776
_publ_section_title
;
Structure prediction by ZEFSAII (Michael W. Deem and Ramdas Pophale) SiO2 
 PCOD8117776
Probable space group: P 2/C
;
_chemical_formula_sum "Si O2"
_cell_formula_units_Z 20
_cell_length_a 23.320187
_cell_length_b 8.576890
_cell_length_c 5.160379
_cell_angle_alpha 90.000000
_cell_angle_beta 95.430931
_cell_angle_gamma 90.000000
_cell_volume 1027.518235
_symmetry_space_group_name_H-M "P 2/C"
_symmetry_group_IT_number 13
_symmetry_cell_setting 'monoclinic'
loop_
_space_group_symop_operation_xyz
x,y,z
-x,y,1/2-z
-x,-y,-z
x,-y,1/2+z
loop_
_atom_site_type_symbol
_atom_site_label
_atom_site_fract_x
_atom_site_fract_y
_atom_site_fract_z
Si Si1 0.606944 0.603264 0.095678
Si Si2 0.144595 0.395234 0.792603
Si Si3 0.067620 0.903229 0.273471
Si Si4 0.268311 0.594941 0.439126
Si Si5 0.435886 0.931423 0.467197
O O1 0.596857 0.474679 0.870041
O O2 0.671272 0.680765 0.100248
O O3 0.561971 0.743960 0.044488
O O4 0.136485 0.472954 0.508325
O O5 0.097668 0.262856 0.810226
O O6 0.208615 0.315713 0.846582
O O7 0.000000 0.869776 0.250000
O O8 0.086723 0.012668 0.518342
O O9 0.268155 0.445334 0.244439
O O10 0.500000 0.000000 0.500000
O O11 0.402828 0.994249 0.707093
#
# Coordination Sequence:
#
# PCOD8117776 Si02
#       5
#     4   4   4   4   4
#     4  10  19  35  58  79  99 135 179 207 243 310
#     4  10  19  33  54  78 102 131 171 217 257 300
#     4  10  21  36  51  71 105 142 172 210 258 304
#     4   8  16  30  50  76 103 127 161 213 259 293
#     4  10  21  38  53  74 109 137 160 209 264 295
#
# _framework density 19.464375
#
# number of rings (size 3 to 8) (size 9 to 14) (size 15 to 20)
#    0.000    2.400    0.000    2.400    0.000    0.800 
#    0.000   14.000    0.000    0.000    0.000    0.000 
#    0.000    0.000    0.000    0.000    0.000    0.000 
#
# Total GULP energy -247799.938060 kJ/mol
# GULP energy per Si atom -12389.996903 kJ/mol
# Density = 1.942007 g / cm^3
# Si number density = 19.464375 Si / 1000 Ang^3
#
#
#
# Elastic Constant Matrix: (Units=GPa)
#
#
# Indices 1 2 3 4 5 6 
#
# 1 67.4651 45.3277 19.3186 0.0000 5.5139 0.0000
# 2 45.3277 89.2193 27.7769 0.0000 10.5500 0.0000
# 3 19.3186 27.7769 135.2411 0.0000 -3.3648 0.0000
# 4 0.0000 0.0000 0.0000 28.4091 0.0000 -1.8554
# 5 5.5139 10.5500 -3.3648 0.0000 12.1012 0.0000
# 6 0.0000 0.0000 0.0000 -1.8554 0.0000 12.3873
#
#
#
# Elastic Compliance Matrix: (Units=1/GPa)
#
#
# Indices 1 2 3 4 5 6 
#
# 1 0.022622 -0.011079 -0.000979 0.000000 -0.000921 0.000000
# 2 -0.011079 0.019125 -0.002653 0.000000 -0.012363 0.000000
# 3 -0.000979 -0.002653 0.008204 0.000000 0.005040 0.000000
# 4 0.000000 0.000000 0.000000 0.035548 0.000000 0.005324
# 5 -0.000921 -0.012363 0.005040 0.000000 0.095235 0.000000
# 6 0.000000 0.000000 0.000000 0.005324 0.000000 0.081525
#
#
# Mechanical properties :
#
#
# Convention : Reuss Voigt Hill
#
# Bulk Modulus (GPa) = 48.71188 52.97467 50.84327
# Shear Modulus (GPa) = 16.74902 23.87968 20.31435
#
# Velocity S-wave (km/s) = 2.93660 3.50643 3.23409
# Velocity P-wave (km/s) = 6.04803 6.60823 6.33433
#
# Compressibility (1/GPa) = 0.02052887
#
# Stress axis : x y z
#
# Youngs Moduli (GPa) = 44.20484 52.28733 121.88722
#
# Poissons Ratio (x) = 0.57932 0.11930
# Poissons Ratio (y) = 0.48977 0.32337
# Poissons Ratio (z) = 0.04327 0.13872
#
# Static dielectric constant tensor:
#      x y z
#    x 3.631000 0.000000 0.306710 
#    y 0.000000 3.087990 0.000000 
#    z 0.306710 0.000000 1.163790 
# 
# 
# High freq. dielectric constant tensor:
#      x y z
#    x 1.751160 0.000000 -0.004590 
#    y 0.000000 1.713500 0.000000 
#    z -0.004590 0.000000 1.793460 
# 
# From -- ./inp_files/6713.got.cif
#   From: 2010.06.25/outbox.cif.g09.slc.cpg/sg13_4_cif.got.tgz:6713.got - 2010.06.28 04:50:58.
