data_PCOD8117843
_publ_section_title
;
Structure prediction by ZEFSAII (Michael W. Deem and Ramdas Pophale) SiO2 
 PCOD8117843
Probable space group: P 2/C
;
_chemical_formula_sum "Si O2"
_cell_formula_units_Z 32
_cell_length_a 20.649371
_cell_length_b 13.129736
_cell_length_c 9.413559
_cell_angle_alpha 90.000000
_cell_angle_beta 44.373958
_cell_angle_gamma 90.000000
_cell_volume 1784.859867
_symmetry_space_group_name_H-M "P 2/C"
_symmetry_group_IT_number 13
_symmetry_cell_setting 'monoclinic'
loop_
_space_group_symop_operation_xyz
x,y,z
-x,y,1/2-z
-x,-y,-z
x,-y,1/2+z
loop_
_atom_site_type_symbol
_atom_site_label
_atom_site_fract_x
_atom_site_fract_y
_atom_site_fract_z
Si Si1 0.595920 0.113908 0.546098
Si Si2 0.106406 0.601760 0.421549
Si Si3 0.795644 0.198351 0.786224
Si Si4 0.346806 0.066127 0.344754
Si Si5 0.894632 0.396136 0.245524
Si Si6 0.789330 0.790896 0.785933
Si Si7 0.180452 0.069841 0.018563
Si Si8 0.098733 0.872431 0.131713
O O1 0.500000 0.163971 0.750000
O O2 0.586553 0.100400 0.389365
O O3 0.678317 0.191836 0.460597
O O4 0.605121 0.004668 0.612244
O O5 0.182934 0.681505 0.243748
O O6 0.124415 0.498684 0.309811
O O7 0.123210 0.582425 0.561334
O O8 0.001122 0.641321 0.557350
O O9 0.802229 0.162684 0.613973
O O10 0.878150 0.140422 0.739032
O O11 0.696333 0.166077 0.008774
O O12 0.268329 0.004337 0.384385
O O13 0.819571 0.316668 0.303189
O O14 0.825363 0.804512 0.569944
O O15 0.838744 0.880857 0.798308
O O16 0.098545 0.993961 0.097533
O O17 0.000000 0.825276 0.250000
#
# Coordination Sequence:
#
# PCOD8117843 Si02
#       8
#     4   4   4   4   4   4   4   4
#     4  11  21  35  57  83 111 150 188 228 276 327
#     4  10  22  37  56  81 105 147 187 229 280 326
#     4  11  19  35  54  73 109 145 183 222 272 326
#     4  10  19  35  53  80 113 142 180 228 267 328
#     4  10  22  38  55  78 111 140 189 238 273 325
#     4  11  21  37  54  76 112 146 185 229 276 321
#     4  10  19  34  51  72 109 146 184 218 266 320
#     4  11  22  31  48  76 110 149 183 217 262 326
#
# _framework density 17.928578999999999
#
# number of rings (size 3 to 8) (size 9 to 14) (size 15 to 20)
#    0.000    1.500    5.000    2.625    1.750    3.000 
#    0.000    0.000    0.000    0.000    0.000    4.375 
#    0.000    0.000    0.000    0.000    0.000    0.000 
#
# Total GULP energy -396624.523440 kJ/mol
# GULP energy per Si atom -12394.516358 kJ/mol
# Density = 1.788777 g / cm^3
# Si number density = 17.928579 Si / 1000 Ang^3
#
#
#
# Elastic Constant Matrix: (Units=GPa)
#
#
# Indices 1 2 3 4 5 6 
#
# 1 61.4358 32.4339 35.7817 0.0000 -2.1041 0.0000
# 2 32.4339 95.7160 40.6469 0.0000 -2.8353 0.0000
# 3 35.7817 40.6469 85.1565 0.0000 -2.6193 0.0000
# 4 0.0000 0.0000 0.0000 24.3543 0.0000 4.8060
# 5 -2.1041 -2.8353 -2.6193 0.0000 30.0199 0.0000
# 6 0.0000 0.0000 0.0000 4.8060 0.0000 22.9831
#
#
#
# Elastic Compliance Matrix: (Units=1/GPa)
#
#
# Indices 1 2 3 4 5 6 
#
# 1 0.023097 -0.004636 -0.007476 0.000000 0.000529 0.000000
# 2 -0.004636 0.014049 -0.004740 0.000000 0.000588 0.000000
# 3 -0.007476 -0.004740 0.017163 0.000000 0.000526 0.000000
# 4 0.000000 0.000000 0.000000 0.042828 0.000000 -0.008956
# 5 0.000529 0.000588 0.000526 0.000000 0.033450 0.000000
# 6 0.000000 0.000000 0.000000 -0.008956 0.000000 0.045383
#
#
# Mechanical properties :
#
#
# Convention : Reuss Voigt Hill
#
# Bulk Modulus (GPa) = 48.53122 51.11482 49.82302
# Shear Modulus (GPa) = 23.09034 24.36783 23.72908
#
# Velocity S-wave (km/s) = 3.59263 3.69068 3.64199
# Velocity P-wave (km/s) = 6.65863 6.83620 6.74800
#
# Compressibility (1/GPa) = 0.02060529
#
# Stress axis : x y z
#
# Youngs Moduli (GPa) = 43.29571 71.18083 58.26546
#
# Poissons Ratio (x) = 0.33001 0.43558
# Poissons Ratio (y) = 0.20073 0.27615
# Poissons Ratio (z) = 0.32367 0.33737
#
# Static dielectric constant tensor:
#      x y z
#    x 3.277930 0.000000 0.152360 
#    y 0.000000 3.118540 0.000000 
#    z 0.152360 0.000000 3.364140 
# 
# 
# High freq. dielectric constant tensor:
#      x y z
#    x 1.687040 0.000000 0.027640 
#    y 0.000000 1.665760 0.000000 
#    z 0.027640 0.000000 1.693990 
# 
# From -- ./inp_files/23355.got.cif
#   From: 2010.06.25/outbox.cif.g09.slc.cpg/sg13_12_cif.got.tgz:23355.got - 2010.06.28 04:50:58.
