data_PCOD8117459
_publ_section_title
;
Structure prediction by ZEFSAII (Michael W. Deem and Ramdas Pophale) SiO2 
 PCOD8117459
Probable space group: P 2/C
;
_chemical_formula_sum "Si O2"
_cell_formula_units_Z 28
_cell_length_a 12.255758
_cell_length_b 8.514910
_cell_length_c 14.331178
_cell_angle_alpha 90.000000
_cell_angle_beta 69.500356
_cell_angle_gamma 90.000000
_cell_volume 1400.847191
_symmetry_space_group_name_H-M "P 2/C"
_symmetry_group_IT_number 13
_symmetry_cell_setting 'monoclinic'
loop_
_space_group_symop_operation_xyz
x,y,z
-x,y,1/2-z
-x,-y,-z
x,-y,1/2+z
loop_
_atom_site_type_symbol
_atom_site_label
_atom_site_fract_x
_atom_site_fract_y
_atom_site_fract_z
Si Si1 0.307841 0.799341 0.962331
Si Si2 0.537198 0.330829 0.455748
Si Si3 0.303067 0.352444 0.264126
Si Si4 0.897180 0.410855 0.922831
Si Si5 0.266549 0.840877 0.481916
Si Si6 0.124169 0.724691 0.679989
Si Si7 0.154359 0.388918 0.882042
O O1 0.422698 0.777015 0.990508
O O2 0.331469 0.714254 0.857086
O O3 0.298699 0.983468 0.946936
O O4 0.195838 0.732330 0.052556
O O5 0.500000 0.500000 0.500000
O O6 0.584420 0.351322 0.336039
O O7 0.629208 0.257532 0.500951
O O8 0.207449 0.242896 0.242693
O O9 0.246291 0.526725 0.286000
O O10 0.870052 0.541043 0.852373
O O11 0.030207 0.346171 0.869866
O O12 0.879838 0.487327 0.028554
O O13 0.157980 0.838560 0.585169
O O14 0.222720 0.762505 0.399298
O O15 0.000000 0.779949 0.750000
#
# Coordination Sequence:
#
# PCOD8117459 Si02
#       7
#     4   4   4   4   4   4   4
#     4  11  22  38  56  88 125 158 195 237 310 362
#     4  11  22  42  65  84 112 159 208 252 290 346
#     4  10  20  36  62  87 110 150 206 252 285 344
#     4   9  18  33  59  83 115 154 191 250 281 346
#     4  10  23  37  58  86 124 161 187 245 312 357
#     4  10  18  36  59  84 114 156 204 243 289 344
#     4   9  17  35  57  87 112 146 203 241 289 338
#
# _framework density 19.987904
#
# number of rings (size 3 to 8) (size 9 to 14) (size 15 to 20)
#    0.000    2.000    1.429    4.286    2.000    0.571 
#    0.000    9.286    0.000    0.000    0.000    0.000 
#    0.000    0.000    0.000    0.000    0.000    0.000 
#
# Total GULP energy -347048.002238 kJ/mol
# GULP energy per Si atom -12394.571508 kJ/mol
# Density = 1.994241 g / cm^3
# Si number density = 19.987904 Si / 1000 Ang^3
#
#
#
# Elastic Constant Matrix: (Units=GPa)
#
#
# Indices 1 2 3 4 5 6 
#
# 1 117.2738 43.4377 28.3120 0.0000 -18.6118 0.0000
# 2 43.4377 85.9746 18.1650 0.0000 -23.0043 0.0000
# 3 28.3120 18.1650 42.7022 0.0000 -9.5494 0.0000
# 4 0.0000 0.0000 0.0000 10.4666 0.0000 -0.7857
# 5 -18.6118 -23.0043 -9.5494 0.0000 28.4077 0.0000
# 6 0.0000 0.0000 0.0000 -0.7857 0.0000 27.4387
#
#
#
# Elastic Compliance Matrix: (Units=1/GPa)
#
#
# Indices 1 2 3 4 5 6 
#
# 1 0.011779 -0.004111 -0.005493 0.000000 0.002542 0.000000
# 2 -0.004111 0.016917 -0.002173 0.000000 0.010275 0.000000
# 3 -0.005493 -0.002173 0.028963 0.000000 0.004378 0.000000
# 4 0.000000 0.000000 0.000000 0.095748 0.000000 0.002742
# 5 0.002542 0.010275 0.004378 0.000000 0.046660 0.000000
# 6 0.000000 0.000000 0.000000 0.002742 0.000000 0.036523
#
#
# Mechanical properties :
#
#
# Convention : Reuss Voigt Hill
#
# Bulk Modulus (GPa) = 29.31981 47.30890 38.31435
# Shear Modulus (GPa) = 18.41550 23.66499 21.04024
#
# Velocity S-wave (km/s) = 3.03864 3.44461 3.24797
# Velocity P-wave (km/s) = 5.19728 6.28813 5.76855
#
# Compressibility (1/GPa) = 0.03410664
#
# Stress axis : x y z
#
# Youngs Moduli (GPa) = 84.89663 59.11333 34.52684
#
# Poissons Ratio (x) = 0.24299 0.18964
# Poissons Ratio (y) = 0.34897 0.07503
# Poissons Ratio (z) = 0.46630 0.12845
#
# Static dielectric constant tensor:
#      x y z
#    x 4.252370 0.000000 0.023220 
#    y 0.000000 3.278840 0.000000 
#    z 0.023220 0.000000 3.720830 
# 
# 
# High freq. dielectric constant tensor:
#      x y z
#    x 1.800250 0.000000 -0.003640 
#    y 0.000000 1.743720 0.000000 
#    z -0.003640 0.000000 1.773950 
# 
# From -- ./inp_files/49974.got.cif
#   From: 2010.06.25/outbox.cif.g09.slc.cpg/sg13_25_cif.got.tgz:49974.got - 2010.06.28 04:50:58.
