data_PCOD8117569
_publ_section_title
;
Structure prediction by ZEFSAII (Michael W. Deem and Ramdas Pophale) SiO2 
 PCOD8117569
Probable space group: P 2/C
;
_chemical_formula_sum "Si O2"
_cell_formula_units_Z 30
_cell_length_a 15.597746
_cell_length_b 15.265150
_cell_length_c 16.218070
_cell_angle_alpha 90.000000
_cell_angle_beta 156.167460
_cell_angle_gamma 90.000000
_cell_volume 1560.318215
_symmetry_space_group_name_H-M "P 2/C"
_symmetry_group_IT_number 13
_symmetry_cell_setting 'monoclinic'
loop_
_space_group_symop_operation_xyz
x,y,z
-x,y,1/2-z
-x,-y,-z
x,-y,1/2+z
loop_
_atom_site_type_symbol
_atom_site_label
_atom_site_fract_x
_atom_site_fract_y
_atom_site_fract_z
Si Si1 0.112034 0.356243 0.102743
Si Si2 0.878461 0.373448 0.058689
Si Si3 0.630587 0.800507 0.289471
Si Si4 0.389017 0.796169 0.916906
Si Si5 0.992040 0.899277 0.971119
Si Si6 0.282765 0.559889 0.598682
Si Si7 0.846637 0.227475 0.767212
Si Si8 0.000000 0.688021 0.250000
O O1 0.281474 0.284740 0.277885
O O2 0.244051 0.426824 0.163337
O O3 0.033888 0.399520 0.119411
O O4 0.906283 0.313190 0.875728
O O5 0.000000 0.351784 0.250000
O O6 0.738402 0.289737 0.912880
O O7 0.738421 0.459839 0.948668
O O8 0.500000 0.844255 0.250000
O O9 0.808734 0.866755 0.410266
O O10 0.445119 0.777518 0.061315
O O11 0.230415 0.879370 0.770870
O O12 0.611948 0.811145 0.068768
O O13 0.995294 0.848570 0.061722
O O14 0.000000 0.000000 0.000000
O O15 0.500000 0.593518 0.750000
O O16 0.117536 0.626027 0.415678
O O17 0.861429 0.246960 0.683691
#
# Coordination Sequence:
#
# PCOD8117569 Si02
#       8
#     4   4   4   4   4   4   4   2
#     4  10  20  38  59  84 120 162 207 254 310 366
#     4  12  22  40  58  87 127 162 206 260 309 365
#     4  11  23  38  62  90 121 162 201 242 309 376
#     4  10  18  39  63  86 117 160 198 241 307 363
#     4  10  22  41  62  90 122 152 199 254 308 372
#     4  11  23  38  56  88 121 162 213 265 306 359
#     4   9  19  36  61  86 115 161 204 242 312 368
#     4  10  20  40  58  84 122 160 212 264 302 358
#
# _framework density 19.226848
#
# number of rings (size 3 to 8) (size 9 to 14) (size 15 to 20)
#    0.000    1.600    4.667    2.400    0.000    2.133 
#    0.000    4.000    0.000    0.000    0.000    0.000 
#    0.000    0.000    0.000    0.000    0.000    0.000 
#
# Total GULP energy -371682.541358 kJ/mol
# GULP energy per Si atom -12389.418045 kJ/mol
# Density = 1.918309 g / cm^3
# Si number density = 19.226848 Si / 1000 Ang^3
#
#
#
# Elastic Constant Matrix: (Units=GPa)
#
#
# Indices 1 2 3 4 5 6 
#
# 1 136.5494 37.6904 43.8651 0.0000 -2.9545 0.0000
# 2 37.6904 104.6140 36.3579 0.0000 -2.1839 0.0000
# 3 43.8651 36.3579 112.0051 0.0000 -0.9969 0.0000
# 4 0.0000 0.0000 0.0000 20.5820 0.0000 4.2805
# 5 -2.9545 -2.1839 -0.9969 0.0000 30.7172 0.0000
# 6 0.0000 0.0000 0.0000 4.2805 0.0000 17.9432
#
#
#
# Elastic Compliance Matrix: (Units=1/GPa)
#
#
# Indices 1 2 3 4 5 6 
#
# 1 0.008826 -0.002218 -0.002731 0.000000 0.000603 0.000000
# 2 -0.002218 0.011345 -0.002810 0.000000 0.000502 0.000000
# 3 -0.002731 -0.002810 0.010909 0.000000 -0.000108 0.000000
# 4 0.000000 0.000000 0.000000 0.051123 0.000000 -0.012196
# 5 0.000603 0.000502 -0.000108 0.000000 0.032645 0.000000
# 6 0.000000 0.000000 0.000000 -0.012196 0.000000 0.058641
#
#
# Mechanical properties :
#
#
# Convention : Reuss Voigt Hill
#
# Bulk Modulus (GPa) = 64.25820 65.44391 64.85105
# Shear Modulus (GPa) = 25.74750 29.53215 27.63983
#
# Velocity S-wave (km/s) = 3.66340 3.92342 3.79564
# Velocity P-wave (km/s) = 7.16852 7.39161 7.28092
#
# Compressibility (1/GPa) = 0.01556222
#
# Stress axis : x y z
#
# Youngs Moduli (GPa) = 113.30180 88.14467 91.66873
#
# Poissons Ratio (x) = 0.19551 0.25037
# Poissons Ratio (y) = 0.25131 0.25755
# Poissons Ratio (z) = 0.30945 0.24765
#
# Static dielectric constant tensor:
#      x y z
#    x 3.809940 0.000000 -0.045630 
#    y 0.000000 3.248640 0.000000 
#    z -0.045630 0.000000 3.712670 
# 
# 
# High freq. dielectric constant tensor:
#      x y z
#    x 1.758580 0.000000 -0.002330 
#    y 0.000000 1.722300 0.000000 
#    z -0.002330 0.000000 1.753220 
# 
# From -- ./inp_files/70058.got.cif
#   From: 2010.06.25/outbox.cif.g09.slc.cpg/sg13_36_cif.got.tgz:70058.got - 2010.06.28 04:50:58.
