data_PCOD8117626
_publ_section_title
;
Structure prediction by ZEFSAII (Michael W. Deem and Ramdas Pophale) SiO2 
 PCOD8117626
Probable space group: P 2/C
;
_chemical_formula_sum "Si O2"
_cell_formula_units_Z 24
_cell_length_a 4.900812
_cell_length_b 10.682777
_cell_length_c 23.882646
_cell_angle_alpha 90.000000
_cell_angle_beta 78.801878
_cell_angle_gamma 90.000000
_cell_volume 1226.553848
_symmetry_space_group_name_H-M "P 2/C"
_symmetry_group_IT_number 13
_symmetry_cell_setting 'monoclinic'
loop_
_space_group_symop_operation_xyz
x,y,z
-x,y,1/2-z
-x,-y,-z
x,-y,1/2+z
loop_
_atom_site_type_symbol
_atom_site_label
_atom_site_fract_x
_atom_site_fract_y
_atom_site_fract_z
Si Si1 0.285385 0.099313 0.440519
Si Si2 0.956792 0.305342 0.863601
Si Si3 0.798644 0.935007 0.430042
Si Si4 0.377460 0.370198 0.404549
Si Si5 0.834696 0.510537 0.949367
Si Si6 0.523059 0.569720 0.313735
O O1 0.225469 0.131061 0.508124
O O2 0.406189 0.220740 0.403954
O O3 0.496555 0.984159 0.424418
O O4 0.998392 0.055682 0.424052
O O5 0.915152 0.159138 0.878263
O O6 0.813006 0.375610 0.921643
O O7 0.801404 0.349196 0.813111
O O8 0.278465 0.340478 0.845717
O O9 0.525471 0.424297 0.457100
O O10 0.540905 0.437974 0.347002
O O11 0.052765 0.400352 0.407535
O O12 0.000000 0.500000 0.000000
O O13 0.500000 0.535405 0.250000
#
# Coordination Sequence:
#
# PCOD8117626 Si02
#       6
#     4   4   4   4   4   4
#     4  10  20  33  51  76 112 147 172 201 246 312
#     4  10  20  34  54  79 104 135 175 216 265 319
#     4  10  20  33  51  77 109 145 173 201 247 313
#     4  10  20  33  51  76 102 136 176 212 259 313
#     4  10  19  30  49  76 107 134 164 213 263 314
#     4  10  21  37  57  77  99 132 175 230 279 308
#
# _framework density 19.567018000000001
#
# number of rings (size 3 to 8) (size 9 to 14) (size 15 to 20)
#    0.000    2.000    0.000    4.000    0.000    5.333 
#    0.000    0.000    0.000    6.000    0.000    0.000 
#    0.000    0.000    0.000    0.000    0.000    0.000 
#
# Total GULP energy -297466.146192 kJ/mol
# GULP energy per Si atom -12394.422758 kJ/mol
# Density = 1.952248 g / cm^3
# Si number density = 19.567018 Si / 1000 Ang^3
#
#
#
# Elastic Constant Matrix: (Units=GPa)
#
#
# Indices 1 2 3 4 5 6 
#
# 1 81.9036 11.8131 -2.4929 0.0000 13.7345 0.0000
# 2 11.8131 97.8072 37.6088 0.0000 0.3550 0.0000
# 3 -2.4929 37.6088 70.3498 0.0000 17.4475 0.0000
# 4 0.0000 0.0000 0.0000 15.2636 0.0000 -5.1524
# 5 13.7345 0.3550 17.4475 0.0000 25.0744 0.0000
# 6 0.0000 0.0000 0.0000 -5.1524 0.0000 22.0172
#
#
#
# Elastic Compliance Matrix: (Units=1/GPa)
#
#
# Indices 1 2 3 4 5 6 
#
# 1 0.014967 -0.003924 0.005617 0.000000 -0.012051 0.000000
# 2 -0.003924 0.014575 -0.010167 0.000000 0.009017 0.000000
# 3 0.005617 -0.010167 0.024868 0.000000 -0.020236 0.000000
# 4 0.000000 0.000000 0.000000 0.071135 0.000000 0.016647
# 5 -0.012051 0.009017 -0.020236 0.000000 0.060436 0.000000
# 6 0.000000 0.000000 0.000000 0.016647 0.000000 0.049315
#
#
# Mechanical properties :
#
#
# Convention : Reuss Voigt Hill
#
# Bulk Modulus (GPa) = 26.69389 38.21317 32.45353
# Shear Modulus (GPa) = 18.88712 26.01313 22.45012
#
# Velocity S-wave (km/s) = 3.11022 3.65010 3.39092
# Velocity P-wave (km/s) = 5.15460 6.11033 5.65270
#
# Compressibility (1/GPa) = 0.03746176
#
# Stress axis : x y z
#
# Youngs Moduli (GPa) = 66.81271 68.61144 40.21251
#
# Poissons Ratio (x) = 0.26921 -0.22587
# Poissons Ratio (y) = 0.26216 0.40885
# Poissons Ratio (z) = -0.37527 0.69758
#
# Static dielectric constant tensor:
#      x y z
#    x 5.986160 0.000000 -0.024180 
#    y 0.000000 3.307840 0.000000 
#    z -0.024180 0.000000 3.228760 
# 
# 
# High freq. dielectric constant tensor:
#      x y z
#    x 1.788620 0.000000 0.013580 
#    y 0.000000 1.747500 0.000000 
#    z 0.013580 0.000000 1.718040 
# 
# From -- ./inp_files/83338.got.cif
#   From: 2010.06.25/outbox.cif.g09.slc.cpg/sg13_42_cif.got.tgz:83338.got - 2010.06.28 04:50:58.
