data_PCOD8117980
_publ_section_title
;
Structure prediction by ZEFSAII (Michael W. Deem and Ramdas Pophale) SiO2 
 PCOD8117980
Probable space group: P 2/C
;
_chemical_formula_sum "Si O2"
_cell_formula_units_Z 32
_cell_length_a 14.251753
_cell_length_b 9.037782
_cell_length_c 15.730029
_cell_angle_alpha 90.000000
_cell_angle_beta 124.120706
_cell_angle_gamma 90.000000
_cell_volume 1677.317777
_symmetry_space_group_name_H-M "P 2/C"
_symmetry_group_IT_number 13
_symmetry_cell_setting 'monoclinic'
loop_
_space_group_symop_operation_xyz
x,y,z
-x,y,1/2-z
-x,-y,-z
x,-y,1/2+z
loop_
_atom_site_type_symbol
_atom_site_label
_atom_site_fract_x
_atom_site_fract_y
_atom_site_fract_z
Si Si1 0.442949 0.670765 0.307663
Si Si2 0.827193 0.631333 0.818239
Si Si3 0.956134 0.820892 0.560804
Si Si4 0.448208 0.837348 0.980712
Si Si5 0.071719 0.060220 0.706934
Si Si6 0.572787 0.328473 0.206835
Si Si7 0.818088 0.703909 0.339890
Si Si8 0.192635 0.795519 0.852668
O O1 0.500000 0.728852 0.250000
O O2 0.483334 0.748181 0.413896
O O3 0.462985 0.496687 0.330592
O O4 0.314658 0.713388 0.228529
O O5 0.706876 0.680292 0.799259
O O6 0.859867 0.464360 0.859181
O O7 0.810138 0.647983 0.707420
O O8 0.931911 0.727341 0.905594
O O9 0.861961 0.796010 0.442677
O O10 0.898634 0.768875 0.620028
O O11 0.990781 0.994512 0.589967
O O12 0.457632 0.765880 0.891982
O O13 0.318660 0.833412 0.948910
O O14 0.500000 0.000000 0.000000
O O15 0.135612 0.209885 0.717652
O O16 0.000000 0.110224 0.750000
O O17 0.158443 0.929893 0.773659
O O18 0.500000 0.267613 0.250000
#
# Coordination Sequence:
#
# PCOD8117980 Si02
#       8
#     4   4   4   4   4   4   4   4
#     4  10  21  37  56  79 109 146 183 222 270 325
#     4   9  19  34  55  79 103 135 176 220 265 314
#     4  10  19  35  55  75 104 143 175 211 266 322
#     4  11  21  35  57  84 110 141 182 228 272 322
#     4   9  19  34  51  72 104 141 172 209 264 319
#     4   9  20  39  58  79 110 144 180 223 273 324
#     4  11  20  33  53  81 107 131 176 227 260 303
#     4   9  19  37  55  73 104 143 176 210 265 325
#
# _framework density 19.078078000000001
#
# number of rings (size 3 to 8) (size 9 to 14) (size 15 to 20)
#    0.000    2.250    0.000    3.750    0.000    1.500 
#    0.000    7.500    0.000    0.000    0.000    0.000 
#    0.000    0.000    0.000    0.000    0.000    0.000 
#
# Total GULP energy -396659.597203 kJ/mol
# GULP energy per Si atom -12395.612413 kJ/mol
# Density = 1.903466 g / cm^3
# Si number density = 19.078078 Si / 1000 Ang^3
#
#
#
# Elastic Constant Matrix: (Units=GPa)
#
#
# Indices 1 2 3 4 5 6 
#
# 1 111.7672 46.9017 30.4736 0.0000 -3.9205 0.0000
# 2 46.9017 65.2217 42.1593 0.0000 -2.6766 0.0000
# 3 30.4736 42.1593 87.6631 0.0000 3.9390 0.0000
# 4 0.0000 0.0000 0.0000 15.2549 0.0000 7.1487
# 5 -3.9205 -2.6766 3.9390 0.0000 28.3846 0.0000
# 6 0.0000 0.0000 0.0000 7.1487 0.0000 30.5794
#
#
#
# Elastic Compliance Matrix: (Units=1/GPa)
#
#
# Indices 1 2 3 4 5 6 
#
# 1 0.012838 -0.009116 -0.000121 0.000000 0.000930 0.000000
# 2 -0.009116 0.029094 -0.010958 0.000000 0.003005 0.000000
# 3 -0.000121 -0.010958 0.016872 0.000000 -0.003391 0.000000
# 4 0.000000 0.000000 0.000000 0.073618 0.000000 -0.017210
# 5 0.000930 0.003005 -0.003391 0.000000 0.036113 0.000000
# 6 0.000000 0.000000 0.000000 -0.017210 0.000000 0.036725
#
#
# Mechanical properties :
#
#
# Convention : Reuss Voigt Hill
#
# Bulk Modulus (GPa) = 54.30461 55.96901 55.13681
# Shear Modulus (GPa) = 19.85799 24.51828 22.18814
#
# Velocity S-wave (km/s) = 3.22977 3.58879 3.41400
# Velocity P-wave (km/s) = 6.51419 6.82445 6.67113
#
# Compressibility (1/GPa) = 0.01841464
#
# Stress axis : x y z
#
# Youngs Moduli (GPa) = 77.89354 34.37080 59.27072
#
# Poissons Ratio (x) = 0.31332 0.00714
# Poissons Ratio (y) = 0.71007 0.64951
# Poissons Ratio (z) = 0.00939 0.37665
#
# Static dielectric constant tensor:
#      x y z
#    x 3.664030 0.000000 0.100240 
#    y 0.000000 3.475340 0.000000 
#    z 0.100240 0.000000 3.363460 
# 
# 
# High freq. dielectric constant tensor:
#      x y z
#    x 1.755790 0.000000 0.005770 
#    y 0.000000 1.732270 0.000000 
#    z 0.005770 0.000000 1.740270 
# 
# From -- ./inp_files/53064.got.cif
#   From: 2010.06.25/outbox.cif.g09.slc.cpg/sg13_27_cif.got.tgz:53064.got - 2010.06.28 04:50:58.
