data_PCOD8117072
_publ_section_title
;
Structure prediction by ZEFSAII (Michael W. Deem and Ramdas Pophale) SiO2 
 PCOD8117072
Probable space group: P 2/C
;
_chemical_formula_sum "Si O2"
_cell_formula_units_Z 28
_cell_length_a 8.647344
_cell_length_b 16.931563
_cell_length_c 12.832656
_cell_angle_alpha 90.000000
_cell_angle_beta 48.933858
_cell_angle_gamma 90.000000
_cell_volume 1416.575998
_symmetry_space_group_name_H-M "P 2/C"
_symmetry_group_IT_number 13
_symmetry_cell_setting 'monoclinic'
loop_
_space_group_symop_operation_xyz
x,y,z
-x,y,1/2-z
-x,-y,-z
x,-y,1/2+z
loop_
_atom_site_type_symbol
_atom_site_label
_atom_site_fract_x
_atom_site_fract_y
_atom_site_fract_z
Si Si1 0.473947 0.876656 0.381564
Si Si2 0.853534 0.019507 0.718314
Si Si3 0.843942 0.430772 0.588698
Si Si4 0.010731 0.733401 0.070702
Si Si5 0.028308 0.114135 0.030652
Si Si6 0.479251 0.569416 0.091874
Si Si7 0.670180 0.736452 0.396463
O O1 0.500000 0.846991 0.250000
O O2 0.621012 0.951450 0.341495
O O3 0.238948 0.902294 0.501283
O O4 0.509501 0.806761 0.449087
O O5 0.961933 0.075036 0.586304
O O6 0.000000 0.031389 0.750000
O O7 0.851174 0.928434 0.677939
O O8 0.984677 0.353404 0.535233
O O9 0.717217 0.448905 0.749488
O O10 0.688686 0.422358 0.562218
O O11 0.000000 0.500000 0.500000
O O12 0.011808 0.793206 0.971806
O O13 0.825468 0.748315 0.231936
O O14 0.223144 0.743289 0.038610
O O15 0.444134 0.652836 0.051524
O O16 0.500000 0.500000 0.000000
#
# Coordination Sequence:
#
# PCOD8117072 Si02
#       7
#     4   4   4   4   4   4   4
#     4  10  18  31  54  80 108 137 185 232 277 330
#     4  10  20  34  52  77 110 139 181 231 286 333
#     4  10  21  36  59  86 117 159 186 235 285 341
#     4  10  18  32  55  81 109 140 190 226 282 337
#     4  10  20  33  54  80 106 145 179 235 283 331
#     4  10  21  35  56  89 121 146 193 238 286 340
#     4  10  18  30  56  82 108 141 180 240 281 331
#
# _framework density 19.765971
#
# number of rings (size 3 to 8) (size 9 to 14) (size 15 to 20)
#    0.000    2.000    2.857    2.571    2.000    2.286 
#    0.000    2.857    6.286    0.000   18.571    0.000 
#    0.000    0.000    0.000    0.000    0.000    0.000 
#
# Total GULP energy -347138.676407 kJ/mol
# GULP energy per Si atom -12397.809872 kJ/mol
# Density = 1.972098 g / cm^3
# Si number density = 19.765971 Si / 1000 Ang^3
#
#
#
# Elastic Constant Matrix: (Units=GPa)
#
#
# Indices 1 2 3 4 5 6 
#
# 1 143.1768 80.8513 39.3723 0.0000 5.1881 0.0000
# 2 80.8513 159.0801 51.6975 0.0000 -3.9710 0.0000
# 3 39.3723 51.6975 34.3397 0.0000 -1.7084 0.0000
# 4 0.0000 0.0000 0.0000 32.2301 0.0000 2.0295
# 5 5.1881 -3.9710 -1.7084 0.0000 17.0607 0.0000
# 6 0.0000 0.0000 0.0000 2.0295 0.0000 35.5862
#
#
#
# Elastic Compliance Matrix: (Units=1/GPa)
#
#
# Indices 1 2 3 4 5 6 
#
# 1 0.011240 -0.003071 -0.008512 0.000000 -0.004985 0.000000
# 2 -0.003071 0.013164 -0.016179 0.000000 0.002378 0.000000
# 3 -0.008512 -0.016179 0.063495 0.000000 0.005181 0.000000
# 4 0.000000 0.000000 0.000000 0.031139 0.000000 -0.001776
# 5 -0.004985 0.002378 0.005181 0.000000 0.061202 0.000000
# 6 0.000000 0.000000 0.000000 -0.001776 0.000000 0.028202
#
#
# Mechanical properties :
#
#
# Convention : Reuss Voigt Hill
#
# Bulk Modulus (GPa) = 30.88785 75.60431 53.24608
# Shear Modulus (GPa) = 18.19791 27.95378 23.07584
#
# Velocity S-wave (km/s) = 3.03754 3.76471 3.42051
# Velocity P-wave (km/s) = 5.28800 7.56506 6.52660
#
# Compressibility (1/GPa) = 0.03237519
#
# Stress axis : x y z
#
# Youngs Moduli (GPa) = 88.96962 75.96510 15.74930
#
# Poissons Ratio (x) = 0.23327 0.13406
# Poissons Ratio (y) = 0.27320 0.25481
# Poissons Ratio (z) = 0.75732 1.22903
#
# Static dielectric constant tensor:
#      x y z
#    x 3.785430 0.000000 0.026600 
#    y 0.000000 3.787030 0.000000 
#    z 0.026600 0.000000 3.209280 
# 
# 
# High freq. dielectric constant tensor:
#      x y z
#    x 1.791490 0.000000 0.005910 
#    y 0.000000 1.777190 0.000000 
#    z 0.005910 0.000000 1.719720 
# 
# From -- ./inp_files/47461.got.cif
#   From: 2010.06.25/outbox.cif.g09.slc.cpg/sg13_24_cif.got.tgz:47461.got - 2010.06.28 04:50:58.
