data_PCOD8117182
_publ_section_title
;
Structure prediction by ZEFSAII (Michael W. Deem and Ramdas Pophale) SiO2 
 PCOD8117182
Probable space group: P 2/C
;
_chemical_formula_sum "Si O2"
_cell_formula_units_Z 30
_cell_length_a 9.918349
_cell_length_b 19.406861
_cell_length_c 8.930297
_cell_angle_alpha 90.000000
_cell_angle_beta 104.218695
_cell_angle_gamma 90.000000
_cell_volume 1666.280201
_symmetry_space_group_name_H-M "P 2/C"
_symmetry_group_IT_number 13
_symmetry_cell_setting 'monoclinic'
loop_
_space_group_symop_operation_xyz
x,y,z
-x,y,1/2-z
-x,-y,-z
x,-y,1/2+z
loop_
_atom_site_type_symbol
_atom_site_label
_atom_site_fract_x
_atom_site_fract_y
_atom_site_fract_z
Si Si1 0.500000 0.478166 0.750000
Si Si2 0.977816 0.101964 0.585127
Si Si3 0.325386 0.448048 0.438150
Si Si4 0.353008 0.922600 0.791238
Si Si5 0.785291 0.019110 0.980778
Si Si6 0.085920 0.552018 0.421942
Si Si7 0.856772 0.349237 0.295536
Si Si8 0.139221 0.809117 0.692673
O O1 0.385690 0.432933 0.624255
O O2 0.554583 0.530625 0.641360
O O3 0.890103 0.159692 0.477048
O O4 0.000000 0.137803 0.750000
O O5 0.123637 0.085389 0.542431
O O6 0.889802 0.032415 0.595279
O O7 0.221987 0.512633 0.405861
O O8 0.256622 0.380131 0.349463
O O9 0.500000 0.909778 0.750000
O O10 0.272525 0.850424 0.790787
O O11 0.267992 0.978556 0.676363
O O12 0.348552 0.956249 0.956762
O O13 0.133267 0.616301 0.537297
O O14 0.000000 0.575848 0.250000
O O15 0.000000 0.500000 0.500000
O O16 0.817522 0.270079 0.309243
O O17 0.000000 0.359454 0.250000
O O18 0.000000 0.820026 0.750000
#
# Coordination Sequence:
#
# PCOD8117182 Si02
#       8
#     2   4   4   4   4   4   4   4
#     4  10  22  32  56  84 108 148 176 238 272 338
#     4  10  18  32  58  81 113 143 187 234 279 331
#     4  11  19  36  54  83 114 140 190 227 285 334
#     4  11  21  36  55  86 113 147 186 235 281 337
#     4  10  19  31  55  88 109 142 185 235 287 324
#     4  12  19  33  58  86 111 139 182 247 297 327
#     4  11  22  37  58  85 113 150 186 239 295 339
#     4  10  22  38  56  79 113 152 191 223 279 348
#
# _framework density 18.004173999999999
#
# number of rings (size 3 to 8) (size 9 to 14) (size 15 to 20)
#    0.000    1.333    6.667    0.400    0.000    0.533 
#    1.200    0.000    0.000    0.000    5.200    0.000 
#    0.000    0.000    0.000    0.000    0.000    0.000 
#
# Total GULP energy -371729.804234 kJ/mol
# GULP energy per Si atom -12390.993474 kJ/mol
# Density = 1.796320 g / cm^3
# Si number density = 18.004174 Si / 1000 Ang^3
#
#
#
# Elastic Constant Matrix: (Units=GPa)
#
#
# Indices 1 2 3 4 5 6 
#
# 1 80.6955 31.4294 15.5544 0.0000 -6.8961 0.0000
# 2 31.4294 106.6845 44.2738 0.0000 1.1283 0.0000
# 3 15.5544 44.2738 113.8275 0.0000 11.2871 0.0000
# 4 0.0000 0.0000 0.0000 14.0715 0.0000 -4.7914
# 5 -6.8961 1.1283 11.2871 0.0000 34.5449 0.0000
# 6 0.0000 0.0000 0.0000 -4.7914 0.0000 -15.6776
#
#
#
# Elastic Compliance Matrix: (Units=1/GPa)
#
#
# Indices 1 2 3 4 5 6 
#
# 1 0.014352 -0.003953 -0.000745 0.000000 0.003237 0.000000
# 2 -0.003953 0.012307 -0.004267 0.000000 0.000203 0.000000
# 3 -0.000745 -0.004267 0.010901 0.000000 -0.003571 0.000000
# 4 0.000000 0.000000 0.000000 0.064367 0.000000 -0.019672
# 5 0.003237 0.000203 -0.003571 0.000000 0.030754 0.000000
# 6 0.000000 0.000000 0.000000 -0.019672 0.000000 -0.057773
#
#
# Mechanical properties :
#
#
# Convention : Reuss Voigt Hill
#
# Bulk Modulus (GPa) = 50.94178 53.74696 52.34437
# Shear Modulus (GPa) = 50.31190 20.58444 35.44817
#
# Velocity S-wave (km/s) = 5.29200 3.38496 4.44203
# Velocity P-wave (km/s) = 8.10532 6.72269 7.44617
#
# Compressibility (1/GPa) = 0.01963025
#
# Stress axis : x y z
#
# Youngs Moduli (GPa) = 69.67549 81.25720 91.73838
#
# Poissons Ratio (x) = 0.32125 0.06830
# Poissons Ratio (y) = 0.27546 0.39141
# Poissons Ratio (z) = 0.05188 0.34669
#
# Static dielectric constant tensor:
#      x y z
#    x 3.356720 0.000000 0.184640 
#    y 0.000000 3.162160 0.000000 
#    z 0.184640 0.000000 3.450540 
# 
# 
# High freq. dielectric constant tensor:
#      x y z
#    x 1.695950 0.000000 -0.007620 
#    y 0.000000 1.666730 0.000000 
#    z -0.007620 0.000000 1.709790 
# 
# From -- ./inp_files/13504.got.cif
#   From: 2010.06.25/outbox.cif.g09.slc.cpg/sg13_7_cif.got.tgz:13504.got - 2010.06.28 04:50:58.
