data_PCOD8117320
_publ_section_title
;
Structure prediction by ZEFSAII (Michael W. Deem and Ramdas Pophale) SiO2 
 PCOD8117320
Probable space group: P 2/C
;
_chemical_formula_sum "Si O2"
_cell_formula_units_Z 28
_cell_length_a 17.102385
_cell_length_b 6.390687
_cell_length_c 13.770232
_cell_angle_alpha 90.000000
_cell_angle_beta 105.285669
_cell_angle_gamma 90.000000
_cell_volume 1451.788231
_symmetry_space_group_name_H-M "P 2/C"
_symmetry_group_IT_number 13
_symmetry_cell_setting 'monoclinic'
loop_
_space_group_symop_operation_xyz
x,y,z
-x,y,1/2-z
-x,-y,-z
x,-y,1/2+z
loop_
_atom_site_type_symbol
_atom_site_label
_atom_site_fract_x
_atom_site_fract_y
_atom_site_fract_z
Si Si1 0.635515 0.522261 0.847587
Si Si2 0.615776 0.145417 0.700592
Si Si3 0.709575 0.756969 0.714169
Si Si4 0.500000 0.161470 0.250000
Si Si5 0.999738 0.987258 0.614667
Si Si6 0.000000 0.364560 0.750000
Si Si7 0.403434 0.489906 0.953623
Si Si8 0.888318 0.256446 0.212921
O O1 0.612406 0.303395 0.790251
O O2 0.712601 0.626718 0.817193
O O3 0.563506 0.690636 0.824042
O O4 0.649439 0.480972 0.965821
O O5 0.614793 0.263692 0.598029
O O6 0.697093 0.003400 0.730585
O O7 0.539968 0.988274 0.682295
O O8 0.630810 0.667149 0.630529
O O9 0.791754 0.729353 0.681598
O O10 0.002662 0.223507 0.654556
O O11 0.918924 0.870781 0.628034
O O12 0.000000 0.000000 0.500000
O O13 0.077844 0.859345 0.679451
O O14 0.919912 0.506625 0.719885
O O15 0.500000 0.500000 0.000000
#
# Coordination Sequence:
#
# PCOD8117320 Si02
#       8
#     4   4   4   2   4   2   4   4
#     4  10  21  36  53  82 110 147 201 240 301 360
#     4  10  21  37  58  75 117 151 185 255 303 338
#     4  10  23  40  54  85 121 155 194 247 309 356
#     4  10  18  34  58  78 104 150 196 244 298 354
#     4   9  19  37  62  95 116 157 203 229 290 371
#     4   8  18  38  66  82 128 158 180 250 288 338
#     4  11  22  37  57  84 113 154 212 249 295 368
#     4   9  20  39  58  88 125 154 197 241 300 358
#
# _framework density 19.286560000000001
#
# number of rings (size 3 to 8) (size 9 to 14) (size 15 to 20)
#    0.000    2.571    0.000    3.857    0.000   11.429 
#   10.286    0.000    0.000    0.000    0.000    0.000 
#    0.000    0.000    0.000    0.000    0.000    0.000 
#
# Total GULP energy -347041.733199 kJ/mol
# GULP energy per Si atom -12394.347614 kJ/mol
# Density = 1.924266 g / cm^3
# Si number density = 19.286560 Si / 1000 Ang^3
#
#
#
# Elastic Constant Matrix: (Units=GPa)
#
#
# Indices 1 2 3 4 5 6 
#
# 1 114.5021 43.6627 28.9234 0.0000 -7.6278 0.0000
# 2 43.6627 144.6316 42.3275 0.0000 -9.3845 0.0000
# 3 28.9234 42.3275 116.1407 0.0000 -31.9957 0.0000
# 4 0.0000 0.0000 0.0000 17.2560 0.0000 -3.9278
# 5 -7.6278 -9.3845 -31.9957 0.0000 29.5936 0.0000
# 6 0.0000 0.0000 0.0000 -3.9278 0.0000 15.7286
#
#
#
# Elastic Compliance Matrix: (Units=1/GPa)
#
#
# Indices 1 2 3 4 5 6 
#
# 1 0.010121 -0.002597 -0.001541 0.000000 0.000119 0.000000
# 2 -0.002597 0.008421 -0.002665 0.000000 -0.000880 0.000000
# 3 -0.001541 -0.002665 0.013705 0.000000 0.013575 0.000000
# 4 0.000000 0.000000 0.000000 0.061444 0.000000 0.015344
# 5 0.000119 -0.000880 0.013575 0.000000 0.048220 0.000000
# 6 0.000000 0.000000 0.000000 0.015344 0.000000 0.067410
#
#
# Mechanical properties :
#
#
# Convention : Reuss Voigt Hill
#
# Bulk Modulus (GPa) = 53.64440 67.23350 60.43895
# Shear Modulus (GPa) = 21.82075 29.87302 25.84688
#
# Velocity S-wave (km/s) = 3.36727 3.93988 3.66478
# Velocity P-wave (km/s) = 6.55689 7.45874 7.02231
#
# Compressibility (1/GPa) = 0.01864127
#
# Stress axis : x y z
#
# Youngs Moduli (GPa) = 98.80556 118.75429 72.96523
#
# Poissons Ratio (x) = 0.30835 0.11247
# Poissons Ratio (y) = 0.25655 0.19443
# Poissons Ratio (z) = 0.15231 0.31645
#
# Static dielectric constant tensor:
#      x y z
#    x 3.391780 0.000000 -0.261730 
#    y 0.000000 3.813930 0.000000 
#    z -0.261730 0.000000 3.388950 
# 
# 
# High freq. dielectric constant tensor:
#      x y z
#    x 1.736000 0.000000 -0.024550 
#    y 0.000000 1.772330 0.000000 
#    z -0.024550 0.000000 1.727650 
# 
# From -- ./inp_files/54312.got.cif
#   From: 2010.06.25/outbox.cif.g09.slc.cpg/sg13_28_cif.got.tgz:54312.got - 2010.06.28 04:50:58.
