data_PCOD8117915
_publ_section_title
;
Structure prediction by ZEFSAII (Michael W. Deem and Ramdas Pophale) SiO2 
 PCOD8117915
Probable space group: P 2/C
;
_chemical_formula_sum "Si O2"
_cell_formula_units_Z 24
_cell_length_a 8.619636
_cell_length_b 8.484409
_cell_length_c 17.938606
_cell_angle_alpha 90.000000
_cell_angle_beta 113.615835
_cell_angle_gamma 90.000000
_cell_volume 1202.026860
_symmetry_space_group_name_H-M "P 2/C"
_symmetry_group_IT_number 13
_symmetry_cell_setting 'monoclinic'
loop_
_space_group_symop_operation_xyz
x,y,z
-x,y,1/2-z
-x,-y,-z
x,-y,1/2+z
loop_
_atom_site_type_symbol
_atom_site_label
_atom_site_fract_x
_atom_site_fract_y
_atom_site_fract_z
Si Si1 0.374841 0.306944 0.828385
Si Si2 0.869284 0.744704 0.502841
Si Si3 0.564046 0.026674 0.928745
Si Si4 0.756619 0.739906 0.913700
Si Si5 0.301877 0.530241 0.457100
Si Si6 0.725211 0.423590 0.845510
O O1 0.420426 0.124245 0.855725
O O2 0.260875 0.385550 0.870531
O O3 0.552258 0.397197 0.857649
O O4 0.272427 0.328868 0.731748
O O5 0.744035 0.889584 0.469455
O O6 0.802418 0.632618 0.557117
O O7 0.875456 0.644627 0.426151
O O8 0.054715 0.813012 0.558050
O O9 0.605932 0.869025 0.888772
O O10 0.500000 0.000000 0.000000
O O11 0.734946 0.614746 0.840813
O O12 0.756439 0.646901 0.990451
O O13 0.500000 0.500000 0.500000
#
# Coordination Sequence:
#
# PCOD8117915 Si02
#       6
#     4   4   4   4   4   4
#     4  10  19  34  57  87 113 148 196 248 283 338
#     4  10  21  35  56  85 119 151 192 236 291 348
#     4  11  20  35  61  86 110 148 200 248 289 343
#     4  11  20  35  57  88 115 152 189 238 295 349
#     4  11  16  33  58  83 110 147 206 236 266 342
#     4   9  19  35  55  83 117 147 191 241 292 336
#
# _framework density 19.966275
#
# number of rings (size 3 to 8) (size 9 to 14) (size 15 to 20)
#    0.000    1.667    6.667    2.500    0.000    0.000 
#    0.000   10.000    0.000    0.000    4.333    0.000 
#    0.000    0.000    0.000    0.000    0.000    0.000 
#
# Total GULP energy -297398.693238 kJ/mol
# GULP energy per Si atom -12391.612218 kJ/mol
# Density = 1.992083 g / cm^3
# Si number density = 19.966275 Si / 1000 Ang^3
#
#
#
# Elastic Constant Matrix: (Units=GPa)
#
#
# Indices 1 2 3 4 5 6 
#
# 1 61.3515 16.9281 26.6657 0.0000 -4.9122 0.0000
# 2 16.9281 99.8365 36.7182 0.0000 -6.0385 0.0000
# 3 26.6657 36.7182 89.0158 0.0000 -13.1585 0.0000
# 4 0.0000 0.0000 0.0000 26.8704 0.0000 -3.6087
# 5 -4.9122 -6.0385 -13.1585 0.0000 22.9905 0.0000
# 6 0.0000 0.0000 0.0000 -3.6087 0.0000 31.7660
#
#
#
# Elastic Compliance Matrix: (Units=1/GPa)
#
#
# Indices 1 2 3 4 5 6 
#
# 1 0.018901 -0.001317 -0.004996 0.000000 0.000833 0.000000
# 2 -0.001317 0.011902 -0.004473 0.000000 0.000285 0.000000
# 3 -0.004996 -0.004473 0.015560 0.000000 0.006664 0.000000
# 4 0.000000 0.000000 0.000000 0.037792 0.000000 0.004293
# 5 0.000833 0.000285 0.006664 0.000000 0.047563 0.000000
# 6 0.000000 0.000000 0.000000 0.004293 0.000000 0.031968
#
#
# Mechanical properties :
#
#
# Convention : Reuss Voigt Hill
#
# Bulk Modulus (GPa) = 40.33490 45.64754 42.99122
# Shear Modulus (GPa) = 25.83691 27.65150 26.74420
#
# Velocity S-wave (km/s) = 3.60116 3.72548 3.66385
# Velocity P-wave (km/s) = 6.12671 6.43564 6.28307
#
# Compressibility (1/GPa) = 0.02479243
#
# Stress axis : x y z
#
# Youngs Moduli (GPa) = 52.90756 84.01985 64.26535
#
# Poissons Ratio (x) = 0.11067 0.32104
# Poissons Ratio (y) = 0.06969 0.28745
# Poissons Ratio (z) = 0.26430 0.37580
#
# Static dielectric constant tensor:
#      x y z
#    x 3.819270 0.000000 -0.120910 
#    y 0.000000 3.965520 0.000000 
#    z -0.120910 0.000000 3.507440 
# 
# 
# High freq. dielectric constant tensor:
#      x y z
#    x 1.777530 0.000000 -0.007920 
#    y 0.000000 1.777110 0.000000 
#    z -0.007920 0.000000 1.743330 
# 
# From -- ./inp_files/75381.got.cif
#   From: 2010.06.25/outbox.cif.g09.slc.cpg/sg13_38_cif.got.tgz:75381.got - 2010.06.28 04:50:58.
