data_PCOD8117282
_publ_section_title
;
Structure prediction by ZEFSAII (Michael W. Deem and Ramdas Pophale) SiO2 
 PCOD8117282
Probable space group: P 2/C
;
_chemical_formula_sum "Si O2"
_cell_formula_units_Z 26
_cell_length_a 8.887233
_cell_length_b 14.068880
_cell_length_c 11.149555
_cell_angle_alpha 90.000000
_cell_angle_beta 98.042988
_cell_angle_gamma 90.000000
_cell_volume 1380.354014
_symmetry_space_group_name_H-M "P 2/C"
_symmetry_group_IT_number 13
_symmetry_cell_setting 'monoclinic'
loop_
_space_group_symop_operation_xyz
x,y,z
-x,y,1/2-z
-x,-y,-z
x,-y,1/2+z
loop_
_atom_site_type_symbol
_atom_site_label
_atom_site_fract_x
_atom_site_fract_y
_atom_site_fract_z
Si Si1 0.500000 0.782677 0.750000
Si Si2 0.155716 0.760224 0.418810
Si Si3 0.818080 0.269457 0.855511
Si Si4 0.586209 0.887395 0.386864
Si Si5 0.334608 0.905446 0.562240
Si Si6 0.614134 0.562720 0.364966
Si Si7 0.576912 0.636783 0.941986
O O1 0.362151 0.851842 0.693409
O O2 0.472769 0.712052 0.858501
O O3 0.175740 0.767864 0.279236
O O4 0.184379 0.863597 0.482449
O O5 0.275606 0.684275 0.482541
O O6 0.984055 0.732955 0.434249
O O7 0.699076 0.201863 0.911461
O O8 0.769279 0.379704 0.858939
O O9 0.500000 0.885843 0.250000
O O10 0.472551 0.881906 0.486208
O O11 0.684461 0.983763 0.411272
O O12 0.500000 0.595643 0.250000
O O13 0.542717 0.592986 0.481666
O O14 0.642804 0.449194 0.366487
#
# Coordination Sequence:
#
# PCOD8117282 Si02
#       7
#     2   4   4   4   4   4   4
#     4  10  18  34  52  86 104 138 170 236 260 328
#     4  10  21  36  54  82 108 155 170 228 273 332
#     4  11  21  35  56  78 119 138 187 217 277 330
#     4  11  20  36  57  85 105 146 182 237 262 324
#     4  10  21  35  59  80 112 139 189 222 283 305
#     4  11  20  36  57  85 105 146 182 237 262 324
#     4  10  21  35  59  80 112 139 189 222 283 305
#
# _framework density 18.835747000000001
#
# number of rings (size 3 to 8) (size 9 to 14) (size 15 to 20)
#    0.000    1.538    4.615    2.308    0.000    1.231 
#    0.000    0.000    0.000   14.769    0.000    0.000 
#    0.000    0.000    0.000    0.000    0.000    0.000 
#
# Total GULP energy -322212.538496 kJ/mol
# GULP energy per Si atom -12392.789942 kJ/mol
# Density = 1.879288 g / cm^3
# Si number density = 18.835747 Si / 1000 Ang^3
#
#
#
# Elastic Constant Matrix: (Units=GPa)
#
#
# Indices 1 2 3 4 5 6 
#
# 1 72.8623 19.3570 15.5094 0.0000 16.9100 0.0000
# 2 19.3570 97.1913 19.1596 0.0000 9.7855 0.0000
# 3 15.5094 19.1596 64.4967 0.0000 13.8568 0.0000
# 4 0.0000 0.0000 0.0000 30.6502 0.0000 3.0312
# 5 16.9100 9.7855 13.8568 0.0000 21.6681 0.0000
# 6 0.0000 0.0000 0.0000 3.0312 0.0000 11.6603
#
#
#
# Elastic Compliance Matrix: (Units=1/GPa)
#
#
# Indices 1 2 3 4 5 6 
#
# 1 0.017238 -0.002041 -0.000981 0.000000 -0.011903 0.000000
# 2 -0.002041 0.011380 -0.002467 0.000000 -0.001969 0.000000
# 3 -0.000981 -0.002467 0.018629 0.000000 -0.010033 0.000000
# 4 0.000000 0.000000 0.000000 0.033487 0.000000 -0.008705
# 5 -0.011903 -0.001969 -0.010033 0.000000 0.062746 0.000000
# 6 0.000000 0.000000 0.000000 -0.008705 0.000000 0.088024
#
#
# Mechanical properties :
#
#
# Convention : Reuss Voigt Hill
#
# Bulk Modulus (GPa) = 27.57224 38.06692 32.81958
# Shear Modulus (GPa) = 19.64075 24.83068 22.23571
#
# Velocity S-wave (km/s) = 3.23265 3.63474 3.43958
# Velocity P-wave (km/s) = 5.34821 6.15378 5.76508
#
# Compressibility (1/GPa) = 0.03626837
#
# Stress axis : x y z
#
# Youngs Moduli (GPa) = 58.01043 87.87320 53.67945
#
# Poissons Ratio (x) = 0.17937 0.05269
# Poissons Ratio (y) = 0.11842 0.13241
# Poissons Ratio (z) = 0.05694 0.21676
#
# Static dielectric constant tensor:
#      x y z
#    x 3.205680 0.000000 0.115410 
#    y 0.000000 3.879130 0.000000 
#    z 0.115410 0.000000 3.647990 
# 
# 
# High freq. dielectric constant tensor:
#      x y z
#    x 1.689870 0.000000 0.008720 
#    y 0.000000 1.752540 0.000000 
#    z 0.008720 0.000000 1.739400 
# 
# From -- ./inp_files/29931.got.cif
#   From: 2010.06.25/outbox.cif.g09.slc.cpg/sg13_15_cif.got.tgz:29931.got - 2010.06.28 04:50:58.
