data_PCOD8117987
_publ_section_title
;
Structure prediction by ZEFSAII (Michael W. Deem and Ramdas Pophale) SiO2 
 PCOD8117987
Probable space group: P 2/C
;
_chemical_formula_sum "Si O2"
_cell_formula_units_Z 32
_cell_length_a 12.633147
_cell_length_b 20.156489
_cell_length_c 9.100620
_cell_angle_alpha 90.000000
_cell_angle_beta 135.252170
_cell_angle_gamma 90.000000
_cell_volume 1631.407917
_symmetry_space_group_name_H-M "P 2/C"
_symmetry_group_IT_number 13
_symmetry_cell_setting 'monoclinic'
loop_
_space_group_symop_operation_xyz
x,y,z
-x,y,1/2-z
-x,-y,-z
x,-y,1/2+z
loop_
_atom_site_type_symbol
_atom_site_label
_atom_site_fract_x
_atom_site_fract_y
_atom_site_fract_z
Si Si1 0.352923 0.708229 0.411148
Si Si2 0.407121 0.586754 0.291108
Si Si3 0.297323 0.693722 0.679482
Si Si4 0.326822 0.926171 0.740663
Si Si5 0.677215 0.939924 0.098765
Si Si6 0.157338 0.806538 0.719069
Si Si7 0.621865 0.445431 0.248131
Si Si8 0.810347 0.822810 0.408339
O O1 0.305710 0.640112 0.278643
O O2 0.270226 0.717963 0.485680
O O3 0.531280 0.706017 0.604133
O O4 0.306025 0.769397 0.266211
O O5 0.500000 0.621242 0.250000
O O6 0.310426 0.519713 0.152098
O O7 0.543487 0.554572 0.514345
O O8 0.197139 0.733296 0.697856
O O9 0.256078 0.614732 0.637843
O O10 0.271471 0.939583 0.519957
O O11 0.240387 0.860257 0.701373
O O12 0.286503 0.986888 0.806863
O O13 0.504912 0.916254 0.931735
O O14 0.769919 0.893324 0.299124
O O15 0.979400 0.808794 0.526861
O O16 0.208911 0.820794 0.935599
O O17 0.500000 0.423335 0.250000
#
# Coordination Sequence:
#
# PCOD8117987 Si02
#       8
#     4   4   4   4   4   4   4   4
#     4  10  20  34  54  83 111 142 185 229 278 335
#     4   9  17  26  49  80 113 141 176 223 283 331
#     4  10  19  35  55  80 112 144 182 229 281 331
#     4  10  21  39  64  91 115 144 179 225 277 325
#     4  10  21  39  64  91 116 142 181 226 273 332
#     4  11  25  40  55  78 113 153 189 231 276 324
#     4   9  15  30  47  78 115 141 172 228 279 333
#     4  11  25  40  54  80 113 149 193 231 272 329
#
# _framework density 19.61496
#
# number of rings (size 3 to 8) (size 9 to 14) (size 15 to 20)
#    0.000    2.000    2.500    2.250    3.500    7.000 
#    0.000    0.000    0.000    0.750    0.000    0.000 
#    0.000    0.000    0.000    0.000    0.000    0.000 
#
# Total GULP energy -396490.678240 kJ/mol
# GULP energy per Si atom -12390.333695 kJ/mol
# Density = 1.957032 g / cm^3
# Si number density = 19.614960 Si / 1000 Ang^3
#
#
#
# Elastic Constant Matrix: (Units=GPa)
#
#
# Indices 1 2 3 4 5 6 
#
# 1 73.9489 34.6406 24.7752 0.0000 -21.4477 0.0000
# 2 34.6406 109.2796 20.8307 0.0000 -6.6433 0.0000
# 3 24.7752 20.8307 61.1112 0.0000 -20.2390 0.0000
# 4 0.0000 0.0000 0.0000 20.4661 0.0000 -15.5877
# 5 -21.4477 -6.6433 -20.2390 0.0000 24.8489 0.0000
# 6 0.0000 0.0000 0.0000 -15.5877 0.0000 26.1416
#
#
#
# Elastic Compliance Matrix: (Units=1/GPa)
#
#
# Indices 1 2 3 4 5 6 
#
# 1 0.021084 -0.005444 -0.001571 0.000000 0.015463 0.000000
# 2 -0.005444 0.011193 -0.002976 0.000000 -0.004131 0.000000
# 3 -0.001571 -0.002976 0.023694 0.000000 0.017146 0.000000
# 4 0.000000 0.000000 0.000000 0.089514 0.000000 0.053375
# 5 0.015463 -0.004131 0.017146 0.000000 0.066451 0.000000
# 6 0.000000 0.000000 0.000000 0.053375 0.000000 0.070080
#
#
# Mechanical properties :
#
#
# Convention : Reuss Voigt Hill
#
# Bulk Modulus (GPa) = 27.78670 44.98143 36.38406
# Shear Modulus (GPa) = 15.92389 25.23088 20.57739
#
# Velocity S-wave (km/s) = 2.85234 3.59040 3.24244
# Velocity P-wave (km/s) = 5.00446 6.33798 5.71028
#
# Compressibility (1/GPa) = 0.03598845
#
# Stress axis : x y z
#
# Youngs Moduli (GPa) = 47.42866 89.34352 42.20567
#
# Poissons Ratio (x) = 0.48639 0.06630
# Poissons Ratio (y) = 0.25820 0.12561
# Poissons Ratio (z) = 0.07451 0.26590
#
# Static dielectric constant tensor:
#      x y z
#    x 3.620760 0.000000 -0.576890 
#    y 0.000000 3.898710 0.000000 
#    z -0.576890 0.000000 3.721750 
# 
# 
# High freq. dielectric constant tensor:
#      x y z
#    x 1.743450 0.000000 -0.043710 
#    y 0.000000 1.784750 0.000000 
#    z -0.043710 0.000000 1.746860 
# 
# From -- ./inp_files/17307.got.cif
#   From: 2010.06.25/outbox.cif.g09.slc.cpg/sg13_9_cif.got.tgz:17307.got - 2010.06.28 04:50:58.
