data_PCOD8117468
_publ_section_title
;
Structure prediction by ZEFSAII (Michael W. Deem and Ramdas Pophale) SiO2 
 PCOD8117468
Probable space group: P 2/C
;
_chemical_formula_sum "Si O2"
_cell_formula_units_Z 26
_cell_length_a 15.033241
_cell_length_b 8.447829
_cell_length_c 19.882823
_cell_angle_alpha 90.000000
_cell_angle_beta 31.294210
_cell_angle_gamma 90.000000
_cell_volume 1311.611207
_symmetry_space_group_name_H-M "P 2/C"
_symmetry_group_IT_number 13
_symmetry_cell_setting 'monoclinic'
loop_
_space_group_symop_operation_xyz
x,y,z
-x,y,1/2-z
-x,-y,-z
x,-y,1/2+z
loop_
_atom_site_type_symbol
_atom_site_label
_atom_site_fract_x
_atom_site_fract_y
_atom_site_fract_z
Si Si1 0.204068 0.666250 0.117399
Si Si2 0.000000 0.903851 0.750000
Si Si3 0.110695 0.868290 0.392691
Si Si4 0.305382 0.193836 0.890278
Si Si5 0.390705 0.132721 0.608709
Si Si6 0.155052 0.117261 0.536807
Si Si7 0.296206 0.314123 0.039219
O O1 0.272619 0.770588 0.134004
O O2 0.260562 0.753365 0.011430
O O3 0.288024 0.494805 0.067188
O O4 0.000000 0.651622 0.250000
O O5 0.160234 0.793511 0.667481
O O6 0.034809 0.014340 0.663907
O O7 0.188858 0.756006 0.400896
O O8 0.267825 0.939135 0.246300
O O9 0.970760 0.787347 0.433442
O O10 0.000000 0.000000 0.500000
O O11 0.500000 0.233163 0.750000
O O12 0.248791 0.297230 0.990872
O O13 0.284866 0.004472 0.916668
O O14 0.515091 0.253634 0.566546
O O15 0.500000 0.000000 0.500000
#
# Coordination Sequence:
#
# PCOD8117468 Si02
#       7
#     4   2   4   4   4   4   4
#     4  12  23  40  62  92 135 165 203 269 334 384
#     4  10  18  36  60  92 116 164 208 264 314 374
#     4  10  20  36  63  91 123 157 207 263 316 368
#     4  10  20  37  61  84 120 162 208 258 304 371
#     4  12  23  40  69  98 124 163 223 273 311 377
#     4  10  19  36  60  88 118 156 212 254 307 372
#     4  11  23  38  61  91 128 165 209 259 331 379
#
# _framework density 19.822948
#
# number of rings (size 3 to 8) (size 9 to 14) (size 15 to 20)
#    0.000    1.231    4.615    3.231    0.000    0.000 
#    0.000    1.538    0.000    0.000    0.000    0.000 
#    0.000    0.000    0.000    0.000    0.000    0.000 
#
# Total GULP energy -322203.758533 kJ/mol
# GULP energy per Si atom -12392.452251 kJ/mol
# Density = 1.977783 g / cm^3
# Si number density = 19.822948 Si / 1000 Ang^3
#
#
#
# Elastic Constant Matrix: (Units=GPa)
#
#
# Indices 1 2 3 4 5 6 
#
# 1 132.7386 31.4119 30.3491 0.0000 -2.0065 0.0000
# 2 31.4119 88.7214 30.9008 0.0000 0.7422 0.0000
# 3 30.3491 30.9008 96.0944 0.0000 -0.7842 0.0000
# 4 0.0000 0.0000 0.0000 21.1275 0.0000 -4.7370
# 5 -2.0065 0.7422 -0.7842 0.0000 27.0535 0.0000
# 6 0.0000 0.0000 0.0000 -4.7370 0.0000 18.9783
#
#
#
# Elastic Compliance Matrix: (Units=1/GPa)
#
#
# Indices 1 2 3 4 5 6 
#
# 1 0.008543 -0.002356 -0.001935 0.000000 0.000642 0.000000
# 2 -0.002356 0.013348 -0.003554 0.000000 -0.000644 0.000000
# 3 -0.001935 -0.003554 0.012163 0.000000 0.000306 0.000000
# 4 0.000000 0.000000 0.000000 0.050138 0.000000 0.012514
# 5 0.000642 -0.000644 0.000306 0.000000 0.037038 0.000000
# 6 0.000000 0.000000 0.000000 0.012514 0.000000 0.055815
#
#
# Mechanical properties :
#
#
# Convention : Reuss Voigt Hill
#
# Bulk Modulus (GPa) = 54.45228 55.87536 55.16382
# Shear Modulus (GPa) = 25.14370 28.42470 26.78420
#
# Velocity S-wave (km/s) = 3.56534 3.79083 3.67982
# Velocity P-wave (km/s) = 6.66917 6.88542 6.77816
#
# Compressibility (1/GPa) = 0.01836471
#
# Stress axis : x y z
#
# Youngs Moduli (GPa) = 117.04996 74.91489 82.21745
#
# Poissons Ratio (x) = 0.17651 0.15912
# Poissons Ratio (y) = 0.27578 0.29217
# Poissons Ratio (z) = 0.22653 0.26622
#
# Static dielectric constant tensor:
#      x y z
#    x 4.434590 0.000000 0.068640 
#    y 0.000000 3.364820 0.000000 
#    z 0.068640 0.000000 3.762860 
# 
# 
# High freq. dielectric constant tensor:
#      x y z
#    x 1.798390 0.000000 -0.002750 
#    y 0.000000 1.728060 0.000000 
#    z -0.002750 0.000000 1.775790 
# 
# From -- ./inp_files/71827.got.cif
#   From: 2010.06.25/outbox.cif.g09.slc.cpg/sg13_36_cif.got.tgz:71827.got - 2010.06.28 04:50:58.
