data_PCOD8117874
_publ_section_title
;
Structure prediction by ZEFSAII (Michael W. Deem and Ramdas Pophale) SiO2 
 PCOD8117874
Probable space group: P 2/C
;
_chemical_formula_sum "Si O2"
_cell_formula_units_Z 20
_cell_length_a 8.346504
_cell_length_b 22.285535
_cell_length_c 9.274543
_cell_angle_alpha 90.000000
_cell_angle_beta 32.294893
_cell_angle_gamma 90.000000
_cell_volume 921.693814
_symmetry_space_group_name_H-M "P 2/C"
_symmetry_group_IT_number 13
_symmetry_cell_setting 'monoclinic'
loop_
_space_group_symop_operation_xyz
x,y,z
-x,y,1/2-z
-x,-y,-z
x,-y,1/2+z
loop_
_atom_site_type_symbol
_atom_site_label
_atom_site_fract_x
_atom_site_fract_y
_atom_site_fract_z
Si Si1 0.590990 0.760401 0.845617
Si Si2 0.622844 0.625386 0.817495
Si Si3 0.226997 0.819205 0.353379
Si Si4 0.831372 0.953876 0.027401
Si Si5 0.887975 0.442492 0.672604
O O1 0.500000 0.762669 0.750000
O O2 0.582734 0.692097 0.910090
O O3 0.915142 0.788423 0.635394
O O4 0.325928 0.797840 0.120831
O O5 0.500000 0.619159 0.750000
O O6 0.973362 0.611501 0.529053
O O7 0.464718 0.575574 0.044592
O O8 0.500000 0.800146 0.250000
O O9 0.184356 0.890488 0.379813
O O10 0.500000 0.979495 0.250000
O O11 0.000000 0.944541 0.750000
O O12 0.000000 0.000000 0.000000
O O13 0.000000 0.447365 0.750000
O O14 0.000000 0.500000 0.500000
#
# Coordination Sequence:
#
# PCOD8117874 Si02
#       5
#     4   4   4   4   4
#     4  11  22  39  64  91 117 159 213 252 288 361
#     4   9  19  35  56  82 113 148 191 245 296 342
#     4  11  23  41  61  89 128 163 192 247 320 363
#     4  11  24  43  65  91 124 163 205 251 303 362
#     4  10  19  34  55  79 111 149 188 237 296 354
#
# _framework density 21.699179000000001
#
# number of rings (size 3 to 8) (size 9 to 14) (size 15 to 20)
#    0.000    1.600    0.000    6.000    0.000    5.600 
#    0.000    4.000    0.000    1.200    0.000    0.000 
#    0.000    0.000    0.000    0.000    0.000    0.000 
#
# Total GULP energy -247834.671132 kJ/mol
# GULP energy per Si atom -12391.733557 kJ/mol
# Density = 2.164979 g / cm^3
# Si number density = 21.699179 Si / 1000 Ang^3
#
#
#
# Elastic Constant Matrix: (Units=GPa)
#
#
# Indices 1 2 3 4 5 6 
#
# 1 46.4997 42.9531 22.4689 0.0000 -6.6583 0.0000
# 2 42.9531 142.5980 62.8425 0.0000 13.1691 0.0000
# 3 22.4689 62.8425 149.4883 0.0000 -0.7095 0.0000
# 4 0.0000 0.0000 0.0000 63.5610 0.0000 11.8667
# 5 -6.6583 13.1691 -0.7095 0.0000 36.4819 0.0000
# 6 0.0000 0.0000 0.0000 11.8667 0.0000 30.7419
#
#
#
# Elastic Compliance Matrix: (Units=1/GPa)
#
#
# Indices 1 2 3 4 5 6 
#
# 1 0.032960 -0.010648 -0.000431 0.000000 0.009851 0.000000
# 2 -0.010648 0.012432 -0.003657 0.000000 -0.006502 0.000000
# 3 -0.000431 -0.003657 0.008298 0.000000 0.001403 0.000000
# 4 0.000000 0.000000 0.000000 0.016955 0.000000 -0.006545
# 5 0.009851 -0.006502 0.001403 0.000000 0.031583 0.000000
# 6 0.000000 0.000000 0.000000 -0.006545 0.000000 0.035055
#
#
# Mechanical properties :
#
#
# Convention : Reuss Voigt Hill
#
# Bulk Modulus (GPa) = 41.28999 66.12390 53.70694
# Shear Modulus (GPa) = 28.59955 40.17840 34.38897
#
# Velocity S-wave (km/s) = 3.63437 4.30770 3.98528
# Velocity P-wave (km/s) = 6.05650 7.43511 6.78093
#
# Compressibility (1/GPa) = 0.02421895
#
# Stress axis : x y z
#
# Youngs Moduli (GPa) = 30.33963 80.43740 120.50895
#
# Poissons Ratio (x) = 0.85649 0.05195
# Poissons Ratio (y) = 0.32306 0.44066
# Poissons Ratio (z) = 0.01308 0.29413
#
# Static dielectric constant tensor:
#      x y z
#    x 3.671230 0.000000 -0.151060 
#    y 0.000000 3.974820 0.000000 
#    z -0.151060 0.000000 4.572320 
# 
# 
# High freq. dielectric constant tensor:
#      x y z
#    x 1.825110 0.000000 -0.002730 
#    y 0.000000 1.857320 0.000000 
#    z -0.002730 0.000000 1.882580 
# 
# From -- ./inp_files/13779.got.cif
#   From: 2010.06.25/outbox.cif.g09.slc.cpg/sg13_7_cif.got.tgz:13779.got - 2010.06.28 04:50:58.
