data_PCOD8117265
_publ_section_title
;
Structure prediction by ZEFSAII (Michael W. Deem and Ramdas Pophale) SiO2 
 PCOD8117265
Probable space group: P 2/C
;
_chemical_formula_sum "Si O2"
_cell_formula_units_Z 26
_cell_length_a 15.220167
_cell_length_b 5.651968
_cell_length_c 28.373760
_cell_angle_alpha 90.000000
_cell_angle_beta 27.486940
_cell_angle_gamma 90.000000
_cell_volume 1126.552371
_symmetry_space_group_name_H-M "P 2/C"
_symmetry_group_IT_number 13
_symmetry_cell_setting 'monoclinic'
loop_
_space_group_symop_operation_xyz
x,y,z
-x,y,1/2-z
-x,-y,-z
x,-y,1/2+z
loop_
_atom_site_type_symbol
_atom_site_label
_atom_site_fract_x
_atom_site_fract_y
_atom_site_fract_z
Si Si1 0.847785 0.620032 0.749062
Si Si2 0.000000 0.295252 0.750000
Si Si3 0.138690 0.004189 0.100432
Si Si4 0.165635 0.242838 0.817746
Si Si5 0.277686 0.249672 0.867191
Si Si6 0.524794 0.921126 0.870473
Si Si7 0.349044 0.746857 0.864044
O O1 0.842488 0.440016 0.795170
O O2 0.833156 0.503538 0.704568
O O3 0.671566 0.799925 0.837261
O O4 0.054564 0.741251 0.653418
O O5 0.872335 0.148139 0.846879
O O6 0.015351 0.897758 0.116186
O O7 0.355985 0.032056 0.981592
O O8 0.147880 0.254949 0.882245
O O9 0.367695 0.127935 0.708271
O O10 0.500000 0.254676 0.750000
O O11 0.228666 0.498159 0.918232
O O12 0.231814 0.999471 0.916201
O O13 0.447649 0.736321 0.868320
O O14 0.500000 0.746158 0.750000
#
# Coordination Sequence:
#
# PCOD8117265 Si02
#       7
#     4   2   4   4   4   4   4
#     4  10  22  42  69  89 134 168 211 278 335 409
#     4  10  22  46  66  96 128 170 208 270 352 406
#     4  10  24  42  66  96 131 163 222 279 334 411
#     4  10  21  39  63  94 129 180 218 268 339 384
#     4  10  18  33  60  89 131 185 222 269 327 392
#     4  11  22  40  66  99 127 174 224 273 331 395
#     4  10  19  34  61  93 135 177 225 272 325 392
#
# _framework density 23.079263999999998
#
# number of rings (size 3 to 8) (size 9 to 14) (size 15 to 20)
#    0.000    1.846    3.077    2.308    2.154    3.077 
#    0.000   12.308    0.000    0.000    0.000    0.000 
#    0.000    0.000    0.000    0.000    0.000    0.000 
#
# Total GULP energy -322266.923127 kJ/mol
# GULP energy per Si atom -12394.881659 kJ/mol
# Density = 2.302673 g / cm^3
# Si number density = 23.079264 Si / 1000 Ang^3
#
#
#
# Elastic Constant Matrix: (Units=GPa)
#
#
# Indices 1 2 3 4 5 6 
#
# 1 88.2908 28.5542 9.5503 0.0000 4.1629 0.0000
# 2 28.5542 156.2891 18.2592 0.0000 -2.1201 0.0000
# 3 9.5503 18.2592 90.3954 0.0000 -6.1478 0.0000
# 4 0.0000 0.0000 0.0000 0.4387 0.0000 -9.3648
# 5 4.1629 -2.1201 -6.1478 0.0000 15.6724 0.0000
# 6 0.0000 0.0000 0.0000 -9.3648 0.0000 2.1175
#
#
#
# Elastic Compliance Matrix: (Units=1/GPa)
#
#
# Indices 1 2 3 4 5 6 
#
# 1 0.012343 -0.002177 -0.001138 0.000000 -0.004019 0.000000
# 2 -0.002177 0.006939 -0.001098 0.000000 0.001086 0.000000
# 3 -0.001138 -0.001098 0.011728 0.000000 0.004754 0.000000
# 4 0.000000 0.000000 0.000000 -0.024404 0.000000 -0.107926
# 5 -0.004019 0.001086 0.004754 0.000000 0.066886 0.000000
# 6 0.000000 0.000000 0.000000 -0.107926 0.000000 -0.005056
#
#
# Mechanical properties :
#
#
# Convention : Reuss Voigt Hill
#
# Bulk Modulus (GPa) = 45.07487 49.74473 47.40980
# Shear Modulus (GPa) = 59.06336 22.21985 40.64161
#
# Velocity S-wave (km/s) = 5.06430 3.10621 4.20093
# Velocity P-wave (km/s) = 7.33273 5.87072 6.64208
#
# Compressibility (1/GPa) = 0.02218531
#
# Stress axis : x y z
#
# Youngs Moduli (GPa) = 81.01938 144.11166 85.26765
#
# Poissons Ratio (x) = 0.31368 0.09701
# Poissons Ratio (y) = 0.17635 0.09361
# Poissons Ratio (z) = 0.09218 0.15821
#
# Static dielectric constant tensor:
#      x y z
#    x 4.274070 0.000000 -0.094710 
#    y 0.000000 4.904520 0.000000 
#    z -0.094710 0.000000 3.654760 
# 
# 
# High freq. dielectric constant tensor:
#      x y z
#    x 1.920060 0.000000 -0.007320 
#    y 0.000000 1.923290 0.000000 
#    z -0.007320 0.000000 1.870940 
# 
# From -- ./inp_files/96838.got.cif
#   From: 2010.06.25/outbox.cif.g09.slc.cpg/sg13_49_cif.got.tgz:96838.got - 2010.06.28 04:50:58.
