data_PCOD8117037
_publ_section_title
;
Structure prediction by ZEFSAII (Michael W. Deem and Ramdas Pophale) SiO2 
 PCOD8117037
Probable space group: P 2/C
;
_chemical_formula_sum "Si O2"
_cell_formula_units_Z 26
_cell_length_a 23.319193
_cell_length_b 12.609642
_cell_length_c 12.831010
_cell_angle_alpha 90.000000
_cell_angle_beta 22.258255
_cell_angle_gamma 90.000000
_cell_volume 1429.112464
_symmetry_space_group_name_H-M "P 2/C"
_symmetry_group_IT_number 13
_symmetry_cell_setting 'monoclinic'
loop_
_space_group_symop_operation_xyz
x,y,z
-x,y,1/2-z
-x,-y,-z
x,-y,1/2+z
loop_
_atom_site_type_symbol
_atom_site_label
_atom_site_fract_x
_atom_site_fract_y
_atom_site_fract_z
Si Si1 0.785117 0.022921 0.263613
Si Si2 0.500000 0.154698 0.750000
Si Si3 0.721687 0.794985 0.428503
Si Si4 0.000000 0.911199 0.750000
Si Si5 0.653747 0.677701 0.122691
Si Si6 0.500000 0.497239 0.750000
Si Si7 0.058337 0.802510 0.863140
Si Si8 0.572669 0.688247 0.495656
O O1 0.638136 0.086189 0.474244
O O2 0.899052 0.095056 0.139419
O O3 0.725830 0.922820 0.431689
O O4 0.869158 0.985193 0.017917
O O5 0.452042 0.225292 0.732921
O O6 0.684701 0.767215 0.369393
O O7 0.598011 0.737996 0.710710
O O8 0.891578 0.757435 0.172141
O O9 0.931758 0.837559 0.774000
O O10 0.618797 0.573000 0.115178
O O11 0.623226 0.664614 0.295042
O O12 0.828410 0.705381 0.807384
O O13 0.588241 0.572798 0.521900
#
# Coordination Sequence:
#
# PCOD8117037 Si02
#       8
#     4   2   4   2   4   2   4   4
#     4  10  19  32  47  72 106 137 165 199 233 277
#     4   9  20  31  46  74 104 131 164 201 238 280
#     4   9  18  33  49  74 104 130 165 200 232 284
#     4  10  18  30  48  70 100 140 172 192 232 288
#     4  10  19  34  54  73  97 127 162 203 249 296
#     4   9  20  37  54  74  96 121 160 209 254 298
#     4  10  20  32  50  75 103 133 162 201 243 280
#     4  10  20  34  55  74  93 129 165 202 248 293
#
# _framework density 18.193109
#
# number of rings (size 3 to 8) (size 9 to 14) (size 15 to 20)
#    0.000    2.462    0.000    5.077    0.000    2.462 
#    0.000    6.923    0.000    3.692    0.000    0.000 
#    0.000    0.000    0.000    0.000    0.000    0.000 
#
# Total GULP energy -322256.219992 kJ/mol
# GULP energy per Si atom -12394.470000 kJ/mol
# Density = 1.815170 g / cm^3
# Si number density = 18.193109 Si / 1000 Ang^3
#
#
#
# Elastic Constant Matrix: (Units=GPa)
#
#
# Indices 1 2 3 4 5 6 
#
# 1 61.8303 30.0731 28.1295 0.0000 -17.5234 0.0000
# 2 30.0731 94.8329 48.0626 0.0000 -9.8188 0.0000
# 3 28.1295 48.0626 87.3931 0.0000 -24.5085 0.0000
# 4 0.0000 0.0000 0.0000 14.7902 0.0000 0.4705
# 5 -17.5234 -9.8188 -24.5085 0.0000 31.3324 0.0000
# 6 0.0000 0.0000 0.0000 0.4705 0.0000 26.2196
#
#
#
# Elastic Compliance Matrix: (Units=1/GPa)
#
#
# Indices 1 2 3 4 5 6 
#
# 1 0.022130 -0.005233 -0.001581 0.000000 0.009500 0.000000
# 2 -0.005233 0.015975 -0.008350 0.000000 -0.004452 0.000000
# 3 -0.001581 -0.008350 0.019935 0.000000 0.012092 0.000000
# 4 0.000000 0.000000 0.000000 0.067651 0.000000 -0.001214
# 5 0.009500 -0.004452 0.012092 0.000000 0.045293 0.000000
# 6 0.000000 0.000000 0.000000 -0.001214 0.000000 0.038161
#
#
# Mechanical properties :
#
#
# Convention : Reuss Voigt Hill
#
# Bulk Modulus (GPa) = 36.08465 50.73186 43.40825
# Shear Modulus (GPa) = 20.10376 23.65452 21.87914
#
# Velocity S-wave (km/s) = 3.32779 3.60973 3.47162
# Velocity P-wave (km/s) = 5.88582 6.73196 6.32306
#
# Compressibility (1/GPa) = 0.02771261
#
# Stress axis : x y z
#
# Youngs Moduli (GPa) = 45.18692 62.59700 50.16414
#
# Poissons Ratio (x) = 0.32757 0.07931
# Poissons Ratio (y) = 0.23646 0.41886
# Poissons Ratio (z) = 0.07144 0.52267
#
# Static dielectric constant tensor:
#      x y z
#    x 3.349120 0.000000 -0.239500 
#    y 0.000000 3.371520 0.000000 
#    z -0.239500 0.000000 3.325020 
# 
# 
# High freq. dielectric constant tensor:
#      x y z
#    x 1.701800 0.000000 -0.013870 
#    y 0.000000 1.701900 0.000000 
#    z -0.013870 0.000000 1.702120 
# 
# From -- ./inp_files/59579.got.cif
#   From: 2010.06.25/outbox.cif.g09.slc.cpg/sg13_30_cif.got.tgz:59579.got - 2010.06.28 04:50:58.
