data_PCOD8117266
_publ_section_title
;
Structure prediction by ZEFSAII (Michael W. Deem and Ramdas Pophale) SiO2 
 PCOD8117266
Probable space group: P 2/C
;
_chemical_formula_sum "Si O2"
_cell_formula_units_Z 28
_cell_length_a 22.918586
_cell_length_b 8.887551
_cell_length_c 18.440434
_cell_angle_alpha 90.000000
_cell_angle_beta 22.546245
_cell_angle_gamma 90.000000
_cell_volume 1440.210644
_symmetry_space_group_name_H-M "P 2/C"
_symmetry_group_IT_number 13
_symmetry_cell_setting 'monoclinic'
loop_
_space_group_symop_operation_xyz
x,y,z
-x,y,1/2-z
-x,-y,-z
x,-y,1/2+z
loop_
_atom_site_type_symbol
_atom_site_label
_atom_site_fract_x
_atom_site_fract_y
_atom_site_fract_z
Si Si1 0.790969 0.668688 0.773798
Si Si2 0.432023 0.186011 0.136204
Si Si3 0.223174 0.414250 0.441475
Si Si4 0.318662 0.408949 0.702164
Si Si5 0.316604 0.965775 0.628416
Si Si6 0.120337 0.566319 0.214971
Si Si7 0.102674 0.778152 0.362006
O O1 0.697081 0.557177 0.830146
O O2 0.684613 0.811843 0.917956
O O3 0.860081 0.590911 0.765102
O O4 0.923588 0.745415 0.572503
O O5 0.306489 0.254455 0.333979
O O6 0.343368 0.081463 0.181144
O O7 0.521163 0.325931 0.995676
O O8 0.549205 0.081922 0.047839
O O9 0.308497 0.545940 0.298670
O O10 0.230499 0.444293 0.519024
O O11 0.051282 0.406464 0.611667
O O12 0.180661 0.297705 0.842612
O O13 0.152306 0.047241 0.806086
O O14 0.168688 0.702048 0.212601
#
# Coordination Sequence:
#
# PCOD8117266 Si02
#       7
#     4   4   4   4   4   4   4
#     4  11  18  35  57  89 108 140 190 235 272 326
#     4  10  21  36  56  88 108 149 193 225 273 341
#     4  11  19  35  59  84 110 142 183 242 280 327
#     4  10  18  33  61  81 109 140 190 239 270 314
#     4  10  21  33  59  81 113 147 186 224 277 328
#     4  10  21  34  60  85 111 141 188 236 294 315
#     4  10  18  35  56  87 112 145 184 233 273 332
#
# _framework density 19.441602
#
# number of rings (size 3 to 8) (size 9 to 14) (size 15 to 20)
#    0.000    1.714    4.286    1.714    0.000    0.000 
#    0.000    6.429   12.571    1.714    0.000    0.000 
#    0.000    0.000    0.000    0.000    0.000    0.000 
#
# Total GULP energy -347006.421074 kJ/mol
# GULP energy per Si atom -12393.086467 kJ/mol
# Density = 1.939735 g / cm^3
# Si number density = 19.441602 Si / 1000 Ang^3
#
#
#
# Elastic Constant Matrix: (Units=GPa)
#
#
# Indices 1 2 3 4 5 6 
#
# 1 77.5580 37.7105 36.8842 0.0000 12.6957 0.0000
# 2 37.7105 132.9577 39.6170 0.0000 3.1315 0.0000
# 3 36.8842 39.6170 71.7869 0.0000 7.0170 0.0000
# 4 0.0000 0.0000 0.0000 25.0730 0.0000 -10.4628
# 5 12.6957 3.1315 7.0170 0.0000 31.2573 0.0000
# 6 0.0000 0.0000 0.0000 -10.4628 0.0000 25.4812
#
#
#
# Elastic Compliance Matrix: (Units=1/GPa)
#
#
# Indices 1 2 3 4 5 6 
#
# 1 0.018824 -0.002979 -0.007474 0.000000 -0.005670 0.000000
# 2 -0.002979 0.009474 -0.003807 0.000000 0.001115 0.000000
# 3 -0.007474 -0.003807 0.019976 0.000000 -0.001067 0.000000
# 4 0.000000 0.000000 0.000000 0.048130 0.000000 0.019763
# 5 -0.005670 0.001115 -0.001067 0.000000 0.034423 0.000000
# 6 0.000000 0.000000 0.000000 0.019763 0.000000 0.047360
#
#
# Mechanical properties :
#
#
# Convention : Reuss Voigt Hill
#
# Bulk Modulus (GPa) = 50.62082 56.74733 53.68408
# Shear Modulus (GPa) = 23.44212 27.56836 25.50524
#
# Velocity S-wave (km/s) = 3.47619 3.76973 3.62593
# Velocity P-wave (km/s) = 6.49659 6.94261 6.72330
#
# Compressibility (1/GPa) = 0.01975472
#
# Stress axis : x y z
#
# Youngs Moduli (GPa) = 53.12288 105.55080 50.06106
#
# Poissons Ratio (x) = 0.31439 0.37416
# Poissons Ratio (y) = 0.15823 0.19059
# Poissons Ratio (z) = 0.39704 0.40184
#
# Static dielectric constant tensor:
#      x y z
#    x 3.543950 0.000000 -0.183350 
#    y 0.000000 3.832760 0.000000 
#    z -0.183350 0.000000 3.585530 
# 
# 
# High freq. dielectric constant tensor:
#      x y z
#    x 1.741090 0.000000 -0.035980 
#    y 0.000000 1.766190 0.000000 
#    z -0.035980 0.000000 1.739250 
# 
# From -- ./inp_files/82415.got.cif
#   From: 2010.06.25/outbox.cif.g09.slc.cpg/sg13_42_cif.got.tgz:82415.got - 2010.06.28 04:50:58.
