data_PCOD8117967
_publ_section_title
;
Structure prediction by ZEFSAII (Michael W. Deem and Ramdas Pophale) SiO2 
 PCOD8117967
Probable space group: P 2/C
;
_chemical_formula_sum "Si O2"
_cell_formula_units_Z 28
_cell_length_a 24.113874
_cell_length_b 10.467268
_cell_length_c 30.356605
_cell_angle_alpha 90.000000
_cell_angle_beta 170.154708
_cell_angle_gamma 90.000000
_cell_volume 1310.147502
_symmetry_space_group_name_H-M "P 2/C"
_symmetry_group_IT_number 13
_symmetry_cell_setting 'monoclinic'
loop_
_space_group_symop_operation_xyz
x,y,z
-x,y,1/2-z
-x,-y,-z
x,-y,1/2+z
loop_
_atom_site_type_symbol
_atom_site_label
_atom_site_fract_x
_atom_site_fract_y
_atom_site_fract_z
Si Si1 0.380168 0.392603 0.872645
Si Si2 0.500000 0.405368 0.250000
Si Si3 0.718398 0.531254 0.828453
Si Si4 0.500000 0.985119 0.750000
Si Si5 0.347975 0.304123 0.498888
Si Si6 0.644426 0.222381 0.490346
Si Si7 0.954520 0.781597 0.321883
Si Si8 0.371474 0.957899 0.053984
O O1 0.667273 0.338111 0.065483
O O2 0.106927 0.458713 0.627940
O O3 0.220907 0.270068 0.771726
O O4 0.500000 0.500000 0.000000
O O5 0.367151 0.485352 0.186802
O O6 0.791019 0.321142 0.497999
O O7 0.603027 0.400350 0.718318
O O8 0.566667 0.654384 0.685944
O O9 0.168550 0.906483 0.499799
O O10 0.569960 0.070761 0.848191
O O11 0.498014 0.162830 0.624792
O O12 0.000000 0.318300 0.250000
O O13 0.468163 0.095554 0.332212
O O14 0.000000 0.246074 0.750000
O O15 0.675423 0.198058 0.567050
O O16 0.000000 0.977326 0.750000
#
# Coordination Sequence:
#
# PCOD8117967 Si02
#       8
#     4   2   4   2   4   4   4   4
#     4  11  25  44  62  95 137 171 224 288 331 399
#     4   9  18  29  54 100 114 148 220 266 314 374
#     4  11  22  37  67  93 125 171 224 272 330 393
#     4  11  18  39  68 102 126 182 230 282 316 402
#     4  11  26  44  63  92 138 177 212 268 352 406
#     4  11  17  35  66  99 130 169 225 275 319 386
#     4  10  19  34  63  94 129 164 221 281 320 377
#     4  10  21  39  63  96 140 171 221 273 328 398
#
# _framework density 21.371638999999998
#
# number of rings (size 3 to 8) (size 9 to 14) (size 15 to 20)
#    0.000    1.429    4.286    3.429    4.000    0.571 
#    2.571    3.571    0.000    0.000    0.000    0.000 
#    0.000    0.000    0.000    0.000    0.000    0.000 
#
# Total GULP energy -346998.783894 kJ/mol
# GULP energy per Si atom -12392.813711 kJ/mol
# Density = 2.132300 g / cm^3
# Si number density = 21.371639 Si / 1000 Ang^3
#
#
#
# Elastic Constant Matrix: (Units=GPa)
#
#
# Indices 1 2 3 4 5 6 
#
# 1 75.9292 17.3899 42.0105 0.0000 -3.4418 0.0000
# 2 17.3899 115.0728 33.5663 0.0000 -6.0834 0.0000
# 3 42.0105 33.5663 81.2993 0.0000 -9.2879 0.0000
# 4 0.0000 0.0000 0.0000 1.3214 0.0000 -8.5016
# 5 -3.4418 -6.0834 -9.2879 0.0000 45.6426 0.0000
# 6 0.0000 0.0000 0.0000 -8.5016 0.0000 26.1708
#
#
#
# Elastic Compliance Matrix: (Units=1/GPa)
#
#
# Indices 1 2 3 4 5 6 
#
# 1 0.018457 -0.000021 -0.009593 0.000000 -0.000563 0.000000
# 2 -0.000021 0.009891 -0.004016 0.000000 0.000500 0.000000
# 3 -0.009593 -0.004016 0.019219 0.000000 0.002652 0.000000
# 4 0.000000 0.000000 0.000000 -0.694251 0.000000 -0.225529
# 5 -0.000563 0.000500 0.002652 0.000000 0.022473 0.000000
# 6 0.000000 0.000000 0.000000 -0.225529 0.000000 -0.035053
#
#
# Mechanical properties :
#
#
# Convention : Reuss Voigt Hill
#
# Bulk Modulus (GPa) = 49.24456 50.91498 50.07977
# Shear Modulus (GPa) = -7.99700 26.58259 9.29280
#
# Velocity S-wave (km/s) = -1.93649 3.53062 2.08749
# Velocity P-wave (km/s) = 4.25347 6.36362 5.41238
#
# Compressibility (1/GPa) = 0.02030681
#
# Stress axis : x y z
#
# Youngs Moduli (GPa) = 54.17929 101.10047 52.03293
#
# Poissons Ratio (x) = 0.00209 0.49917
# Poissons Ratio (y) = 0.00112 0.20897
# Poissons Ratio (z) = 0.51976 0.40602
#
# Static dielectric constant tensor:
#      x y z
#    x 4.272290 0.000000 -0.147810 
#    y 0.000000 4.033400 0.000000 
#    z -0.147810 0.000000 3.796240 
# 
# 
# High freq. dielectric constant tensor:
#      x y z
#    x 1.849510 0.000000 -0.019230 
#    y 0.000000 1.825600 0.000000 
#    z -0.019230 0.000000 1.819960 
# 
# From -- ./inp_files/97732.got.cif
#   From: 2010.06.25/outbox.cif.g09.slc.cpg/sg13_49_cif.got.tgz:97732.got - 2010.06.28 04:50:58.
