data_PCOD8117195
_publ_section_title
;
Structure prediction by ZEFSAII (Michael W. Deem and Ramdas Pophale) SiO2 
 PCOD8117195
Probable space group: P 2/C
;
_chemical_formula_sum "Si O2"
_cell_formula_units_Z 28
_cell_length_a 9.579424
_cell_length_b 11.790553
_cell_length_c 13.657297
_cell_angle_alpha 90.000000
_cell_angle_beta 112.284764
_cell_angle_gamma 90.000000
_cell_volume 1427.334810
_symmetry_space_group_name_H-M "P 2/C"
_symmetry_group_IT_number 13
_symmetry_cell_setting 'monoclinic'
loop_
_space_group_symop_operation_xyz
x,y,z
-x,y,1/2-z
-x,-y,-z
x,-y,1/2+z
loop_
_atom_site_type_symbol
_atom_site_label
_atom_site_fract_x
_atom_site_fract_y
_atom_site_fract_z
Si Si1 0.790312 0.831116 0.894618
Si Si2 0.933438 0.518870 0.333920
Si Si3 0.067885 0.319238 0.487857
Si Si4 0.822164 0.962664 0.713973
Si Si5 0.347705 0.377189 0.255102
Si Si6 0.386494 0.102983 0.959300
Si Si7 0.664832 0.240143 0.055886
O O1 0.788048 0.934785 0.817612
O O2 0.699708 0.725194 0.828231
O O3 0.961792 0.791807 0.960419
O O4 0.710781 0.878201 0.969435
O O5 0.949691 0.622342 0.412314
O O6 0.760160 0.485360 0.276989
O O7 0.000000 0.563414 0.250000
O O8 0.022468 0.406156 0.390010
O O9 0.239856 0.284490 0.511443
O O10 0.762428 0.861683 0.628993
O O11 0.000000 0.981226 0.750000
O O12 0.730995 0.077630 0.660360
O O13 0.500000 0.425523 0.250000
O O14 0.360731 0.337085 0.370322
O O15 0.498101 0.209079 0.970633
O O16 0.500000 0.000000 0.000000
#
# Coordination Sequence:
#
# PCOD8117195 Si02
#       7
#     4   4   4   4   4   4   4
#     4  10  20  36  61  84 113 158 203 237 293 357
#     4  10  20  35  59  92 119 150 199 251 288 347
#     4  10  20  36  62  87 117 156 199 246 295 348
#     4  10  20  35  60  87 115 152 204 251 285 349
#     4  10  18  32  60  89 117 153 194 239 293 357
#     4  10  22  36  58  90 120 147 199 254 294 340
#     4  10  18  35  57  88 117 153 199 244 292 355
#
# _framework density 19.616980999999999
#
# number of rings (size 3 to 8) (size 9 to 14) (size 15 to 20)
#    0.000    2.000    4.286    0.000    0.000    0.571 
#    0.000    2.857    3.143    0.000    0.000    0.000 
#    0.000    0.000    0.000    0.000    0.000    0.000 
#
# Total GULP energy -347126.345843 kJ/mol
# GULP energy per Si atom -12397.369494 kJ/mol
# Density = 1.957233 g / cm^3
# Si number density = 19.616981 Si / 1000 Ang^3
#
#
#
# Elastic Constant Matrix: (Units=GPa)
#
#
# Indices 1 2 3 4 5 6 
#
# 1 168.9364 38.0078 67.9827 0.0000 -7.2686 0.0000
# 2 38.0078 42.9782 44.4653 0.0000 -3.9264 0.0000
# 3 67.9827 44.4653 92.7898 0.0000 -4.9255 0.0000
# 4 0.0000 0.0000 0.0000 2.0057 0.0000 9.2153
# 5 -7.2686 -3.9264 -4.9255 0.0000 37.4144 0.0000
# 6 0.0000 0.0000 0.0000 9.2153 0.0000 22.4795
#
#
#
# Elastic Compliance Matrix: (Units=1/GPa)
#
#
# Indices 1 2 3 4 5 6 
#
# 1 0.008512 -0.002079 -0.005200 0.000000 0.000751 0.000000
# 2 -0.002079 0.046795 -0.020807 0.000000 0.001768 0.000000
# 3 -0.005200 -0.020807 0.024560 0.000000 0.000039 0.000000
# 4 0.000000 0.000000 0.000000 -0.564322 0.000000 0.231338
# 5 0.000751 0.001768 0.000039 0.000000 0.027064 0.000000
# 6 0.000000 0.000000 0.000000 0.231338 0.000000 -0.050350
#
#
# Mechanical properties :
#
#
# Convention : Reuss Voigt Hill
#
# Bulk Modulus (GPa) = 42.20484 67.29069 54.74776
# Shear Modulus (GPa) = -11.26966 22.66316 5.69675
#
# Velocity S-wave (km/s) = -2.39944 3.40263 1.70596
# Velocity P-wave (km/s) = 3.72622 7.05790 5.64352
#
# Compressibility (1/GPa) = 0.02369396
#
# Stress axis : x y z
#
# Youngs Moduli (GPa) = 117.47974 21.36990 40.71620
#
# Poissons Ratio (x) = 0.04442 0.21174
# Poissons Ratio (y) = 0.24421 0.84720
# Poissons Ratio (z) = 0.61094 0.44465
#
# Static dielectric constant tensor:
#      x y z
#    x 3.765050 0.000000 0.183320 
#    y 0.000000 3.388790 0.000000 
#    z 0.183320 0.000000 3.575690 
# 
# 
# High freq. dielectric constant tensor:
#      x y z
#    x 1.784980 0.000000 -0.001410 
#    y 0.000000 1.733750 0.000000 
#    z -0.001410 0.000000 1.745910 
# 
# From -- ./inp_files/46965.got.cif
#   From: 2010.06.25/outbox.cif.g09.slc.cpg/sg13_24_cif.got.tgz:46965.got - 2010.06.28 04:50:58.
