data_PCOD8117186
_publ_section_title
;
Structure prediction by ZEFSAII (Michael W. Deem and Ramdas Pophale) SiO2 
 PCOD8117186
Probable space group: P 2/C
;
_chemical_formula_sum "Si O2"
_cell_formula_units_Z 30
_cell_length_a 25.199527
_cell_length_b 10.715721
_cell_length_c 14.230289
_cell_angle_alpha 90.000000
_cell_angle_beta 21.727631
_cell_angle_gamma 90.000000
_cell_volume 1422.518127
_symmetry_space_group_name_H-M "P 2/C"
_symmetry_group_IT_number 13
_symmetry_cell_setting 'monoclinic'
loop_
_space_group_symop_operation_xyz
x,y,z
-x,y,1/2-z
-x,-y,-z
x,-y,1/2+z
loop_
_atom_site_type_symbol
_atom_site_label
_atom_site_fract_x
_atom_site_fract_y
_atom_site_fract_z
Si Si1 0.743381 0.544835 0.602512
Si Si2 0.661146 0.069025 0.015282
Si Si3 0.550979 0.325032 0.569141
Si Si4 0.331357 0.012062 0.794370
Si Si5 0.776377 0.876379 0.694689
Si Si6 0.346963 0.278551 0.742738
Si Si7 0.000000 0.708917 0.250000
Si Si8 0.418731 0.667601 0.795488
O O1 0.763208 0.395307 0.579921
O O2 0.680451 0.572649 0.601232
O O3 0.890001 0.619236 0.375720
O O4 0.631042 0.576260 0.870009
O O5 0.500000 0.035079 0.250000
O O6 0.675666 0.218812 0.004605
O O7 0.706213 0.002244 0.036099
O O8 0.773085 0.007897 0.756372
O O9 0.500000 0.390463 0.750000
O O10 0.650828 0.211892 0.439287
O O11 0.418648 0.273287 0.727503
O O12 0.268195 0.145558 0.862670
O O13 0.500000 0.000000 0.500000
O O14 0.251132 0.902675 0.870316
O O15 0.924366 0.797486 0.452709
O O16 0.465481 0.276234 0.466168
O O17 0.500000 0.601014 0.750000
#
# Coordination Sequence:
#
# PCOD8117186 Si02
#       8
#     4   4   4   4   4   4   2   4
#     4  10  23  39  57  82 118 170 212 242 295 365
#     4  11  18  30  57  93 123 148 187 255 331 373
#     4  10  18  32  58  88 117 145 196 260 318 363
#     4  12  18  33  57  92 129 144 181 261 331 377
#     4  11  21  36  59  87 119 165 201 243 308 368
#     4  11  20  32  55  88 122 154 190 249 322 369
#     4  10  24  46  60  74 124 182 224 246 268 366
#     4  10  19  34  59  93 125 147 186 257 326 369
#
# _framework density 21.089359999999999
#
# number of rings (size 3 to 8) (size 9 to 14) (size 15 to 20)
#    0.000    1.333    4.000    5.200    0.000    2.133 
#    0.000    3.333    0.000   12.800    0.000    0.000 
#    0.000    0.000    0.000    0.000    0.000    0.000 
#
# Total GULP energy -371764.144328 kJ/mol
# GULP energy per Si atom -12392.138144 kJ/mol
# Density = 2.104136 g / cm^3
# Si number density = 21.089360 Si / 1000 Ang^3
#
#
#
# Elastic Constant Matrix: (Units=GPa)
#
#
# Indices 1 2 3 4 5 6 
#
# 1 117.9644 16.3441 33.0894 0.0000 16.6764 0.0000
# 2 16.3441 131.0933 32.1242 0.0000 -1.2599 0.0000
# 3 33.0894 32.1242 62.4604 0.0000 -1.0644 0.0000
# 4 0.0000 0.0000 0.0000 17.0566 0.0000 -1.1027
# 5 16.6764 -1.2599 -1.0644 0.0000 23.5023 0.0000
# 6 0.0000 0.0000 0.0000 -1.1027 0.0000 0.0809
#
#
#
# Elastic Compliance Matrix: (Units=1/GPa)
#
#
# Indices 1 2 3 4 5 6 
#
# 1 0.011392 0.000015 -0.006186 0.000000 -0.008363 0.000000
# 2 0.000015 0.008730 -0.004494 0.000000 0.000254 0.000000
# 3 -0.006186 -0.004494 0.021686 0.000000 0.005130 0.000000
# 4 0.000000 0.000000 0.000000 0.495342 0.000000 6.755105
# 5 -0.008363 0.000254 0.005130 0.000000 0.048729 0.000000
# 6 0.000000 0.000000 0.000000 6.755105 0.000000104.488153
#
#
# Mechanical properties :
#
#
# Convention : Reuss Voigt Hill
#
# Bulk Modulus (GPa) = 48.82883 52.73708 50.78295
# Shear Modulus (GPa) = 0.04757 23.45866 11.75311
#
# Velocity S-wave (km/s) = 0.15036 3.33880 2.36328
# Velocity P-wave (km/s) = 4.82014 6.31856 5.61952
#
# Compressibility (1/GPa) = 0.02047970
#
# Stress axis : x y z
#
# Youngs Moduli (GPa) = 87.77808 114.54955 46.11369
#
# Poissons Ratio (x) = -0.00172 0.28524
# Poissons Ratio (y) = -0.00132 0.20721
# Poissons Ratio (z) = 0.54295 0.51473
#
# Static dielectric constant tensor:
#      x y z
#    x 4.015030 0.000000 0.184310 
#    y 0.000000 4.019540 0.000000 
#    z 0.184310 0.000000 3.335060 
# 
# 
# High freq. dielectric constant tensor:
#      x y z
#    x 1.828520 0.000000 0.026060 
#    y 0.000000 1.847650 0.000000 
#    z 0.026060 0.000000 1.759630 
# 
# From -- ./inp_files/59613.got.cif
#   From: 2010.06.25/outbox.cif.g09.slc.cpg/sg13_30_cif.got.tgz:59613.got - 2010.06.28 04:50:58.
