data_PCOD8117899
_publ_section_title
;
Structure prediction by ZEFSAII (Michael W. Deem and Ramdas Pophale) SiO2 
 PCOD8117899
Probable space group: P 2/C
;
_chemical_formula_sum "Si O2"
_cell_formula_units_Z 28
_cell_length_a 26.920531
_cell_length_b 9.975688
_cell_length_c 26.945523
_cell_angle_alpha 90.000000
_cell_angle_beta 10.944498
_cell_angle_gamma 90.000000
_cell_volume 1373.858559
_symmetry_space_group_name_H-M "P 2/C"
_symmetry_group_IT_number 13
_symmetry_cell_setting 'monoclinic'
loop_
_space_group_symop_operation_xyz
x,y,z
-x,y,1/2-z
-x,-y,-z
x,-y,1/2+z
loop_
_atom_site_type_symbol
_atom_site_label
_atom_site_fract_x
_atom_site_fract_y
_atom_site_fract_z
Si Si1 0.893480 0.173511 0.693778
Si Si2 0.018046 0.485012 0.887697
Si Si3 0.959666 0.364918 0.342915
Si Si4 0.521335 0.224155 0.648277
Si Si5 0.309924 0.113902 0.705541
Si Si6 0.533175 0.370796 0.900778
Si Si7 0.622883 0.974480 0.762870
O O1 0.925344 0.128927 0.604011
O O2 0.905607 0.331376 0.687558
O O3 0.133993 0.119056 0.491063
O O4 0.615930 0.117885 0.984880
O O5 0.983566 0.529162 0.864033
O O6 0.255504 0.560401 0.681845
O O7 0.763459 0.517656 0.170870
O O8 0.681166 0.288702 0.614163
O O9 0.000000 0.438903 0.250000
O O10 0.179383 0.248862 0.130893
O O11 0.459732 0.290767 0.656730
O O12 0.472833 0.064272 0.689636
O O13 0.432403 0.264666 0.588134
O O14 0.500000 0.000000 0.500000
O O15 0.238959 0.070155 0.830921
#
# Coordination Sequence:
#
# PCOD8117899 Si02
#       7
#     4   4   4   4   4   4   4
#     4  11  21  33  52  75 107 145 178 209 249 308
#     4  10  21  35  51  77 104 137 174 207 263 315
#     4  10  19  34  57  79 100 127 165 214 259 314
#     4   9  18  33  54  79 101 127 164 209 264 302
#     4   9  20  34  52  76 103 140 185 221 256 297
#     4   9  19  34  51  72 106 137 170 218 253 295
#     4  10  20  35  53  75 104 138 174 215 254 300
#
# _framework density 20.380555999999999
#
# number of rings (size 3 to 8) (size 9 to 14) (size 15 to 20)
#    0.000    2.286    0.000    2.571    0.000   10.286 
#    0.000    0.000    0.000    5.143    0.000    0.000 
#    0.000    0.000    0.000    0.000    0.000    0.000 
#
# Total GULP energy -346928.581908 kJ/mol
# GULP energy per Si atom -12390.306497 kJ/mol
# Density = 2.033417 g / cm^3
# Si number density = 20.380556 Si / 1000 Ang^3
#
#
#
# Elastic Constant Matrix: (Units=GPa)
#
#
# Indices 1 2 3 4 5 6 
#
# 1 37.7379 16.2314 11.3262 0.0000 2.4509 0.0000
# 2 16.2314 96.1519 14.3183 0.0000 -3.6038 0.0000
# 3 11.3262 14.3183 85.3411 0.0000 -12.3547 0.0000
# 4 0.0000 0.0000 0.0000 21.6014 0.0000 -4.1239
# 5 2.4509 -3.6038 -12.3547 0.0000 20.6599 0.0000
# 6 0.0000 0.0000 0.0000 -4.1239 0.0000 12.5043
#
#
#
# Elastic Compliance Matrix: (Units=1/GPa)
#
#
# Indices 1 2 3 4 5 6 
#
# 1 0.030256 -0.004738 -0.004226 0.000000 -0.006943 0.000000
# 2 -0.004738 0.011423 -0.001005 0.000000 0.001954 0.000000
# 3 -0.004226 -0.001005 0.013678 0.000000 0.008506 0.000000
# 4 0.000000 0.000000 0.000000 0.049404 0.000000 0.016293
# 5 -0.006943 0.001954 0.008506 0.000000 0.054654 0.000000
# 6 0.000000 0.000000 0.000000 0.016293 0.000000 0.085346
#
#
# Mechanical properties :
#
#
# Convention : Reuss Voigt Hill
#
# Bulk Modulus (GPa) = 28.23298 33.66475 30.94887
# Shear Modulus (GPa) = 18.08286 22.77679 20.42983
#
# Velocity S-wave (km/s) = 2.98192 3.34664 3.16953
# Velocity P-wave (km/s) = 5.07334 5.61135 5.34912
#
# Compressibility (1/GPa) = 0.03541957
#
# Stress axis : x y z
#
# Youngs Moduli (GPa) = 33.05167 87.54294 73.10776
#
# Poissons Ratio (x) = 0.41482 0.30892
# Poissons Ratio (y) = 0.15661 0.07346
# Poissons Ratio (z) = 0.13966 0.08796
#
# Static dielectric constant tensor:
#      x y z
#    x 3.816290 0.000000 -0.213330 
#    y 0.000000 3.812010 0.000000 
#    z -0.213330 0.000000 3.806750 
# 
# 
# High freq. dielectric constant tensor:
#      x y z
#    x 1.771560 0.000000 -0.013850 
#    y 0.000000 1.791840 0.000000 
#    z -0.013850 0.000000 1.801160 
# 
# From -- ./inp_files/94847.got.cif
#   From: 2010.06.25/outbox.cif.g09.slc.cpg/sg13_48_cif.got.tgz:94847.got - 2010.06.28 04:50:58.
