data_PCOD8117702
_publ_section_title
;
Structure prediction by ZEFSAII (Michael W. Deem and Ramdas Pophale) SiO2 
 PCOD8117702
Probable space group: P 2/C
;
_chemical_formula_sum "Si O2"
_cell_formula_units_Z 30
_cell_length_a 5.118776
_cell_length_b 23.945351
_cell_length_c 13.568668
_cell_angle_alpha 90.000000
_cell_angle_beta 68.673991
_cell_angle_gamma 90.000000
_cell_volume 1549.243348
_symmetry_space_group_name_H-M "P 2/C"
_symmetry_group_IT_number 13
_symmetry_cell_setting 'monoclinic'
loop_
_space_group_symop_operation_xyz
x,y,z
-x,y,1/2-z
-x,-y,-z
x,-y,1/2+z
loop_
_atom_site_type_symbol
_atom_site_label
_atom_site_fract_x
_atom_site_fract_y
_atom_site_fract_z
Si Si1 0.235406 0.996590 0.832676
Si Si2 0.863024 0.311495 0.870324
Si Si3 0.362736 0.760753 0.371545
Si Si4 0.395399 0.492354 0.866674
Si Si5 0.000000 0.897744 0.750000
Si Si6 0.764579 0.133841 0.482043
Si Si7 0.226934 0.935641 0.026894
Si Si8 0.809707 0.431545 0.941397
O O1 0.500000 0.029611 0.750000
O O2 0.214284 0.937783 0.778261
O O3 0.303179 0.984026 0.938065
O O4 0.952964 0.033921 0.861689
O O5 0.557941 0.286490 0.891698
O O6 0.828420 0.364682 0.946068
O O7 0.000000 0.332799 0.750000
O O8 0.056803 0.264717 0.893937
O O9 0.500000 0.783323 0.250000
O O10 0.330533 0.808226 0.457928
O O11 0.500000 0.517665 0.750000
O O12 0.634153 0.449913 0.870449
O O13 0.115601 0.457128 0.893706
O O14 0.356060 0.546205 0.940618
O O15 0.162820 0.860057 0.645411
O O16 0.508378 0.090681 0.532128
O O17 0.034052 0.111867 0.503686
#
# Coordination Sequence:
#
# PCOD8117702 Si02
#       8
#     4   4   4   4   2   4   4   4
#     4  10  20  36  54  84 112 142 179 211 268 331
#     4  10  19  35  58  81 106 144 185 242 277 321
#     4  10  22  38  58  79 109 139 186 241 289 323
#     4  10  19  32  51  82 121 154 185 232 274 348
#     4  10  22  36  64  76 114 144 180 224 270 324
#     4  11  22  41  57  85 107 147 184 226 279 335
#     4  10  23  35  58  80 113 142 176 219 266 330
#     4  10  20  32  54  83 113 152 196 227 284 332
#
# _framework density 19.364293
#
# number of rings (size 3 to 8) (size 9 to 14) (size 15 to 20)
#    0.000    1.867    1.333    2.800    1.867    3.200 
#    0.000    0.000    2.933    0.000    0.000    0.000 
#    0.000    0.000    0.000    0.000    0.000    0.000 
#
# Total GULP energy -371999.408134 kJ/mol
# GULP energy per Si atom -12399.980271 kJ/mol
# Density = 1.932022 g / cm^3
# Si number density = 19.364293 Si / 1000 Ang^3
#
#
#
# Elastic Constant Matrix: (Units=GPa)
#
#
# Indices 1 2 3 4 5 6 
#
# 1 79.1838 6.2174 16.3257 0.0000 -6.4645 0.0000
# 2 6.2174 85.3282 50.6012 0.0000 1.0561 0.0000
# 3 16.3257 50.6012 124.1424 0.0000 -10.8524 0.0000
# 4 0.0000 0.0000 0.0000 25.2302 0.0000 2.4148
# 5 -6.4645 1.0561 -10.8524 0.0000 30.4170 0.0000
# 6 0.0000 0.0000 0.0000 2.4148 0.0000 21.6466
#
#
#
# Elastic Compliance Matrix: (Units=1/GPa)
#
#
# Indices 1 2 3 4 5 6 
#
# 1 0.013128 -0.000103 -0.001487 0.000000 0.002263 0.000000
# 2 -0.000103 0.015703 -0.006644 0.000000 -0.002938 0.000000
# 3 -0.001487 -0.006644 0.011304 0.000000 0.003948 0.000000
# 4 0.000000 0.000000 0.000000 0.040063 0.000000 -0.004469
# 5 0.002263 -0.002938 0.003948 0.000000 0.034868 0.000000
# 6 0.000000 0.000000 0.000000 -0.004469 0.000000 0.046695
#
#
# Mechanical properties :
#
#
# Convention : Reuss Voigt Hill
#
# Bulk Modulus (GPa) = 42.25064 48.32699 45.28882
# Shear Modulus (GPa) = 26.86464 29.82611 28.34537
#
# Velocity S-wave (km/s) = 3.72873 3.92888 3.83011
# Velocity P-wave (km/s) = 6.35642 6.75221 6.55730
#
# Compressibility (1/GPa) = 0.02366828
#
# Stress axis : x y z
#
# Youngs Moduli (GPa) = 76.17183 63.68069 88.46396
#
# Poissons Ratio (x) = 0.00656 0.13151
# Poissons Ratio (y) = 0.00785 0.58776
# Poissons Ratio (z) = 0.11324 0.42310
#
# Static dielectric constant tensor:
#      x y z
#    x 3.654510 0.000000 -0.068720 
#    y 0.000000 3.204940 0.000000 
#    z -0.068720 0.000000 3.726080 
# 
# 
# High freq. dielectric constant tensor:
#      x y z
#    x 1.776230 0.000000 -0.005580 
#    y 0.000000 1.719620 0.000000 
#    z -0.005580 0.000000 1.752600 
# 
# From -- ./inp_files/44639.got.cif
#   From: 2010.06.25/outbox.cif.g09.slc.cpg/sg13_23_cif.got.tgz:44639.got - 2010.06.28 04:50:58.
