data_PCOD8117319
_publ_section_title
;
Structure prediction by ZEFSAII (Michael W. Deem and Ramdas Pophale) SiO2 
 PCOD8117319
Probable space group: P 2/C
;
_chemical_formula_sum "Si O2"
_cell_formula_units_Z 26
_cell_length_a 9.297969
_cell_length_b 10.602026
_cell_length_c 21.162060
_cell_angle_alpha 90.000000
_cell_angle_beta 35.354105
_cell_angle_gamma 90.000000
_cell_volume 1207.075364
_symmetry_space_group_name_H-M "P 2/C"
_symmetry_group_IT_number 13
_symmetry_cell_setting 'monoclinic'
loop_
_space_group_symop_operation_xyz
x,y,z
-x,y,1/2-z
-x,-y,-z
x,-y,1/2+z
loop_
_atom_site_type_symbol
_atom_site_label
_atom_site_fract_x
_atom_site_fract_y
_atom_site_fract_z
Si Si1 0.500779 0.111942 0.610865
Si Si2 0.278840 0.847712 0.673492
Si Si3 0.439988 0.701643 0.028149
Si Si4 0.253968 0.319716 0.304715
Si Si5 0.100277 0.519059 0.643479
Si Si6 0.036045 0.918309 0.925438
Si Si7 0.500000 0.927886 0.250000
O O1 0.389668 0.230643 0.613389
O O2 0.551130 0.151161 0.667134
O O3 0.772128 0.076133 0.482861
O O4 0.313554 0.995997 0.671256
O O5 0.494160 0.804157 0.548262
O O6 0.320334 0.770508 0.722400
O O7 0.000000 0.819969 0.750000
O O8 0.187391 0.625523 0.101842
O O9 0.667434 0.607258 0.953724
O O10 0.500000 0.372046 0.250000
O O11 0.101183 0.231363 0.409242
O O12 0.107539 0.443838 0.333616
O O13 0.000000 0.541490 0.750000
O O14 0.270109 0.985101 0.808374
O O15 0.000000 0.000000 0.000000
#
# Coordination Sequence:
#
# PCOD8117319 Si02
#       7
#     4   4   4   4   4   4   2
#     4  11  22  37  66 103 141 177 221 282 346 420
#     4  12  22  41  67 102 139 177 230 276 347 425
#     4  11  23  41  69  94 128 185 236 280 336 401
#     4  12  20  39  70  99 130 184 229 280 343 412
#     4  11  23  45  70  89 132 180 238 287 332 399
#     4  10  18  34  57  97 138 175 212 264 341 411
#     4  10  20  36  62  98 150 178 206 278 352 412
#
# _framework density 21.539666
#
# number of rings (size 3 to 8) (size 9 to 14) (size 15 to 20)
#    0.000    0.923    6.923    1.385    0.000    0.615 
#    2.769    0.769    1.692    0.000    0.000    0.000 
#    0.000    0.000    0.000    0.000    0.000    0.000 
#
# Total GULP energy -322137.950333 kJ/mol
# GULP energy per Si atom -12389.921167 kJ/mol
# Density = 2.149064 g / cm^3
# Si number density = 21.539666 Si / 1000 Ang^3
#
#
#
# Elastic Constant Matrix: (Units=GPa)
#
#
# Indices 1 2 3 4 5 6 
#
# 1 129.4340 68.1261 53.5080 0.0000 -7.9101 0.0000
# 2 68.1261 111.6750 53.0201 0.0000 8.8581 0.0000
# 3 53.5080 53.0201 85.3590 0.0000 1.1955 0.0000
# 4 0.0000 0.0000 0.0000 24.5946 0.0000 -3.2386
# 5 -7.9101 8.8581 1.1955 0.0000 36.6924 0.0000
# 6 0.0000 0.0000 0.0000 -3.2386 0.0000 22.2180
#
#
#
# Elastic Compliance Matrix: (Units=1/GPa)
#
#
# Indices 1 2 3 4 5 6 
#
# 1 0.013116 -0.006274 -0.004388 0.000000 0.004485 0.000000
# 2 -0.006274 0.015997 -0.005933 0.000000 -0.005021 0.000000
# 3 -0.004388 -0.005933 0.018153 0.000000 -0.000105 0.000000
# 4 0.000000 0.000000 0.000000 0.041455 0.000000 0.006043
# 5 0.004485 -0.005021 -0.000105 0.000000 0.029436 0.000000
# 6 0.000000 0.000000 0.000000 0.006043 0.000000 0.045889
#
#
# Mechanical properties :
#
#
# Convention : Reuss Voigt Hill
#
# Bulk Modulus (GPa) = 71.04348 75.08627 73.06488
# Shear Modulus (GPa) = 24.76122 26.82191 25.79156
#
# Velocity S-wave (km/s) = 3.39420 3.53261 3.46410
# Velocity P-wave (km/s) = 6.95809 7.18153 7.07069
#
# Compressibility (1/GPa) = 0.01407589
#
# Stress axis : x y z
#
# Youngs Moduli (GPa) = 76.24173 62.51104 55.08844
#
# Poissons Ratio (x) = 0.39219 0.24172
# Poissons Ratio (y) = 0.47834 0.32686
# Poissons Ratio (z) = 0.33453 0.37090
#
# Static dielectric constant tensor:
#      x y z
#    x 4.045940 0.000000 -0.294200 
#    y 0.000000 3.887300 0.000000 
#    z -0.294200 0.000000 4.466220 
# 
# 
# High freq. dielectric constant tensor:
#      x y z
#    x 1.836940 0.000000 -0.004830 
#    y 0.000000 1.822950 0.000000 
#    z -0.004830 0.000000 1.854580 
# 
# From -- ./inp_files/76365.got.cif
#   From: 2010.06.25/outbox.cif.g09.slc.cpg/sg13_39_cif.got.tgz:76365.got - 2010.06.28 04:50:58.
