data_PCOD8117830
_publ_section_title
;
Structure prediction by ZEFSAII (Michael W. Deem and Ramdas Pophale) SiO2 
 PCOD8117830
Probable space group: P 2/C
;
_chemical_formula_sum "Si O2"
_cell_formula_units_Z 30
_cell_length_a 14.904357
_cell_length_b 8.822344
_cell_length_c 23.483985
_cell_angle_alpha 90.000000
_cell_angle_beta 153.445491
_cell_angle_gamma 90.000000
_cell_volume 1380.461093
_symmetry_space_group_name_H-M "P 2/C"
_symmetry_group_IT_number 13
_symmetry_cell_setting 'monoclinic'
loop_
_space_group_symop_operation_xyz
x,y,z
-x,y,1/2-z
-x,-y,-z
x,-y,1/2+z
loop_
_atom_site_type_symbol
_atom_site_label
_atom_site_fract_x
_atom_site_fract_y
_atom_site_fract_z
Si Si1 0.000000 0.659635 0.250000
Si Si2 0.993402 0.350373 0.560931
Si Si3 0.907965 0.867371 0.589257
Si Si4 0.169232 0.134994 0.754440
Si Si5 0.467456 0.933970 0.334980
Si Si6 0.208007 0.458899 0.459809
Si Si7 0.124542 0.865723 0.597907
Si Si8 0.581901 0.388686 0.736002
O O1 0.157799 0.758900 0.303193
O O2 0.149570 0.562548 0.373585
O O3 0.052814 0.211087 0.635599
O O4 0.186771 0.433698 0.642403
O O5 0.884039 0.481067 0.533547
O O6 0.853786 0.276890 0.432535
O O7 0.704073 0.967862 0.469740
O O8 0.867291 0.710023 0.598855
O O9 0.994187 0.814567 0.577769
O O10 0.066598 0.974136 0.711773
O O11 0.394073 0.105122 0.858476
O O12 0.429683 0.793614 0.271300
O O13 0.347454 0.079509 0.242630
O O14 0.447752 0.455464 0.607529
O O15 0.000000 0.000000 0.500000
O O16 0.500000 0.448225 0.750000
#
# Coordination Sequence:
#
# PCOD8117830 Si02
#       8
#     2   4   4   4   4   4   4   4
#     4  10  22  44  62  78 116 160 206 262 302 354
#     4  10  19  37  55  84 124 154 195 240 295 365
#     4  10  20  36  58  90 118 154 202 251 298 370
#     4   9  19  38  59  80 109 154 198 252 301 347
#     4   9  19  32  57  90 118 153 197 243 295 359
#     4  10  23  38  61  87 120 160 202 248 311 354
#     4  11  18  32  59  90 123 164 197 233 306 360
#     4  10  19  33  58  85 121 157 192 233 306 367
#
# _framework density 21.731869
#
# number of rings (size 3 to 8) (size 9 to 14) (size 15 to 20)
#    0.000    2.133    4.000    1.600    0.000    2.667 
#    0.000   19.333    0.000    0.000    0.000    0.000 
#    0.000    0.000    0.000    0.000    0.000    0.000 
#
# Total GULP energy -371845.055935 kJ/mol
# GULP energy per Si atom -12394.835198 kJ/mol
# Density = 2.168241 g / cm^3
# Si number density = 21.731869 Si / 1000 Ang^3
#
#
#
# Elastic Constant Matrix: (Units=GPa)
#
#
# Indices 1 2 3 4 5 6 
#
# 1 101.3658 37.8807 48.9940 0.0000 -5.2791 0.0000
# 2 37.8807 83.9492 41.2486 0.0000 -4.7760 0.0000
# 3 48.9940 41.2486 77.3250 0.0000 4.0124 0.0000
# 4 0.0000 0.0000 0.0000 25.8571 0.0000 -2.2153
# 5 -5.2791 -4.7760 4.0124 0.0000 31.8770 0.0000
# 6 0.0000 0.0000 0.0000 -2.2153 0.0000 30.0212
#
#
#
# Elastic Compliance Matrix: (Units=1/GPa)
#
#
# Indices 1 2 3 4 5 6 
#
# 1 0.014987 -0.002489 -0.008332 0.000000 0.003158 0.000000
# 2 -0.002489 0.016960 -0.007630 0.000000 0.003089 0.000000
# 3 -0.008332 -0.007630 0.022560 0.000000 -0.005363 0.000000
# 4 0.000000 0.000000 0.000000 0.038920 0.000000 0.002872
# 5 0.003158 0.003089 -0.005363 0.000000 0.033031 0.000000
# 6 0.000000 0.000000 0.000000 0.002872 0.000000 0.033522
#
#
# Mechanical properties :
#
#
# Convention : Reuss Voigt Hill
#
# Bulk Modulus (GPa) = 56.80393 57.65407 57.22900
# Shear Modulus (GPa) = 24.66064 26.51886 25.58975
#
# Velocity S-wave (km/s) = 3.37229 3.49703 3.43523
# Velocity P-wave (km/s) = 6.43105 6.54927 6.49043
#
# Compressibility (1/GPa) = 0.01760441
#
# Stress axis : x y z
#
# Youngs Moduli (GPa) = 66.72404 58.96187 44.32535
#
# Poissons Ratio (x) = 0.14676 0.36932
# Poissons Ratio (y) = 0.16608 0.33822
# Poissons Ratio (z) = 0.55595 0.44991
#
# Static dielectric constant tensor:
#      x y z
#    x 4.118510 0.000000 0.271130 
#    y 0.000000 3.855410 0.000000 
#    z 0.271130 0.000000 3.774530 
# 
# 
# High freq. dielectric constant tensor:
#      x y z
#    x 1.851410 0.000000 0.013370 
#    y 0.000000 1.852200 0.000000 
#    z 0.013370 0.000000 1.825230 
# 
# From -- ./inp_files/87325.got.cif
#   From: 2010.06.25/outbox.cif.g09.slc.cpg/sg13_44_cif.got.tgz:87325.got - 2010.06.28 04:50:58.
