data_PCOD8117141
_publ_section_title
;
Structure prediction by ZEFSAII (Michael W. Deem and Ramdas Pophale) SiO2 
 PCOD8117141
Probable space group: P 2/C
;
_chemical_formula_sum "Si O2"
_cell_formula_units_Z 18
_cell_length_a 19.402838
_cell_length_b 6.949097
_cell_length_c 5.363659
_cell_angle_alpha 90.000000
_cell_angle_beta 90.000014
_cell_angle_gamma 90.000000
_cell_volume 723.193961
_symmetry_space_group_name_H-M "P 2/C"
_symmetry_group_IT_number 13
_symmetry_cell_setting 'monoclinic'
loop_
_space_group_symop_operation_xyz
x,y,z
-x,y,1/2-z
-x,-y,-z
x,-y,1/2+z
loop_
_atom_site_type_symbol
_atom_site_label
_atom_site_fract_x
_atom_site_fract_y
_atom_site_fract_z
Si Si1 0.500000 0.873821 0.750000
Si Si2 0.079572 0.190554 0.250009
Si Si3 0.352248 0.718164 0.749986
Si Si4 0.865021 0.231112 0.749991
Si Si5 0.294766 0.711993 0.249986
O O1 0.434431 0.733648 0.750002
O O2 0.500000 0.000000 0.500000
O O3 0.098206 0.312645 0.498547
O O4 0.000000 0.129084 0.250000
O O5 0.126857 0.999974 0.250015
O O6 0.098209 0.312648 0.001477
O O7 0.321186 0.820085 0.500610
O O8 0.328718 0.497954 0.749968
O O9 0.321178 0.820083 0.999350
O O10 0.787054 0.300814 0.749995
#
# Coordination Sequence:
#
# PCOD8117141 Si02
#       5
#     2   4   4   4   4
#     4  12  26  48  66  98 128 164 198 260 324 372
#     4  10  19  33  53  86 129 173 212 254 309 375
#     4  10  23  43  65  91 123 165 212 249 308 390
#     4  10  18  32  52  87 122 162 211 261 306 359
#     4  10  21  39  64  94 122 169 208 260 305 366
#
# _framework density 24.889589999999998
#
# number of rings (size 3 to 8) (size 9 to 14) (size 15 to 20)
#    0.000    1.778    0.000    6.000    0.000    3.556 
#   24.000    0.000    0.000    0.000    0.000  105.778 
#    0.000    0.000    0.000    0.000    0.000    0.000 
#
# Total GULP energy -223054.664077 kJ/mol
# GULP energy per Si atom -12391.925782 kJ/mol
# Density = 2.483294 g / cm^3
# Si number density = 24.889590 Si / 1000 Ang^3
#
#
#
# Elastic Constant Matrix: (Units=GPa)
#
#
# Indices 1 2 3 4 5 6 
#
# 1 217.5155 45.0202 91.3535 0.0000 -2.5625 0.0000
# 2 45.0202 68.6594 -1.3666 0.0000 -4.4793 0.0000
# 3 91.3535 -1.3666 331.5475 0.0000 13.5893 0.0000
# 4 0.0000 0.0000 0.0000 -18.1157 0.0000 -11.4735
# 5 -2.5625 -4.4793 13.5893 0.0000 51.3503 0.0000
# 6 0.0000 0.0000 0.0000 -11.4735 0.0000 100.5929
#
#
#
# Elastic Compliance Matrix: (Units=1/GPa)
#
#
# Indices 1 2 3 4 5 6 
#
# 1 0.006169 -0.004053 -0.001733 0.000000 0.000413 0.000000
# 2 -0.004053 0.017310 0.001147 0.000000 0.001004 0.000000
# 3 -0.001733 0.001147 0.003536 0.000000 -0.000922 0.000000
# 4 0.000000 0.000000 0.000000 -0.051482 0.000000 -0.005872
# 5 0.000413 0.001004 -0.000922 0.000000 0.019826 0.000000
# 6 0.000000 0.000000 0.000000 -0.005872 0.000000 0.009271
#
#
# Mechanical properties :
#
#
# Convention : Reuss Voigt Hill
#
# Bulk Modulus (GPa) = 56.37858 98.63740 77.50799
# Shear Modulus (GPa) = 252.23995 58.94652 155.59323
#
# Velocity S-wave (km/s) = 10.07787 4.87182 7.91512
# Velocity P-wave (km/s) = 12.57453 8.44761 10.71170
#
# Compressibility (1/GPa) = 0.01773723
#
# Stress axis : x y z
#
# Youngs Moduli (GPa) = 162.09959 57.76905 282.78030
#
# Poissons Ratio (x) = 0.23412 0.49018
# Poissons Ratio (y) = 0.65693 -0.32430
# Poissons Ratio (z) = 0.28099 -0.06625
#
# Static dielectric constant tensor:
#      x y z
#    x 4.286950 0.000000 0.186110 
#    y 0.000000 3.757230 0.000000 
#    z 0.186110 0.000000 6.213690 
# 
# 
# High freq. dielectric constant tensor:
#      x y z
#    x 1.987030 0.000000 0.005530 
#    y 0.000000 1.954360 0.000000 
#    z 0.005530 0.000000 2.044250 
# 
# From -- ./inp_files/5844.got.cif
#   From: 2010.06.25/outbox.cif.g09.slc.cpg/sg13_3_cif.got.tgz:5844.got - 2010.06.28 04:50:58.
