data_PCOD8117396
_publ_section_title
;
Structure prediction by ZEFSAII (Michael W. Deem and Ramdas Pophale) SiO2 
 PCOD8117396
Probable space group: P 2/C
;
_chemical_formula_sum "Si O2"
_cell_formula_units_Z 20
_cell_length_a 11.654749
_cell_length_b 13.737001
_cell_length_c 8.376298
_cell_angle_alpha 90.000000
_cell_angle_beta 49.853035
_cell_angle_gamma 90.000000
_cell_volume 1025.094177
_symmetry_space_group_name_H-M "P 2/C"
_symmetry_group_IT_number 13
_symmetry_cell_setting 'monoclinic'
loop_
_space_group_symop_operation_xyz
x,y,z
-x,y,1/2-z
-x,-y,-z
x,-y,1/2+z
loop_
_atom_site_type_symbol
_atom_site_label
_atom_site_fract_x
_atom_site_fract_y
_atom_site_fract_z
Si Si1 0.052898 0.399697 0.523915
Si Si2 0.698276 0.923856 0.198389
Si Si3 0.663075 0.697060 0.657314
Si Si4 0.887546 0.218880 0.713795
Si Si5 0.373909 0.881463 0.597382
O O1 0.234541 0.389409 0.357602
O O2 0.000000 0.399450 0.750000
O O3 0.000000 0.500000 0.500000
O O4 0.969454 0.302574 0.529635
O O5 0.844204 0.871596 0.140845
O O6 0.552802 0.892512 0.430344
O O7 0.705415 0.040784 0.212084
O O8 0.693271 0.893529 0.018765
O O9 0.500000 0.657392 0.750000
O O10 0.738484 0.738201 0.429522
O O11 0.656656 0.776489 0.802797
O O12 0.000000 0.180296 0.750000
#
# Coordination Sequence:
#
# PCOD8117396 Si02
#       5
#     4   4   4   4   4
#     4   9  21  39  59  80 108 145 175 226 289 331
#     4  10  19  33  50  83 116 149 185 220 275 316
#     4  10  18  35  59  82 107 143 187 226 271 324
#     4   9  19  36  56  79 113 148 181 227 274 328
#     4  10  20  30  55  81 112 149 183 231 263 319
#
# _framework density 19.510403
#
# number of rings (size 3 to 8) (size 9 to 14) (size 15 to 20)
#    0.000    2.800    2.000    1.200    2.800    1.600 
#    0.000   16.000    4.400    0.000    0.000    0.000 
#    0.000    0.000    0.000    0.000    0.000    0.000 
#
# Total GULP energy -247808.338079 kJ/mol
# GULP energy per Si atom -12390.416904 kJ/mol
# Density = 1.946600 g / cm^3
# Si number density = 19.510403 Si / 1000 Ang^3
#
#
#
# Elastic Constant Matrix: (Units=GPa)
#
#
# Indices 1 2 3 4 5 6 
#
# 1 140.6620 74.8606 30.4777 0.0000 -22.2208 0.0000
# 2 74.8606 111.5345 20.9482 0.0000 -6.2487 0.0000
# 3 30.4777 20.9482 48.1168 0.0000 -16.2578 0.0000
# 4 0.0000 0.0000 0.0000 15.7691 0.0000 -0.2442
# 5 -22.2208 -6.2487 -16.2578 0.0000 24.3771 0.0000
# 6 0.0000 0.0000 0.0000 -0.2442 0.0000 43.1284
#
#
#
# Elastic Compliance Matrix: (Units=1/GPa)
#
#
# Indices 1 2 3 4 5 6 
#
# 1 0.013133 -0.007968 -0.001930 0.000000 0.008642 0.000000
# 2 -0.007968 0.014602 -0.003227 0.000000 -0.005672 0.000000
# 3 -0.001930 -0.003227 0.029092 0.000000 0.016816 0.000000
# 4 0.000000 0.000000 0.000000 0.063421 0.000000 0.000359
# 5 0.008642 -0.005672 0.016816 0.000000 0.058661 0.000000
# 6 0.000000 0.000000 0.000000 0.000359 0.000000 0.023189
#
#
# Mechanical properties :
#
#
# Convention : Reuss Voigt Hill
#
# Bulk Modulus (GPa) = 32.70329 61.43182 47.06755
# Shear Modulus (GPa) = 20.96088 28.25670 24.60879
#
# Velocity S-wave (km/s) = 3.28127 3.80977 3.55535
# Velocity P-wave (km/s) = 5.58158 7.13495 6.40553
#
# Compressibility (1/GPa) = 0.03057796
#
# Stress axis : x y z
#
# Youngs Moduli (GPa) = 76.14201 68.48224 34.37415
#
# Poissons Ratio (x) = 0.54569 0.06633
# Poissons Ratio (y) = 0.60673 0.11091
# Poissons Ratio (z) = 0.14693 0.22097
#
# Static dielectric constant tensor:
#      x y z
#    x 4.026940 0.000000 -0.327700 
#    y 0.000000 3.008980 0.000000 
#    z -0.327700 0.000000 3.492260 
# 
# 
# High freq. dielectric constant tensor:
#      x y z
#    x 1.761380 0.000000 -0.009570 
#    y 0.000000 1.741900 0.000000 
#    z -0.009570 0.000000 1.746810 
# 
# From -- ./inp_files/16222.got.cif
#   From: 2010.06.25/outbox.cif.g09.slc.cpg/sg13_9_cif.got.tgz:16222.got - 2010.06.28 04:50:58.
