data_PCOD8117109
_publ_section_title
;
Structure prediction by ZEFSAII (Michael W. Deem and Ramdas Pophale) SiO2 
 PCOD8117109
Probable space group: P 2/C
;
_chemical_formula_sum "Si O2"
_cell_formula_units_Z 16
_cell_length_a 7.362786
_cell_length_b 20.326231
_cell_length_c 5.159374
_cell_angle_alpha 90.000000
_cell_angle_beta 109.044519
_cell_angle_gamma 90.000000
_cell_volume 729.877157
_symmetry_space_group_name_H-M "P 2/C"
_symmetry_group_IT_number 13
_symmetry_cell_setting 'monoclinic'
loop_
_space_group_symop_operation_xyz
x,y,z
-x,y,1/2-z
-x,-y,-z
x,-y,1/2+z
loop_
_atom_site_type_symbol
_atom_site_label
_atom_site_fract_x
_atom_site_fract_y
_atom_site_fract_z
Si Si1 0.710839 0.973119 0.679261
Si Si2 0.880154 0.684062 0.440050
Si Si3 0.500000 0.766726 0.250000
Si Si4 0.276195 0.458677 0.633706
Si Si5 0.500000 0.147026 0.250000
O O1 0.686796 0.897816 0.763187
O O2 0.500000 0.000000 0.500000
O O3 0.819364 0.982870 0.453857
O O4 0.681284 0.721237 0.387230
O O5 0.844705 0.606928 0.385697
O O6 0.000000 0.710473 0.250000
O O7 0.000000 0.699129 0.750000
O O8 0.449478 0.809900 0.477337
O O9 0.500000 0.440622 0.750000
O O10 0.220497 0.490544 0.333530
#
# Coordination Sequence:
#
# PCOD8117109 Si02
#       5
#     4   4   2   4   2
#     4   8  13  24  44  78 119 142 183 250 287 334
#     4  12  26  43  63  87 120 160 200 245 299 352
#     4  12  24  41  58  87 122 160 206 242 286 352
#     4  10  21  39  64  90 116 146 191 247 301 357
#     4  10  18  31  56  81 120 162 192 242 300 340
#
# _framework density 21.921498
#
# number of rings (size 3 to 8) (size 9 to 14) (size 15 to 20)
#    0.000    2.000    1.250    6.000    0.000    3.000 
#    0.000    0.000    0.000    0.000    0.000    0.000 
#    0.000  630.000    0.000    0.000    0.000    0.000 
#
# Total GULP energy -198305.242712 kJ/mol
# GULP energy per Si atom -12394.077670 kJ/mol
# Density = 2.187160 g / cm^3
# Si number density = 21.921498 Si / 1000 Ang^3
#
#
#
# Elastic Constant Matrix: (Units=GPa)
#
#
# Indices 1 2 3 4 5 6 
#
# 1 87.5815 39.0108 55.4945 0.0000 -0.8406 0.0000
# 2 39.0108 95.7369 45.1273 0.0000 1.8796 0.0000
# 3 55.4945 45.1273 166.4190 0.0000 -39.0387 0.0000
# 4 0.0000 0.0000 0.0000 -2.9918 0.0000 -0.6890
# 5 -0.8406 1.8796 -39.0387 0.0000 30.5725 0.0000
# 6 0.0000 0.0000 0.0000 -0.6890 0.0000 -2.2700
#
#
#
# Elastic Compliance Matrix: (Units=1/GPa)
#
#
# Indices 1 2 3 4 5 6 
#
# 1 0.017118 -0.003789 -0.006447 0.000000 -0.007529 0.000000
# 2 -0.003789 0.013954 -0.003921 0.000000 -0.005969 0.000000
# 3 -0.006447 -0.003921 0.013187 0.000000 0.016903 0.000000
# 4 0.000000 0.000000 0.000000 -0.359367 0.000000 0.109078
# 5 -0.007529 -0.005969 0.016903 0.000000 0.054452 0.000000
# 6 0.000000 0.000000 0.000000 0.109078 0.000000 -0.473638
#
#
# Mechanical properties :
#
#
# Convention : Reuss Voigt Hill
#
# Bulk Modulus (GPa) = 62.70839 69.88918 66.29879
# Shear Modulus (GPa) = -7.13609 19.06913 5.96652
#
# Velocity S-wave (km/s) = -1.80620 2.95258 1.65157
# Velocity P-wave (km/s) = 4.93135 6.60109 5.82634
#
# Compressibility (1/GPa) = 0.01594683
#
# Stress axis : x y z
#
# Youngs Moduli (GPa) = 58.41709 71.66229 75.83239
#
# Poissons Ratio (x) = 0.27150 0.48890
# Poissons Ratio (y) = 0.22132 0.29732
# Poissons Ratio (z) = 0.37662 0.28097
#
# Static dielectric constant tensor:
#      x y z
#    x 6.206830 0.000000 -3.471200 
#    y 0.000000 3.943190 0.000000 
#    z -3.471200 0.000000 8.454710 
# 
# 
# High freq. dielectric constant tensor:
#      x y z
#    x 1.848810 0.000000 -0.021650 
#    y 0.000000 1.852960 0.000000 
#    z -0.021650 0.000000 1.886810 
# 
# From -- ./inp_files/1408.got.cif
#   From: 2010.06.25/outbox.cif.g09.slc.cpg/sg13_1_cif.got.tgz:1408.got - 2010.06.28 04:50:58.
