data_PCOD8117425
_publ_section_title
;
Structure prediction by ZEFSAII (Michael W. Deem and Ramdas Pophale) SiO2 
 PCOD8117425
Probable space group: P 2/C
;
_chemical_formula_sum "Si O2"
_cell_formula_units_Z 28
_cell_length_a 16.890652
_cell_length_b 13.362577
_cell_length_c 10.008145
_cell_angle_alpha 90.000000
_cell_angle_beta 41.531302
_cell_angle_gamma 90.000000
_cell_volume 1497.693095
_symmetry_space_group_name_H-M "P 2/C"
_symmetry_group_IT_number 13
_symmetry_cell_setting 'monoclinic'
loop_
_space_group_symop_operation_xyz
x,y,z
-x,y,1/2-z
-x,-y,-z
x,-y,1/2+z
loop_
_atom_site_type_symbol
_atom_site_label
_atom_site_fract_x
_atom_site_fract_y
_atom_site_fract_z
Si Si1 0.439780 0.382120 0.197522
Si Si2 0.139117 0.896274 0.078488
Si Si3 0.000000 0.198802 0.250000
Si Si4 0.881128 0.949045 0.102028
Si Si5 0.000000 0.476639 0.750000
Si Si6 0.170930 0.640974 0.643992
Si Si7 0.573925 0.383048 0.777719
Si Si8 0.808923 0.673361 0.584354
O O1 0.500000 0.332056 0.250000
O O2 0.454198 0.500217 0.183924
O O3 0.300325 0.356809 0.371439
O O4 0.516266 0.333595 0.981390
O O5 0.186193 0.913553 0.173688
O O6 0.000000 0.921934 0.250000
O O7 0.157012 0.784477 0.003074
O O8 0.195917 0.973689 0.895598
O O9 0.091864 0.262711 0.219064
O O10 0.918449 0.141771 0.459609
O O11 0.000000 0.000000 0.000000
O O12 0.914333 0.543609 0.763445
O O13 0.080885 0.402886 0.561341
O O14 0.283738 0.635086 0.401993
O O15 0.230369 0.658224 0.713177
O O16 0.500000 0.333567 0.750000
#
# Coordination Sequence:
#
# PCOD8117425 Si02
#       8
#     4   4   2   4   2   4   4   4
#     4  10  22  36  60  81 111 153 210 249 277 331
#     4  10  20  33  59  82 118 151 188 238 297 359
#     4  11  22  33  58  90 122 151 198 233 302 366
#     4  10  18  36  54  83 119 148 190 243 287 364
#     4  11  24  35  50  86 130 163 188 237 294 356
#     4  11  23  37  55  84 123 164 195 242 290 352
#     4  10  19  38  57  78 108 163 208 243 279 325
#     4  12  22  38  57  86 121 160 197 242 299 356
#
# _framework density 18.695418
#
# number of rings (size 3 to 8) (size 9 to 14) (size 15 to 20)
#    0.000    1.429    5.714    2.143    0.000    1.143 
#    2.571    0.000    0.000    0.000    0.000    5.000 
#    0.000    0.000    0.000    0.000    0.000    0.000 
#
# Total GULP energy -346869.989401 kJ/mol
# GULP energy per Si atom -12388.213907 kJ/mol
# Density = 1.865287 g / cm^3
# Si number density = 18.695418 Si / 1000 Ang^3
#
#
#
# Elastic Constant Matrix: (Units=GPa)
#
#
# Indices 1 2 3 4 5 6 
#
# 1 93.9655 23.9607 39.0252 0.0000 9.3596 0.0000
# 2 23.9607 83.4051 33.6295 0.0000 13.2557 0.0000
# 3 39.0252 33.6295 88.2071 0.0000 13.2324 0.0000
# 4 0.0000 0.0000 0.0000 6.5821 0.0000 7.9363
# 5 9.3596 13.2557 13.2324 0.0000 39.5395 0.0000
# 6 0.0000 0.0000 0.0000 7.9363 0.0000 4.2899
#
#
#
# Elastic Compliance Matrix: (Units=1/GPa)
#
#
# Indices 1 2 3 4 5 6 
#
# 1 0.013268 -0.001604 -0.005126 0.000000 -0.000888 0.000000
# 2 -0.001604 0.014731 -0.004446 0.000000 -0.003071 0.000000
# 3 -0.005126 -0.004446 0.015681 0.000000 -0.002544 0.000000
# 4 0.000000 0.000000 0.000000 -0.123458 0.000000 0.228397
# 5 -0.000888 -0.003071 -0.002544 0.000000 0.027382 0.000000
# 6 0.000000 0.000000 0.000000 0.228397 0.000000 -0.189427
#
#
# Mechanical properties :
#
#
# Convention : Reuss Voigt Hill
#
# Bulk Modulus (GPa) = 46.88277 50.97873 48.93075
# Shear Modulus (GPa) = -23.54487 21.34645 -1.09921
#
# Velocity S-wave (km/s) = -3.55264 3.38272 -0.76761
# Velocity P-wave (km/s) = 2.88153 6.52566 5.04418
#
# Compressibility (1/GPa) = 0.02132980
#
# Stress axis : x y z
#
# Youngs Moduli (GPa) = 75.36731 67.88306 63.76994
#
# Poissons Ratio (x) = 0.10888 0.32686
# Poissons Ratio (y) = 0.12089 0.28352
# Poissons Ratio (z) = 0.38630 0.30181
#
# Static dielectric constant tensor:
#      x y z
#    x 3.637220 0.000000 0.540810 
#    y 0.000000 3.344880 0.000000 
#    z 0.540810 0.000000 3.717280 
# 
# 
# High freq. dielectric constant tensor:
#      x y z
#    x 1.720250 0.000000 0.027670 
#    y 0.000000 1.707580 0.000000 
#    z 0.027670 0.000000 1.719550 
# 
# From -- ./inp_files/19616.got.cif
#   From: 2010.06.25/outbox.cif.g09.slc.cpg/sg13_10_cif.got.tgz:19616.got - 2010.06.28 04:50:58.
