data_PCOD8117140
_publ_section_title
;
Structure prediction by ZEFSAII (Michael W. Deem and Ramdas Pophale) SiO2 
 PCOD8117140
Probable space group: P 2/C
;
_chemical_formula_sum "Si O2"
_cell_formula_units_Z 28
_cell_length_a 18.403930
_cell_length_b 11.534849
_cell_length_c 22.135769
_cell_angle_alpha 90.000000
_cell_angle_beta 16.727787
_cell_angle_gamma 90.000000
_cell_volume 1352.526000
_symmetry_space_group_name_H-M "P 2/C"
_symmetry_group_IT_number 13
_symmetry_cell_setting 'monoclinic'
loop_
_space_group_symop_operation_xyz
x,y,z
-x,y,1/2-z
-x,-y,-z
x,-y,1/2+z
loop_
_atom_site_type_symbol
_atom_site_label
_atom_site_fract_x
_atom_site_fract_y
_atom_site_fract_z
Si Si1 0.443522 0.638292 0.622133
Si Si2 0.122185 0.264387 0.073405
Si Si3 0.315798 0.908804 0.577960
Si Si4 0.794698 0.463857 0.298965
Si Si5 0.397557 0.769002 0.235372
Si Si6 0.304848 0.155746 0.625047
Si Si7 0.060151 0.671674 0.403574
O O1 0.617443 0.522521 0.492074
O O2 0.355690 0.631293 0.621421
O O3 0.620557 0.751492 0.485859
O O4 0.221036 0.653338 0.847167
O O5 0.907779 0.175843 0.265552
O O6 0.023593 0.396096 0.147076
O O7 0.341931 0.283627 0.946989
O O8 0.212756 0.208155 0.938211
O O9 0.536184 0.890243 0.351726
O O10 0.435020 0.874555 0.547293
O O11 0.209804 0.040080 0.666382
O O12 0.891129 0.559552 0.175089
O O13 0.262991 0.678608 0.296682
O O14 0.087191 0.210633 0.841821
#
# Coordination Sequence:
#
# PCOD8117140 Si02
#       7
#     4   4   4   4   4   4   4
#     4  10  18  32  52  81 114 144 178 236 280 320
#     4  11  21  36  52  84 114 146 185 233 281 344
#     4  10  19  35  51  76 109 138 175 229 277 330
#     4  10  20  31  54  82 117 145 185 230 280 331
#     4  10  22  34  54  81 112 147 187 224 293 339
#     4   9  19  32  53  79 104 135 183 227 276 329
#     4  10  19  34  55  85 109 147 185 236 279 332
#
# _framework density 20.702003999999999
#
# number of rings (size 3 to 8) (size 9 to 14) (size 15 to 20)
#    0.000    2.000    2.857    0.857    2.000    1.143 
#    0.000    4.286    0.000    0.000   14.857    8.000 
#    0.000    0.000    0.000    0.000    0.000    0.000 
#
# Total GULP energy -346912.919945 kJ/mol
# GULP energy per Si atom -12389.747141 kJ/mol
# Density = 2.065488 g / cm^3
# Si number density = 20.702004 Si / 1000 Ang^3
#
#
#
# Elastic Constant Matrix: (Units=GPa)
#
#
# Indices 1 2 3 4 5 6 
#
# 1 50.3775 32.2898 34.6453 0.0000 7.3340 0.0000
# 2 32.2898 120.7410 59.8506 0.0000 19.3496 0.0000
# 3 34.6453 59.8506 138.2996 0.0000 23.7294 0.0000
# 4 0.0000 0.0000 0.0000 27.8725 0.0000 5.7177
# 5 7.3340 19.3496 23.7294 0.0000 22.9561 0.0000
# 6 0.0000 0.0000 0.0000 5.7177 0.0000 13.8698
#
#
#
# Elastic Compliance Matrix: (Units=1/GPa)
#
#
# Indices 1 2 3 4 5 6 
#
# 1 0.025947 -0.004769 -0.004502 0.000000 0.000384 0.000000
# 2 -0.004769 0.011929 -0.003044 0.000000 -0.005385 0.000000
# 3 -0.004502 -0.003044 0.010927 0.000000 -0.007291 0.000000
# 4 0.000000 0.000000 0.000000 0.039192 0.000000 -0.016156
# 5 0.000384 -0.005385 -0.007291 0.000000 0.055514 0.000000
# 6 0.000000 0.000000 0.000000 -0.016156 0.000000 0.078759
#
#
# Mechanical properties :
#
#
# Convention : Reuss Voigt Hill
#
# Bulk Modulus (GPa) = 41.36777 62.55441 51.96109
# Shear Modulus (GPa) = 19.61122 25.11518 22.36320
#
# Velocity S-wave (km/s) = 3.08118 3.48685 3.29027
# Velocity P-wave (km/s) = 5.71700 6.81858 6.29194
#
# Compressibility (1/GPa) = 0.02417341
#
# Stress axis : x y z
#
# Youngs Moduli (GPa) = 38.54010 83.82644 91.51863
#
# Poissons Ratio (x) = 0.39976 0.41202
# Poissons Ratio (y) = 0.18379 0.27858
# Poissons Ratio (z) = 0.17351 0.25516
#
# Static dielectric constant tensor:
#      x y z
#    x 3.486050 0.000000 0.164060 
#    y 0.000000 3.857210 0.000000 
#    z 0.164060 0.000000 3.981540 
# 
# 
# High freq. dielectric constant tensor:
#      x y z
#    x 1.773220 0.000000 0.016730 
#    y 0.000000 1.803540 0.000000 
#    z 0.016730 0.000000 1.817990 
# 
# From -- ./inp_files/81039.got.cif
#   From: 2010.06.25/outbox.cif.g09.slc.cpg/sg13_41_cif.got.tgz:81039.got - 2010.06.28 04:50:58.
