data_PCOD8117051
_publ_section_title
;
Structure prediction by ZEFSAII (Michael W. Deem and Ramdas Pophale) SiO2 
 PCOD8117051
Probable space group: P 2/C
;
_chemical_formula_sum "Si O2"
_cell_formula_units_Z 20
_cell_length_a 9.190156
_cell_length_b 4.917967
_cell_length_c 19.926162
_cell_angle_alpha 90.000000
_cell_angle_beta 102.128296
_cell_angle_gamma 90.000000
_cell_volume 880.498665
_symmetry_space_group_name_H-M "P 2/C"
_symmetry_group_IT_number 13
_symmetry_cell_setting 'monoclinic'
loop_
_space_group_symop_operation_xyz
x,y,z
-x,y,1/2-z
-x,-y,-z
x,-y,1/2+z
loop_
_atom_site_type_symbol
_atom_site_label
_atom_site_fract_x
_atom_site_fract_y
_atom_site_fract_z
Si Si1 0.784918 0.796698 0.675504
Si Si2 0.796003 0.796045 0.994045
Si Si3 0.164862 0.290111 0.741204
Si Si4 0.638956 0.304166 0.026139
Si Si5 0.045393 0.015965 0.115382
O O1 0.774684 0.590146 0.737796
O O2 0.662542 0.720180 0.608164
O O3 0.738641 0.084417 0.703058
O O4 0.953604 0.795555 0.659799
O O5 0.769997 0.478164 0.004489
O O6 0.921723 0.866856 0.059670
O O7 0.651356 0.000078 0.993460
O O8 0.849385 0.808185 0.922618
O O9 0.157569 0.199544 0.662529
O O10 0.000000 0.254867 0.750000
O O11 0.500000 0.500000 0.000000
#
# Coordination Sequence:
#
# PCOD8117051 Si02
#       5
#     4   4   4   4   4
#     4  10  20  32  52  80 104 138 175 211 258 314
#     4  10  22  35  56  82 108 139 173 222 269 314
#     4  10  18  30  51  78 110 137 163 208 265 321
#     4  11  22  38  56  75 104 144 187 220 254 307
#     4   9  20  35  55  85 114 133 169 218 278 323
#
# _framework density 22.714397999999999
#
# number of rings (size 3 to 8) (size 9 to 14) (size 15 to 20)
#    0.000    2.000    0.000    6.000    0.000   13.600 
#    0.000    0.000    0.000    7.200    0.000    0.000 
#    0.000    0.000    0.000    0.000    0.000    0.000 
#
# Total GULP energy -247768.305925 kJ/mol
# GULP energy per Si atom -12388.415296 kJ/mol
# Density = 2.266270 g / cm^3
# Si number density = 22.714398 Si / 1000 Ang^3
#
#
#
# Elastic Constant Matrix: (Units=GPa)
#
#
# Indices 1 2 3 4 5 6 
#
# 1 13.3126 -18.6668 -2.7888 0.0000 5.4096 0.0000
# 2 -18.6668 93.5301 8.5753 0.0000 0.4089 0.0000
# 3 -2.7888 8.5753 79.2180 0.0000 -1.7069 0.0000
# 4 0.0000 0.0000 0.0000 27.1942 0.0000 -7.8114
# 5 5.4096 0.4089 -1.7069 0.0000 24.1832 0.0000
# 6 0.0000 0.0000 0.0000 -7.8114 0.0000 7.9427
#
#
#
# Elastic Compliance Matrix: (Units=1/GPa)
#
#
# Indices 1 2 3 4 5 6 
#
# 1 0.119988 0.023970 0.001044 0.000000 -0.027172 0.000000
# 2 0.023970 0.015589 -0.000966 0.000000 -0.005694 0.000000
# 3 0.001044 -0.000966 0.012780 0.000000 0.000685 0.000000
# 4 0.000000 0.000000 0.000000 0.051250 0.000000 0.050403
# 5 -0.027172 -0.005694 0.000685 0.000000 0.047574 0.000000
# 6 0.000000 0.000000 0.000000 0.050403 0.000000 0.175472
#
#
# Mechanical properties :
#
#
# Convention : Reuss Voigt Hill
#
# Bulk Modulus (GPa) = 5.09029 17.81111 11.45070
# Shear Modulus (GPa) = 11.36258 25.12677 18.24467
#
# Velocity S-wave (km/s) = 2.23902 3.32957 2.83719
# Velocity P-wave (km/s) = 2.98834 4.75813 3.97303
#
# Compressibility (1/GPa) = 0.19645227
#
# Stress axis : x y z
#
# Youngs Moduli (GPa) = 8.33418 64.14675 78.25032
#
# Poissons Ratio (x) = -1.53762 -0.08168
# Poissons Ratio (y) = -0.19977 0.07562
# Poissons Ratio (z) = -0.00870 0.06199
#
# Static dielectric constant tensor:
#      x y z
#    x 3.656100 0.000000 -0.004410 
#    y 0.000000 4.535080 0.000000 
#    z -0.004410 0.000000 4.979280 
# 
# 
# High freq. dielectric constant tensor:
#      x y z
#    x 1.828890 0.000000 0.008410 
#    y 0.000000 1.911930 0.000000 
#    z 0.008410 0.000000 1.906690 
# 
# From -- ./inp_files/74581.got.cif
#   From: 2010.06.25/outbox.cif.g09.slc.cpg/sg13_38_cif.got.tgz:74581.got - 2010.06.28 04:50:58.
