data_PCOD8117700
_publ_section_title
;
Structure prediction by ZEFSAII (Michael W. Deem and Ramdas Pophale) SiO2 
 PCOD8117700
Probable space group: P 2/C
;
_chemical_formula_sum "Si O2"
_cell_formula_units_Z 24
_cell_length_a 14.338171
_cell_length_b 11.027241
_cell_length_c 9.525328
_cell_angle_alpha 90.000000
_cell_angle_beta 63.440976
_cell_angle_gamma 90.000000
_cell_volume 1347.126546
_symmetry_space_group_name_H-M "P 2/C"
_symmetry_group_IT_number 13
_symmetry_cell_setting 'monoclinic'
loop_
_space_group_symop_operation_xyz
x,y,z
-x,y,1/2-z
-x,-y,-z
x,-y,1/2+z
loop_
_atom_site_type_symbol
_atom_site_label
_atom_site_fract_x
_atom_site_fract_y
_atom_site_fract_z
Si Si1 0.618854 0.878683 0.145576
Si Si2 0.860948 0.390243 0.073914
Si Si3 0.093218 0.342572 0.995549
Si Si4 0.721276 0.978144 0.357334
Si Si5 0.116225 0.214350 0.694581
Si Si6 0.223346 0.238057 0.140719
O O1 0.500000 0.842943 0.250000
O O2 0.674468 0.914192 0.252887
O O3 0.676338 0.762708 0.032948
O O4 0.628405 0.992800 0.031519
O O5 0.842299 0.531311 0.055672
O O6 0.770531 0.336576 0.237298
O O7 0.859620 0.324241 0.925945
O O8 0.970517 0.369585 0.079459
O O9 0.128991 0.261548 0.842556
O O10 0.121711 0.268872 0.116454
O O11 0.802121 0.892485 0.383849
O O12 0.783740 0.104077 0.282584
O O13 0.000000 0.162811 0.750000
#
# Coordination Sequence:
#
# PCOD8117700 Si02
#       6
#     4   4   4   4   4   4
#     4  10  21  37  58  78 106 140 183 229 275 325
#     4  10  20  32  54  78 109 148 189 210 258 316
#     4  10  19  35  51  78 110 148 184 220 248 319
#     4  10  20  36  54  83 110 139 175 225 277 330
#     4  10  19  32  51  78 114 145 172 216 269 326
#     4  10  21  33  56  80 109 138 178 227 272 316
#
# _framework density 17.815697
#
# number of rings (size 3 to 8) (size 9 to 14) (size 15 to 20)
#    1.000    1.000    1.667    3.000    0.000    4.000 
#    0.000    4.167    0.000    1.000    0.000    0.000 
#    0.000    0.000    0.000    0.000    0.000    0.000 
#
# Total GULP energy -297393.895410 kJ/mol
# GULP energy per Si atom -12391.412309 kJ/mol
# Density = 1.777515 g / cm^3
# Si number density = 17.815697 Si / 1000 Ang^3
#
#
#
# Elastic Constant Matrix: (Units=GPa)
#
#
# Indices 1 2 3 4 5 6 
#
# 1 55.0383 25.1676 20.3297 0.0000 0.2898 0.0000
# 2 25.1676 60.1939 -3.1608 0.0000 -7.6507 0.0000
# 3 20.3297 -3.1608 63.7944 0.0000 -5.3729 0.0000
# 4 0.0000 0.0000 0.0000 -4.5636 0.0000 -4.6252
# 5 0.2898 -7.6507 -5.3729 0.0000 27.0641 0.0000
# 6 0.0000 0.0000 0.0000 -4.6252 0.0000 7.6807
#
#
#
# Elastic Compliance Matrix: (Units=1/GPa)
#
#
# Indices 1 2 3 4 5 6 
#
# 1 0.027789 -0.012897 -0.009994 0.000000 -0.005927 0.000000
# 2 -0.012897 0.023322 0.005932 0.000000 0.007909 0.000000
# 3 -0.009994 0.005932 0.019633 0.000000 0.005681 0.000000
# 4 0.000000 0.000000 0.000000 -0.136076 0.000000 -0.081943
# 5 -0.005927 0.007909 0.005681 0.000000 0.040376 0.000000
# 6 0.000000 0.000000 0.000000 -0.081943 0.000000 0.080852
#
#
# Mechanical properties :
#
#
# Convention : Reuss Voigt Hill
#
# Bulk Modulus (GPa) = 27.15557 29.29995 28.22776
# Shear Modulus (GPa) = 48.97597 15.14890 32.06243
#
# Velocity S-wave (km/s) = 5.24881 2.91917 4.24686
# Velocity P-wave (km/s) = 7.21172 5.27674 6.31874
#
# Compressibility (1/GPa) = 0.03682486
#
# Stress axis : x y z
#
# Youngs Moduli (GPa) = 35.98485 42.87785 50.93574
#
# Poissons Ratio (x) = 0.55300 0.50905
# Poissons Ratio (y) = 0.46410 -0.30213
# Poissons Ratio (z) = 0.35963 -0.25433
#
# Static dielectric constant tensor:
#      x y z
#    x 2.973950 0.000000 0.053660 
#    y 0.000000 3.214590 0.000000 
#    z 0.053660 0.000000 3.366820 
# 
# 
# High freq. dielectric constant tensor:
#      x y z
#    x 1.655820 0.000000 0.017130 
#    y 0.000000 1.677420 0.000000 
#    z 0.017130 0.000000 1.704140 
# 
# From -- ./inp_files/18479.got.cif
#   From: 2010.06.25/outbox.cif.g09.slc.cpg/sg13_10_cif.got.tgz:18479.got - 2010.06.28 04:50:58.
