data_PCOD8117771
_publ_section_title
;
Structure prediction by ZEFSAII (Michael W. Deem and Ramdas Pophale) SiO2 
 PCOD8117771
Probable space group: P 2/C
;
_chemical_formula_sum "Si O2"
_cell_formula_units_Z 20
_cell_length_a 8.814531
_cell_length_b 22.216538
_cell_length_c 5.087721
_cell_angle_alpha 90.000000
_cell_angle_beta 104.172128
_cell_angle_gamma 90.000000
_cell_volume 965.996641
_symmetry_space_group_name_H-M "P 2/C"
_symmetry_group_IT_number 13
_symmetry_cell_setting 'monoclinic'
loop_
_space_group_symop_operation_xyz
x,y,z
-x,y,1/2-z
-x,-y,-z
x,-y,1/2+z
loop_
_atom_site_type_symbol
_atom_site_label
_atom_site_fract_x
_atom_site_fract_y
_atom_site_fract_z
Si Si1 0.318911 0.537812 0.669515
Si Si2 0.179381 0.277042 0.772146
Si Si3 0.817404 0.662072 0.725392
Si Si4 0.895959 0.148629 0.947332
Si Si5 0.317252 0.962820 0.169131
O O1 0.500000 0.556919 0.750000
O O2 0.278277 0.514447 0.361599
O O3 0.213032 0.594408 0.697014
O O4 0.260663 0.320144 0.587224
O O5 0.195636 0.208313 0.685109
O O6 0.000000 0.294733 0.750000
O O7 0.256477 0.292060 0.087607
O O8 0.000000 0.672978 0.750000
O O9 0.769617 0.097757 0.952916
O O10 0.000000 0.125290 0.750000
O O11 0.000000 0.162375 0.250000
O O12 0.500000 0.948090 0.250000
O O13 0.269352 0.986594 0.435864
#
# Coordination Sequence:
#
# PCOD8117771 Si02
#       5
#     4   4   4   4   4
#     4  10  21  36  52  73 104 137 170 215 267 312
#     4   9  18  33  52  77 107 135 166 215 271 309
#     4  10  19  33  54  76 101 135 172 210 257 316
#     4  11  21  35  58  84 110 142 184 227 268 323
#     4  10  22  39  56  78 113 150 181 223 278 323
#
# _framework density 20.704004000000001
#
# number of rings (size 3 to 8) (size 9 to 14) (size 15 to 20)
#    0.000    2.000    0.000    5.400    0.000    3.200 
#    0.000    2.000    0.000    0.000    0.000    0.000 
#    0.000    0.000    0.000    0.000    0.000    0.000 
#
# Total GULP energy -247885.070304 kJ/mol
# GULP energy per Si atom -12394.253515 kJ/mol
# Density = 2.065688 g / cm^3
# Si number density = 20.704004 Si / 1000 Ang^3
#
#
#
# Elastic Constant Matrix: (Units=GPa)
#
#
# Indices 1 2 3 4 5 6 
#
# 1 26.3586 33.6816 29.3700 0.0000 -12.7923 0.0000
# 2 33.6816 117.7209 37.6116 0.0000 -8.5626 0.0000
# 3 29.3700 37.6116 117.1211 0.0000 -24.1709 0.0000
# 4 0.0000 0.0000 0.0000 29.3346 0.0000 -7.0278
# 5 -12.7923 -8.5626 -24.1709 0.0000 23.1056 0.0000
# 6 0.0000 0.0000 0.0000 -7.0278 0.0000 5.7947
#
#
#
# Elastic Compliance Matrix: (Units=1/GPa)
#
#
# Indices 1 2 3 4 5 6 
#
# 1 0.090413 -0.020506 -0.009342 0.000000 0.032685 0.000000
# 2 -0.020506 0.014120 -0.000836 0.000000 -0.006995 0.000000
# 3 -0.009342 -0.000836 0.012776 0.000000 0.007883 0.000000
# 4 0.000000 0.000000 0.000000 0.048051 0.000000 0.058276
# 5 0.032685 -0.006995 0.007883 0.000000 0.067030 0.000000
# 6 0.000000 0.000000 0.000000 0.058276 0.000000 0.243247
#
#
# Mechanical properties :
#
#
# Convention : Reuss Voigt Hill
#
# Bulk Modulus (GPa) = 17.87582 51.39186 34.63384
# Shear Modulus (GPa) = 8.99843 22.34949 15.67396
#
# Velocity S-wave (km/s) = 2.08702 3.28910 2.75444
# Velocity P-wave (km/s) = 3.80267 6.26900 5.18462
#
# Compressibility (1/GPa) = 0.05594148
#
# Stress axis : x y z
#
# Youngs Moduli (GPa) = 11.06030 70.82127 78.27117
#
# Poissons Ratio (x) = 1.45229 0.73121
# Poissons Ratio (y) = 0.22681 0.06541
# Poissons Ratio (z) = 0.10333 0.05918
#
# Static dielectric constant tensor:
#      x y z
#    x 3.379950 0.000000 -0.322380 
#    y 0.000000 3.500920 0.000000 
#    z -0.322380 0.000000 4.404540 
# 
# 
# High freq. dielectric constant tensor:
#      x y z
#    x 1.767790 0.000000 -0.029250 
#    y 0.000000 1.809530 0.000000 
#    z -0.029250 0.000000 1.835300 
# 
# From -- ./inp_files/2127.got.cif
#   From: 2010.06.25/outbox.cif.g09.slc.cpg/sg13_2_cif.got.tgz:2127.got - 2010.06.28 04:50:58.
