data_PCOD8117762
_publ_section_title
;
Structure prediction by ZEFSAII (Michael W. Deem and Ramdas Pophale) SiO2 
 PCOD8117762
Probable space group: P 2/C
;
_chemical_formula_sum "Si O2"
_cell_formula_units_Z 24
_cell_length_a 6.287579
_cell_length_b 28.053922
_cell_length_c 5.362068
_cell_angle_alpha 90.000000
_cell_angle_beta 77.321191
_cell_angle_gamma 90.000000
_cell_volume 922.758760
_symmetry_space_group_name_H-M "P 2/C"
_symmetry_group_IT_number 13
_symmetry_cell_setting 'monoclinic'
loop_
_space_group_symop_operation_xyz
x,y,z
-x,y,1/2-z
-x,-y,-z
x,-y,1/2+z
loop_
_atom_site_type_symbol
_atom_site_label
_atom_site_fract_x
_atom_site_fract_y
_atom_site_fract_z
Si Si1 0.243716 0.976686 0.333506
Si Si2 0.138960 0.620786 0.965054
Si Si3 0.243024 0.132762 0.835819
Si Si4 0.740759 0.480505 0.967020
Si Si5 0.740605 0.175121 0.167646
Si Si6 0.139311 0.276320 0.463457
O O1 0.500000 0.987135 0.250000
O O2 0.195237 0.921958 0.409379
O O3 0.145049 0.009238 0.585439
O O4 0.292286 0.574779 0.949081
O O5 0.265243 0.672201 0.932496
O O6 0.000000 0.620626 0.250000
O O7 0.000000 0.615161 0.750000
O O8 0.500000 0.143711 0.750000
O O9 0.138577 0.146486 0.590042
O O10 0.147482 0.166403 0.087512
O O11 0.857502 0.489228 0.664339
O O12 0.500000 0.500000 0.000000
O O13 0.500000 0.152216 0.250000
O O14 0.706375 0.230436 0.098526
O O15 0.000000 0.270850 0.750000
O O16 0.000000 0.275847 0.250000
#
# Coordination Sequence:
#
# PCOD8117762 Si02
#       6
#     4   4   4   4   4   4
#     4   9  15  23  37  61  96 138 176 209 263 323
#     4  10  21  37  59  83 109 146 185 223 273 325
#     4   9  17  28  45  69 106 140 174 223 269 325
#     4  10  21  37  56  82 116 144 179 223 272 315
#     4  10  19  33  52  77 105 140 178 216 278 329
#     4  10  21  38  58  80 110 141 180 230 272 318
#
# _framework density 26.008966000000001
#
# number of rings (size 3 to 8) (size 9 to 14) (size 15 to 20)
#    0.000    2.333    0.000    3.000    0.000    6.000 
#    3.000    0.000    7.333    0.000    0.000    0.000 
#    0.000   46.667    0.000    0.000    0.000    0.000 
#
# Total GULP energy -297502.806308 kJ/mol
# GULP energy per Si atom -12395.950263 kJ/mol
# Density = 2.594977 g / cm^3
# Si number density = 26.008966 Si / 1000 Ang^3
#
#
#
# Elastic Constant Matrix: (Units=GPa)
#
#
# Indices 1 2 3 4 5 6 
#
# 1 42.2425 7.1700 61.6544 0.0000 2.2479 0.0000
# 2 7.1700 227.5710 93.4124 0.0000 -11.4025 0.0000
# 3 61.6544 93.4124 261.2927 0.0000 14.3687 0.0000
# 4 0.0000 0.0000 0.0000 50.1097 0.0000 0.6859
# 5 2.2479 -11.4025 14.3687 0.0000 37.7090 0.0000
# 6 0.0000 0.0000 0.0000 0.6859 0.0000 29.5476
#
#
#
# Elastic Compliance Matrix: (Units=1/GPa)
#
#
# Indices 1 2 3 4 5 6 
#
# 1 0.037890 0.003121 -0.010198 0.000000 0.002571 0.000000
# 2 0.003121 0.005611 -0.002886 0.000000 0.002610 0.000000
# 3 -0.010198 -0.002886 0.007435 0.000000 -0.003098 0.000000
# 4 0.000000 0.000000 0.000000 0.019963 0.000000 -0.000463
# 5 0.002571 0.002610 -0.003098 0.000000 0.028335 0.000000
# 6 0.000000 0.000000 0.000000 -0.000463 0.000000 0.033854
#
#
# Mechanical properties :
#
#
# Convention : Reuss Voigt Hill
#
# Bulk Modulus (GPa) = 32.24620 95.06443 63.65531
# Shear Modulus (GPa) = 30.60876 48.06453 39.33664
#
# Velocity S-wave (km/s) = 3.43425 4.30350 3.89321
# Velocity P-wave (km/s) = 5.30570 7.83093 6.68857
#
# Compressibility (1/GPa) = 0.03101141
#
# Stress axis : x y z
#
# Youngs Moduli (GPa) = 26.39215 178.21065 134.49074
#
# Poissons Ratio (x) = -0.55617 1.37148
# Poissons Ratio (y) = -0.08237 0.38814
# Poissons Ratio (z) = 0.26914 0.51432
#
# Static dielectric constant tensor:
#      x y z
#    x 4.389560 0.000000 0.648220 
#    y 0.000000 5.286890 0.000000 
#    z 0.648220 0.000000 4.672940 
# 
# 
# High freq. dielectric constant tensor:
#      x y z
#    x 2.056890 0.000000 -0.001760 
#    y 0.000000 2.039390 0.000000 
#    z -0.001760 0.000000 2.092960 
# 
# From -- ./inp_files/2427.got.cif
#   From: 2010.06.25/outbox.cif.g09.slc.cpg/sg13_2_cif.got.tgz:2427.got - 2010.06.28 04:50:58.
