data_PCOD8117339
_publ_section_title
;
Structure prediction by ZEFSAII (Michael W. Deem and Ramdas Pophale) SiO2 
 PCOD8117339
Probable space group: P 2/C
;
_chemical_formula_sum "Si O2"
_cell_formula_units_Z 32
_cell_length_a 15.528520
_cell_length_b 14.064534
_cell_length_c 22.419792
_cell_angle_alpha 90.000000
_cell_angle_beta 161.004536
_cell_angle_gamma 90.000000
_cell_volume 1593.782462
_symmetry_space_group_name_H-M "P 2/C"
_symmetry_group_IT_number 13
_symmetry_cell_setting 'monoclinic'
loop_
_space_group_symop_operation_xyz
x,y,z
-x,y,1/2-z
-x,-y,-z
x,-y,1/2+z
loop_
_atom_site_type_symbol
_atom_site_label
_atom_site_fract_x
_atom_site_fract_y
_atom_site_fract_z
Si Si1 0.540339 0.452127 0.845181
Si Si2 0.102178 0.982888 0.883389
Si Si3 0.546499 0.341572 0.211227
Si Si4 0.510733 0.161952 0.891639
Si Si5 0.852281 0.711397 0.414415
Si Si6 0.100401 0.292252 0.419375
Si Si7 0.341862 0.844955 0.878709
Si Si8 0.238360 0.818001 0.445038
O O1 0.500000 0.473596 0.750000
O O2 0.509661 0.555250 0.856651
O O3 0.311289 0.379690 0.717096
O O4 0.832853 0.404632 0.047936
O O5 0.000000 0.969112 0.750000
O O6 0.880839 0.927433 0.777577
O O7 0.135259 0.094794 0.919659
O O8 0.393640 0.934926 0.078483
O O9 0.500000 0.347195 0.250000
O O10 0.839409 0.307294 0.388985
O O11 0.337170 0.266723 0.050056
O O12 0.232600 0.197711 0.681666
O O13 0.742088 0.237007 0.028688
O O14 0.493800 0.148040 0.952051
O O15 0.785222 0.732654 0.439724
O O16 0.793803 0.260702 0.213844
O O17 0.539430 0.859527 0.953622
O O18 0.000000 0.776027 0.250000
#
# Coordination Sequence:
#
# PCOD8117339 Si02
#       8
#     4   4   4   4   4   4   4   4
#     4   8  17  33  60  83 107 148 190 228 265 333
#     4   8  18  36  57  83 108 144 187 225 269 334
#     4  11  23  39  53  79 118 152 187 227 278 335
#     4   9  18  31  58  90 110 137 183 237 276 326
#     4  10  18  34  59  85 110 147 187 232 280 323
#     4   9  16  34  59  89 110 139 188 236 275 317
#     4  10  19  37  61  86 110 144 187 230 282 328
#     4  11  24  40  58  80 113 153 185 231 279 334
#
# _framework density 20.078021
#
# number of rings (size 3 to 8) (size 9 to 14) (size 15 to 20)
#    0.000    2.500    1.250    2.625    1.750    4.500 
#    0.000    5.625    0.000    3.750    0.000    0.000 
#    0.000    0.000    0.000    0.000    0.000    0.000 
#
# Total GULP energy -396459.074340 kJ/mol
# GULP energy per Si atom -12389.346073 kJ/mol
# Density = 2.003232 g / cm^3
# Si number density = 20.078021 Si / 1000 Ang^3
#
#
#
# Elastic Constant Matrix: (Units=GPa)
#
#
# Indices 1 2 3 4 5 6 
#
# 1 34.6905 4.5635 1.1533 0.0000 0.5671 0.0000
# 2 4.5635 114.7655 57.1348 0.0000 -4.8875 0.0000
# 3 1.1533 57.1348 89.0788 0.0000 9.2014 0.0000
# 4 0.0000 0.0000 0.0000 35.9103 0.0000 -3.6966
# 5 0.5671 -4.8875 9.2014 0.0000 23.6965 0.0000
# 6 0.0000 0.0000 0.0000 -3.6966 0.0000 19.3214
#
#
#
# Elastic Compliance Matrix: (Units=1/GPa)
#
#
# Indices 1 2 3 4 5 6 
#
# 1 0.029033 -0.001605 0.000791 0.000000 -0.001333 0.000000
# 2 -0.001605 0.013787 -0.009501 0.000000 0.006571 0.000000
# 3 0.000791 -0.009501 0.018246 0.000000 -0.009063 0.000000
# 4 0.000000 0.000000 0.000000 0.028407 0.000000 0.005435
# 5 -0.001333 0.006571 -0.009063 0.000000 0.047107 0.000000
# 6 0.000000 0.000000 0.000000 0.005435 0.000000 0.052796
#
#
# Mechanical properties :
#
#
# Convention : Reuss Voigt Hill
#
# Bulk Modulus (GPa) = 24.73020 40.47089 32.60054
# Shear Modulus (GPa) = 22.37300 27.49786 24.93543
#
# Velocity S-wave (km/s) = 3.34174 3.70476 3.52792
# Velocity P-wave (km/s) = 5.21856 6.20491 5.73299
#
# Compressibility (1/GPa) = 0.04043639
#
# Stress axis : x y z
#
# Youngs Moduli (GPa) = 34.44354 72.53181 54.80694
#
# Poissons Ratio (x) = 0.11643 -0.04338
# Poissons Ratio (y) = 0.05529 0.52072
# Poissons Ratio (z) = -0.02726 0.68912
#
# Static dielectric constant tensor:
#      x y z
#    x 2.920690 0.000000 -0.010940 
#    y 0.000000 4.104900 0.000000 
#    z -0.010940 0.000000 3.638740 
# 
# 
# High freq. dielectric constant tensor:
#      x y z
#    x 1.763760 0.000000 0.016400 
#    y 0.000000 1.779970 0.000000 
#    z 0.016400 0.000000 1.765410 
# 
# From -- ./inp_files/76636.got.cif
#   From: 2010.06.25/outbox.cif.g09.slc.cpg/sg13_39_cif.got.tgz:76636.got - 2010.06.28 04:50:58.
