data_PCOD8117577
_publ_section_title
;
Structure prediction by ZEFSAII (Michael W. Deem and Ramdas Pophale) SiO2 
 PCOD8117577
Probable space group: P 2/C
;
_chemical_formula_sum "Si O2"
_cell_formula_units_Z 22
_cell_length_a 11.526500
_cell_length_b 7.378535
_cell_length_c 15.245053
_cell_angle_alpha 90.000000
_cell_angle_beta 59.809940
_cell_angle_gamma 90.000000
_cell_volume 1120.707372
_symmetry_space_group_name_H-M "P 2/C"
_symmetry_group_IT_number 13
_symmetry_cell_setting 'monoclinic'
loop_
_space_group_symop_operation_xyz
x,y,z
-x,y,1/2-z
-x,-y,-z
x,-y,1/2+z
loop_
_atom_site_type_symbol
_atom_site_label
_atom_site_fract_x
_atom_site_fract_y
_atom_site_fract_z
Si Si1 0.500000 0.702600 0.250000
Si Si2 0.289942 0.874646 0.450362
Si Si3 0.059145 0.313088 0.941184
Si Si4 0.230614 0.272917 0.460469
Si Si5 0.348315 0.434087 0.048438
Si Si6 0.726266 0.515122 0.733373
O O1 0.390780 0.828985 0.334648
O O2 0.422520 0.571040 0.212370
O O3 0.139761 0.806907 0.481983
O O4 0.341677 0.771852 0.516960
O O5 0.307479 0.089622 0.456867
O O6 0.159248 0.361803 0.823277
O O7 0.000000 0.500000 0.000000
O O8 0.924168 0.211262 0.962985
O O9 0.273475 0.437200 0.506802
O O10 0.257321 0.330366 0.348477
O O11 0.264291 0.416531 0.170701
O O12 0.500000 0.500000 0.000000
#
# Coordination Sequence:
#
# PCOD8117577 Si02
#       6
#     2   4   4   4   4   4
#     4  10  18  40  60  86 122 170 202 250 310 370
#     4  11  22  39  66  93 123 163 214 259 308 369
#     4   9  18  41  67  84 121 168 204 252 317 365
#     4  11  23  42  65  91 125 166 209 262 309 367
#     4  12  23  40  63  91 131 162 208 253 314 376
#     4  10  20  39  65  86 126 170 202 253 314 366
#
# _framework density 19.630459999999999
#
# number of rings (size 3 to 8) (size 9 to 14) (size 15 to 20)
#    0.000    1.455    7.273    0.545    0.000    3.636 
#    6.545    0.000    8.000    0.000    0.000    0.000 
#    0.000    0.000    0.000    0.000    0.000    0.000 
#
# Total GULP energy -272563.964657 kJ/mol
# GULP energy per Si atom -12389.271121 kJ/mol
# Density = 1.958578 g / cm^3
# Si number density = 19.630460 Si / 1000 Ang^3
#
#
#
# Elastic Constant Matrix: (Units=GPa)
#
#
# Indices 1 2 3 4 5 6 
#
# 1 85.5411 16.9016 34.2391 0.0000 -11.2410 0.0000
# 2 16.9016 109.3959 35.4655 0.0000 10.0302 0.0000
# 3 34.2391 35.4655 114.2504 0.0000 19.5653 0.0000
# 4 0.0000 0.0000 0.0000 15.1982 0.0000 -0.2825
# 5 -11.2410 10.0302 19.5653 0.0000 34.3906 0.0000
# 6 0.0000 0.0000 0.0000 -0.2825 0.0000 26.6697
#
#
#
# Elastic Compliance Matrix: (Units=1/GPa)
#
#
# Indices 1 2 3 4 5 6 
#
# 1 0.015355 -0.001326 -0.005668 0.000000 0.008630 0.000000
# 2 -0.001326 0.010331 -0.002459 0.000000 -0.002048 0.000000
# 3 -0.005668 -0.002459 0.012641 0.000000 -0.008327 0.000000
# 4 0.000000 0.000000 0.000000 0.065810 0.000000 0.000697
# 5 0.008630 -0.002048 -0.008327 0.000000 0.037233 0.000000
# 6 0.000000 0.000000 0.000000 0.000697 0.000000 0.037503
#
#
# Mechanical properties :
#
#
# Convention : Reuss Voigt Hill
#
# Bulk Modulus (GPa) = 51.49147 53.59996 52.54572
# Shear Modulus (GPa) = 24.47949 30.09043 27.28496
#
# Velocity S-wave (km/s) = 3.53514 3.91940 3.73222
# Velocity P-wave (km/s) = 6.55365 6.91708 6.73782
#
# Compressibility (1/GPa) = 0.01942069
#
# Stress axis : x y z
#
# Youngs Moduli (GPa) = 65.12480 96.79723 79.11042
#
# Poissons Ratio (x) = 0.12837 0.44840
# Poissons Ratio (y) = 0.08636 0.19452
# Poissons Ratio (z) = 0.36913 0.23801
#
# Static dielectric constant tensor:
#      x y z
#    x 4.263190 0.000000 -0.406560 
#    y 0.000000 3.501050 0.000000 
#    z -0.406560 0.000000 3.641770 
# 
# 
# High freq. dielectric constant tensor:
#      x y z
#    x 1.772560 0.000000 -0.019850 
#    y 0.000000 1.752110 0.000000 
#    z -0.019850 0.000000 1.758420 
# 
# From -- ./inp_files/49223.got.cif
#   From: 2010.06.25/outbox.cif.g09.slc.cpg/sg13_25_cif.got.tgz:49223.got - 2010.06.28 04:50:58.
