data_PCOD8117781
_publ_section_title
;
Structure prediction by ZEFSAII (Michael W. Deem and Ramdas Pophale) SiO2 
 PCOD8117781
Probable space group: P 2/C
;
_chemical_formula_sum "Si O2"
_cell_formula_units_Z 24
_cell_length_a 23.416526
_cell_length_b 10.483883
_cell_length_c 23.412249
_cell_angle_alpha 90.000000
_cell_angle_beta 167.928685
_cell_angle_gamma 90.000000
_cell_volume 1201.993309
_symmetry_space_group_name_H-M "P 2/C"
_symmetry_group_IT_number 13
_symmetry_cell_setting 'monoclinic'
loop_
_space_group_symop_operation_xyz
x,y,z
-x,y,1/2-z
-x,-y,-z
x,-y,1/2+z
loop_
_atom_site_type_symbol
_atom_site_label
_atom_site_fract_x
_atom_site_fract_y
_atom_site_fract_z
Si Si1 0.381038 0.127821 0.835377
Si Si2 0.894783 0.007964 0.296573
Si Si3 0.926304 0.255012 0.861639
Si Si4 0.556640 0.426939 0.114869
Si Si5 0.614645 0.338736 0.746480
Si Si6 0.110640 0.221188 0.295775
O O1 0.217898 0.171155 0.730858
O O2 0.473146 0.258430 0.894946
O O3 0.187381 0.049904 0.604470
O O4 0.657817 0.041607 0.113004
O O5 0.822091 0.083669 0.167160
O O6 0.944029 0.856721 0.331023
O O7 0.729533 0.365218 0.646760
O O8 0.209543 0.317079 0.161417
O O9 0.637325 0.516398 0.246749
O O10 0.500000 0.500000 0.000000
O O11 0.379988 0.310375 0.563960
O O12 0.904470 0.301333 0.055270
O O13 0.000000 0.192771 0.250000
#
# Coordination Sequence:
#
# PCOD8117781 Si02
#       6
#     4   4   4   4   4   4
#     4  10  19  33  54  79 117 151 187 229 273 341
#     4  10  21  35  54  85 112 144 191 237 287 340
#     4  12  22  34  55  80 123 162 187 220 285 341
#     4  12  24  36  55  82 123 163 195 220 273 353
#     4  10  21  36  57  85 113 145 195 238 275 336
#     4  10  21  39  64  83 105 141 190 255 302 328
#
# _framework density 19.966835
#
# number of rings (size 3 to 8) (size 9 to 14) (size 15 to 20)
#    0.000    1.333    1.667    5.000    4.667    0.000 
#    0.000    0.000    0.000    6.000    0.000    0.000 
#    0.000    0.000    0.000    0.000    0.000    0.000 
#
# Total GULP energy -297434.546995 kJ/mol
# GULP energy per Si atom -12393.106125 kJ/mol
# Density = 1.992139 g / cm^3
# Si number density = 19.966835 Si / 1000 Ang^3
#
#
#
# Elastic Constant Matrix: (Units=GPa)
#
#
# Indices 1 2 3 4 5 6 
#
# 1 58.4186 32.7785 7.9197 0.0000 8.9625 0.0000
# 2 32.7785 115.3108 26.1732 0.0000 -1.2822 0.0000
# 3 7.9197 26.1732 83.5854 0.0000 9.6983 0.0000
# 4 0.0000 0.0000 0.0000 40.2880 0.0000 0.6870
# 5 8.9625 -1.2822 9.6983 0.0000 23.9989 0.0000
# 6 0.0000 0.0000 0.0000 0.6870 0.0000 12.2510
#
#
#
# Elastic Compliance Matrix: (Units=1/GPa)
#
#
# Indices 1 2 3 4 5 6 
#
# 1 0.022067 -0.006605 0.001022 0.000000 -0.009007 0.000000
# 2 -0.006605 0.011384 -0.003458 0.000000 0.004472 0.000000
# 3 0.001022 -0.003458 0.013656 0.000000 -0.006085 0.000000
# 4 0.000000 0.000000 0.000000 0.024845 0.000000 -0.001393
# 5 -0.009007 0.004472 -0.006085 0.000000 0.047730 0.000000
# 6 0.000000 0.000000 0.000000 -0.001393 0.000000 0.081704
#
#
# Mechanical properties :
#
#
# Convention : Reuss Voigt Hill
#
# Bulk Modulus (GPa) = 34.45149 43.45084 38.95117
# Shear Modulus (GPa) = 21.82040 28.00382 24.91211
#
# Velocity S-wave (km/s) = 3.30939 3.74908 3.53608
# Velocity P-wave (km/s) = 5.64753 6.36785 6.01848
#
# Compressibility (1/GPa) = 0.02902632
#
# Stress axis : x y z
#
# Youngs Moduli (GPa) = 45.31613 87.83954 73.22928
#
# Poissons Ratio (x) = 0.58019 -0.07488
# Poissons Ratio (y) = 0.29932 0.25322
# Poissons Ratio (z) = -0.04634 0.30374
#
# Static dielectric constant tensor:
#      x y z
#    x 3.312250 0.000000 0.218250 
#    y 0.000000 3.954140 0.000000 
#    z 0.218250 0.000000 3.832430 
# 
# 
# High freq. dielectric constant tensor:
#      x y z
#    x 1.727400 0.000000 0.012880 
#    y 0.000000 1.790770 0.000000 
#    z 0.012880 0.000000 1.799720 
# 
# From -- ./inp_files/89085.got.cif
#   From: 2010.06.25/outbox.cif.g09.slc.cpg/sg13_45_cif.got.tgz:89085.got - 2010.06.28 04:50:58.
