data_PCOD8117367
_publ_section_title
;
Structure prediction by ZEFSAII (Michael W. Deem and Ramdas Pophale) SiO2 
 PCOD8117367
Probable space group: P 2/C
;
_chemical_formula_sum "Si O2"
_cell_formula_units_Z 18
_cell_length_a 27.456800
_cell_length_b 7.278929
_cell_length_c 22.476515
_cell_angle_alpha 90.000000
_cell_angle_beta 11.614360
_cell_angle_gamma 90.000000
_cell_volume 904.358632
_symmetry_space_group_name_H-M "P 2/C"
_symmetry_group_IT_number 13
_symmetry_cell_setting 'monoclinic'
loop_
_space_group_symop_operation_xyz
x,y,z
-x,y,1/2-z
-x,-y,-z
x,-y,1/2+z
loop_
_atom_site_type_symbol
_atom_site_label
_atom_site_fract_x
_atom_site_fract_y
_atom_site_fract_z
Si Si1 0.000000 0.137031 0.250000
Si Si2 0.503270 0.314551 0.815241
Si Si3 0.037807 0.811747 0.286367
Si Si4 0.794655 0.963719 0.293013
Si Si5 0.603835 0.312146 0.241365
O O1 0.770128 0.262851 0.516082
O O2 0.042128 0.011105 0.141867
O O3 0.500000 0.362626 0.750000
O O4 0.452884 0.499212 0.913738
O O5 0.304777 0.158619 0.064895
O O6 0.099746 0.834048 0.281141
O O7 0.809847 0.674891 0.546713
O O8 0.272350 0.740905 0.969929
O O9 0.579770 0.848919 0.519811
O O10 0.000000 0.000000 0.000000
#
# Coordination Sequence:
#
# PCOD8117367 Si02
#       5
#     2   4   4   4   4
#     4  10  18  34  66  88 108 148 200 258 300 336
#     4  12  21  38  66  92 116 152 208 256 304 353
#     4  10  19  41  62  86 119 149 203 256 300 347
#     4  12  24  39  58  86 127 167 194 237 304 373
#     4  10  22  39  63  89 114 152 202 259 301 343
#
# _framework density 19.903607999999998
#
# number of rings (size 3 to 8) (size 9 to 14) (size 15 to 20)
#    0.000    1.333    6.667    3.333    0.000    1.778 
#    0.000    1.111    0.000    0.000    0.000    0.000 
#    0.000    0.000    0.000    0.000    0.000    0.000 
#
# Total GULP energy -223152.854399 kJ/mol
# GULP energy per Si atom -12397.380800 kJ/mol
# Density = 1.985831 g / cm^3
# Si number density = 19.903608 Si / 1000 Ang^3
#
#
#
# Elastic Constant Matrix: (Units=GPa)
#
#
# Indices 1 2 3 4 5 6 
#
# 1 63.5391 12.3375 35.5852 0.0000 -11.1650 0.0000
# 2 12.3375 105.2823 30.2228 0.0000 -8.8538 0.0000
# 3 35.5852 30.2228 95.0960 0.0000 -6.7028 0.0000
# 4 0.0000 0.0000 0.0000 14.6570 0.0000 -15.0297
# 5 -11.1650 -8.8538 -6.7028 0.0000 18.9830 0.0000
# 6 0.0000 0.0000 0.0000 -15.0297 0.0000 28.7507
#
#
#
# Elastic Compliance Matrix: (Units=1/GPa)
#
#
# Indices 1 2 3 4 5 6 
#
# 1 0.021680 0.000492 -0.007542 0.000000 0.010317 0.000000
# 2 0.000492 0.010737 -0.003305 0.000000 0.004130 0.000000
# 3 -0.007542 -0.003305 0.014323 0.000000 -0.000920 0.000000
# 4 0.000000 0.000000 0.000000 0.147058 0.000000 0.076876
# 5 0.010317 0.004130 -0.000920 0.000000 0.060348 0.000000
# 6 0.000000 0.000000 0.000000 0.076876 0.000000 0.074970
#
#
# Mechanical properties :
#
#
# Convention : Reuss Voigt Hill
#
# Bulk Modulus (GPa) = 38.41741 46.68982 42.55362
# Shear Modulus (GPa) = 13.94691 24.86293 19.40492
#
# Velocity S-wave (km/s) = 2.64999 3.53819 3.12580
# Velocity P-wave (km/s) = 5.35788 6.34039 5.86973
#
# Compressibility (1/GPa) = 0.02602986
#
# Stress axis : x y z
#
# Youngs Moduli (GPa) = 46.12648 93.13799 69.81549
#
# Poissons Ratio (x) = -0.04583 0.52653
# Poissons Ratio (y) = -0.02270 0.23076
# Poissons Ratio (z) = 0.34787 0.30785
#
# Static dielectric constant tensor:
#      x y z
#    x 3.580890 0.000000 -0.410230 
#    y 0.000000 3.787080 0.000000 
#    z -0.410230 0.000000 3.531970 
# 
# 
# High freq. dielectric constant tensor:
#      x y z
#    x 1.759250 0.000000 -0.040130 
#    y 0.000000 1.784170 0.000000 
#    z -0.040130 0.000000 1.758790 
# 
# From -- ./inp_files/89665.got.cif
#   From: 2010.06.25/outbox.cif.g09.slc.cpg/sg13_45_cif.got.tgz:89665.got - 2010.06.28 04:50:58.
