data_PCOD8117884
_publ_section_title
;
Structure prediction by ZEFSAII (Michael W. Deem and Ramdas Pophale) SiO2 
 PCOD8117884
Probable space group: P 2/C
;
_chemical_formula_sum "Si O2"
_cell_formula_units_Z 24
_cell_length_a 11.844276
_cell_length_b 17.774499
_cell_length_c 17.329960
_cell_angle_alpha 90.000000
_cell_angle_beta 21.153665
_cell_angle_gamma 90.000000
_cell_volume 1316.602904
_symmetry_space_group_name_H-M "P 2/C"
_symmetry_group_IT_number 13
_symmetry_cell_setting 'monoclinic'
loop_
_space_group_symop_operation_xyz
x,y,z
-x,y,1/2-z
-x,-y,-z
x,-y,1/2+z
loop_
_atom_site_type_symbol
_atom_site_label
_atom_site_fract_x
_atom_site_fract_y
_atom_site_fract_z
Si Si1 0.150146 0.077962 0.271320
Si Si2 0.064183 0.445001 0.622898
Si Si3 0.757528 0.457344 0.207458
Si Si4 0.163507 0.320875 0.436501
Si Si5 0.517208 0.939126 0.095455
Si Si6 0.190156 0.817257 0.402608
O O1 0.815850 0.043705 0.458905
O O2 0.079074 0.152667 0.367070
O O3 0.335072 0.017134 0.203446
O O4 0.365261 0.097330 0.060163
O O5 0.412858 0.478700 0.397674
O O6 0.016712 0.374208 0.596344
O O7 0.000000 0.416614 0.750000
O O8 0.828726 0.513625 0.749100
O O9 0.801837 0.367691 0.166155
O O10 0.000000 0.500000 0.000000
O O11 0.500000 0.290679 0.250000
O O12 0.937131 0.251592 0.566025
O O13 0.277003 0.882266 0.287425
O O14 0.500000 0.790174 0.250000
#
# Coordination Sequence:
#
# PCOD8117884 Si02
#       6
#     4   4   4   4   4   4
#     4   9  18  33  53  75 104 133 170 222 256 307
#     4  10  19  34  56  81 105 132 174 223 262 304
#     4   9  18  34  55  75 102 137 172 212 258 312
#     4   9  20  36  50  73 106 140 171 209 259 316
#     4   9  18  33  52  77 102 131 177 215 259 304
#     4  10  20  34  52  75 105 143 174 210 262 313
#
# _framework density 18.228731
#
# number of rings (size 3 to 8) (size 9 to 14) (size 15 to 20)
#    0.000    2.667    0.000    2.500    0.000    4.000 
#    6.000    0.000    3.667    0.000    0.000    0.000 
#    0.000    0.000    0.000    0.000    0.000    0.000 
#
# Total GULP energy -297472.532074 kJ/mol
# GULP energy per Si atom -12394.688836 kJ/mol
# Density = 1.818724 g / cm^3
# Si number density = 18.228731 Si / 1000 Ang^3
#
#
#
# Elastic Constant Matrix: (Units=GPa)
#
#
# Indices 1 2 3 4 5 6 
#
# 1 98.2019 49.2590 31.5532 0.0000 -1.2573 0.0000
# 2 49.2590 62.5089 32.0160 0.0000 -11.2956 0.0000
# 3 31.5532 32.0160 72.3622 0.0000 -2.0749 0.0000
# 4 0.0000 0.0000 0.0000 22.1463 0.0000 -10.1064
# 5 -1.2573 -11.2956 -2.0749 0.0000 26.8567 0.0000
# 6 0.0000 0.0000 0.0000 -10.1064 0.0000 35.4641
#
#
#
# Elastic Compliance Matrix: (Units=1/GPa)
#
#
# Indices 1 2 3 4 5 6 
#
# 1 0.017685 -0.014029 -0.001653 0.000000 -0.005200 0.000000
# 2 -0.014029 0.033690 -0.008420 0.000000 0.012862 0.000000
# 3 -0.001653 -0.008420 0.018202 0.000000 -0.002212 0.000000
# 4 0.000000 0.000000 0.000000 0.051904 0.000000 0.014791
# 5 -0.005200 0.012862 -0.002212 0.000000 0.042230 0.000000
# 6 0.000000 0.000000 0.000000 0.014791 0.000000 0.032413
#
#
# Mechanical properties :
#
#
# Convention : Reuss Voigt Hill
#
# Bulk Modulus (GPa) = 46.78932 50.96995 48.87963
# Shear Modulus (GPa) = 19.88448 24.90973 22.39710
#
# Velocity S-wave (km/s) = 3.30636 3.70064 3.50904
# Velocity P-wave (km/s) = 6.34820 6.80307 6.57956
#
# Compressibility (1/GPa) = 0.02137240
#
# Stress axis : x y z
#
# Youngs Moduli (GPa) = 56.54516 29.68255 54.93869
#
# Poissons Ratio (x) = 0.41642 0.09084
# Poissons Ratio (y) = 0.79328 0.46256
# Poissons Ratio (z) = 0.09350 0.24991
#
# Static dielectric constant tensor:
#      x y z
#    x 3.973430 0.000000 -0.106230 
#    y 0.000000 3.141350 0.000000 
#    z -0.106230 0.000000 3.521000 
# 
# 
# High freq. dielectric constant tensor:
#      x y z
#    x 1.713110 0.000000 -0.003870 
#    y 0.000000 1.676600 0.000000 
#    z -0.003870 0.000000 1.713920 
# 
# From -- ./inp_files/17224.got.cif
#   From: 2010.06.25/outbox.cif.g09.slc.cpg/sg13_9_cif.got.tgz:17224.got - 2010.06.28 04:50:58.
