data_PCOD8117365
_publ_section_title
;
Structure prediction by ZEFSAII (Michael W. Deem and Ramdas Pophale) SiO2 
 PCOD8117365
Probable space group: P 2/C
;
_chemical_formula_sum "Si O2"
_cell_formula_units_Z 26
_cell_length_a 14.927931
_cell_length_b 11.530760
_cell_length_c 14.236637
_cell_angle_alpha 90.000000
_cell_angle_beta 31.900632
_cell_angle_gamma 90.000000
_cell_volume 1294.991671
_symmetry_space_group_name_H-M "P 2/C"
_symmetry_group_IT_number 13
_symmetry_cell_setting 'monoclinic'
loop_
_space_group_symop_operation_xyz
x,y,z
-x,y,1/2-z
-x,-y,-z
x,-y,1/2+z
loop_
_atom_site_type_symbol
_atom_site_label
_atom_site_fract_x
_atom_site_fract_y
_atom_site_fract_z
Si Si1 0.681644 0.056464 0.934315
Si Si2 0.182142 0.572777 0.604288
Si Si3 0.798977 0.655657 0.527414
Si Si4 0.495709 0.170989 0.943344
Si Si5 0.500000 0.716104 0.250000
Si Si6 0.000000 0.167589 0.750000
Si Si7 0.500000 0.821745 0.750000
Si Si8 0.651164 0.406474 0.355746
O O1 0.658310 0.121178 0.854823
O O2 0.854841 0.083493 0.836154
O O3 0.521237 0.096213 0.140467
O O4 0.659415 0.920007 0.932493
O O5 0.169754 0.445513 0.573733
O O6 0.338699 0.639378 0.419538
O O7 0.208688 0.561915 0.691953
O O8 0.000000 0.635903 0.750000
O O9 0.652783 0.734961 0.618876
O O10 0.755090 0.595831 0.665800
O O11 0.953678 0.748413 0.380564
O O12 0.560873 0.206527 0.782644
O O13 0.424672 0.279489 0.063788
O O14 0.500000 0.500000 0.500000
#
# Coordination Sequence:
#
# PCOD8117365 Si02
#       8
#     4   4   4   4   2   2   2   4
#     4  10  21  39  64  93 124 163 222 265 323 390
#     4  11  24  40  60  97 131 170 216 267 328 396
#     4  11  20  39  59  91 129 165 215 267 320 388
#     4  10  21  40  64  92 125 171 217 263 322 399
#     4  10  22  42  64  90 134 177 217 266 340 392
#     4  10  24  38  62  96 132 166 214 276 328 376
#     4  10  18  34  66  84 118 169 209 266 314 386
#     4  11  23  39  67  95 126 175 217 267 330 393
#
# _framework density 20.077349000000002
#
# number of rings (size 3 to 8) (size 9 to 14) (size 15 to 20)
#    0.000    1.538    2.308    3.692    2.154    1.846 
#    5.538    0.769    0.000    0.000    0.000    0.000 
#    0.000    0.000    0.000    0.000    0.000    0.000 
#
# Total GULP energy -322153.408999 kJ/mol
# GULP energy per Si atom -12390.515731 kJ/mol
# Density = 2.003165 g / cm^3
# Si number density = 20.077349 Si / 1000 Ang^3
#
#
#
# Elastic Constant Matrix: (Units=GPa)
#
#
# Indices 1 2 3 4 5 6 
#
# 1 118.3748 48.6521 35.0018 0.0000 -12.7774 0.0000
# 2 48.6521 114.8327 37.4392 0.0000 -3.0104 0.0000
# 3 35.0018 37.4392 88.8186 0.0000 -7.8958 0.0000
# 4 0.0000 0.0000 0.0000 8.6157 0.0000 -1.3196
# 5 -12.7774 -3.0104 -7.8958 0.0000 31.7889 0.0000
# 6 0.0000 0.0000 0.0000 -1.3196 0.0000 41.1604
#
#
#
# Elastic Compliance Matrix: (Units=1/GPa)
#
#
# Indices 1 2 3 4 5 6 
#
# 1 0.011123 -0.003818 -0.002463 0.000000 0.003497 0.000000
# 2 -0.003818 0.011406 -0.003420 0.000000 -0.001304 0.000000
# 3 -0.002463 -0.003420 0.013860 0.000000 0.002129 0.000000
# 4 0.000000 0.000000 0.000000 0.116640 0.000000 0.003739
# 5 0.003497 -0.001304 0.002129 0.000000 0.033269 0.000000
# 6 0.000000 0.000000 0.000000 0.003739 0.000000 0.024415
#
#
# Mechanical properties :
#
#
# Convention : Reuss Voigt Hill
#
# Bulk Modulus (GPa) = 58.86242 62.69025 60.77634
# Shear Modulus (GPa) = 21.20654 29.70853 25.45753
#
# Velocity S-wave (km/s) = 3.25351 3.85086 3.56472
# Velocity P-wave (km/s) = 6.59509 7.14593 6.87603
#
# Compressibility (1/GPa) = 0.01698877
#
# Stress axis : x y z
#
# Youngs Moduli (GPa) = 89.90688 87.66938 72.14894
#
# Poissons Ratio (x) = 0.33469 0.17771
# Poissons Ratio (y) = 0.34324 0.24672
# Poissons Ratio (z) = 0.22145 0.29979
#
# Static dielectric constant tensor:
#      x y z
#    x 3.869020 0.000000 0.210830 
#    y 0.000000 3.778420 0.000000 
#    z 0.210830 0.000000 3.945590 
# 
# 
# High freq. dielectric constant tensor:
#      x y z
#    x 1.788960 0.000000 0.011320 
#    y 0.000000 1.793700 0.000000 
#    z 0.011320 0.000000 1.775330 
# 
# From -- ./inp_files/46595.got.cif
#   From: 2010.06.25/outbox.cif.g09.slc.cpg/sg13_24_cif.got.tgz:46595.got - 2010.06.28 04:50:58.
