data_PCOD8117658
_publ_section_title
;
Structure prediction by ZEFSAII (Michael W. Deem and Ramdas Pophale) SiO2 
 PCOD8117658
Probable space group: P 2/C
;
_chemical_formula_sum "Si O2"
_cell_formula_units_Z 18
_cell_length_a 25.128149
_cell_length_b 8.186694
_cell_length_c 5.052278
_cell_angle_alpha 90.000000
_cell_angle_beta 66.421229
_cell_angle_gamma 90.000000
_cell_volume 952.563593
_symmetry_space_group_name_H-M "P 2/C"
_symmetry_group_IT_number 13
_symmetry_cell_setting 'monoclinic'
loop_
_space_group_symop_operation_xyz
x,y,z
-x,y,1/2-z
-x,-y,-z
x,-y,1/2+z
loop_
_atom_site_type_symbol
_atom_site_label
_atom_site_fract_x
_atom_site_fract_y
_atom_site_fract_z
Si Si1 0.814285 0.110310 0.654240
Si Si2 0.273709 0.396721 0.655204
Si Si3 0.941009 0.893931 0.940664
Si Si4 0.407281 0.607694 0.901757
Si Si5 0.500000 0.884181 0.750000
O O1 0.766628 0.245731 0.695561
O O2 0.878999 0.193362 0.507279
O O3 0.805780 0.968252 0.457806
O O4 0.260373 0.458067 0.386976
O O5 0.340160 0.339970 0.553160
O O6 0.000000 0.789338 0.750000
O O7 0.943464 0.052333 0.741348
O O8 0.423394 0.524336 0.592661
O O9 0.442907 0.772758 0.867032
O O10 0.500000 0.000000 0.500000
#
# Coordination Sequence:
#
# PCOD8117658 Si02
#       5
#     4   4   4   4   2
#     4  10  19  31  51  76 100 129 167 213 256 292
#     4  10  21  36  54  75 102 137 171 204 247 301
#     4   8  14  25  42  66  94 124 161 202 244 294
#     4  10  21  39  58  74 101 143 176 196 239 311
#     4  12  24  36  56  86 110 128 162 218 262 282
#
# _framework density 18.896377000000001
#
# number of rings (size 3 to 8) (size 9 to 14) (size 15 to 20)
#    0.000    2.222    0.000    3.333    0.000    1.778 
#    0.000    0.000    0.000    1.333    0.000    0.000 
#    0.000    0.000    0.000    0.000    0.000    0.000 
#
# Total GULP energy -223099.277988 kJ/mol
# GULP energy per Si atom -12394.404333 kJ/mol
# Density = 1.885337 g / cm^3
# Si number density = 18.896377 Si / 1000 Ang^3
#
#
#
# Elastic Constant Matrix: (Units=GPa)
#
#
# Indices 1 2 3 4 5 6 
#
# 1 116.9953 58.1602 40.2365 0.0000 -16.6504 0.0000
# 2 58.1602 75.1112 23.7227 0.0000 -21.0494 0.0000
# 3 40.2365 23.7227 75.1901 0.0000 -0.9925 0.0000
# 4 0.0000 0.0000 0.0000 12.6179 0.0000 13.0742
# 5 -16.6504 -21.0494 -0.9925 0.0000 40.1829 0.0000
# 6 0.0000 0.0000 0.0000 13.0742 0.0000 -2.1300
#
#
#
# Elastic Compliance Matrix: (Units=1/GPa)
#
#
# Indices 1 2 3 4 5 6 
#
# 1 0.015442 -0.010077 -0.005071 0.000000 0.000995 0.000000
# 2 -0.010077 0.024143 -0.002114 0.000000 0.008420 0.000000
# 3 -0.005071 -0.002114 0.016643 0.000000 -0.002798 0.000000
# 4 0.000000 0.000000 0.000000 0.010768 0.000000 0.066095
# 5 0.000995 0.008420 -0.002798 0.000000 0.029640 0.000000
# 6 0.000000 0.000000 0.000000 0.066095 0.000000 -0.063788
#
#
# Mechanical properties :
#
#
# Convention : Reuss Voigt Hill
#
# Bulk Modulus (GPa) = 46.07143 56.83725 51.45434
# Shear Modulus (GPa) = 67.01742 19.81266 43.41504
#
# Velocity S-wave (km/s) = 5.96177 3.24155 4.79846
# Velocity P-wave (km/s) = 8.47492 6.64484 7.61506
#
# Compressibility (1/GPa) = 0.02170543
#
# Stress axis : x y z
#
# Youngs Moduli (GPa) = 64.75674 41.41908 60.08387
#
# Poissons Ratio (x) = 0.41738 0.30470
# Poissons Ratio (y) = 0.65255 0.12700
# Poissons Ratio (z) = 0.32840 0.08755
#
# Static dielectric constant tensor:
#      x y z
#    x 3.912110 0.000000 -0.118140 
#    y 0.000000 2.910660 0.000000 
#    z -0.118140 0.000000 3.752970 
# 
# 
# High freq. dielectric constant tensor:
#      x y z
#    x 1.761750 0.000000 0.000530 
#    y 0.000000 1.674690 0.000000 
#    z 0.000530 0.000000 1.760220 
# 
# From -- ./inp_files/6681.got.cif
#   From: 2010.06.25/outbox.cif.g09.slc.cpg/sg13_4_cif.got.tgz:6681.got - 2010.06.28 04:50:58.
