data_PCOD8117228
_publ_section_title
;
Structure prediction by ZEFSAII (Michael W. Deem and Ramdas Pophale) SiO2 
 PCOD8117228
Probable space group: P 2/C
;
_chemical_formula_sum "Si O2"
_cell_formula_units_Z 30
_cell_length_a 30.643837
_cell_length_b 10.765630
_cell_length_c 9.264367
_cell_angle_alpha 90.000000
_cell_angle_beta 29.274111
_cell_angle_gamma 90.000000
_cell_volume 1494.503252
_symmetry_space_group_name_H-M "P 2/C"
_symmetry_group_IT_number 13
_symmetry_cell_setting 'monoclinic'
loop_
_space_group_symop_operation_xyz
x,y,z
-x,y,1/2-z
-x,-y,-z
x,-y,1/2+z
loop_
_atom_site_type_symbol
_atom_site_label
_atom_site_fract_x
_atom_site_fract_y
_atom_site_fract_z
Si Si1 0.783080 0.708036 0.616159
Si Si2 0.711469 0.847664 0.329971
Si Si3 0.573595 0.354977 0.317219
Si Si4 0.500000 0.793505 0.250000
Si Si5 0.201716 0.334167 0.108163
Si Si6 0.690281 0.083544 0.203983
Si Si7 0.063198 0.544538 0.442741
Si Si8 0.351356 0.522498 0.615804
O O1 0.803119 0.736695 0.725163
O O2 0.750977 0.832612 0.631713
O O3 0.873226 0.658158 0.282569
O O4 0.707711 0.602251 0.823685
O O5 0.627757 0.756066 0.587510
O O6 0.733567 0.913499 0.418766
O O7 0.687757 0.946042 0.274406
O O8 0.796400 0.767471 0.027151
O O9 0.485307 0.293412 0.645817
O O10 0.624963 0.396843 0.314350
O O11 0.564077 0.465951 0.225221
O O12 0.412482 0.875719 0.513613
O O13 0.118260 0.424735 0.335769
O O14 0.294686 0.407214 0.835279
O O15 0.000000 0.500000 0.500000
O O16 0.000000 0.596107 0.750000
#
# Coordination Sequence:
#
# PCOD8117228 Si02
#       8
#     4   4   4   2   4   4   4   4
#     4  11  20  36  60  86 123 164 203 245 309 370
#     4  10  22  39  60  86 114 161 213 256 305 361
#     4  10  20  35  55  83 117 158 198 257 307 368
#     4  10  22  38  58  88 120 162 212 274 306 360
#     4  10  21  35  62  89 121 160 202 245 302 378
#     4  11  23  40  62  85 121 162 218 266 309 361
#     4  11  23  37  61 100 131 163 196 249 307 374
#     4  10  18  33  55  82 117 154 196 242 305 371
#
# _framework density 20.073558999999999
#
# number of rings (size 3 to 8) (size 9 to 14) (size 15 to 20)
#    0.000    1.600    5.333    0.800    1.867    2.667 
#    0.000    0.000    0.000    9.600    0.000    0.000 
#    0.000    0.000    0.000    0.000    0.000    0.000 
#
# Total GULP energy -371769.978582 kJ/mol
# GULP energy per Si atom -12392.332619 kJ/mol
# Density = 2.002787 g / cm^3
# Si number density = 20.073559 Si / 1000 Ang^3
#
#
#
# Elastic Constant Matrix: (Units=GPa)
#
#
# Indices 1 2 3 4 5 6 
#
# 1 81.0911 21.2911 28.0786 0.0000 22.3985 0.0000
# 2 21.2911 80.9370 36.0478 0.0000 20.6092 0.0000
# 3 28.0786 36.0478 95.6138 0.0000 22.2345 0.0000
# 4 0.0000 0.0000 0.0000 23.9655 0.0000 15.1621
# 5 22.3985 20.6092 22.2345 0.0000 35.8534 0.0000
# 6 0.0000 0.0000 0.0000 15.1621 0.0000 38.6156
#
#
#
# Elastic Compliance Matrix: (Units=1/GPa)
#
#
# Indices 1 2 3 4 5 6 
#
# 1 0.015545 -0.001090 -0.002385 0.000000 -0.007605 0.000000
# 2 -0.001090 0.016083 -0.004384 0.000000 -0.005845 0.000000
# 3 -0.002385 -0.004384 0.013881 0.000000 -0.004598 0.000000
# 4 0.000000 0.000000 0.000000 0.055518 0.000000 -0.021799
# 5 -0.007605 -0.005845 -0.004598 0.000000 0.038854 0.000000
# 6 0.000000 0.000000 0.000000 -0.021799 0.000000 0.034455
#
#
# Mechanical properties :
#
#
# Convention : Reuss Voigt Hill
#
# Bulk Modulus (GPa) = 33.56879 47.60853 40.58866
# Shear Modulus (GPa) = 25.00179 31.16852 28.08515
#
# Velocity S-wave (km/s) = 3.53301 3.94473 3.74453
# Velocity P-wave (km/s) = 5.77945 6.67206 6.24173
#
# Compressibility (1/GPa) = 0.02978957
#
# Stress axis : x y z
#
# Youngs Moduli (GPa) = 64.33076 62.17745 72.03861
#
# Poissons Ratio (x) = 0.06779 0.17184
# Poissons Ratio (y) = 0.07014 0.31583
# Poissons Ratio (z) = 0.15345 0.27260
#
# Static dielectric constant tensor:
#      x y z
#    x 3.555110 0.000000 0.381270 
#    y 0.000000 3.709700 0.000000 
#    z 0.381270 0.000000 3.847000 
# 
# 
# High freq. dielectric constant tensor:
#      x y z
#    x 1.772360 0.000000 0.032590 
#    y 0.000000 1.778790 0.000000 
#    z 0.032590 0.000000 1.786600 
# 
# From -- ./inp_files/24934.got.cif
#   From: 2010.06.25/outbox.cif.g09.slc.cpg/sg13_13_cif.got.tgz:24934.got - 2010.06.28 04:50:58.
