data_PCOD8117345
_publ_section_title
;
Structure prediction by ZEFSAII (Michael W. Deem and Ramdas Pophale) SiO2 
 PCOD8117345
Probable space group: P 2/C
;
_chemical_formula_sum "Si O2"
_cell_formula_units_Z 26
_cell_length_a 20.349291
_cell_length_b 11.564960
_cell_length_c 9.790139
_cell_angle_alpha 90.000000
_cell_angle_beta 29.765905
_cell_angle_gamma 90.000000
_cell_volume 1143.837536
_symmetry_space_group_name_H-M "P 2/C"
_symmetry_group_IT_number 13
_symmetry_cell_setting 'monoclinic'
loop_
_space_group_symop_operation_xyz
x,y,z
-x,y,1/2-z
-x,-y,-z
x,-y,1/2+z
loop_
_atom_site_type_symbol
_atom_site_label
_atom_site_fract_x
_atom_site_fract_y
_atom_site_fract_z
Si Si1 0.109065 0.788674 0.323395
Si Si2 0.217435 0.533139 0.822829
Si Si3 0.000000 0.278260 0.750000
Si Si4 0.500000 0.121547 0.750000
Si Si5 0.000000 0.652962 0.750000
Si Si6 0.523437 0.793435 0.507732
Si Si7 0.663579 0.601417 0.623477
Si Si8 0.676464 0.084141 0.942290
O O1 0.997417 0.734325 0.621541
O O2 0.171811 0.905881 0.276669
O O3 0.047231 0.807279 0.285362
O O4 0.228417 0.698929 0.098492
O O5 0.325101 0.556463 0.743728
O O6 0.306978 0.506455 0.528780
O O7 0.119314 0.641930 0.977094
O O8 0.130724 0.423875 0.024489
O O9 0.472094 0.198284 0.665222
O O10 0.633895 0.046336 0.480178
O O11 0.481114 0.662242 0.627646
O O12 0.659506 0.828161 0.341521
O O13 0.418935 0.884684 0.758366
#
# Coordination Sequence:
#
# PCOD8117345 Si02
#       8
#     4   4   2   2   2   4   4   4
#     4   9  17  29  49  77 106 137 174 212 257 302
#     4   9  16  28  49  75 106 144 183 212 249 296
#     4   9  16  28  48  76 109 146 183 216 240 295
#     4  10  18  34  60  84  96 126 178 224 262 320
#     4   9  16  28  48  74 107 144 181 214 246 301
#     4   9  18  33  55  80 104 130 173 218 263 318
#     4   9  17  30  49  76 105 138 175 215 254 302
#     4   9  17  33  55  79 106 134 165 213 272 322
#
# _framework density 22.730498999999998
#
# number of rings (size 3 to 8) (size 9 to 14) (size 15 to 20)
#    0.000    3.077    0.000    2.769    0.000    3.692 
#    0.000   10.769    0.000   41.538    0.000   52.769 
#    0.000    0.000    0.000    0.000    0.000    0.000 
#
# Total GULP energy -322119.140540 kJ/mol
# GULP energy per Si atom -12389.197713 kJ/mol
# Density = 2.267876 g / cm^3
# Si number density = 22.730499 Si / 1000 Ang^3
#
#
#
# Elastic Constant Matrix: (Units=GPa)
#
#
# Indices 1 2 3 4 5 6 
#
# 1 151.7294 40.7626 48.1158 0.0000 27.3124 0.0000
# 2 40.7626 47.8098 22.1226 0.0000 -5.0726 0.0000
# 3 48.1158 22.1226 42.2417 0.0000 11.5835 0.0000
# 4 0.0000 0.0000 0.0000 9.3657 0.0000 0.9949
# 5 27.3124 -5.0726 11.5835 0.0000 25.5555 0.0000
# 6 0.0000 0.0000 0.0000 0.9949 0.0000 22.2061
#
#
#
# Elastic Compliance Matrix: (Units=1/GPa)
#
#
# Indices 1 2 3 4 5 6 
#
# 1 0.014009 -0.010316 -0.006723 0.000000 -0.013972 0.000000
# 2 -0.010316 0.040191 -0.016569 0.000000 0.026513 0.000000
# 3 -0.006723 -0.016569 0.044467 0.000000 -0.016259 0.000000
# 4 0.000000 0.000000 0.000000 0.107283 0.000000 -0.004806
# 5 -0.013972 0.026513 -0.016259 0.000000 0.066696 0.000000
# 6 0.000000 0.000000 0.000000 -0.004806 0.000000 0.045248
#
#
# Mechanical properties :
#
#
# Convention : Reuss Voigt Hill
#
# Bulk Modulus (GPa) = 31.79440 51.53144 41.66292
# Shear Modulus (GPa) = 12.63922 20.14412 16.39167
#
# Velocity S-wave (km/s) = 2.36062 2.98017 2.68830
# Velocity P-wave (km/s) = 4.63119 5.87892 5.29196
#
# Compressibility (1/GPa) = 0.03145208
#
# Stress axis : x y z
#
# Youngs Moduli (GPa) = 71.38131 24.88114 22.48841
#
# Poissons Ratio (x) = 0.25667 0.15120
# Poissons Ratio (y) = 0.73635 0.37260
# Poissons Ratio (z) = 0.47992 0.41225
#
# Static dielectric constant tensor:
#      x y z
#    x 4.360320 0.000000 0.019510 
#    y 0.000000 3.909710 0.000000 
#    z 0.019510 0.000000 3.906220 
# 
# 
# High freq. dielectric constant tensor:
#      x y z
#    x 1.903400 0.000000 0.015990 
#    y 0.000000 1.857970 0.000000 
#    z 0.015990 0.000000 1.864720 
# 
# From -- ./inp_files/23531.got.cif
#   From: 2010.06.25/outbox.cif.g09.slc.cpg/sg13_12_cif.got.tgz:23531.got - 2010.06.28 04:50:58.
