data_PCOD8117659
_publ_section_title
;
Structure prediction by ZEFSAII (Michael W. Deem and Ramdas Pophale) SiO2 
 PCOD8117659
Probable space group: P 2/C
;
_chemical_formula_sum "Si O2"
_cell_formula_units_Z 22
_cell_length_a 28.695756
_cell_length_b 7.905055
_cell_length_c 5.127726
_cell_angle_alpha 90.000000
_cell_angle_beta 79.633748
_cell_angle_gamma 90.000000
_cell_volume 1144.195333
_symmetry_space_group_name_H-M "P 2/C"
_symmetry_group_IT_number 13
_symmetry_cell_setting 'monoclinic'
loop_
_space_group_symop_operation_xyz
x,y,z
-x,y,1/2-z
-x,-y,-z
x,-y,1/2+z
loop_
_atom_site_type_symbol
_atom_site_label
_atom_site_fract_x
_atom_site_fract_y
_atom_site_fract_z
Si Si1 0.349605 0.613944 0.911212
Si Si2 0.271746 0.892384 0.976197
Si Si3 0.000000 0.880717 0.250000
Si Si4 0.084594 0.617176 0.148723
Si Si5 0.162425 0.111772 0.587960
Si Si6 0.548608 0.390098 0.134459
O O1 0.345277 0.490713 0.675874
O O2 0.305220 0.733738 0.941428
O O3 0.401548 0.708121 0.860822
O O4 0.284301 0.999102 0.712596
O O5 0.217219 0.834351 0.031583
O O6 0.954358 0.762410 0.292559
O O7 0.000000 0.000000 0.500000
O O8 0.079094 0.482578 0.384803
O O9 0.135048 0.710569 0.112116
O O10 0.148815 0.997208 0.354588
O O11 0.500000 0.283852 0.250000
O O12 0.547475 0.550464 0.335263
#
# Coordination Sequence:
#
# PCOD8117659 Si02
#       6
#     4   4   2   4   4   4
#     4  10  19  31  51  76 100 129 172 219 259 306
#     4  10  21  36  54  75 106 142 174 212 261 318
#     4  12  24  42  64  84 114 156 188 212 256 326
#     4  12  24  39  60  89 117 140 177 232 274 299
#     4  10  21  39  58  78 106 146 184 210 256 326
#     4   8  14  25  42  66  94 124 161 207 255 303
#
# _framework density 19.227485000000001
#
# number of rings (size 3 to 8) (size 9 to 14) (size 15 to 20)
#    0.000    1.818    0.000    4.909    0.000    1.455 
#    0.000    0.000    0.000    1.091    0.000    0.000 
#    0.000    0.000    0.000    0.000    0.000    0.000 
#
# Total GULP energy -272673.208021 kJ/mol
# GULP energy per Si atom -12394.236728 kJ/mol
# Density = 1.918372 g / cm^3
# Si number density = 19.227485 Si / 1000 Ang^3
#
#
#
# Elastic Constant Matrix: (Units=GPa)
#
#
# Indices 1 2 3 4 5 6 
#
# 1 124.2378 66.7432 40.0244 0.0000 -5.0679 0.0000
# 2 66.7432 83.5746 36.6852 0.0000 -3.8148 0.0000
# 3 40.0244 36.6852 132.2934 0.0000 13.3759 0.0000
# 4 0.0000 0.0000 0.0000 46.2143 0.0000 5.3831
# 5 -5.0679 -3.8148 13.3759 0.0000 27.5392 0.0000
# 6 0.0000 0.0000 0.0000 5.3831 0.0000 -11.3898
#
#
#
# Elastic Compliance Matrix: (Units=1/GPa)
#
#
# Indices 1 2 3 4 5 6 
#
# 1 0.014391 -0.010712 -0.001579 0.000000 0.001931 0.000000
# 2 -0.010712 0.022010 -0.003125 0.000000 0.002596 0.000000
# 3 -0.001579 -0.003125 0.009440 0.000000 -0.005308 0.000000
# 4 0.000000 0.000000 0.000000 0.020509 0.000000 0.009693
# 5 0.001931 0.002596 -0.005308 0.000000 0.039605 0.000000
# 6 0.000000 0.000000 0.000000 0.009693 0.000000 -0.083216
#
#
# Mechanical properties :
#
#
# Convention : Reuss Voigt Hill
#
# Bulk Modulus (GPa) = 66.62289 69.66793 68.14541
# Shear Modulus (GPa) = 85.36334 25.58293 55.47313
#
# Velocity S-wave (km/s) = 6.67030 3.65161 5.37714
# Velocity P-wave (km/s) = 9.69788 7.35467 8.60640
#
# Compressibility (1/GPa) = 0.01500986
#
# Stress axis : x y z
#
# Youngs Moduli (GPa) = 69.48798 45.43407 105.93282
#
# Poissons Ratio (x) = 0.48667 0.16725
# Poissons Ratio (y) = 0.74432 0.33105
# Poissons Ratio (z) = 0.10971 0.14199
#
# Static dielectric constant tensor:
#      x y z
#    x 4.062930 0.000000 -0.044720 
#    y 0.000000 3.151070 0.000000 
#    z -0.044720 0.000000 3.847060 
# 
# 
# High freq. dielectric constant tensor:
#      x y z
#    x 1.777720 0.000000 0.001120 
#    y 0.000000 1.703240 0.000000 
#    z 0.001120 0.000000 1.778340 
# 
# From -- ./inp_files/7940.got.cif
#   From: 2010.06.25/outbox.cif.g09.slc.cpg/sg13_4_cif.got.tgz:7940.got - 2010.06.28 04:50:58.
