data_PCOD8117177
_publ_section_title
;
Structure prediction by ZEFSAII (Michael W. Deem and Ramdas Pophale) SiO2 
 PCOD8117177
Probable space group: P 2/C
;
_chemical_formula_sum "Si O2"
_cell_formula_units_Z 24
_cell_length_a 19.410517
_cell_length_b 8.930855
_cell_length_c 25.786770
_cell_angle_alpha 90.000000
_cell_angle_beta 165.635869
_cell_angle_gamma 90.000000
_cell_volume 1108.983088
_symmetry_space_group_name_H-M "P 2/C"
_symmetry_group_IT_number 13
_symmetry_cell_setting 'monoclinic'
loop_
_space_group_symop_operation_xyz
x,y,z
-x,y,1/2-z
-x,-y,-z
x,-y,1/2+z
loop_
_atom_site_type_symbol
_atom_site_label
_atom_site_fract_x
_atom_site_fract_y
_atom_site_fract_z
Si Si1 0.901870 0.693252 0.560015
Si Si2 0.658776 0.099163 0.156881
Si Si3 0.196271 0.650429 0.503624
Si Si4 0.513776 0.841089 0.862240
Si Si5 0.457431 0.177981 0.796490
Si Si6 0.067041 0.177339 0.602398
O O1 0.913977 0.516977 0.578336
O O2 0.727133 0.744465 0.382528
O O3 0.767247 0.757528 0.514763
O O4 0.211577 0.758019 0.777987
O O5 0.440392 0.148459 0.042315
O O6 0.903311 0.000641 0.363356
O O7 0.500000 0.000000 0.000000
O O8 0.500000 0.662561 0.750000
O O9 0.242140 0.733281 0.481663
O O10 0.954045 0.736315 0.358471
O O11 0.203227 0.776376 0.627680
O O12 0.501494 0.999674 0.823199
O O13 0.335323 0.224469 0.763738
#
# Coordination Sequence:
#
# PCOD8117177 Si02
#       6
#     4   4   4   4   4   4
#     4  11  20  34  53  94 121 153 195 260 304 363
#     4  11  22  39  62  86 116 162 213 252 298 361
#     4  10  21  32  58  93 128 153 197 249 326 364
#     4  10  19  36  59  88 118 155 201 258 302 357
#     4  10  18  32  57  82 121 148 197 250 307 338
#     4  10  19  36  57  87 117 156 201 253 302 359
#
# _framework density 21.641449000000001
#
# number of rings (size 3 to 8) (size 9 to 14) (size 15 to 20)
#    0.000    1.667    5.000    2.000    4.667    2.000 
#    0.000    8.333    0.000    4.000    0.000    0.000 
#    0.000    0.000    0.000    0.000    0.000    0.000 
#
# Total GULP energy -297387.068093 kJ/mol
# GULP energy per Si atom -12391.127837 kJ/mol
# Density = 2.159219 g / cm^3
# Si number density = 21.641449 Si / 1000 Ang^3
#
#
#
# Elastic Constant Matrix: (Units=GPa)
#
#
# Indices 1 2 3 4 5 6 
#
# 1 198.7690 93.1551 39.4849 0.0000 37.3707 0.0000
# 2 93.1551 151.0764 22.9093 0.0000 31.7129 0.0000
# 3 39.4849 22.9093 20.9413 0.0000 8.1656 0.0000
# 4 0.0000 0.0000 0.0000 26.1413 0.0000 14.8774
# 5 37.3707 31.7129 8.1656 0.0000 29.4630 0.0000
# 6 0.0000 0.0000 0.0000 14.8774 0.0000 20.5960
#
#
#
# Elastic Compliance Matrix: (Units=1/GPa)
#
#
# Indices 1 2 3 4 5 6 
#
# 1 0.010314 -0.003000 -0.013816 0.000000 -0.006024 0.000000
# 2 -0.003000 0.010283 -0.003095 0.000000 -0.006405 0.000000
# 3 -0.013816 -0.003095 0.077424 0.000000 -0.000602 0.000000
# 4 0.000000 0.000000 0.000000 0.064958 0.000000 -0.046922
# 5 -0.006024 -0.006405 -0.000602 0.000000 0.048643 0.000000
# 6 0.000000 0.000000 0.000000 -0.046922 0.000000 0.082447
#
#
# Mechanical properties :
#
#
# Convention : Reuss Voigt Hill
#
# Bulk Modulus (GPa) = 17.18278 75.76503 46.47390
# Shear Modulus (GPa) = 14.15268 29.58923 21.87095
#
# Velocity S-wave (km/s) = 2.56004 3.70164 3.18245
# Velocity P-wave (km/s) = 4.08600 7.30443 5.91820
#
# Compressibility (1/GPa) = 0.05819781
#
# Stress axis : x y z
#
# Youngs Moduli (GPa) = 96.95369 97.24868 12.91595
#
# Poissons Ratio (x) = 0.29176 0.17845
# Poissons Ratio (y) = 0.29088 0.03997
# Poissons Ratio (z) = 1.33955 0.30098
#
# Static dielectric constant tensor:
#      x y z
#    x 4.424780 0.000000 0.468070 
#    y 0.000000 3.833050 0.000000 
#    z 0.468070 0.000000 3.484610 
# 
# 
# High freq. dielectric constant tensor:
#      x y z
#    x 1.867950 0.000000 0.030340 
#    y 0.000000 1.834020 0.000000 
#    z 0.030340 0.000000 1.802790 
# 
# From -- ./inp_files/88034.got.cif
#   From: 2010.06.25/outbox.cif.g09.slc.cpg/sg13_45_cif.got.tgz:88034.got - 2010.06.28 04:50:58.
