data_PCOD8117107
_publ_section_title
;
Structure prediction by ZEFSAII (Michael W. Deem and Ramdas Pophale) SiO2 
 PCOD8117107
Probable space group: P 2/C
;
_chemical_formula_sum "Si O2"
_cell_formula_units_Z 32
_cell_length_a 10.254283
_cell_length_b 20.192726
_cell_length_c 9.066123
_cell_angle_alpha 90.000000
_cell_angle_beta 119.751123
_cell_angle_gamma 90.000000
_cell_volume 1629.807010
_symmetry_space_group_name_H-M "P 2/C"
_symmetry_group_IT_number 13
_symmetry_cell_setting 'monoclinic'
loop_
_space_group_symop_operation_xyz
x,y,z
-x,y,1/2-z
-x,-y,-z
x,-y,1/2+z
loop_
_atom_site_type_symbol
_atom_site_label
_atom_site_fract_x
_atom_site_fract_y
_atom_site_fract_z
Si Si1 0.372438 0.708061 0.474508
Si Si2 0.412211 0.584523 0.335403
Si Si3 0.285261 0.694281 0.739358
Si Si4 0.321210 0.930580 0.790868
Si Si5 0.674003 0.942692 0.036296
Si Si6 0.170228 0.810269 0.856791
Si Si7 0.627413 0.443300 0.203857
Si Si8 0.655551 0.829652 0.255813
O O1 0.314010 0.639834 0.364771
O O2 0.273786 0.722300 0.565275
O O3 0.545735 0.699488 0.609155
O O4 0.362937 0.766560 0.355251
O O5 0.500000 0.619278 0.250000
O O6 0.312079 0.518999 0.234735
O O7 0.554422 0.556502 0.503279
O O8 0.180247 0.737088 0.788753
O O9 0.244792 0.615036 0.716562
O O10 0.254117 0.933363 0.586356
O O11 0.279447 0.859072 0.829612
O O12 0.257733 0.989243 0.859163
O O13 0.498436 0.940926 0.901719
O O14 0.713426 0.887969 0.181558
O O15 0.000000 0.835159 0.750000
O O16 0.217666 0.811329 0.053981
O O17 0.500000 0.422978 0.250000
O O18 0.500000 0.849840 0.250000
#
# Coordination Sequence:
#
# PCOD8117107 Si02
#       8
#     4   4   4   4   4   4   4   4
#     4  10  18  31  54  85 112 142 191 240 282 333
#     4   9  16  23  42  77 122 141 171 230 302 334
#     4  10  18  34  53  76 112 153 186 230 291 336
#     4  10  20  38  60  89 120 148 183 228 283 327
#     4  10  20  35  65  92 114 144 186 236 276 330
#     4  12  26  41  56  82 119 154 188 232 284 338
#     4   9  15  27  43  74 116 149 174 226 294 348
#     4  12  21  35  58  88 112 143 194 237 274 327
#
# _framework density 19.634228
#
# number of rings (size 3 to 8) (size 9 to 14) (size 15 to 20)
#    0.000    1.750    5.000    1.875    3.500    2.000 
#    0.000    5.000    0.000    0.000    0.000    3.500 
#    0.000    0.000    0.000    0.000    0.000    0.000 
#
# Total GULP energy -396421.924455 kJ/mol
# GULP energy per Si atom -12388.185139 kJ/mol
# Density = 1.958954 g / cm^3
# Si number density = 19.634228 Si / 1000 Ang^3
#
#
#
# Elastic Constant Matrix: (Units=GPa)
#
#
# Indices 1 2 3 4 5 6 
#
# 1 24.9879 13.8002 28.4267 0.0000 -13.3567 0.0000
# 2 13.8002 122.4543 23.6072 0.0000 -20.7049 0.0000
# 3 28.4267 23.6072 83.3141 0.0000 -33.0082 0.0000
# 4 0.0000 0.0000 0.0000 30.0395 0.0000 -13.4283
# 5 -13.3567 -20.7049 -33.0082 0.0000 31.9553 0.0000
# 6 0.0000 0.0000 0.0000 -13.4283 0.0000 10.0338
#
#
#
# Elastic Compliance Matrix: (Units=1/GPa)
#
#
# Indices 1 2 3 4 5 6 
#
# 1 0.067242 -0.002769 -0.019862 0.000000 0.005795 0.000000
# 2 -0.002769 0.009293 0.000404 0.000000 0.005281 0.000000
# 3 -0.019862 0.000404 0.026203 0.000000 0.019026 0.000000
# 4 0.000000 0.000000 0.000000 0.082861 0.000000 0.110894
# 5 0.005795 0.005281 0.019026 0.000000 0.056791 0.000000
# 6 0.000000 0.000000 0.000000 0.110894 0.000000 0.248073
#
#
# Mechanical properties :
#
#
# Convention : Reuss Voigt Hill
#
# Bulk Modulus (GPa) = 17.15741 40.26938 28.71339
# Shear Modulus (GPa) = 9.01962 25.40054 17.21008
#
# Velocity S-wave (km/s) = 2.14565 3.60069 2.96384
# Velocity P-wave (km/s) = 3.85952 6.15150 5.13502
#
# Compressibility (1/GPa) = 0.05828387
#
# Stress axis : x y z
#
# Youngs Moduli (GPa) = 14.87168 107.60212 38.16297
#
# Poissons Ratio (x) = 0.29795 0.75801
# Poissons Ratio (y) = 0.04118 -0.01541
# Poissons Ratio (z) = 0.29539 -0.04346
#
# Static dielectric constant tensor:
#      x y z
#    x 3.174380 0.000000 -0.673960 
#    y 0.000000 4.020720 0.000000 
#    z -0.673960 0.000000 3.944890 
# 
# 
# High freq. dielectric constant tensor:
#      x y z
#    x 1.698080 0.000000 -0.060530 
#    y 0.000000 1.788670 0.000000 
#    z -0.060530 0.000000 1.759640 
# 
# From -- ./inp_files/17308.got.cif
#   From: 2010.06.25/outbox.cif.g09.slc.cpg/sg13_9_cif.got.tgz:17308.got - 2010.06.28 04:50:58.
