data_PCOD8117711
_publ_section_title
;
Structure prediction by ZEFSAII (Michael W. Deem and Ramdas Pophale) SiO2 
 PCOD8117711
Probable space group: P 2/C
;
_chemical_formula_sum "Si O2"
_cell_formula_units_Z 24
_cell_length_a 14.973620
_cell_length_b 8.936664
_cell_length_c 14.505503
_cell_angle_alpha 90.000000
_cell_angle_beta 36.298595
_cell_angle_gamma 90.000000
_cell_volume 1149.084342
_symmetry_space_group_name_H-M "P 2/C"
_symmetry_group_IT_number 13
_symmetry_cell_setting 'monoclinic'
loop_
_space_group_symop_operation_xyz
x,y,z
-x,y,1/2-z
-x,-y,-z
x,-y,1/2+z
loop_
_atom_site_type_symbol
_atom_site_label
_atom_site_fract_x
_atom_site_fract_y
_atom_site_fract_z
Si Si1 0.875247 0.577971 0.995901
Si Si2 0.490093 0.082195 0.864660
Si Si3 0.305266 0.633709 0.523168
Si Si4 0.179167 0.584501 0.253932
Si Si5 0.049689 0.852414 0.803553
Si Si6 0.734346 0.078193 0.811246
O O1 0.736222 0.560238 0.040951
O O2 0.014204 0.467571 0.853096
O O3 0.920666 0.755477 0.961999
O O4 0.810147 0.533881 0.149046
O O5 0.500000 0.028332 0.750000
O O6 0.649877 0.067605 0.783431
O O7 0.451455 0.259947 0.899036
O O8 0.369341 0.978637 0.017598
O O9 0.317559 0.498773 0.586446
O O10 0.166276 0.730740 0.671784
O O11 0.204165 0.758921 0.216807
O O12 0.000000 0.936620 0.750000
O O13 0.120558 0.969585 0.816323
#
# Coordination Sequence:
#
# PCOD8117711 Si02
#       6
#     4   4   4   4   4   4
#     4   9  18  34  54  77 108 143 170 201 264 333
#     4  10  21  40  58  72 102 147 185 214 257 319
#     4   9  18  35  54  73 104 143 178 210 255 318
#     4  10  19  32  52  80 107 129 169 223 263 300
#     4   8  16  32  53  77 109 145 173 205 260 325
#     4  10  21  35  55  83 108 134 178 229 261 295
#
# _framework density 20.886195000000001
#
# number of rings (size 3 to 8) (size 9 to 14) (size 15 to 20)
#    0.000    2.667    0.000    2.500    0.000    2.667 
#    0.000   10.833    0.000    0.000    0.000    0.000 
#    0.000    0.000    0.000    0.000    0.000    0.000 
#
# Total GULP energy -297425.746435 kJ/mol
# GULP energy per Si atom -12392.739435 kJ/mol
# Density = 2.083866 g / cm^3
# Si number density = 20.886195 Si / 1000 Ang^3
#
#
#
# Elastic Constant Matrix: (Units=GPa)
#
#
# Indices 1 2 3 4 5 6 
#
# 1 140.9358 57.2971 34.4840 0.0000 15.4700 0.0000
# 2 57.2971 105.6439 25.4899 0.0000 3.7309 0.0000
# 3 34.4840 25.4899 45.4973 0.0000 17.0035 0.0000
# 4 0.0000 0.0000 0.0000 21.9002 0.0000 -4.3099
# 5 15.4700 3.7309 17.0035 0.0000 25.8331 0.0000
# 6 0.0000 0.0000 0.0000 -4.3099 0.0000 34.1843
#
#
#
# Elastic Compliance Matrix: (Units=1/GPa)
#
#
# Indices 1 2 3 4 5 6 
#
# 1 0.010234 -0.004424 -0.004280 0.000000 -0.002673 0.000000
# 2 -0.004424 0.013068 -0.005641 0.000000 0.004475 0.000000
# 3 -0.004280 -0.005641 0.035969 0.000000 -0.020297 0.000000
# 4 0.000000 0.000000 0.000000 0.046824 0.000000 0.005904
# 5 -0.002673 0.004475 -0.020297 0.000000 0.053024 0.000000
# 6 0.000000 0.000000 0.000000 0.005904 0.000000 0.029998
#
#
# Mechanical properties :
#
#
# Convention : Reuss Voigt Hill
#
# Bulk Modulus (GPa) = 32.69778 58.51321 45.60550
# Shear Modulus (GPa) = 21.92988 28.03724 24.98356
#
# Velocity S-wave (km/s) = 3.24384 3.66783 3.46233
# Velocity P-wave (km/s) = 5.45153 6.78331 6.15356
#
# Compressibility (1/GPa) = 0.03058311
#
# Stress axis : x y z
#
# Youngs Moduli (GPa) = 97.70924 76.52271 27.80186
#
# Poissons Ratio (x) = 0.33852 0.11898
# Poissons Ratio (y) = 0.43224 0.15682
# Poissons Ratio (z) = 0.41816 0.43164
#
# Static dielectric constant tensor:
#      x y z
#    x 4.004490 0.000000 0.090250 
#    y 0.000000 3.798250 0.000000 
#    z 0.090250 0.000000 3.823230 
# 
# 
# High freq. dielectric constant tensor:
#      x y z
#    x 1.817740 0.000000 0.011280 
#    y 0.000000 1.800620 0.000000 
#    z 0.011280 0.000000 1.803790 
# 
# From -- ./inp_files/49332.got.cif
#   From: 2010.06.25/outbox.cif.g09.slc.cpg/sg13_25_cif.got.tgz:49332.got - 2010.06.28 04:50:58.
