data_PCOD8117418
_publ_section_title
;
Structure prediction by ZEFSAII (Michael W. Deem and Ramdas Pophale) SiO2 
 PCOD8117418
Probable space group: P 2/C
;
_chemical_formula_sum "Si O2"
_cell_formula_units_Z 24
_cell_length_a 9.209447
_cell_length_b 9.333853
_cell_length_c 20.556237
_cell_angle_alpha 90.000000
_cell_angle_beta 133.819921
_cell_angle_gamma 90.000000
_cell_volume 1274.929647
_symmetry_space_group_name_H-M "P 2/C"
_symmetry_group_IT_number 13
_symmetry_cell_setting 'monoclinic'
loop_
_space_group_symop_operation_xyz
x,y,z
-x,y,1/2-z
-x,-y,-z
x,-y,1/2+z
loop_
_atom_site_type_symbol
_atom_site_label
_atom_site_fract_x
_atom_site_fract_y
_atom_site_fract_z
Si Si1 0.072622 0.641505 0.470473
Si Si2 0.408740 0.169934 0.037533
Si Si3 0.349923 0.160261 0.518294
Si Si4 0.971807 0.657026 0.901026
Si Si5 0.420759 0.656895 0.792443
Si Si6 0.601720 0.343651 0.845692
O O1 0.191864 0.753016 0.462679
O O2 0.156438 0.665465 0.570657
O O3 0.116970 0.482533 0.455888
O O4 0.835637 0.663858 0.400102
O O5 0.543848 0.238745 0.136186
O O6 0.362208 0.006226 0.039172
O O7 0.525667 0.194527 0.007346
O O8 0.450262 0.244743 0.609191
O O9 0.117211 0.206703 0.435680
O O10 0.821503 0.639665 0.793467
O O11 0.500000 0.727503 0.750000
O O12 0.520901 0.502391 0.836097
O O13 0.500000 0.278790 0.750000
#
# Coordination Sequence:
#
# PCOD8117418 Si02
#       6
#     4   4   4   4   4   4
#     4  10  18  35  64  86 114 149 190 240 292 342
#     4  11  23  41  57  81 125 162 191 239 285 354
#     4  10  25  41  55  82 123 164 195 228 297 348
#     4  10  19  36  62  90 113 149 196 244 288 349
#     4  11  19  37  64  91 116 143 196 248 295 336
#     4  10  20  39  63  90 114 143 194 250 290 346
#
# _framework density 18.824570000000001
#
# number of rings (size 3 to 8) (size 9 to 14) (size 15 to 20)
#    0.000    1.667    5.000    2.000    0.000    6.667 
#    3.000    0.833    0.000    0.000    0.000    0.000 
#    0.000    0.000    0.000    0.000    0.000    0.000 
#
# Total GULP energy -297485.938438 kJ/mol
# GULP energy per Si atom -12395.247435 kJ/mol
# Density = 1.878172 g / cm^3
# Si number density = 18.824570 Si / 1000 Ang^3
#
#
#
# Elastic Constant Matrix: (Units=GPa)
#
#
# Indices 1 2 3 4 5 6 
#
# 1 84.2238 76.0353 50.0857 0.0000 -3.1619 0.0000
# 2 76.0353 119.7285 64.6555 0.0000 -6.5731 0.0000
# 3 50.0857 64.6555 128.4755 0.0000 1.7827 0.0000
# 4 0.0000 0.0000 0.0000 19.9071 0.0000 -6.1043
# 5 -3.1619 -6.5731 1.7827 0.0000 24.9963 0.0000
# 6 0.0000 0.0000 0.0000 -6.1043 0.0000 33.3135
#
#
#
# Elastic Compliance Matrix: (Units=1/GPa)
#
#
# Indices 1 2 3 4 5 6 
#
# 1 0.028526 -0.016680 -0.002718 0.000000 -0.000584 0.000000
# 2 -0.016680 0.021524 -0.004383 0.000000 0.003863 0.000000
# 3 -0.002718 -0.004383 0.011081 0.000000 -0.002287 0.000000
# 4 0.000000 0.000000 0.000000 0.053224 0.000000 0.009753
# 5 -0.000584 0.003863 -0.002287 0.000000 0.041111 0.000000
# 6 0.000000 0.000000 0.000000 0.009753 0.000000 0.031805
#
#
# Mechanical properties :
#
#
# Convention : Reuss Voigt Hill
#
# Bulk Modulus (GPa) = 73.70205 79.33120 76.51663
# Shear Modulus (GPa) = 20.88940 25.08680 22.98810
#
# Velocity S-wave (km/s) = 3.33481 3.65453 3.49832
# Velocity P-wave (km/s) = 7.35289 7.74863 7.55335
#
# Compressibility (1/GPa) = 0.01356814
#
# Stress axis : x y z
#
# Youngs Moduli (GPa) = 35.05575 46.45986 90.24569
#
# Poissons Ratio (x) = 0.77494 0.24533
# Poissons Ratio (y) = 0.58472 0.39555
# Poissons Ratio (z) = 0.09530 0.20363
#
# Static dielectric constant tensor:
#      x y z
#    x 3.312790 0.000000 0.013730 
#    y 0.000000 3.429650 0.000000 
#    z 0.013730 0.000000 3.735190 
# 
# 
# High freq. dielectric constant tensor:
#      x y z
#    x 1.718970 0.000000 0.008490 
#    y 0.000000 1.721730 0.000000 
#    z 0.008490 0.000000 1.743050 
# 
# From -- ./inp_files/75750.got.cif
#   From: 2010.06.25/outbox.cif.g09.slc.cpg/sg13_38_cif.got.tgz:75750.got - 2010.06.28 04:50:58.
