data_PCOD8117325
_publ_section_title
;
Structure prediction by ZEFSAII (Michael W. Deem and Ramdas Pophale) SiO2 
 PCOD8117325
Probable space group: P 2/C
;
_chemical_formula_sum "Si O2"
_cell_formula_units_Z 24
_cell_length_a 5.118894
_cell_length_b 8.051643
_cell_length_c 28.532422
_cell_angle_alpha 90.000000
_cell_angle_beta 82.362591
_cell_angle_gamma 90.000000
_cell_volume 1165.546110
_symmetry_space_group_name_H-M "P 2/C"
_symmetry_group_IT_number 13
_symmetry_cell_setting 'monoclinic'
loop_
_space_group_symop_operation_xyz
x,y,z
-x,y,1/2-z
-x,-y,-z
x,-y,1/2+z
loop_
_atom_site_type_symbol
_atom_site_label
_atom_site_fract_x
_atom_site_fract_y
_atom_site_fract_z
Si Si1 0.278241 0.624093 0.022528
Si Si2 0.297341 0.438253 0.852809
Si Si3 0.100766 0.133018 0.142718
Si Si4 0.239651 0.756302 0.121064
Si Si5 0.569419 0.251026 0.196047
Si Si6 0.904966 0.347657 0.067331
O O1 0.345033 0.743752 0.064679
O O2 0.040394 0.515602 0.047100
O O3 0.500000 0.500000 0.000000
O O4 0.203729 0.736303 0.978253
O O5 0.518025 0.297672 0.851823
O O6 0.347700 0.552697 0.805779
O O7 0.007760 0.358751 0.859457
O O8 0.324881 0.579162 0.893454
O O9 0.314342 0.223591 0.169648
O O10 0.089768 0.221496 0.091761
O O11 0.813804 0.138189 0.173369
O O12 0.177282 0.944258 0.133405
O O13 0.500000 0.195610 0.250000
#
# Coordination Sequence:
#
# PCOD8117325 Si02
#       6
#     4   4   4   4   4   4
#     4  10  18  34  58  85 120 168 215 247 275 344
#     4  10  20  39  63  85 116 158 204 244 296 357
#     4  11  24  40  62  93 128 158 192 251 322 364
#     4  11  22  38  59  91 128 159 195 250 308 350
#     4  11  23  44  68  88 113 157 206 247 302 381
#     4   9  20  34  57  85 119 166 205 245 288 351
#
# _framework density 20.591203
#
# number of rings (size 3 to 8) (size 9 to 14) (size 15 to 20)
#    0.000    1.667    1.667    4.500    2.333    0.667 
#    0.000    5.833    0.000    0.000    0.000    0.000 
#    0.000    0.000    0.000    0.000    0.000    0.000 
#
# Total GULP energy -297385.639000 kJ/mol
# GULP energy per Si atom -12391.068292 kJ/mol
# Density = 2.054434 g / cm^3
# Si number density = 20.591203 Si / 1000 Ang^3
#
#
#
# Elastic Constant Matrix: (Units=GPa)
#
#
# Indices 1 2 3 4 5 6 
#
# 1 104.1014 18.3726 29.2715 0.0000 0.1502 0.0000
# 2 18.3726 94.5712 30.6423 0.0000 2.8154 0.0000
# 3 29.2715 30.6423 85.9081 0.0000 -0.5946 0.0000
# 4 0.0000 0.0000 0.0000 19.3367 0.0000 -3.4757
# 5 0.1502 2.8154 -0.5946 0.0000 22.6048 0.0000
# 6 0.0000 0.0000 0.0000 -3.4757 0.0000 37.2201
#
#
#
# Elastic Compliance Matrix: (Units=1/GPa)
#
#
# Indices 1 2 3 4 5 6 
#
# 1 0.010709 -0.001014 -0.003287 0.000000 -0.000031 0.000000
# 2 -0.001014 0.012110 -0.003985 0.000000 -0.001606 0.000000
# 3 -0.003287 -0.003985 0.014188 0.000000 0.000891 0.000000
# 4 0.000000 0.000000 0.000000 0.052598 0.000000 0.004912
# 5 -0.000031 -0.001606 0.000891 0.000000 0.044462 0.000000
# 6 0.000000 0.000000 0.000000 0.004912 0.000000 0.027326
#
#
# Mechanical properties :
#
#
# Convention : Reuss Voigt Hill
#
# Bulk Modulus (GPa) = 48.93827 49.01706 48.97766
# Shear Modulus (GPa) = 27.05940 29.58528 28.32234
#
# Velocity S-wave (km/s) = 3.62902 3.79462 3.71274
# Velocity P-wave (km/s) = 6.43256 6.56166 6.49743
#
# Compressibility (1/GPa) = 0.02043391
#
# Stress axis : x y z
#
# Youngs Moduli (GPa) = 93.37535 82.57546 70.48191
#
# Poissons Ratio (x) = 0.08377 0.23170
# Poissons Ratio (y) = 0.09473 0.28087
# Poissons Ratio (z) = 0.30696 0.32906
#
# Static dielectric constant tensor:
#      x y z
#    x 3.586860 0.000000 0.377960 
#    y 0.000000 3.367660 0.000000 
#    z 0.377960 0.000000 3.725300 
# 
# 
# High freq. dielectric constant tensor:
#      x y z
#    x 1.814380 0.000000 -0.005270 
#    y 0.000000 1.778970 0.000000 
#    z -0.005270 0.000000 1.805840 
# 
# From -- ./inp_files/94708.got.cif
#   From: 2010.06.25/outbox.cif.g09.slc.cpg/sg13_48_cif.got.tgz:94708.got - 2010.06.28 04:50:58.
