data_PCOD8117898
_publ_section_title
;
Structure prediction by ZEFSAII (Michael W. Deem and Ramdas Pophale) SiO2 
 PCOD8117898
Probable space group: P 2/C
;
_chemical_formula_sum "Si O2"
_cell_formula_units_Z 28
_cell_length_a 9.835422
_cell_length_b 5.218218
_cell_length_c 31.611034
_cell_angle_alpha 90.000000
_cell_angle_beta 50.403834
_cell_angle_gamma 90.000000
_cell_volume 1250.138316
_symmetry_space_group_name_H-M "P 2/C"
_symmetry_group_IT_number 13
_symmetry_cell_setting 'monoclinic'
loop_
_space_group_symop_operation_xyz
x,y,z
-x,y,1/2-z
-x,-y,-z
x,-y,1/2+z
loop_
_atom_site_type_symbol
_atom_site_label
_atom_site_fract_x
_atom_site_fract_y
_atom_site_fract_z
Si Si1 0.577361 0.292179 0.515809
Si Si2 0.224431 0.328847 0.627339
Si Si3 0.380083 0.389137 0.682541
Si Si4 0.159159 0.886061 0.911171
Si Si5 0.141066 0.138828 0.097464
Si Si6 0.533941 0.113064 0.292597
Si Si7 0.757005 0.607948 0.062907
O O1 0.500000 0.500000 0.500000
O O2 0.414772 0.202932 0.576874
O O3 0.680662 0.081759 0.466362
O O4 0.727249 0.398148 0.518259
O O5 0.227748 0.380075 0.676743
O O6 0.165654 0.586854 0.615267
O O7 0.100419 0.089989 0.638815
O O8 0.348817 0.641595 0.717152
O O9 0.570983 0.402284 0.623684
O O10 0.358331 0.143010 0.716990
O O11 0.353134 0.883986 0.853679
O O12 0.130069 0.643736 0.947926
O O13 0.026870 0.857538 0.898862
O O14 0.133251 0.142222 0.944069
O O15 0.500000 0.122633 0.250000
#
# Coordination Sequence:
#
# PCOD8117898 Si02
#       7
#     4   4   4   4   4   4   4
#     4   9  20  34  52  76 101 135 179 212 241 285
#     4  10  20  35  53  74 103 138 172 205 244 293
#     4   9  18  33  54  78 100 129 168 207 251 296
#     4  10  21  35  51  76 103 134 166 202 263 306
#     4  11  21  33  52  74 104 138 170 209 246 293
#     4  10  19  34  57  79 100 127 165 212 253 303
#     4   9  19  34  51  72 104 134 166 210 249 298
#
# _framework density 22.397521000000001
#
# number of rings (size 3 to 8) (size 9 to 14) (size 15 to 20)
#    0.000    2.286    0.000    2.571    0.000   10.286 
#    0.000    0.000    0.000    5.143    0.000    0.000 
#    0.000    0.000    0.000    0.000    0.000    0.000 
#
# Total GULP energy -347023.118737 kJ/mol
# GULP energy per Si atom -12393.682812 kJ/mol
# Density = 2.234654 g / cm^3
# Si number density = 22.397521 Si / 1000 Ang^3
#
#
#
# Elastic Constant Matrix: (Units=GPa)
#
#
# Indices 1 2 3 4 5 6 
#
# 1 151.2765 79.5869 22.2558 0.0000 57.9100 0.0000
# 2 79.5869 193.1484 35.2935 0.0000 38.9111 0.0000
# 3 22.2558 35.2935 30.6625 0.0000 32.2124 0.0000
# 4 0.0000 0.0000 0.0000 21.3722 0.0000 17.0734
# 5 57.9100 38.9111 32.2124 0.0000 45.3617 0.0000
# 6 0.0000 0.0000 0.0000 17.0734 0.0000 31.8498
#
#
#
# Elastic Compliance Matrix: (Units=1/GPa)
#
#
# Indices 1 2 3 4 5 6 
#
# 1 0.061720 -0.019653 0.168864 0.000000 -0.181850 0.000000
# 2 -0.019653 0.012827 -0.060233 0.000000 0.056859 0.000000
# 3 0.168864 -0.060233 0.596770 0.000000 -0.587689 0.000000
# 4 0.000000 0.000000 0.000000 0.081835 0.000000 -0.043868
# 5 -0.181850 0.056859 -0.587689 0.000000 0.622757 0.000000
# 6 0.000000 0.000000 0.000000 -0.043868 0.000000 0.054914
#
#
# Mechanical properties :
#
#
# Convention : Reuss Voigt Hill
#
# Bulk Modulus (GPa) = 1.17748 72.15109 36.66429
# Shear Modulus (GPa) = 3.25530 35.58014 19.41772
#
# Velocity S-wave (km/s) = 1.20689 3.99002 2.94761
# Velocity P-wave (km/s) = 1.57129 7.31511 5.29055
#
# Compressibility (1/GPa) = 0.84927391
#
# Stress axis : x y z
#
# Youngs Moduli (GPa) = 16.20215 77.96153 1.67569
#
# Poissons Ratio (x) = 1.53218 -0.28296
# Poissons Ratio (y) = 0.31842 0.10093
# Poissons Ratio (z) = -2.73596 4.69582
#
# Static dielectric constant tensor:
#      x y z
#    x 4.132260 0.000000 0.242930 
#    y 0.000000 4.235690 0.000000 
#    z 0.242930 0.000000 3.869140 
# 
# 
# High freq. dielectric constant tensor:
#      x y z
#    x 1.892300 0.000000 0.026130 
#    y 0.000000 1.887090 0.000000 
#    z 0.026130 0.000000 1.851710 
# 
# From -- ./inp_files/95451.got.cif
#   From: 2010.06.25/outbox.cif.g09.slc.cpg/sg13_48_cif.got.tgz:95451.got - 2010.06.28 04:50:58.
