data_PCOD8117124
_publ_section_title
;
Structure prediction by ZEFSAII (Michael W. Deem and Ramdas Pophale) SiO2 
 PCOD8117124
Probable space group: P 2/C
;
_chemical_formula_sum "Si O2"
_cell_formula_units_Z 24
_cell_length_a 21.323427
_cell_length_b 15.598960
_cell_length_c 5.035865
_cell_angle_alpha 90.000000
_cell_angle_beta 120.617319
_cell_angle_gamma 90.000000
_cell_volume 1441.524649
_symmetry_space_group_name_H-M "P 2/C"
_symmetry_group_IT_number 13
_symmetry_cell_setting 'monoclinic'
loop_
_space_group_symop_operation_xyz
x,y,z
-x,y,1/2-z
-x,-y,-z
x,-y,1/2+z
loop_
_atom_site_type_symbol
_atom_site_label
_atom_site_fract_x
_atom_site_fract_y
_atom_site_fract_z
Si Si1 0.290977 0.679652 0.932587
Si Si2 0.419476 0.443495 0.735709
Si Si3 0.158378 0.438303 0.088239
Si Si4 0.416374 0.055149 0.065514
Si Si5 0.350228 0.770621 0.547697
Si Si6 0.500000 0.682569 0.750000
Si Si7 0.000000 0.441116 0.750000
O O1 0.210647 0.644320 0.701744
O O2 0.318997 0.743977 0.765613
O O3 0.338608 0.593862 0.072630
O O4 0.294148 0.732779 0.211572
O O5 0.431728 0.477062 0.463809
O O6 0.477141 0.370968 0.940563
O O7 0.171209 0.502044 0.361239
O O8 0.077839 0.391936 0.917469
O O9 0.500000 0.088911 0.250000
O O10 0.357977 0.127672 0.022068
O O11 0.402535 0.976390 0.236166
O O12 0.431952 0.736932 0.698938
O O13 0.000000 0.500000 0.500000
#
# Coordination Sequence:
#
# PCOD8117124 Si02
#       7
#     4   4   4   4   4   2   2
#     4  11  22  32  48  67  94 127 153 195 245 275
#     4  11  21  33  43  58  80 118 163 198 226 260
#     4  10  18  32  49  70  97 130 170 204 231 278
#     4  10  20  36  56  74  88 114 149 193 240 294
#     4  11  22  36  48  70  93 119 151 193 241 292
#     4  10  22  34  46  62  86 120 154 206 238 270
#     4   8  16  28  48  70  92 124 164 206 240 262
#
# _framework density 16.649038000000001
#
# number of rings (size 3 to 8) (size 9 to 14) (size 15 to 20)
#    0.000    1.667    0.833    5.500    0.000    5.333 
#    0.000    0.000    0.000    0.000    0.000    0.000 
#    0.000    0.000    0.000   15.000    0.000    0.000 
#
# Total GULP energy -297430.184994 kJ/mol
# GULP energy per Si atom -12392.924375 kJ/mol
# Density = 1.661114 g / cm^3
# Si number density = 16.649038 Si / 1000 Ang^3
#
#
#
# Elastic Constant Matrix: (Units=GPa)
#
#
# Indices 1 2 3 4 5 6 
#
# 1 63.4241 19.3867 30.6665 0.0000 9.6052 0.0000
# 2 19.3867 55.6999 15.3811 0.0000 10.3410 0.0000
# 3 30.6665 15.3811 76.2936 0.0000 0.9229 0.0000
# 4 0.0000 0.0000 0.0000 9.6590 0.0000 2.3448
# 5 9.6052 10.3410 0.9229 0.0000 37.8577 0.0000
# 6 0.0000 0.0000 0.0000 2.3448 0.0000 12.3176
#
#
#
# Elastic Compliance Matrix: (Units=1/GPa)
#
#
# Indices 1 2 3 4 5 6 
#
# 1 0.021488 -0.004621 -0.007657 0.000000 -0.004003 0.000000
# 2 -0.004621 0.021044 -0.002330 0.000000 -0.004519 0.000000
# 3 -0.007657 -0.002330 0.016629 0.000000 0.002174 0.000000
# 4 0.000000 0.000000 0.000000 0.108547 0.000000 -0.020664
# 5 -0.004003 -0.004519 0.002174 0.000000 0.028612 0.000000
# 6 0.000000 0.000000 0.000000 -0.020664 0.000000 0.085118
#
#
# Mechanical properties :
#
#
# Convention : Reuss Voigt Hill
#
# Bulk Modulus (GPa) = 33.39657 36.25403 34.82530
# Shear Modulus (GPa) = 15.59399 20.63242 18.11320
#
# Velocity S-wave (km/s) = 3.06376 3.52413 3.30198
# Velocity P-wave (km/s) = 5.71124 6.19532 5.95820
#
# Compressibility (1/GPa) = 0.02994319
#
# Stress axis : x y z
#
# Youngs Moduli (GPa) = 46.53759 47.51865 60.13751
#
# Poissons Ratio (x) = 0.21961 0.46048
# Poissons Ratio (y) = 0.21507 0.14014
# Poissons Ratio (z) = 0.35634 0.11074
#
# Static dielectric constant tensor:
#      x y z
#    x 3.355010 0.000000 0.009090 
#    y 0.000000 2.893880 0.000000 
#    z 0.009090 0.000000 3.525640 
# 
# 
# High freq. dielectric constant tensor:
#      x y z
#    x 1.633600 0.000000 -0.024790 
#    y 0.000000 1.607470 0.000000 
#    z -0.024790 0.000000 1.653880 
# 
# From -- ./inp_files/7551.got.cif
#   From: 2010.06.25/outbox.cif.g09.slc.cpg/sg13_4_cif.got.tgz:7551.got - 2010.06.28 04:50:58.
