data_PCOD8117009
_publ_section_title
;
Structure prediction by ZEFSAII (Michael W. Deem and Ramdas Pophale) SiO2 
 PCOD8117009
Probable space group: P 2/C
;
_chemical_formula_sum "Si O2"
_cell_formula_units_Z 26
_cell_length_a 11.332282
_cell_length_b 9.618247
_cell_length_c 25.279812
_cell_angle_alpha 90.000000
_cell_angle_beta 34.884056
_cell_angle_gamma 90.000000
_cell_volume 1575.870835
_symmetry_space_group_name_H-M "P 2/C"
_symmetry_group_IT_number 13
_symmetry_cell_setting 'monoclinic'
loop_
_space_group_symop_operation_xyz
x,y,z
-x,y,1/2-z
-x,-y,-z
x,-y,1/2+z
loop_
_atom_site_type_symbol
_atom_site_label
_atom_site_fract_x
_atom_site_fract_y
_atom_site_fract_z
Si Si1 0.000000 0.995091 0.750000
Si Si2 0.270285 0.680448 0.320588
Si Si3 0.255508 0.964582 0.954530
Si Si4 0.018016 0.897733 0.353016
Si Si5 0.714969 0.127589 0.276847
Si Si6 0.027108 0.221854 0.009187
Si Si7 0.287160 0.361533 0.300583
O O1 0.059320 0.099031 0.679711
O O2 0.182989 0.891171 0.702235
O O3 0.500000 0.735978 0.250000
O O4 0.128294 0.687275 0.425151
O O5 0.285199 0.525551 0.292094
O O6 0.166787 0.768427 0.311470
O O7 0.494952 0.942550 0.861149
O O8 0.206793 0.129614 0.970411
O O9 0.182556 0.898095 0.036651
O O10 0.144912 0.885545 0.947455
O O11 0.152278 0.037907 0.314636
O O12 0.715689 0.286009 0.255845
O O13 0.916386 0.324677 0.090867
O O14 0.500000 0.314373 0.250000
#
# Coordination Sequence:
#
# PCOD8117009 Si02
#       7
#     2   4   4   4   4   4   4
#     4   8  20  36  54  72 100 132 186 218 252 288
#     4  10  21  32  51  77 108 141 164 202 262 314
#     4  10  18  28  56  79 102 135 170 212 261 296
#     4   9  19  36  50  75 103 131 180 213 250 302
#     4  10  19  35  54  75 103 134 172 219 251 299
#     4  10  18  31  48  83 107 135 164 204 255 323
#     4  11  20  33  51  79 110 136 166 206 260 315
#
# _framework density 16.498813999999999
#
# number of rings (size 3 to 8) (size 9 to 14) (size 15 to 20)
#    0.923    1.231    3.077    1.385    0.000    1.231 
#    0.000    0.769    0.000    0.000    0.000    4.308 
#    0.000    0.000    0.000    0.000    0.000    0.000 
#
# Total GULP energy -322178.043766 kJ/mol
# GULP energy per Si atom -12391.463222 kJ/mol
# Density = 1.646126 g / cm^3
# Si number density = 16.498814 Si / 1000 Ang^3
#
#
#
# Elastic Constant Matrix: (Units=GPa)
#
#
# Indices 1 2 3 4 5 6 
#
# 1 95.6118 36.2729 23.0322 0.0000 6.0130 0.0000
# 2 36.2729 73.6905 13.4046 0.0000 0.6117 0.0000
# 3 23.0322 13.4046 59.7588 0.0000 -6.3729 0.0000
# 4 0.0000 0.0000 0.0000 24.7714 0.0000 0.1734
# 5 6.0130 0.6117 -6.3729 0.0000 23.3461 0.0000
# 6 0.0000 0.0000 0.0000 0.1734 0.0000 22.7345
#
#
#
# Elastic Compliance Matrix: (Units=1/GPa)
#
#
# Indices 1 2 3 4 5 6 
#
# 1 0.014182 -0.006104 -0.004603 0.000000 -0.004749 0.000000
# 2 -0.006104 0.016812 -0.001337 0.000000 0.000767 0.000000
# 3 -0.004603 -0.001337 0.019506 0.000000 0.006545 0.000000
# 4 0.000000 0.000000 0.000000 0.040371 0.000000 -0.000308
# 5 -0.004749 0.000767 0.006545 0.000000 0.045824 0.000000
# 6 0.000000 0.000000 0.000000 -0.000308 0.000000 0.043988
#
#
# Mechanical properties :
#
#
# Convention : Reuss Voigt Hill
#
# Bulk Modulus (GPa) = 37.86208 41.60894 39.73551
# Shear Modulus (GPa) = 23.41091 24.59384 24.00238
#
# Velocity S-wave (km/s) = 3.77098 3.86507 3.81831
# Velocity P-wave (km/s) = 6.47754 6.72254 6.60117
#
# Compressibility (1/GPa) = 0.02641165
#
# Stress axis : x y z
#
# Youngs Moduli (GPa) = 70.51002 59.48222 51.26625
#
# Poissons Ratio (x) = 0.36309 0.23600
# Poissons Ratio (y) = 0.43041 0.06852
# Poissons Ratio (z) = 0.32459 0.07950
#
# Static dielectric constant tensor:
#      x y z
#    x 2.950780 0.000000 -0.039540 
#    y 0.000000 2.948970 0.000000 
#    z -0.039540 0.000000 3.090060 
# 
# 
# High freq. dielectric constant tensor:
#      x y z
#    x 1.609060 0.000000 -0.003370 
#    y 0.000000 1.622980 0.000000 
#    z -0.003370 0.000000 1.644200 
# 
# From -- ./inp_files/92101.got.cif
#   From: 2010.06.25/outbox.cif.g09.slc.cpg/sg13_47_cif.got.tgz:92101.got - 2010.06.28 04:50:58.
