data_PCOD8117043
_publ_section_title
;
Structure prediction by ZEFSAII (Michael W. Deem and Ramdas Pophale) SiO2 
 PCOD8117043
Probable space group: P 2/C
;
_chemical_formula_sum "Si O2"
_cell_formula_units_Z 28
_cell_length_a 28.567873
_cell_length_b 9.917258
_cell_length_c 28.356588
_cell_angle_alpha 90.000000
_cell_angle_beta 10.073583
_cell_angle_gamma 90.000000
_cell_volume 1405.222373
_symmetry_space_group_name_H-M "P 2/C"
_symmetry_group_IT_number 13
_symmetry_cell_setting 'monoclinic'
loop_
_space_group_symop_operation_xyz
x,y,z
-x,y,1/2-z
-x,-y,-z
x,-y,1/2+z
loop_
_atom_site_type_symbol
_atom_site_label
_atom_site_fract_x
_atom_site_fract_y
_atom_site_fract_z
Si Si1 0.929892 0.612286 0.107700
Si Si2 0.030602 0.470812 0.332787
Si Si3 0.572726 0.790103 0.902749
Si Si4 0.537513 0.528736 0.264422
Si Si5 0.459528 0.939068 0.469458
Si Si6 0.951492 0.843628 0.925953
Si Si7 0.741077 0.176991 0.538425
O O1 0.898463 0.550478 0.190552
O O2 0.646965 0.674216 0.373286
O O3 0.000000 0.500000 0.000000
O O4 0.153224 0.727219 0.887781
O O5 0.772857 0.536945 0.562546
O O6 0.979718 0.316797 0.397486
O O7 0.266539 0.483656 0.061701
O O8 0.472127 0.901048 0.965243
O O9 0.636625 0.860056 0.888949
O O10 0.500000 0.458939 0.250000
O O11 0.610798 0.684070 0.184314
O O12 0.240844 0.911036 0.646092
O O13 0.750798 0.884635 0.166512
O O14 0.836334 0.901996 0.990649
O O15 0.500000 0.097802 0.750000
O O16 0.000000 0.205122 0.250000
#
# Coordination Sequence:
#
# PCOD8117043 Si02
#       7
#     4   4   4   4   4   4   4
#     4  12  24  39  58  83 116 150 181 227 282 331
#     4  11  21  33  54  85 115 144 181 223 278 341
#     4  11  24  40  57  80 111 146 188 229 270 320
#     4  10  18  32  51  78 114 146 179 224 277 330
#     4  11  22  38  58  80 107 146 190 228 264 319
#     4  11  20  34  56  84 113 145 182 223 274 329
#     4  10  18  30  49  80 117 146 174 220 281 334
#
# _framework density 19.925671000000001
#
# number of rings (size 3 to 8) (size 9 to 14) (size 15 to 20)
#    0.000    1.143    0.000   11.143    0.000    2.286 
#    0.000    0.000    0.000    0.000    0.000   35.000 
#    0.000    0.000    0.000    0.000    0.000    0.000 
#
# Total GULP energy -347242.749271 kJ/mol
# GULP energy per Si atom -12401.526760 kJ/mol
# Density = 1.988032 g / cm^3
# Si number density = 19.925671 Si / 1000 Ang^3
#
#
#
# Elastic Constant Matrix: (Units=GPa)
#
#
# Indices 1 2 3 4 5 6 
#
# 1 98.4292 34.8207 15.8527 0.0000 -6.0314 0.0000
# 2 34.8207 51.6260 14.8869 0.0000 2.6071 0.0000
# 3 15.8527 14.8869 96.1002 0.0000 1.4889 0.0000
# 4 0.0000 0.0000 0.0000 10.5598 0.0000 -0.8544
# 5 -6.0314 2.6071 1.4889 0.0000 48.8552 0.0000
# 6 0.0000 0.0000 0.0000 -0.8544 0.0000 13.6763
#
#
#
# Elastic Compliance Matrix: (Units=1/GPa)
#
#
# Indices 1 2 3 4 5 6 
#
# 1 0.013640 -0.009056 -0.000881 0.000000 0.002194 0.000000
# 2 -0.009056 0.026337 -0.002548 0.000000 -0.002446 0.000000
# 3 -0.000881 -0.002548 0.010951 0.000000 -0.000307 0.000000
# 4 0.000000 0.000000 0.000000 0.095180 0.000000 0.005946
# 5 0.002194 -0.002446 -0.000307 0.000000 0.020879 0.000000
# 6 0.000000 0.000000 0.000000 0.005946 0.000000 0.073490
#
#
# Mechanical properties :
#
#
# Convention : Reuss Voigt Hill
#
# Bulk Modulus (GPa) = 38.52664 41.91955 40.22310
# Shear Modulus (GPa) = 18.24154 26.65795 22.44974
#
# Velocity S-wave (km/s) = 3.02897 3.66166 3.36024
# Velocity P-wave (km/s) = 5.62228 6.24184 5.94015
#
# Compressibility (1/GPa) = 0.02595606
#
# Stress axis : x y z
#
# Youngs Moduli (GPa) = 73.31492 37.96979 91.31917
#
# Poissons Ratio (x) = 0.34387 0.08046
# Poissons Ratio (y) = 0.66398 0.23268
# Poissons Ratio (z) = 0.06460 0.09675
#
# Static dielectric constant tensor:
#      x y z
#    x 4.405910 0.000000 -0.444640 
#    y 0.000000 3.298610 0.000000 
#    z -0.444640 0.000000 3.970850 
# 
# 
# High freq. dielectric constant tensor:
#      x y z
#    x 1.797460 0.000000 -0.006620 
#    y 0.000000 1.725370 0.000000 
#    z -0.006620 0.000000 1.802770 
# 
# From -- ./inp_files/98024.got.cif
#   From: 2010.06.25/outbox.cif.g09.slc.cpg/sg13_50_cif.got.tgz:98024.got - 2010.06.28 04:50:58.
