data_PCOD8117324
_publ_section_title
;
Structure prediction by ZEFSAII (Michael W. Deem and Ramdas Pophale) SiO2 
 PCOD8117324
Probable space group: P 2/C
;
_chemical_formula_sum "Si O2"
_cell_formula_units_Z 30
_cell_length_a 12.137565
_cell_length_b 8.844176
_cell_length_c 15.214426
_cell_angle_alpha 90.000000
_cell_angle_beta 78.037577
_cell_angle_gamma 90.000000
_cell_volume 1597.751949
_symmetry_space_group_name_H-M "P 2/C"
_symmetry_group_IT_number 13
_symmetry_cell_setting 'monoclinic'
loop_
_space_group_symop_operation_xyz
x,y,z
-x,y,1/2-z
-x,-y,-z
x,-y,1/2+z
loop_
_atom_site_type_symbol
_atom_site_label
_atom_site_fract_x
_atom_site_fract_y
_atom_site_fract_z
Si Si1 0.616038 0.706726 0.192875
Si Si2 0.015341 0.847024 0.444064
Si Si3 0.749975 0.845190 0.021409
Si Si4 0.000000 0.767809 0.250000
Si Si5 0.403183 0.584131 0.907017
Si Si6 0.233900 0.648936 0.177376
Si Si7 0.646897 0.619656 0.917075
Si Si8 0.771238 0.202203 0.000759
O O1 0.500000 0.771255 0.250000
O O2 0.648233 0.806881 0.103757
O O3 0.602911 0.527944 0.174498
O O4 0.710604 0.731179 0.249572
O O5 0.132408 0.774254 0.459786
O O6 0.018842 0.869083 0.336067
O O7 0.903645 0.749185 0.488079
O O8 0.000000 0.000000 0.500000
O O9 0.758411 0.023370 0.009886
O O10 0.717439 0.768763 0.933469
O O11 0.898785 0.652666 0.284488
O O12 0.527089 0.661239 0.892019
O O13 0.306995 0.714119 0.913995
O O14 0.377260 0.483748 0.995606
O O15 0.275249 0.475794 0.162517
O O16 0.272235 0.747406 0.087388
#
# Coordination Sequence:
#
# PCOD8117324 Si02
#       8
#     4   4   4   2   4   4   4   4
#     4  11  20  35  57  77 108 149 186 223 277 339
#     4   9  18  35  58  82 114 150 186 226 286 341
#     4  10  20  36  57  83 108 144 188 225 280 338
#     4  10  18  34  58  84 110 146 192 242 274 334
#     4   9  18  34  52  75 104 144 177 217 271 328
#     4  10  19  36  56  80 108 144 187 231 284 325
#     4   9  18  33  54  75 105 140 181 220 268 333
#     4   9  20  36  56  80 109 144 183 229 278 331
#
# _framework density 18.77638
#
# number of rings (size 3 to 8) (size 9 to 14) (size 15 to 20)
#    0.000    2.400    2.667    0.000    1.867    0.533 
#    2.400    4.667    2.933    0.800    0.000    0.000 
#    0.000    0.000    0.000    0.000    0.000    0.000 
#
# Total GULP energy -371724.673720 kJ/mol
# GULP energy per Si atom -12390.822457 kJ/mol
# Density = 1.873364 g / cm^3
# Si number density = 18.776380 Si / 1000 Ang^3
#
#
#
# Elastic Constant Matrix: (Units=GPa)
#
#
# Indices 1 2 3 4 5 6 
#
# 1 124.2152 38.0154 35.0462 0.0000 -12.5132 0.0000
# 2 38.0154 62.5328 16.9154 0.0000 -14.2919 0.0000
# 3 35.0462 16.9154 64.6260 0.0000 -12.6462 0.0000
# 4 0.0000 0.0000 0.0000 27.4134 0.0000 -0.2122
# 5 -12.5132 -14.2919 -12.6462 0.0000 29.5401 0.0000
# 6 0.0000 0.0000 0.0000 -0.2122 0.0000 26.5958
#
#
#
# Elastic Compliance Matrix: (Units=1/GPa)
#
#
# Indices 1 2 3 4 5 6 
#
# 1 0.011002 -0.005444 -0.004524 0.000000 0.000090 0.000000
# 2 -0.005444 0.021334 -0.001160 0.000000 0.007519 0.000000
# 3 -0.004524 -0.001160 0.019368 0.000000 0.005814 0.000000
# 4 0.000000 0.000000 0.000000 0.036481 0.000000 0.000291
# 5 0.000090 0.007519 0.005814 0.000000 0.040017 0.000000
# 6 0.000000 0.000000 0.000000 0.000291 0.000000 0.037602
#
#
# Mechanical properties :
#
#
# Convention : Reuss Voigt Hill
#
# Bulk Modulus (GPa) = 33.95897 47.92534 40.94215
# Shear Modulus (GPa) = 25.26831 27.46966 26.36899
#
# Velocity S-wave (km/s) = 3.67243 3.82906 3.75156
# Velocity P-wave (km/s) = 6.00896 6.71778 6.37323
#
# Compressibility (1/GPa) = 0.02944730
#
# Stress axis : x y z
#
# Youngs Moduli (GPa) = 90.89146 46.87450 51.63083
#
# Poissons Ratio (x) = 0.25520 0.23357
# Poissons Ratio (y) = 0.49484 0.05991
# Poissons Ratio (z) = 0.41118 0.05439
#
# Static dielectric constant tensor:
#      x y z
#    x 4.094910 0.000000 -0.068500 
#    y 0.000000 3.183780 0.000000 
#    z -0.068500 0.000000 3.536640 
# 
# 
# High freq. dielectric constant tensor:
#      x y z
#    x 1.748950 0.000000 -0.006850 
#    y 0.000000 1.687400 0.000000 
#    z -0.006850 0.000000 1.724360 
# 
# From -- ./inp_files/50311.got.cif
#   From: 2010.06.25/outbox.cif.g09.slc.cpg/sg13_26_cif.got.tgz:50311.got - 2010.06.28 04:50:58.
