data_PCOD8117684
_publ_section_title
;
Structure prediction by ZEFSAII (Michael W. Deem and Ramdas Pophale) SiO2 
 PCOD8117684
Probable space group: P 2/C
;
_chemical_formula_sum "Si O2"
_cell_formula_units_Z 30
_cell_length_a 12.453620
_cell_length_b 12.089805
_cell_length_c 11.509646
_cell_angle_alpha 90.000000
_cell_angle_beta 72.980992
_cell_angle_gamma 90.000000
_cell_volume 1657.025198
_symmetry_space_group_name_H-M "P 2/C"
_symmetry_group_IT_number 13
_symmetry_cell_setting 'monoclinic'
loop_
_space_group_symop_operation_xyz
x,y,z
-x,y,1/2-z
-x,-y,-z
x,-y,1/2+z
loop_
_atom_site_type_symbol
_atom_site_label
_atom_site_fract_x
_atom_site_fract_y
_atom_site_fract_z
Si Si1 0.926928 0.589939 0.161196
Si Si2 0.239807 0.278762 0.640332
Si Si3 0.540426 0.152087 0.866864
Si Si4 0.805981 0.170530 0.189909
Si Si5 0.858614 0.381148 0.039943
Si Si6 0.000000 0.065174 0.250000
Si Si7 0.639225 0.921826 0.904490
Si Si8 0.164052 0.055512 0.553420
O O1 0.829052 0.675528 0.226979
O O2 0.862749 0.496906 0.106168
O O3 0.000000 0.545324 0.250000
O O4 0.017060 0.649364 0.048048
O O5 0.367997 0.246867 0.630426
O O6 0.230289 0.371854 0.540068
O O7 0.178892 0.167759 0.620287
O O8 0.500000 0.178590 0.750000
O O9 0.581714 0.026024 0.860255
O O10 0.440649 0.157086 0.993215
O O11 0.817322 0.295438 0.148048
O O12 0.898922 0.146478 0.255342
O O13 0.683790 0.154872 0.285583
O O14 0.827227 0.079702 0.084489
O O15 0.958459 0.989839 0.371338
O O16 0.739309 0.966543 0.952571
#
# Coordination Sequence:
#
# PCOD8117684 Si02
#       8
#     4   4   4   4   4   2   4   4
#     4   9  18  35  57  79 101 137 179 219 265 321
#     4   9  19  34  55  77 102 135 183 217 266 318
#     4  10  19  35  56  77 103 141 185 223 255 313
#     4  10  19  32  47  75 108 139 171 211 264 314
#     4   9  19  34  54  78 106 136 170 218 271 318
#     4  10  20  28  44  74 112 142 168 204 254 324
#     4   9  19  34  51  76 106 138 182 218 254 304
#     4   9  18  31  48  72 107 146 170 207 258 314
#
# _framework density 18.104735000000002
#
# number of rings (size 3 to 8) (size 9 to 14) (size 15 to 20)
#    0.000    2.667    0.000    1.200    5.600    1.067 
#    7.200    0.000    0.000    3.200    0.000    0.000 
#    0.000    0.000    0.000    0.000    0.000    0.000 
#
# Total GULP energy -371711.420587 kJ/mol
# GULP energy per Si atom -12390.380686 kJ/mol
# Density = 1.806353 g / cm^3
# Si number density = 18.104735 Si / 1000 Ang^3
#
#
#
# Elastic Constant Matrix: (Units=GPa)
#
#
# Indices 1 2 3 4 5 6 
#
# 1 90.7685 39.2711 53.9540 0.0000 -10.4830 0.0000
# 2 39.2711 56.4071 45.3982 0.0000 -8.6563 0.0000
# 3 53.9540 45.3982 119.5843 0.0000 -23.2801 0.0000
# 4 0.0000 0.0000 0.0000 31.5683 0.0000 -2.7676
# 5 -10.4830 -8.6563 -23.2801 0.0000 33.8525 0.0000
# 6 0.0000 0.0000 0.0000 -2.7676 0.0000 23.3453
#
#
#
# Elastic Compliance Matrix: (Units=1/GPa)
#
#
# Indices 1 2 3 4 5 6 
#
# 1 0.017417 -0.008354 -0.004679 0.000000 0.000040 0.000000
# 2 -0.008354 0.029536 -0.007478 0.000000 -0.000177 0.000000
# 3 -0.004679 -0.007478 0.014615 0.000000 0.006689 0.000000
# 4 0.000000 0.000000 0.000000 0.032010 0.000000 0.003795
# 5 0.000040 -0.000177 0.006689 0.000000 0.034107 0.000000
# 6 0.000000 0.000000 0.000000 0.003795 0.000000 0.043285
#
#
# Mechanical properties :
#
#
# Convention : Reuss Voigt Hill
#
# Bulk Modulus (GPa) = 48.67333 60.44516 54.55925
# Shear Modulus (GPa) = 22.84763 26.29565 24.57164
#
# Velocity S-wave (km/s) = 3.55628 3.81520 3.68801
# Velocity P-wave (km/s) = 6.61857 7.27093 6.95241
#
# Compressibility (1/GPa) = 0.02054513
#
# Stress axis : x y z
#
# Youngs Moduli (GPa) = 57.41391 33.85711 68.42484
#
# Poissons Ratio (x) = 0.28285 0.32017
# Poissons Ratio (y) = 0.47964 0.51169
# Poissons Ratio (z) = 0.26865 0.25319
#
# Static dielectric constant tensor:
#      x y z
#    x 3.402990 0.000000 -0.085000 
#    y 0.000000 3.121560 0.000000 
#    z -0.085000 0.000000 3.551400 
# 
# 
# High freq. dielectric constant tensor:
#      x y z
#    x 1.691030 0.000000 -0.004950 
#    y 0.000000 1.670110 0.000000 
#    z -0.004950 0.000000 1.714870 
# 
# From -- ./inp_files/33827.got.cif
#   From: 2010.06.25/outbox.cif.g09.slc.cpg/sg13_17_cif.got.tgz:33827.got - 2010.06.28 04:50:58.
