data_PCOD8117685
_publ_section_title
;
Structure prediction by ZEFSAII (Michael W. Deem and Ramdas Pophale) SiO2 
 PCOD8117685
Probable space group: P 2/C
;
_chemical_formula_sum "Si O2"
_cell_formula_units_Z 24
_cell_length_a 23.461081
_cell_length_b 9.004701
_cell_length_c 18.669202
_cell_angle_alpha 90.000000
_cell_angle_beta 160.245744
_cell_angle_gamma 90.000000
_cell_volume 1333.038184
_symmetry_space_group_name_H-M "P 2/C"
_symmetry_group_IT_number 13
_symmetry_cell_setting 'monoclinic'
loop_
_space_group_symop_operation_xyz
x,y,z
-x,y,1/2-z
-x,-y,-z
x,-y,1/2+z
loop_
_atom_site_type_symbol
_atom_site_label
_atom_site_fract_x
_atom_site_fract_y
_atom_site_fract_z
Si Si1 0.260436 0.605608 0.210822
Si Si2 0.578398 0.627948 0.504023
Si Si3 0.328016 0.422334 0.014381
Si Si4 0.837650 0.803897 0.279478
Si Si5 0.925415 0.345986 0.238733
Si Si6 0.821585 0.143579 0.240155
O O1 0.383141 0.655746 0.291730
O O2 0.321541 0.445754 0.311391
O O3 0.269181 0.735530 0.281064
O O4 0.072627 0.580670 0.960258
O O5 0.598784 0.520897 0.461906
O O6 0.651952 0.787313 0.571030
O O7 0.500000 0.351320 0.250000
O O8 0.200399 0.295386 0.835673
O O9 0.222072 0.529853 0.942825
O O10 0.033141 0.805467 0.532734
O O11 0.784445 0.969653 0.196119
O O12 0.860311 0.200203 0.204845
O O13 0.000000 0.297822 0.250000
#
# Coordination Sequence:
#
# PCOD8117685 Si02
#       6
#     4   4   4   4   4   4
#     4   9  17  30  50  74  97 122 159 203 239 283
#     4   9  17  30  50  74  96 122 161 202 240 280
#     4  10  19  32  49  70  98 128 161 200 244 290
#     4   9  18  33  51  72  99 130 162 198 243 290
#     4  10  19  32  50  70  95 127 163 199 241 287
#     4   9  18  33  52  72  97 130 164 199 241 289
#
# _framework density 18.003985
#
# number of rings (size 3 to 8) (size 9 to 14) (size 15 to 20)
#    0.000    2.667    0.000    2.000    0.000    4.667 
#    0.000    5.833    0.000    4.000    0.000    0.000 
#    0.000    0.000    0.000    0.000    0.000    0.000 
#
# Total GULP energy -297445.756629 kJ/mol
# GULP energy per Si atom -12393.573193 kJ/mol
# Density = 1.796301 g / cm^3
# Si number density = 18.003985 Si / 1000 Ang^3
#
#
#
# Elastic Constant Matrix: (Units=GPa)
#
#
# Indices 1 2 3 4 5 6 
#
# 1 86.6719 30.8031 14.9392 0.0000 10.9415 0.0000
# 2 30.8031 97.7980 26.6228 0.0000 1.5627 0.0000
# 3 14.9392 26.6228 55.5749 0.0000 3.7786 0.0000
# 4 0.0000 0.0000 0.0000 23.5811 0.0000 0.9939
# 5 10.9415 1.5627 3.7786 0.0000 26.1995 0.0000
# 6 0.0000 0.0000 0.0000 0.9939 0.0000 9.5842
#
#
#
# Elastic Compliance Matrix: (Units=1/GPa)
#
#
# Indices 1 2 3 4 5 6 
#
# 1 0.013845 -0.003865 -0.001507 0.000000 -0.005334 0.000000
# 2 -0.003865 0.012838 -0.005220 0.000000 0.001601 0.000000
# 3 -0.001507 -0.005220 0.021042 0.000000 -0.002094 0.000000
# 4 0.000000 0.000000 0.000000 0.042593 0.000000 -0.004417
# 5 -0.005334 0.001601 -0.002094 0.000000 0.040603 0.000000
# 6 0.000000 0.000000 0.000000 -0.004417 0.000000 0.104797
#
#
# Mechanical properties :
#
#
# Convention : Reuss Voigt Hill
#
# Bulk Modulus (GPa) = 37.67925 42.75276 40.21600
# Shear Modulus (GPa) = 18.81483 23.05159 20.93321
#
# Velocity S-wave (km/s) = 3.23621 3.58209 3.41354
# Velocity P-wave (km/s) = 5.91082 6.39581 6.15809
#
# Compressibility (1/GPa) = 0.02653981
#
# Stress axis : x y z
#
# Youngs Moduli (GPa) = 72.23063 77.89466 47.52437
#
# Poissons Ratio (x) = 0.30106 0.07164
# Poissons Ratio (y) = 0.27917 0.24807
# Poissons Ratio (z) = 0.10888 0.40660
#
# Static dielectric constant tensor:
#      x y z
#    x 3.386910 0.000000 0.060880 
#    y 0.000000 3.218800 0.000000 
#    z 0.060880 0.000000 3.410570 
# 
# 
# High freq. dielectric constant tensor:
#      x y z
#    x 1.693070 0.000000 0.007590 
#    y 0.000000 1.675910 0.000000 
#    z 0.007590 0.000000 1.698820 
# 
# From -- ./inp_files/63296.got.cif
#   From: 2010.06.25/outbox.cif.g09.slc.cpg/sg13_32_cif.got.tgz:63296.got - 2010.06.28 04:50:58.
