data_PCOD8117452
_publ_section_title
;
Structure prediction by ZEFSAII (Michael W. Deem and Ramdas Pophale) SiO2 
 PCOD8117452
Probable space group: P 2/C
;
_chemical_formula_sum "Si O2"
_cell_formula_units_Z 24
_cell_length_a 11.856197
_cell_length_b 9.194084
_cell_length_c 17.074130
_cell_angle_alpha 90.000000
_cell_angle_beta 144.193513
_cell_angle_gamma 90.000000
_cell_volume 1088.892659
_symmetry_space_group_name_H-M "P 2/C"
_symmetry_group_IT_number 13
_symmetry_cell_setting 'monoclinic'
loop_
_space_group_symop_operation_xyz
x,y,z
-x,y,1/2-z
-x,-y,-z
x,-y,1/2+z
loop_
_atom_site_type_symbol
_atom_site_label
_atom_site_fract_x
_atom_site_fract_y
_atom_site_fract_z
Si Si1 0.300321 0.930796 0.164682
Si Si2 0.832904 0.885093 0.578887
Si Si3 0.639251 0.167243 0.521118
Si Si4 0.228903 0.153587 0.246187
Si Si5 0.470944 0.394900 0.325051
Si Si6 0.541269 0.715009 0.123360
O O1 0.500000 0.012210 0.250000
O O2 0.175065 0.884503 0.020290
O O3 0.368483 0.786186 0.248693
O O4 0.175992 0.039197 0.148184
O O5 0.677177 0.767692 0.520266
O O6 0.061097 0.841690 0.719436
O O7 0.799052 0.046394 0.593719
O O8 0.424329 0.092306 0.397997
O O9 0.643842 0.293310 0.456498
O O10 0.676248 0.242878 0.625707
O O11 0.267904 0.312409 0.229935
O O12 0.500000 0.423310 0.250000
O O13 0.465880 0.543471 0.369995
#
# Coordination Sequence:
#
# PCOD8117452 Si02
#       6
#     4   4   4   4   4   4
#     4  10  18  36  58  87 121 159 209 255 309 355
#     4  11  21  37  63  90 118 165 210 258 304 364
#     4  10  22  39  62  88 127 162 205 258 309 366
#     4  10  21  36  63  90 120 159 215 251 307 365
#     4  10  20  39  63  88 124 168 206 248 309 375
#     4  11  21  38  61  87 124 168 198 258 320 362
#
# _framework density 22.040742000000002
#
# number of rings (size 3 to 8) (size 9 to 14) (size 15 to 20)
#    1.000    0.667    3.333    4.500    0.000    0.667 
#    0.000    5.000    0.000    0.000    0.000    0.000 
#    0.000    0.000    0.000    0.000    0.000    0.000 
#
# Total GULP energy -297508.483438 kJ/mol
# GULP energy per Si atom -12396.186810 kJ/mol
# Density = 2.199058 g / cm^3
# Si number density = 22.040742 Si / 1000 Ang^3
#
#
#
# Elastic Constant Matrix: (Units=GPa)
#
#
# Indices 1 2 3 4 5 6 
#
# 1 107.2973 39.7399 18.7543 0.0000 0.3235 0.0000
# 2 39.7399 144.9791 27.2363 0.0000 11.7057 0.0000
# 3 18.7543 27.2363 48.7493 0.0000 8.3346 0.0000
# 4 0.0000 0.0000 0.0000 15.0057 0.0000 -6.2631
# 5 0.3235 11.7057 8.3346 0.0000 28.8453 0.0000
# 6 0.0000 0.0000 0.0000 -6.2631 0.0000 34.7032
#
#
#
# Elastic Compliance Matrix: (Units=1/GPa)
#
#
# Indices 1 2 3 4 5 6 
#
# 1 0.010782 -0.002528 -0.003040 0.000000 0.001784 0.000000
# 2 -0.002528 0.008408 -0.003310 0.000000 -0.002427 0.000000
# 3 -0.003040 -0.003310 0.024507 0.000000 -0.005704 0.000000
# 4 0.000000 0.000000 0.000000 0.072070 0.000000 0.013007
# 5 0.001784 -0.002427 -0.005704 0.000000 0.037281 0.000000
# 6 0.000000 0.000000 0.000000 0.013007 0.000000 0.031163
#
#
# Mechanical properties :
#
#
# Convention : Reuss Voigt Hill
#
# Bulk Modulus (GPa) = 38.54992 52.49851 45.52422
# Shear Modulus (GPa) = 23.73975 30.06386 26.90181
#
# Velocity S-wave (km/s) = 3.28546 3.69726 3.49743
# Velocity P-wave (km/s) = 5.64983 6.48821 6.08348
#
# Compressibility (1/GPa) = 0.02594039
#
# Stress axis : x y z
#
# Youngs Moduli (GPa) = 92.74390 118.92825 40.80407
#
# Poissons Ratio (x) = 0.30069 0.12406
# Poissons Ratio (y) = 0.23449 0.13507
# Poissons Ratio (z) = 0.28198 0.39367
#
# Static dielectric constant tensor:
#      x y z
#    x 4.158810 0.000000 -0.284300 
#    y 0.000000 3.671650 0.000000 
#    z -0.284300 0.000000 3.842490 
# 
# 
# High freq. dielectric constant tensor:
#      x y z
#    x 1.888210 0.000000 -0.029200 
#    y 0.000000 1.845870 0.000000 
#    z -0.029200 0.000000 1.849040 
# 
# From -- ./inp_files/78141.got.cif
#   From: 2010.06.25/outbox.cif.g09.slc.cpg/sg13_40_cif.got.tgz:78141.got - 2010.06.28 04:50:58.
