data_PCOD8117227
_publ_section_title
;
Structure prediction by ZEFSAII (Michael W. Deem and Ramdas Pophale) SiO2 
 PCOD8117227
Probable space group: P 2/C
;
_chemical_formula_sum "Si O2"
_cell_formula_units_Z 24
_cell_length_a 12.395274
_cell_length_b 8.932085
_cell_length_c 15.796226
_cell_angle_alpha 90.000000
_cell_angle_beta 136.187473
_cell_angle_gamma 90.000000
_cell_volume 1210.757734
_symmetry_space_group_name_H-M "P 2/C"
_symmetry_group_IT_number 13
_symmetry_cell_setting 'monoclinic'
loop_
_space_group_symop_operation_xyz
x,y,z
-x,y,1/2-z
-x,-y,-z
x,-y,1/2+z
loop_
_atom_site_type_symbol
_atom_site_label
_atom_site_fract_x
_atom_site_fract_y
_atom_site_fract_z
Si Si1 0.747045 0.617984 0.585921
Si Si2 0.132063 0.081166 0.759626
Si Si3 0.677801 0.713136 0.007066
Si Si4 0.600747 0.866099 0.589392
Si Si5 0.033565 0.390251 0.134083
Si Si6 0.946135 0.719096 0.033809
O O1 0.662027 0.462798 0.517673
O O2 0.622474 0.752343 0.521953
O O3 0.821668 0.617484 0.721446
O O4 0.873098 0.660077 0.586687
O O5 0.232051 0.208854 0.863816
O O6 0.000000 0.022901 0.750000
O O7 0.056682 0.149744 0.632060
O O8 0.233971 0.937269 0.787290
O O9 0.772966 0.737137 0.974355
O O10 0.502716 0.780739 0.897318
O O11 0.500000 0.000000 0.500000
O O12 0.022619 0.562482 0.102233
O O13 0.064584 0.276942 0.073856
#
# Coordination Sequence:
#
# PCOD8117227 Si02
#       6
#     4   4   4   4   4   4
#     4  10  18  33  55  81 104 134 187 223 259 307
#     4   9  17  31  54  79 108 141 174 218 265 323
#     4   9  17  33  55  80 106 139 177 220 265 319
#     4  10  21  33  53  76 108 145 180 210 265 325
#     4   9  18  30  58  86 102 130 181 233 259 315
#     4   9  16  33  56  83 109 133 173 225 281 303
#
# _framework density 19.822296999999999
#
# number of rings (size 3 to 8) (size 9 to 14) (size 15 to 20)
#    0.000    2.667    1.667    0.500    2.333    0.000 
#    0.000    1.667    3.667    3.000    0.000    0.000 
#    0.000    0.000    0.000    0.000    0.000    0.000 
#
# Total GULP energy -297434.925808 kJ/mol
# GULP energy per Si atom -12393.121909 kJ/mol
# Density = 1.977718 g / cm^3
# Si number density = 19.822297 Si / 1000 Ang^3
#
#
#
# Elastic Constant Matrix: (Units=GPa)
#
#
# Indices 1 2 3 4 5 6 
#
# 1 150.1588 73.3228 63.5350 0.0000 4.5868 0.0000
# 2 73.3228 102.7836 33.3757 0.0000 17.8475 0.0000
# 3 63.5350 33.3757 56.8976 0.0000 -1.4871 0.0000
# 4 0.0000 0.0000 0.0000 23.5978 0.0000 16.0987
# 5 4.5868 17.8475 -1.4871 0.0000 35.0218 0.0000
# 6 0.0000 0.0000 0.0000 16.0987 0.0000 35.8113
#
#
#
# Elastic Compliance Matrix: (Units=1/GPa)
#
#
# Indices 1 2 3 4 5 6 
#
# 1 0.015754 -0.007041 -0.013436 0.000000 0.000954 0.000000
# 2 -0.007041 0.016810 -0.002201 0.000000 -0.007738 0.000000
# 3 -0.013436 -0.002201 0.033983 0.000000 0.004324 0.000000
# 4 0.000000 0.000000 0.000000 0.061122 0.000000 -0.027477
# 5 0.000954 -0.007738 0.004324 0.000000 0.032556 0.000000
# 6 0.000000 0.000000 0.000000 -0.027477 0.000000 0.040276
#
#
# Mechanical properties :
#
#
# Convention : Reuss Voigt Hill
#
# Bulk Modulus (GPa) = 47.18965 72.25633 59.72299
# Shear Modulus (GPa) = 19.76904 28.19330 23.98117
#
# Velocity S-wave (km/s) = 3.16145 3.77543 3.48200
# Velocity P-wave (km/s) = 6.09790 7.45227 6.80885
#
# Compressibility (1/GPa) = 0.02119109
#
# Stress axis : x y z
#
# Youngs Moduli (GPa) = 63.47688 59.48772 29.42628
#
# Poissons Ratio (x) = 0.41885 0.39538
# Poissons Ratio (y) = 0.44694 0.06476
# Poissons Ratio (z) = 0.85290 0.13091
#
# Static dielectric constant tensor:
#      x y z
#    x 3.988380 0.000000 0.299340 
#    y 0.000000 3.880310 0.000000 
#    z 0.299340 0.000000 3.459380 
# 
# 
# High freq. dielectric constant tensor:
#      x y z
#    x 1.776400 0.000000 0.019870 
#    y 0.000000 1.785650 0.000000 
#    z 0.019870 0.000000 1.731100 
# 
# From -- ./inp_files/66097.got.cif
#   From: 2010.06.25/outbox.cif.g09.slc.cpg/sg13_34_cif.got.tgz:66097.got - 2010.06.28 04:50:58.
