data_PCOD8117385
_publ_section_title
;
Structure prediction by ZEFSAII (Michael W. Deem and Ramdas Pophale) SiO2 
 PCOD8117385
Probable space group: P 2/C
;
_chemical_formula_sum "Si O2"
_cell_formula_units_Z 30
_cell_length_a 10.443309
_cell_length_b 11.715943
_cell_length_c 14.554074
_cell_angle_alpha 90.000000
_cell_angle_beta 115.667263
_cell_angle_gamma 90.000000
_cell_volume 1605.022804
_symmetry_space_group_name_H-M "P 2/C"
_symmetry_group_IT_number 13
_symmetry_cell_setting 'monoclinic'
loop_
_space_group_symop_operation_xyz
x,y,z
-x,y,1/2-z
-x,-y,-z
x,-y,1/2+z
loop_
_atom_site_type_symbol
_atom_site_label
_atom_site_fract_x
_atom_site_fract_y
_atom_site_fract_z
Si Si1 0.446644 0.590481 0.591635
Si Si2 0.224270 0.351080 0.733122
Si Si3 0.502467 0.332761 0.921789
Si Si4 0.269487 0.602698 0.712207
Si Si5 0.956525 0.795621 0.838680
Si Si6 0.916031 0.035909 0.884408
Si Si7 0.000000 0.803709 0.250000
Si Si8 0.776604 0.218753 0.943254
O O1 0.431534 0.458789 0.557676
O O2 0.426519 0.676116 0.498332
O O3 0.319520 0.602161 0.622976
O O4 0.597755 0.626842 0.680804
O O5 0.388776 0.320763 0.804813
O O6 0.197033 0.486632 0.727997
O O7 0.192043 0.320821 0.617645
O O8 0.133622 0.281328 0.780336
O O9 0.625480 0.237306 0.946709
O O10 0.155627 0.700858 0.672113
O O11 0.000000 0.772398 0.750000
O O12 0.096451 0.786647 0.944584
O O13 0.877765 0.918801 0.820657
O O14 0.008857 0.116685 0.844091
O O15 0.777207 0.103928 0.879136
O O16 0.000000 0.000000 0.000000
#
# Coordination Sequence:
#
# PCOD8117385 Si02
#       8
#     4   4   4   4   4   4   2   4
#     4   9  19  34  55  78 117 154 183 227 284 359
#     4  10  21  35  58  85 117 148 186 246 287 347
#     4  10  18  35  57  82 112 152 188 227 292 337
#     4  10  20  36  54  84 118 151 189 227 296 344
#     4  11  22  36  59  83 116 154 188 236 292 350
#     4   9  20  38  59  80 112 152 194 244 293 340
#     4  10  20  38  58  84 112 146 200 244 300 338
#     4  10  20  36  59  87 109 148 198 239 280 348
#
# _framework density 18.691323000000001
#
# number of rings (size 3 to 8) (size 9 to 14) (size 15 to 20)
#    0.000    2.133    2.000    1.200    0.933    3.733 
#    0.000    0.000   11.733    4.000    0.000    0.000 
#    0.000    0.000    0.000    0.000    0.000    0.000 
#
# Total GULP energy -371680.754592 kJ/mol
# GULP energy per Si atom -12389.358486 kJ/mol
# Density = 1.864878 g / cm^3
# Si number density = 18.691323 Si / 1000 Ang^3
#
#
#
# Elastic Constant Matrix: (Units=GPa)
#
#
# Indices 1 2 3 4 5 6 
#
# 1 99.3213 71.4255 41.5641 0.0000 -13.2566 0.0000
# 2 71.4255 96.8559 20.4129 0.0000 -1.2166 0.0000
# 3 41.5641 20.4129 69.0236 0.0000 -18.8579 0.0000
# 4 0.0000 0.0000 0.0000 19.4343 0.0000 -1.2372
# 5 -13.2566 -1.2166 -18.8579 0.0000 30.7549 0.0000
# 6 0.0000 0.0000 0.0000 -1.2372 0.0000 18.8080
#
#
#
# Elastic Compliance Matrix: (Units=1/GPa)
#
#
# Indices 1 2 3 4 5 6 
#
# 1 0.028649 -0.018911 -0.010198 0.000000 0.005348 0.000000
# 2 -0.018911 0.023584 0.002932 0.000000 -0.005421 0.000000
# 3 -0.010198 0.002932 0.022334 0.000000 0.009415 0.000000
# 4 0.000000 0.000000 0.000000 0.051672 0.000000 0.003399
# 5 0.005348 -0.005421 0.009415 0.000000 0.040379 0.000000
# 6 0.000000 0.000000 0.000000 0.003399 0.000000 0.053392
#
#
# Mechanical properties :
#
#
# Convention : Reuss Voigt Hill
#
# Bulk Modulus (GPa) = 45.01801 59.11175 52.06488
# Shear Modulus (GPa) = 17.87196 22.58599 20.22898
#
# Velocity S-wave (km/s) = 3.09554 3.47993 3.29335
# Velocity P-wave (km/s) = 6.07567 6.91668 6.50977
#
# Compressibility (1/GPa) = 0.02221333
#
# Stress axis : x y z
#
# Youngs Moduli (GPa) = 34.90521 42.40153 44.77494
#
# Poissons Ratio (x) = 0.80183 0.45662
# Poissons Ratio (y) = 0.66008 -0.13127
# Poissons Ratio (z) = 0.35596 -0.12431
#
# Static dielectric constant tensor:
#      x y z
#    x 3.535260 0.000000 -0.345850 
#    y 0.000000 3.743590 0.000000 
#    z -0.345850 0.000000 3.588740 
# 
# 
# High freq. dielectric constant tensor:
#      x y z
#    x 1.714860 0.000000 -0.024850 
#    y 0.000000 1.717050 0.000000 
#    z -0.024850 0.000000 1.732490 
# 
# From -- ./inp_files/47290.got.cif
#   From: 2010.06.25/outbox.cif.g09.slc.cpg/sg13_24_cif.got.tgz:47290.got - 2010.06.28 04:50:58.
