data_PCOD8117271
_publ_section_title
;
Structure prediction by ZEFSAII (Michael W. Deem and Ramdas Pophale) SiO2 
 PCOD8117271
Probable space group: P 2/C
;
_chemical_formula_sum "Si O2"
_cell_formula_units_Z 32
_cell_length_a 9.583643
_cell_length_b 12.495793
_cell_length_c 14.499289
_cell_angle_alpha 90.000000
_cell_angle_beta 114.543495
_cell_angle_gamma 90.000000
_cell_volume 1579.478311
_symmetry_space_group_name_H-M "P 2/C"
_symmetry_group_IT_number 13
_symmetry_cell_setting 'monoclinic'
loop_
_space_group_symop_operation_xyz
x,y,z
-x,y,1/2-z
-x,-y,-z
x,-y,1/2+z
loop_
_atom_site_type_symbol
_atom_site_label
_atom_site_fract_x
_atom_site_fract_y
_atom_site_fract_z
Si Si1 0.157276 0.170071 0.250485
Si Si2 0.320896 0.485315 0.209774
Si Si3 0.140881 0.704199 0.564161
Si Si4 0.539132 0.064205 0.160373
Si Si5 0.598308 0.753852 0.994810
Si Si6 0.305754 0.626029 0.883514
Si Si7 0.468817 0.818342 0.138693
Si Si8 0.790324 0.662285 0.448694
O O1 0.141714 0.199081 0.137971
O O2 0.276511 0.072654 0.297366
O O3 0.206522 0.274430 0.320701
O O4 0.000000 0.126863 0.250000
O O5 0.500000 0.460444 0.250000
O O6 0.220430 0.399236 0.128189
O O7 0.282765 0.475121 0.308845
O O8 0.276374 0.601196 0.158798
O O9 0.231183 0.735444 0.495788
O O10 0.969429 0.679840 0.484711
O O11 0.500000 0.113297 0.250000
O O12 0.474087 0.945565 0.132562
O O13 0.461694 0.133513 0.060245
O O14 0.595005 0.765257 0.105149
O O15 0.485775 0.657426 0.933573
O O16 0.243616 0.593409 0.967571
O O17 0.500000 0.778275 0.250000
O O18 0.299154 0.775554 0.064482
#
# Coordination Sequence:
#
# PCOD8117271 Si02
#       8
#     4   4   4   4   4   4   4   4
#     4  10  18  33  61  93 127 157 200 261 310 352
#     4  11  22  38  63  90 119 157 212 251 300 372
#     4  11  21  38  61  97 120 154 205 260 313 351
#     4  10  19  35  65  96 119 158 209 251 296 370
#     4  10  19  38  65  91 119 156 203 261 298 358
#     4   9  20  36  61  88 118 162 207 246 307 366
#     4  10  23  43  61  84 125 171 208 239 307 380
#     4  11  23  41  61  87 130 164 197 259 313 363
#
# _framework density 20.259854000000001
#
# number of rings (size 3 to 8) (size 9 to 14) (size 15 to 20)
#    0.000    1.750    3.750    1.125    0.000    0.500 
#    2.250    3.750    0.000    0.000    0.000    0.000 
#    0.000    0.000    0.000    0.000    0.000    0.000 
#
# Total GULP energy -396747.221848 kJ/mol
# GULP energy per Si atom -12398.350683 kJ/mol
# Density = 2.021374 g / cm^3
# Si number density = 20.259854 Si / 1000 Ang^3
#
#
#
# Elastic Constant Matrix: (Units=GPa)
#
#
# Indices 1 2 3 4 5 6 
#
# 1 178.4302 40.6766 62.0485 0.0000 0.4974 0.0000
# 2 40.6766 73.3748 35.6225 0.0000 -1.1524 0.0000
# 3 62.0485 35.6225 98.3150 0.0000 -22.2097 0.0000
# 4 0.0000 0.0000 0.0000 20.0989 0.0000 -0.1010
# 5 0.4974 -1.1524 -22.2097 0.0000 35.9138 0.0000
# 6 0.0000 0.0000 0.0000 -0.1010 0.0000 21.9681
#
#
#
# Elastic Compliance Matrix: (Units=1/GPa)
#
#
# Indices 1 2 3 4 5 6 
#
# 1 0.007773 -0.001973 -0.004916 0.000000 -0.003211 0.000000
# 2 -0.001973 0.017470 -0.005756 0.000000 -0.002972 0.000000
# 3 -0.004916 -0.005756 0.017823 0.000000 0.010906 0.000000
# 4 0.000000 0.000000 0.000000 0.049755 0.000000 0.000229
# 5 -0.003211 -0.002972 0.010906 0.000000 0.034538 0.000000
# 6 0.000000 0.000000 0.000000 0.000229 0.000000 0.045522
#
#
# Mechanical properties :
#
#
# Convention : Reuss Voigt Hill
#
# Bulk Modulus (GPa) = 56.25580 69.64611 62.95095
# Shear Modulus (GPa) = 24.49824 29.71432 27.10628
#
# Velocity S-wave (km/s) = 3.48113 3.83385 3.66174
# Velocity P-wave (km/s) = 6.63213 7.35180 7.00122
#
# Compressibility (1/GPa) = 0.01777594
#
# Stress axis : x y z
#
# Youngs Moduli (GPa) = 128.65622 57.24035 56.10602
#
# Poissons Ratio (x) = 0.11291 0.27583
# Poissons Ratio (y) = 0.25379 0.32297
# Poissons Ratio (z) = 0.63249 0.32950
#
# Static dielectric constant tensor:
#      x y z
#    x 3.796210 0.000000 -0.218600 
#    y 0.000000 3.328090 0.000000 
#    z -0.218600 0.000000 3.832500 
# 
# 
# High freq. dielectric constant tensor:
#      x y z
#    x 1.796000 0.000000 -0.013250 
#    y 0.000000 1.762360 0.000000 
#    z -0.013250 0.000000 1.791820 
# 
# From -- ./inp_files/47721.got.cif
#   From: 2010.06.25/outbox.cif.g09.slc.cpg/sg13_24_cif.got.tgz:47721.got - 2010.06.28 04:50:58.
