data_PCOD8117737
_publ_section_title
;
Structure prediction by ZEFSAII (Michael W. Deem and Ramdas Pophale) SiO2 
 PCOD8117737
Probable space group: P 2/C
;
_chemical_formula_sum "Si O2"
_cell_formula_units_Z 28
_cell_length_a 14.621155
_cell_length_b 9.097250
_cell_length_c 11.050284
_cell_angle_alpha 90.000000
_cell_angle_beta 112.923883
_cell_angle_gamma 90.000000
_cell_volume 1353.741631
_symmetry_space_group_name_H-M "P 2/C"
_symmetry_group_IT_number 13
_symmetry_cell_setting 'monoclinic'
loop_
_space_group_symop_operation_xyz
x,y,z
-x,y,1/2-z
-x,-y,-z
x,-y,1/2+z
loop_
_atom_site_type_symbol
_atom_site_label
_atom_site_fract_x
_atom_site_fract_y
_atom_site_fract_z
Si Si1 0.958190 0.305120 0.597095
Si Si2 0.054758 0.653728 0.898942
Si Si3 0.609452 0.338437 0.164315
Si Si4 0.724139 0.396167 0.995661
Si Si5 0.266410 0.727582 0.547001
Si Si6 0.439932 0.858653 0.513904
Si Si7 0.410294 0.341716 0.782189
O O1 0.959179 0.479906 0.597639
O O2 0.849602 0.231384 0.522275
O O3 0.000000 0.248194 0.750000
O O4 0.020840 0.264221 0.506844
O O5 0.170205 0.680559 0.934333
O O6 0.000000 0.715024 0.750000
O O7 0.648517 0.318834 0.048416
O O8 0.702390 0.305197 0.298952
O O9 0.560628 0.497925 0.154423
O O10 0.517100 0.230472 0.136199
O O11 0.720916 0.572616 0.019505
O O12 0.691793 0.355494 0.843738
O O13 0.337107 0.864394 0.539093
O O14 0.394453 0.774269 0.377693
O O15 0.500000 0.000000 0.500000
O O16 0.500000 0.279021 0.750000
#
# Coordination Sequence:
#
# PCOD8117737 Si02
#       7
#     4   4   4   4   4   4   4
#     4   9  18  30  50  81 122 155 186 234 296 355
#     4   9  17  29  48  84 123 152 185 237 296 349
#     4  11  20  38  58  83 114 153 194 240 294 355
#     4  10  19  32  59  86 116 156 191 238 292 357
#     4  10  21  35  57  84 117 157 194 237 296 356
#     4  12  25  39  56  81 117 154 197 246 296 353
#     4  11  21  35  58  82 115 150 199 240 292 357
#
# _framework density 20.683413000000002
#
# number of rings (size 3 to 8) (size 9 to 14) (size 15 to 20)
#    0.000    1.714    2.857    3.429    2.000    4.571 
#    0.000    0.000    0.000    0.000    0.000    5.000 
#    0.000    0.000    0.000    0.000    0.000    0.000 
#
# Total GULP energy -346869.841610 kJ/mol
# GULP energy per Si atom -12388.208629 kJ/mol
# Density = 2.063634 g / cm^3
# Si number density = 20.683413 Si / 1000 Ang^3
#
#
#
# Elastic Constant Matrix: (Units=GPa)
#
#
# Indices 1 2 3 4 5 6 
#
# 1 105.9152 11.2629 35.1474 0.0000 5.8677 0.0000
# 2 11.2629 45.8198 16.7290 0.0000 1.0399 0.0000
# 3 35.1474 16.7290 118.8340 0.0000 3.9177 0.0000
# 4 0.0000 0.0000 0.0000 -9.4431 0.0000 -1.8139
# 5 5.8677 1.0399 3.9177 0.0000 38.8553 0.0000
# 6 0.0000 0.0000 0.0000 -1.8139 0.0000 23.7268
#
#
#
# Elastic Compliance Matrix: (Units=1/GPa)
#
#
# Indices 1 2 3 4 5 6 
#
# 1 0.010633 -0.001531 -0.002887 0.000000 -0.001274 0.000000
# 2 -0.001531 0.023231 -0.002814 0.000000 -0.000107 0.000000
# 3 -0.002887 -0.002814 0.009681 0.000000 -0.000465 0.000000
# 4 0.000000 0.000000 0.000000 -0.104364 0.000000 -0.007979
# 5 -0.001274 -0.000107 -0.000465 0.000000 0.025979 0.000000
# 6 0.000000 0.000000 0.000000 -0.007979 0.000000 0.041536
#
#
# Mechanical properties :
#
#
# Convention : Reuss Voigt Hill
#
# Bulk Modulus (GPa) = 34.38781 44.09419 39.24100
# Shear Modulus (GPa) = 162.06028 24.45643 93.25836
#
# Velocity S-wave (km/s) = 8.86131 3.44236 6.72208
# Velocity P-wave (km/s) = 11.01631 6.09629 8.90291
#
# Compressibility (1/GPa) = 0.02908008
#
# Stress axis : x y z
#
# Youngs Moduli (GPa) = 94.04666 43.04639 103.29927
#
# Poissons Ratio (x) = 0.06588 0.29827
# Poissons Ratio (y) = 0.14394 0.29070
# Poissons Ratio (z) = 0.27156 0.12114
#
# Static dielectric constant tensor:
#      x y z
#    x 3.824370 0.000000 -0.056300 
#    y 0.000000 3.157390 0.000000 
#    z -0.056300 0.000000 4.016090 
# 
# 
# High freq. dielectric constant tensor:
#      x y z
#    x 1.815510 0.000000 -0.002140 
#    y 0.000000 1.729990 0.000000 
#    z -0.002140 0.000000 1.831960 
# 
# From -- ./inp_files/36521.got.cif
#   From: 2010.06.25/outbox.cif.g09.slc.cpg/sg13_19_cif.got.tgz:36521.got - 2010.06.28 04:50:58.
