data_PCOD8117527
_publ_section_title
;
Structure prediction by ZEFSAII (Michael W. Deem and Ramdas Pophale) SiO2 
 PCOD8117527
Probable space group: P 2/C
;
_chemical_formula_sum "Si O2"
_cell_formula_units_Z 26
_cell_length_a 16.152348
_cell_length_b 13.530818
_cell_length_c 9.381137
_cell_angle_alpha 90.000000
_cell_angle_beta 140.950058
_cell_angle_gamma 90.000000
_cell_volume 1291.677386
_symmetry_space_group_name_H-M "P 2/C"
_symmetry_group_IT_number 13
_symmetry_cell_setting 'monoclinic'
loop_
_space_group_symop_operation_xyz
x,y,z
-x,y,1/2-z
-x,-y,-z
x,-y,1/2+z
loop_
_atom_site_type_symbol
_atom_site_label
_atom_site_fract_x
_atom_site_fract_y
_atom_site_fract_z
Si Si1 0.000000 0.334130 0.250000
Si Si2 0.668571 0.884020 0.709337
Si Si3 0.226216 0.770616 0.900676
Si Si4 0.648587 0.570340 0.415768
Si Si5 0.643571 0.230783 0.452146
Si Si6 0.630593 0.101744 0.690413
Si Si7 0.236703 0.588883 0.232985
O O1 0.919631 0.266257 0.254768
O O2 0.092500 0.405011 0.469073
O O3 0.768154 0.852183 0.716590
O O4 0.693747 0.802416 0.864424
O O5 0.518689 0.890427 0.449977
O O6 0.698759 0.994934 0.803732
O O7 0.318669 0.678776 0.979467
O O8 0.281329 0.816622 0.118131
O O9 0.500000 0.539749 0.250000
O O10 0.663996 0.567983 0.265128
O O11 0.749343 0.496315 0.630189
O O12 0.500000 0.282119 0.250000
O O13 0.628766 0.129147 0.521212
O O14 0.740305 0.307775 0.655425
#
# Coordination Sequence:
#
# PCOD8117527 Si02
#       7
#     2   4   4   4   4   4   4
#     4  10  24  46  62  80 126 174 208 254 296 356
#     4  10  21  32  64  96 122 156 203 252 314 369
#     4  11  22  39  63  86 124 169 210 246 301 370
#     4  11  23  38  66  95 122 154 201 263 324 375
#     4  10  20  35  58  90 128 153 187 258 318 361
#     4  10  18  38  59  93 128 157 193 256 316 367
#     4  11  24  41  62  88 125 161 203 252 311 367
#
# _framework density 20.128865000000001
#
# number of rings (size 3 to 8) (size 9 to 14) (size 15 to 20)
#    0.000    1.538    3.077    3.231    4.308    4.923 
#    0.000    1.538    0.000    0.000    0.000    0.000 
#    0.000    0.000    0.000    0.000    0.000    0.000 
#
# Total GULP energy -322335.681361 kJ/mol
# GULP energy per Si atom -12397.526206 kJ/mol
# Density = 2.008305 g / cm^3
# Si number density = 20.128865 Si / 1000 Ang^3
#
#
#
# Elastic Constant Matrix: (Units=GPa)
#
#
# Indices 1 2 3 4 5 6 
#
# 1 99.2592 32.3115 34.1477 0.0000 -5.9349 0.0000
# 2 32.3115 115.0580 45.8385 0.0000 -6.5942 0.0000
# 3 34.1477 45.8385 98.5594 0.0000 -0.5155 0.0000
# 4 0.0000 0.0000 0.0000 33.6135 0.0000 -7.4169
# 5 -5.9349 -6.5942 -0.5155 0.0000 29.0239 0.0000
# 6 0.0000 0.0000 0.0000 -7.4169 0.0000 23.2694
#
#
#
# Elastic Compliance Matrix: (Units=1/GPa)
#
#
# Indices 1 2 3 4 5 6 
#
# 1 0.011934 -0.001960 -0.003213 0.000000 0.001938 0.000000
# 2 -0.001960 0.011151 -0.004496 0.000000 0.002053 0.000000
# 3 -0.003213 -0.004496 0.013343 0.000000 -0.001441 0.000000
# 4 0.000000 0.000000 0.000000 0.032001 0.000000 0.010200
# 5 0.001938 0.002053 -0.001441 0.000000 0.035291 0.000000
# 6 0.000000 0.000000 0.000000 0.010200 0.000000 0.046226
#
#
# Mechanical properties :
#
#
# Convention : Reuss Voigt Hill
#
# Bulk Modulus (GPa) = 58.51760 59.71912 59.11836
# Shear Modulus (GPa) = 28.57465 30.55327 29.56396
#
# Velocity S-wave (km/s) = 3.77183 3.90023 3.83656
# Velocity P-wave (km/s) = 6.93567 7.07214 7.00424
#
# Compressibility (1/GPa) = 0.01708888
#
# Stress axis : x y z
#
# Youngs Moduli (GPa) = 83.79446 89.68101 74.94658
#
# Poissons Ratio (x) = 0.17580 0.24079
# Poissons Ratio (y) = 0.16427 0.33696
# Poissons Ratio (z) = 0.26922 0.40321
#
# Static dielectric constant tensor:
#      x y z
#    x 3.506230 0.000000 -0.162460 
#    y 0.000000 3.622920 0.000000 
#    z -0.162460 0.000000 3.475200 
# 
# 
# High freq. dielectric constant tensor:
#      x y z
#    x 1.775040 0.000000 -0.023010 
#    y 0.000000 1.791750 0.000000 
#    z -0.023010 0.000000 1.768910 
# 
# From -- ./inp_files/19905.got.cif
#   From: 2010.06.25/outbox.cif.g09.slc.cpg/sg13_10_cif.got.tgz:19905.got - 2010.06.28 04:50:58.
