data_PCOD8117782
_publ_section_title
;
Structure prediction by ZEFSAII (Michael W. Deem and Ramdas Pophale) SiO2 
 PCOD8117782
Probable space group: P 2/C
;
_chemical_formula_sum "Si O2"
_cell_formula_units_Z 32
_cell_length_a 5.053720
_cell_length_b 18.961560
_cell_length_c 19.660305
_cell_angle_alpha 90.000000
_cell_angle_beta 60.307770
_cell_angle_gamma 90.000000
_cell_volume 1636.607970
_symmetry_space_group_name_H-M "P 2/C"
_symmetry_group_IT_number 13
_symmetry_cell_setting 'monoclinic'
loop_
_space_group_symop_operation_xyz
x,y,z
-x,y,1/2-z
-x,-y,-z
x,-y,1/2+z
loop_
_atom_site_type_symbol
_atom_site_label
_atom_site_fract_x
_atom_site_fract_y
_atom_site_fract_z
Si Si1 0.719274 0.317637 0.069394
Si Si2 0.858670 0.215876 0.563251
Si Si3 0.867278 0.496075 0.698794
Si Si4 0.958120 0.344393 0.332586
Si Si5 0.817555 0.779518 0.336305
Si Si6 0.149661 0.053600 0.930721
Si Si7 0.811943 0.058721 0.834074
Si Si8 0.189346 0.457001 0.527865
O O1 0.358767 0.308322 0.105507
O O2 0.791783 0.326329 0.141019
O O3 0.785400 0.381771 0.010415
O O4 0.912776 0.251471 0.019112
O O5 0.520555 0.251563 0.604725
O O6 0.852337 0.133872 0.541555
O O7 0.974100 0.226919 0.624632
O O8 0.500000 0.503559 0.750000
O O9 0.000000 0.460049 0.750000
O O10 0.040833 0.570866 0.669202
O O11 0.985495 0.447673 0.621968
O O12 0.000000 0.315775 0.250000
O O13 0.756207 0.859799 0.322174
O O14 0.000000 0.742504 0.250000
O O15 0.486247 0.022330 0.879490
O O16 0.984665 0.048432 0.881079
O O17 0.000000 0.000000 0.000000
O O18 0.000000 0.021525 0.750000
O O19 0.500000 0.500000 0.500000
O O20 0.000000 0.500000 0.500000
#
# Coordination Sequence:
#
# PCOD8117782 Si02
#       8
#     4   4   4   4   4   4   4   4
#     4  12  22  39  58  84 113 144 182 232 277 337
#     4  10  21  34  55  83 111 149 187 227 279 333
#     4  11  21  36  57  82 111 140 180 226 274 327
#     4  11  22  37  61  83 106 141 190 235 275 319
#     4   9  17  33  54  79 108 145 186 226 264 326
#     4  10  19  33  54  80 111 145 186 232 281 327
#     4   9  17  30  52  79 107 138 185 232 271 323
#     4  12  22  38  57  83 110 143 179 226 281 324
#
# _framework density 19.552636
#
# number of rings (size 3 to 8) (size 9 to 14) (size 15 to 20)
#    0.000    1.500    2.500    4.500    0.000    3.000 
#    0.000    1.875    0.000    4.500    0.000    0.000 
#    0.000    0.000    0.000    0.000    0.000    0.000 
#
# Total GULP energy -396524.246287 kJ/mol
# GULP energy per Si atom -12391.382696 kJ/mol
# Density = 1.950813 g / cm^3
# Si number density = 19.552636 Si / 1000 Ang^3
#
#
#
# Elastic Constant Matrix: (Units=GPa)
#
#
# Indices 1 2 3 4 5 6 
#
# 1 127.8552 21.3424 40.4357 0.0000 -17.0941 0.0000
# 2 21.3424 49.2400 37.8806 0.0000 -3.9742 0.0000
# 3 40.4357 37.8806 131.0119 0.0000 -9.3010 0.0000
# 4 0.0000 0.0000 0.0000 24.4683 0.0000 -3.4503
# 5 -17.0941 -3.9742 -9.3010 0.0000 45.3969 0.0000
# 6 0.0000 0.0000 0.0000 -3.4503 0.0000 17.6772
#
#
#
# Elastic Compliance Matrix: (Units=1/GPa)
#
#
# Indices 1 2 3 4 5 6 
#
# 1 0.009206 -0.002225 -0.001995 0.000000 0.002863 0.000000
# 2 -0.002225 0.026681 -0.007024 0.000000 0.000059 0.000000
# 3 -0.001995 -0.007024 0.010333 0.000000 0.000751 0.000000
# 4 0.000000 0.000000 0.000000 0.042026 0.000000 0.008203
# 5 0.002863 0.000059 0.000751 0.000000 0.023265 0.000000
# 6 0.000000 0.000000 0.000000 0.008203 0.000000 0.058171
#
#
# Mechanical properties :
#
#
# Convention : Reuss Voigt Hill
#
# Bulk Modulus (GPa) = 42.13421 56.38051 49.25736
# Shear Modulus (GPa) = 24.98995 31.40502 28.19748
#
# Velocity S-wave (km/s) = 3.57891 4.01206 3.80166
# Velocity P-wave (km/s) = 6.21885 7.09648 6.67211
#
# Compressibility (1/GPa) = 0.02373368
#
# Stress axis : x y z
#
# Youngs Moduli (GPa) = 108.61963 37.47973 96.77927
#
# Poissons Ratio (x) = 0.08338 0.19308
# Poissons Ratio (y) = 0.24163 0.67975
# Poissons Ratio (z) = 0.21670 0.26325
#
# Static dielectric constant tensor:
#      x y z
#    x 3.839610 0.000000 -0.010160 
#    y 0.000000 3.189000 0.000000 
#    z -0.010160 0.000000 4.266060 
# 
# 
# High freq. dielectric constant tensor:
#      x y z
#    x 1.787850 0.000000 -0.001080 
#    y 0.000000 1.703990 0.000000 
#    z -0.001080 0.000000 1.779400 
# 
# From -- ./inp_files/61839.got.cif
#   From: 2010.06.25/outbox.cif.g09.slc.cpg/sg13_31_cif.got.tgz:61839.got - 2010.06.28 04:50:58.
