data_PCOD8117024
_publ_section_title
;
Structure prediction by ZEFSAII (Michael W. Deem and Ramdas Pophale) SiO2 
 PCOD8117024
Probable space group: P 2/C
;
_chemical_formula_sum "Si O2"
_cell_formula_units_Z 32
_cell_length_a 5.304540
_cell_length_b 15.897222
_cell_length_c 16.301630
_cell_angle_alpha 90.000000
_cell_angle_beta 90.000039
_cell_angle_gamma 90.000000
_cell_volume 1374.674889
_symmetry_space_group_name_H-M "P 2/C"
_symmetry_group_IT_number 13
_symmetry_cell_setting 'monoclinic'
loop_
_space_group_symop_operation_xyz
x,y,z
-x,y,1/2-z
-x,-y,-z
x,-y,1/2+z
loop_
_atom_site_type_symbol
_atom_site_label
_atom_site_fract_x
_atom_site_fract_y
_atom_site_fract_z
Si Si1 0.500004 0.832657 0.653129
Si Si2 0.999996 0.777907 0.934755
Si Si3 0.000003 0.510510 0.845665
Si Si4 0.499997 0.487186 0.096551
Si Si5 0.999993 0.671290 0.076819
Si Si6 0.000004 0.924520 0.063147
Si Si7 0.499995 0.972630 0.347095
Si Si8 0.499993 0.675713 0.155918
O O1 0.500000 0.823089 0.750000
O O2 0.248691 0.788396 0.619754
O O3 0.751323 0.788397 0.619757
O O4 0.500005 0.929721 0.625701
O O5 0.999999 0.685711 0.978187
O O6 0.000001 0.838753 0.013093
O O7 0.250812 0.562489 0.871684
O O8 0.000000 0.486706 0.750000
O O9 0.749198 0.562489 0.871687
O O10 0.000010 0.427688 0.903417
O O11 0.499989 0.575237 0.145154
O O12 0.500000 0.500000 0.000000
O O13 0.249955 0.714614 0.114814
O O14 0.750024 0.714614 0.114810
O O15 0.249759 0.928430 0.118836
O O16 0.750255 0.928431 0.118839
O O17 0.000000 0.000000 0.000000
O O18 0.500000 0.963830 0.250000
O O19 0.500000 0.701120 0.250000
#
# Coordination Sequence:
#
# PCOD8117024 Si02
#       8
#     4   4   4   4   4   4   4   4
#     4  11  22  38  58  79  99 129 174 227 273 324
#     4  12  23  36  57  85 105 133 183 226 273 321
#     4  10  19  35  55  78 111 154 186 218 261 313
#     4  10  18  29  51  85 111 136 181 228 263 295
#     4  10  20  34  52  81 107 140 183 226 260 313
#     4  12  21  37  56  80 108 142 168 224 284 330
#     4  11  22  38  55  76 105 140 173 207 271 347
#     4  10  19  36  57  79 110 153 185 216 259 311
#
# _framework density 23.278230000000001
#
# number of rings (size 3 to 8) (size 9 to 14) (size 15 to 20)
#    0.000    1.250    2.500    6.750    0.000    2.000 
#    0.000    5.000    0.000    0.000    0.000   91.000 
#    0.000    0.000    0.000    0.000    0.000    0.000 
#
# Total GULP energy -396679.814603 kJ/mol
# GULP energy per Si atom -12396.244206 kJ/mol
# Density = 2.322525 g / cm^3
# Si number density = 23.278230 Si / 1000 Ang^3
#
#
#
# Elastic Constant Matrix: (Units=GPa)
#
#
# Indices 1 2 3 4 5 6 
#
# 1 275.1500 3.5520 68.9413 0.0000 -0.0015 0.0000
# 2 3.5520 15.6745 10.8607 0.0000 0.0000 0.0000
# 3 68.9413 10.8607 107.4640 0.0000 -0.0004 0.0000
# 4 0.0000 0.0000 0.0000 38.1456 0.0000 0.0020
# 5 -0.0015 0.0000 -0.0004 0.0000 56.0294 0.0000
# 6 0.0000 0.0000 0.0000 0.0020 0.0000 -13.8688
#
#
#
# Elastic Compliance Matrix: (Units=1/GPa)
#
#
# Indices 1 2 3 4 5 6 
#
# 1 0.004346 0.001018 -0.002891 0.000000 0.000000 0.000000
# 2 0.001018 0.068840 -0.007610 0.000000 0.000000 0.000000
# 3 -0.002891 -0.007610 0.011929 0.000000 0.000000 0.000000
# 4 0.000000 0.000000 0.000000 0.026215 0.000000 0.000004
# 5 0.000000 0.000000 0.000000 0.000000 0.017848 0.000000
# 6 0.000000 0.000000 0.000000 0.000004 0.000000 -0.072104
#
#
# Mechanical properties :
#
#
# Convention : Reuss Voigt Hill
#
# Bulk Modulus (GPa) = 15.11736 62.77738 38.94737
# Shear Modulus (GPa) = 50.97398 37.05689 44.01543
#
# Velocity S-wave (km/s) = 4.68457 3.99421 4.35310
# Velocity P-wave (km/s) = 5.98069 6.94970 6.48333
#
# Compressibility (1/GPa) = 0.06614912
#
# Stress axis : x y z
#
# Youngs Moduli (GPa) = 230.12194 14.52635 83.82916
#
# Poissons Ratio (x) = -0.01479 0.24232
# Poissons Ratio (y) = -0.23430 0.63797
# Poissons Ratio (z) = 0.66521 0.11055
#
# Static dielectric constant tensor:
#      x y z
#    x 7.283530 0.000000 -0.000010 
#    y 0.000000 4.011200 0.000000 
#    z -0.000010 0.000000 4.180870 
# 
# 
# High freq. dielectric constant tensor:
#      x y z
#    x 1.960890 0.000000 0.000000 
#    y 0.000000 1.871940 0.000000 
#    z 0.000000 0.000000 1.931550 
# 
# From -- ./inp_files/44469.got.cif
#   From: 2010.06.25/outbox.cif.g09.slc.cpg/sg13_23_cif.got.tgz:44469.got - 2010.06.28 04:50:58.
