data_PCOD8117091
_publ_section_title
;
Structure prediction by ZEFSAII (Michael W. Deem and Ramdas Pophale) SiO2 
 PCOD8117091
Probable space group: P 2/C
;
_chemical_formula_sum "Si O2"
_cell_formula_units_Z 28
_cell_length_a 6.552812
_cell_length_b 18.715875
_cell_length_c 13.627852
_cell_angle_alpha 90.000000
_cell_angle_beta 89.249700
_cell_angle_gamma 90.000000
_cell_volume 1671.198412
_symmetry_space_group_name_H-M "P 2/C"
_symmetry_group_IT_number 13
_symmetry_cell_setting 'monoclinic'
loop_
_space_group_symop_operation_xyz
x,y,z
-x,y,1/2-z
-x,-y,-z
x,-y,1/2+z
loop_
_atom_site_type_symbol
_atom_site_label
_atom_site_fract_x
_atom_site_fract_y
_atom_site_fract_z
Si Si1 0.826970 0.900584 0.039384
Si Si2 0.089586 0.982622 0.647268
Si Si3 0.077344 0.205064 0.640732
Si Si4 0.811085 0.551230 0.012688
Si Si5 0.569018 0.510414 0.358300
Si Si6 0.091276 0.368989 0.643007
Si Si7 0.418402 0.095966 0.645566
O O1 0.883768 0.915710 0.925997
O O2 0.587379 0.909285 0.059867
O O3 0.934568 0.958272 0.108428
O O4 0.897633 0.820004 0.067422
O O5 0.309611 0.019462 0.658713
O O6 0.000000 0.952765 0.750000
O O7 0.149104 0.286558 0.630209
O O8 0.269296 0.157685 0.609634
O O9 0.000000 0.187758 0.750000
O O10 0.699592 0.555754 0.906026
O O11 0.643584 0.518628 0.085493
O O12 0.000000 0.500000 0.000000
O O13 0.913007 0.620869 0.061410
O O14 0.500000 0.490397 0.250000
O O15 0.705139 0.582743 0.368757
O O16 0.000000 0.386458 0.750000
O O17 0.500000 0.120934 0.750000
#
# Coordination Sequence:
#
# PCOD8117091 Si02
#       7
#     4   4   4   4   4   4   4
#     4  10  19  32  47  68  98 126 159 202 249 288
#     4  10  19  31  48  70  91 122 165 205 247 295
#     4  10  20  31  46  71 101 132 158 186 237 300
#     4   9  19  32  48  74 106 129 161 205 242 288
#     4  10  18  31  51  77 102 129 163 202 245 293
#     4  10  19  31  48  73 105 136 164 196 244 302
#     4  11  17  30  47  69 102 126 153 201 249 299
#
# _framework density 16.754445
#
# number of rings (size 3 to 8) (size 9 to 14) (size 15 to 20)
#    0.000    2.000    4.286    1.286    0.000    1.714 
#    0.000    0.000    0.000    0.000   11.143    0.000 
#    0.000    0.000    0.000    0.000    0.000    0.000 
#
# Total GULP energy -346927.502402 kJ/mol
# GULP energy per Si atom -12390.267943 kJ/mol
# Density = 1.671631 g / cm^3
# Si number density = 16.754445 Si / 1000 Ang^3
#
#
#
# Elastic Constant Matrix: (Units=GPa)
#
#
# Indices 1 2 3 4 5 6 
#
# 1 100.3474 25.2238 48.9636 0.0000 -4.8119 0.0000
# 2 25.2238 55.5510 37.4272 0.0000 1.7058 0.0000
# 3 48.9636 37.4272 117.9997 0.0000 3.2218 0.0000
# 4 0.0000 0.0000 0.0000 18.2757 0.0000 2.7116
# 5 -4.8119 1.7058 3.2218 0.0000 34.7464 0.0000
# 6 0.0000 0.0000 0.0000 2.7116 0.0000 15.3642
#
#
#
# Elastic Compliance Matrix: (Units=1/GPa)
#
#
# Indices 1 2 3 4 5 6 
#
# 1 0.013032 -0.002929 -0.004543 0.000000 0.002370 0.000000
# 2 -0.002929 0.023559 -0.006230 0.000000 -0.000985 0.000000
# 3 -0.004543 -0.006230 0.012376 0.000000 -0.001471 0.000000
# 4 0.000000 0.000000 0.000000 0.056189 0.000000 -0.009917
# 5 0.002370 -0.000985 -0.001471 0.000000 0.029293 0.000000
# 6 0.000000 0.000000 0.000000 -0.009917 0.000000 0.066837
#
#
# Mechanical properties :
#
#
# Convention : Reuss Voigt Hill
#
# Bulk Modulus (GPa) = 46.37749 55.23637 50.80693
# Shear Modulus (GPa) = 21.19732 24.49615 22.84673
#
# Velocity S-wave (km/s) = 3.56079 3.82785 3.69673
# Velocity P-wave (km/s) = 6.68180 7.25095 6.97219
#
# Compressibility (1/GPa) = 0.02156219
#
# Stress axis : x y z
#
# Youngs Moduli (GPa) = 76.73313 42.44597 80.80107
#
# Poissons Ratio (x) = 0.12433 0.36710
# Poissons Ratio (y) = 0.22477 0.50341
# Poissons Ratio (z) = 0.34862 0.26445
#
# Static dielectric constant tensor:
#      x y z
#    x 3.558610 0.000000 0.163890 
#    y 0.000000 2.945890 0.000000 
#    z 0.163890 0.000000 3.316600 
# 
# 
# High freq. dielectric constant tensor:
#      x y z
#    x 1.666850 0.000000 -0.005110 
#    y 0.000000 1.603470 0.000000 
#    z -0.005110 0.000000 1.641380 
# 
# From -- ./inp_files/26710.got.cif
#   From: 2010.06.25/outbox.cif.g09.slc.cpg/sg13_14_cif.got.tgz:26710.got - 2010.06.28 04:50:58.
