data_PCOD8117314
_publ_section_title
;
Structure prediction by ZEFSAII (Michael W. Deem and Ramdas Pophale) SiO2 
 PCOD8117314
Probable space group: P 2/C
;
_chemical_formula_sum "Si O2"
_cell_formula_units_Z 24
_cell_length_a 22.750013
_cell_length_b 8.886490
_cell_length_c 16.742068
_cell_angle_alpha 90.000000
_cell_angle_beta 23.586618
_cell_angle_gamma 90.000000
_cell_volume 1354.339496
_symmetry_space_group_name_H-M "P 2/C"
_symmetry_group_IT_number 13
_symmetry_cell_setting 'monoclinic'
loop_
_space_group_symop_operation_xyz
x,y,z
-x,y,1/2-z
-x,-y,-z
x,-y,1/2+z
loop_
_atom_site_type_symbol
_atom_site_label
_atom_site_fract_x
_atom_site_fract_y
_atom_site_fract_z
Si Si1 0.845470 0.318930 0.215866
Si Si2 0.185680 0.340608 0.789377
Si Si3 0.343718 0.907672 0.639935
Si Si4 0.667567 0.181164 0.571236
Si Si5 0.656103 0.187087 0.768168
Si Si6 0.359405 0.112234 0.471512
O O1 0.800790 0.484130 0.244012
O O2 0.788166 0.199182 0.222356
O O3 0.771795 0.294012 0.393300
O O4 0.017978 0.292181 0.008500
O O5 0.271054 0.311255 0.765589
O O6 0.252843 0.246670 0.631327
O O7 0.479976 0.808250 0.501354
O O8 0.284182 0.020229 0.782549
O O9 0.407323 0.012019 0.488596
O O10 0.500000 0.203125 0.750000
O O11 0.693325 0.225102 0.630738
O O12 0.717825 0.007703 0.492475
O O13 0.500000 0.182045 0.250000
#
# Coordination Sequence:
#
# PCOD8117314 Si02
#       6
#     4   4   4   4   4   4
#     4  10  21  40  51  76 117 153 174 218 271 330
#     4  10  23  35  55  79 113 149 183 213 272 329
#     4   9  18  33  59  79 112 134 178 227 272 314
#     4  10  18  35  59  81 108 138 180 231 275 316
#     4  10  18  34  57  88 100 139 185 228 268 316
#     4   9  16  33  54  82 106 137 174 228 270 320
#
# _framework density 17.720815999999999
#
# number of rings (size 3 to 8) (size 9 to 14) (size 15 to 20)
#    0.000    2.333    5.000    0.000    0.000    8.000 
#    0.000    1.667    0.000    2.000    0.000    0.000 
#    0.000    0.000    0.000    0.000    0.000    0.000 
#
# Total GULP energy -297473.815516 kJ/mol
# GULP energy per Si atom -12394.742313 kJ/mol
# Density = 1.768048 g / cm^3
# Si number density = 17.720816 Si / 1000 Ang^3
#
#
#
# Elastic Constant Matrix: (Units=GPa)
#
#
# Indices 1 2 3 4 5 6 
#
# 1 96.1510 40.4322 51.0414 0.0000 8.7399 0.0000
# 2 40.4322 63.9302 54.6106 0.0000 -0.1751 0.0000
# 3 51.0414 54.6106 114.0518 0.0000 7.6887 0.0000
# 4 0.0000 0.0000 0.0000 27.0232 0.0000 -6.5925
# 5 8.7399 -0.1751 7.6887 0.0000 22.2672 0.0000
# 6 0.0000 0.0000 0.0000 -6.5925 0.0000 21.0818
#
#
#
# Elastic Compliance Matrix: (Units=1/GPa)
#
#
# Indices 1 2 3 4 5 6 
#
# 1 0.015555 -0.007099 -0.003221 0.000000 -0.005049 0.000000
# 2 -0.007099 0.030196 -0.011759 0.000000 0.007084 0.000000
# 3 -0.003221 -0.011759 0.016137 0.000000 -0.004400 0.000000
# 4 0.000000 0.000000 0.000000 0.040061 0.000000 0.012528
# 5 -0.005049 0.007084 -0.004400 0.000000 0.048466 0.000000
# 6 0.000000 0.000000 0.000000 0.012528 0.000000 0.051352
#
#
# Mechanical properties :
#
#
# Convention : Reuss Voigt Hill
#
# Bulk Modulus (GPa) = 56.40838 62.92238 59.66538
# Shear Modulus (GPa) = 19.85420 22.61102 21.23261
#
# Velocity S-wave (km/s) = 3.35085 3.57593 3.46522
# Velocity P-wave (km/s) = 6.84629 7.25496 7.05359
#
# Compressibility (1/GPa) = 0.01772786
#
# Stress axis : x y z
#
# Youngs Moduli (GPa) = 64.28936 33.11664 61.97033
#
# Poissons Ratio (x) = 0.23511 0.19963
# Poissons Ratio (y) = 0.45642 0.72871
# Poissons Ratio (z) = 0.20710 0.38942
#
# Static dielectric constant tensor:
#      x y z
#    x 3.364890 0.000000 0.163900 
#    y 0.000000 3.203430 0.000000 
#    z 0.163900 0.000000 3.282760 
# 
# 
# High freq. dielectric constant tensor:
#      x y z
#    x 1.683180 0.000000 0.007340 
#    y 0.000000 1.673190 0.000000 
#    z 0.007340 0.000000 1.676790 
# 
# From -- ./inp_files/71794.got.cif
#   From: 2010.06.25/outbox.cif.g09.slc.cpg/sg13_36_cif.got.tgz:71794.got - 2010.06.28 04:50:58.
