data_PCOD8117046
_publ_section_title
;
Structure prediction by ZEFSAII (Michael W. Deem and Ramdas Pophale) SiO2 
 PCOD8117046
Probable space group: P 2/C
;
_chemical_formula_sum "Si O2"
_cell_formula_units_Z 26
_cell_length_a 11.266120
_cell_length_b 14.410911
_cell_length_c 9.004245
_cell_angle_alpha 90.000000
_cell_angle_beta 78.127056
_cell_angle_gamma 90.000000
_cell_volume 1430.609474
_symmetry_space_group_name_H-M "P 2/C"
_symmetry_group_IT_number 13
_symmetry_cell_setting 'monoclinic'
loop_
_space_group_symop_operation_xyz
x,y,z
-x,y,1/2-z
-x,-y,-z
x,-y,1/2+z
loop_
_atom_site_type_symbol
_atom_site_label
_atom_site_fract_x
_atom_site_fract_y
_atom_site_fract_z
Si Si1 0.413347 0.963864 0.652362
Si Si2 0.198899 0.505789 0.967168
Si Si3 0.995508 0.367440 0.093206
Si Si4 0.500000 0.264150 0.750000
Si Si5 0.101821 0.767951 0.329414
Si Si6 0.313414 0.880434 0.402366
Si Si7 0.292799 0.622413 0.195216
O O1 0.500000 0.907797 0.750000
O O2 0.312834 0.909531 0.578999
O O3 0.500000 0.000000 0.500000
O O4 0.350132 0.043221 0.768816
O O5 0.277636 0.435258 0.850360
O O6 0.138465 0.589846 0.891482
O O7 0.091323 0.451767 0.077903
O O8 0.289966 0.551386 0.060780
O O9 0.000000 0.315338 0.250000
O O10 0.025336 0.293534 0.961601
O O11 0.590726 0.203058 0.628026
O O12 0.576923 0.328113 0.841785
O O13 0.178583 0.846434 0.395544
O O14 0.188368 0.700856 0.210645
O O15 0.000000 0.815491 0.250000
#
# Coordination Sequence:
#
# PCOD8117046 Si02
#       7
#     4   4   4   2   4   4   4
#     4   9  16  33  61  83 100 135 174 210 253 322
#     4  10  18  30  50  73  97 138 188 221 248 308
#     4  10  18  30  50  74 101 135 189 223 251 295
#     4  10  20  34  52  76 112 136 168 218 276 312
#     4  10  20  34  52  80 110 142 171 223 272 310
#     4  10  19  36  59  84 107 133 180 212 261 331
#     4  10  20  32  52  72 103 144 180 222 264 299
#
# _framework density 18.174073
#
# number of rings (size 3 to 8) (size 9 to 14) (size 15 to 20)
#    0.000    2.154    5.385    0.000    0.000    0.615 
#    0.000    5.385    0.000    0.000    0.000    0.000 
#    0.000    0.000    0.000    0.000    0.000    0.000 
#
# Total GULP energy -322113.721362 kJ/mol
# GULP energy per Si atom -12388.989283 kJ/mol
# Density = 1.813271 g / cm^3
# Si number density = 18.174073 Si / 1000 Ang^3
#
#
#
# Elastic Constant Matrix: (Units=GPa)
#
#
# Indices 1 2 3 4 5 6 
#
# 1 117.3298 50.3124 46.2100 0.0000 30.9939 0.0000
# 2 50.3124 65.8521 26.6157 0.0000 19.1496 0.0000
# 3 46.2100 26.6157 74.5269 0.0000 31.7139 0.0000
# 4 0.0000 0.0000 0.0000 15.1676 0.0000 18.3018
# 5 30.9939 19.1496 31.7139 0.0000 30.8186 0.0000
# 6 0.0000 0.0000 0.0000 18.3018 0.0000 19.3594
#
#
#
# Elastic Compliance Matrix: (Units=1/GPa)
#
#
# Indices 1 2 3 4 5 6 
#
# 1 0.015225 -0.008272 -0.003839 0.000000 -0.006222 0.000000
# 2 -0.008272 0.023428 -0.001038 0.000000 -0.005171 0.000000
# 3 -0.003839 -0.001038 0.025354 0.000000 -0.021585 0.000000
# 4 0.000000 0.000000 0.000000 -0.468521 0.000000 0.442927
# 5 -0.006222 -0.005171 -0.021585 0.000000 0.064131 0.000000
# 6 0.000000 0.000000 0.000000 0.442927 0.000000 -0.367076
#
#
# Mechanical properties :
#
#
# Convention : Reuss Voigt Hill
#
# Bulk Modulus (GPa) = 26.51677 55.99830 41.25753
# Shear Modulus (GPa) = -7.47842 22.04049 7.28103
#
# Velocity S-wave (km/s) = -2.03072 3.48622 2.00374
# Velocity P-wave (km/s) = 3.02054 6.86178 5.30131
#
# Compressibility (1/GPa) = 0.03771199
#
# Stress axis : x y z
#
# Youngs Moduli (GPa) = 65.67933 42.68316 39.44138
#
# Poissons Ratio (x) = 0.35306 0.15140
# Poissons Ratio (y) = 0.54328 0.04093
# Poissons Ratio (z) = 0.25212 0.04429
#
# Static dielectric constant tensor:
#      x y z
#    x 3.451760 0.000000 0.325100 
#    y 0.000000 3.356360 0.000000 
#    z 0.325100 0.000000 3.467680 
# 
# 
# High freq. dielectric constant tensor:
#      x y z
#    x 1.698570 0.000000 0.022830 
#    y 0.000000 1.676150 0.000000 
#    z 0.022830 0.000000 1.697370 
# 
# From -- ./inp_files/16258.got.cif
#   From: 2010.06.25/outbox.cif.g09.slc.cpg/sg13_9_cif.got.tgz:16258.got - 2010.06.28 04:50:58.
