data_PCOD8117937
_publ_section_title
;
Structure prediction by ZEFSAII (Michael W. Deem and Ramdas Pophale) SiO2 
 PCOD8117937
Probable space group: P 2/C
;
_chemical_formula_sum "Si O2"
_cell_formula_units_Z 20
_cell_length_a 14.411340
_cell_length_b 10.508636
_cell_length_c 21.984851
_cell_angle_alpha 90.000000
_cell_angle_beta 162.629834
_cell_angle_gamma 90.000000
_cell_volume 993.990901
_symmetry_space_group_name_H-M "P 2/C"
_symmetry_group_IT_number 13
_symmetry_cell_setting 'monoclinic'
loop_
_space_group_symop_operation_xyz
x,y,z
-x,y,1/2-z
-x,-y,-z
x,-y,1/2+z
loop_
_atom_site_type_symbol
_atom_site_label
_atom_site_fract_x
_atom_site_fract_y
_atom_site_fract_z
Si Si1 0.272935 0.539614 0.749195
Si Si2 0.835128 0.680117 0.932240
Si Si3 0.298363 0.120690 0.561968
Si Si4 0.110352 0.380287 0.384595
Si Si5 0.869119 0.944151 0.357603
O O1 0.213427 0.668424 0.671632
O O2 0.015918 0.441518 0.567482
O O3 0.194240 0.565756 0.770804
O O4 0.621655 0.486859 0.956827
O O5 0.500000 0.681725 0.750000
O O6 0.017657 0.799629 0.073065
O O7 0.500000 0.125699 0.750000
O O8 0.228467 0.263878 0.499123
O O9 0.494642 0.055827 0.629449
O O10 0.992359 0.031457 0.378915
O O11 0.000000 0.331241 0.250000
O O12 0.000000 0.000000 0.500000
#
# Coordination Sequence:
#
# PCOD8117937 Si02
#       5
#     4   4   4   4   4
#     4  11  23  38  62  89 125 158 202 256 309 361
#     4  11  20  34  64  97 118 151 202 257 311 365
#     4  10  21  38  63  89 121 157 201 256 307 360
#     4  12  25  43  61  87 126 169 209 251 303 367
#     4  10  19  34  58  90 123 147 193 253 307 354
#
# _framework density 20.120908
#
# number of rings (size 3 to 8) (size 9 to 14) (size 15 to 20)
#    0.000    1.200    4.000    4.800    2.800    0.000 
#    0.000    1.000    0.000    0.000    0.000    0.000 
#    0.000    0.000    0.000    0.000    0.000    0.000 
#
# Total GULP energy -247777.579494 kJ/mol
# GULP energy per Si atom -12388.878975 kJ/mol
# Density = 2.007511 g / cm^3
# Si number density = 20.120908 Si / 1000 Ang^3
#
#
#
# Elastic Constant Matrix: (Units=GPa)
#
#
# Indices 1 2 3 4 5 6 
#
# 1 134.1687 42.2993 41.5416 0.0000 34.8392 0.0000
# 2 42.2993 79.0912 12.2448 0.0000 15.6264 0.0000
# 3 41.5416 12.2448 53.7403 0.0000 26.0123 0.0000
# 4 0.0000 0.0000 0.0000 35.7176 0.0000 30.8550
# 5 34.8392 15.6264 26.0123 0.0000 45.6244 0.0000
# 6 0.0000 0.0000 0.0000 30.8550 0.0000 48.4844
#
#
#
# Elastic Compliance Matrix: (Units=1/GPa)
#
#
# Indices 1 2 3 4 5 6 
#
# 1 0.011845 -0.004597 -0.006205 0.000000 -0.003933 0.000000
# 2 -0.004597 0.015398 0.001241 0.000000 -0.002471 0.000000
# 3 -0.006205 0.001241 0.029051 0.000000 -0.012250 0.000000
# 4 0.000000 0.000000 0.000000 0.062182 0.000000 -0.039572
# 5 -0.003933 -0.002471 -0.012250 0.000000 0.032752 0.000000
# 6 0.000000 0.000000 0.000000 -0.039572 0.000000 0.045808
#
#
# Mechanical properties :
#
#
# Convention : Reuss Voigt Hill
#
# Bulk Modulus (GPa) = 26.90180 51.01910 38.96045
# Shear Modulus (GPa) = 21.87701 37.35958 29.61829
#
# Velocity S-wave (km/s) = 3.30097 4.31368 3.84085
# Velocity P-wave (km/s) = 5.28466 7.08673 6.25097
#
# Compressibility (1/GPa) = 0.03717223
#
# Stress axis : x y z
#
# Youngs Moduli (GPa) = 84.42241 64.94177 34.42172
#
# Poissons Ratio (x) = 0.29856 0.21360
# Poissons Ratio (y) = 0.38812 -0.04273
# Poissons Ratio (z) = 0.52388 -0.08061
#
# Static dielectric constant tensor:
#      x y z
#    x 4.490350 0.000000 0.893330 
#    y 0.000000 2.942560 0.000000 
#    z 0.893330 0.000000 3.846790 
# 
# 
# High freq. dielectric constant tensor:
#      x y z
#    x 1.787040 0.000000 0.044470 
#    y 0.000000 1.786420 0.000000 
#    z 0.044470 0.000000 1.764290 
# 
# From -- ./inp_files/87220.got.cif
#   From: 2010.06.25/outbox.cif.g09.slc.cpg/sg13_44_cif.got.tgz:87220.got - 2010.06.28 04:50:58.
