data_PCOD8117111
_publ_section_title
;
Structure prediction by ZEFSAII (Michael W. Deem and Ramdas Pophale) SiO2 
 PCOD8117111
Probable space group: P 2/C
;
_chemical_formula_sum "Si O2"
_cell_formula_units_Z 20
_cell_length_a 9.193121
_cell_length_b 14.399763
_cell_length_c 16.583612
_cell_angle_alpha 90.000000
_cell_angle_beta 152.318438
_cell_angle_gamma 90.000000
_cell_volume 1019.850585
_symmetry_space_group_name_H-M "P 2/C"
_symmetry_group_IT_number 13
_symmetry_cell_setting 'monoclinic'
loop_
_space_group_symop_operation_xyz
x,y,z
-x,y,1/2-z
-x,-y,-z
x,-y,1/2+z
loop_
_atom_site_type_symbol
_atom_site_label
_atom_site_fract_x
_atom_site_fract_y
_atom_site_fract_z
Si Si1 0.364459 0.898652 0.945549
Si Si2 0.584814 0.790439 0.201160
Si Si3 0.681518 0.400221 0.991731
Si Si4 0.613885 0.408041 0.149803
Si Si5 0.801291 0.243337 0.573869
O O1 0.000000 0.896789 0.750000
O O2 0.408555 0.864298 0.058469
O O3 0.541790 0.831493 0.970774
O O4 0.500000 0.000000 0.000000
O O5 0.500000 0.816513 0.250000
O O6 0.958482 0.801305 0.372172
O O7 0.493094 0.685081 0.135066
O O8 0.644193 0.398520 0.068937
O O9 0.044505 0.395303 0.143443
O O10 0.523662 0.495477 0.884559
O O11 0.370940 0.328005 0.056005
O O12 0.000000 0.277054 0.750000
#
# Coordination Sequence:
#
# PCOD8117111 Si02
#       5
#     4   4   4   4   4
#     4  11  22  42  68  93 117 153 205 245 288 362
#     4  11  23  40  60  92 128 156 191 252 312 351
#     4  10  19  31  54  85 121 156 206 250 289 346
#     4  10  18  31  56  85 114 161 213 249 280 342
#     4  10  19  35  58  85 119 159 203 242 289 355
#
# _framework density 19.610716
#
# number of rings (size 3 to 8) (size 9 to 14) (size 15 to 20)
#    0.000    1.600    4.000    4.200    2.800    0.000 
#    0.000   12.000    0.000    0.000    0.000    0.000 
#    0.000    0.000    0.000    0.000    0.000    0.000 
#
# Total GULP energy -248007.032344 kJ/mol
# GULP energy per Si atom -12400.351617 kJ/mol
# Density = 1.956608 g / cm^3
# Si number density = 19.610716 Si / 1000 Ang^3
#
#
#
# Elastic Constant Matrix: (Units=GPa)
#
#
# Indices 1 2 3 4 5 6 
#
# 1 114.3735 41.5054 55.3654 0.0000 11.6659 0.0000
# 2 41.5054 143.0552 61.8577 0.0000 2.2188 0.0000
# 3 55.3654 61.8577 138.2502 0.0000 39.1698 0.0000
# 4 0.0000 0.0000 0.0000 32.6768 0.0000 13.9746
# 5 11.6659 2.2188 39.1698 0.0000 26.7305 0.0000
# 6 0.0000 0.0000 0.0000 13.9746 0.0000 14.1320
#
#
#
# Elastic Compliance Matrix: (Units=1/GPa)
#
#
# Indices 1 2 3 4 5 6 
#
# 1 0.011169 -0.001424 -0.004255 0.000000 0.001478 0.000000
# 2 -0.001424 0.010143 -0.006678 0.000000 0.009565 0.000000
# 3 -0.004255 -0.006678 0.019223 0.000000 -0.025757 0.000000
# 4 0.000000 0.000000 0.000000 0.053028 0.000000 -0.052438
# 5 0.001478 0.009565 -0.025757 0.000000 0.073715 0.000000
# 6 0.000000 0.000000 0.000000 -0.052438 0.000000 0.122615
#
#
# Mechanical properties :
#
#
# Convention : Reuss Voigt Hill
#
# Bulk Modulus (GPa) = 63.20575 79.23733 71.22154
# Shear Modulus (GPa) = 15.63093 30.50456 23.06775
#
# Velocity S-wave (km/s) = 2.82629 3.94827 3.43342
# Velocity P-wave (km/s) = 6.55368 7.82802 7.21903
#
# Compressibility (1/GPa) = 0.01582134
#
# Stress axis : x y z
#
# Youngs Moduli (GPa) = 89.53608 98.59377 52.02159
#
# Poissons Ratio (x) = 0.14036 0.22133
# Poissons Ratio (y) = 0.12747 0.34740
# Poissons Ratio (z) = 0.38095 0.65842
#
# Static dielectric constant tensor:
#      x y z
#    x 3.333320 0.000000 0.220480 
#    y 0.000000 3.655500 0.000000 
#    z 0.220480 0.000000 3.444590 
# 
# 
# High freq. dielectric constant tensor:
#      x y z
#    x 1.731470 0.000000 0.034400 
#    y 0.000000 1.765170 0.000000 
#    z 0.034400 0.000000 1.771730 
# 
# From -- ./inp_files/64573.got.cif
#   From: 2010.06.25/outbox.cif.g09.slc.cpg/sg13_33_cif.got.tgz:64573.got - 2010.06.28 04:50:58.
