data_PCOD8117039
_publ_section_title
;
Structure prediction by ZEFSAII (Michael W. Deem and Ramdas Pophale) SiO2 
 PCOD8117039
Probable space group: P 2/C
;
_chemical_formula_sum "Si O2"
_cell_formula_units_Z 26
_cell_length_a 5.561059
_cell_length_b 11.829874
_cell_length_c 20.331425
_cell_angle_alpha 90.000000
_cell_angle_beta 78.359077
_cell_angle_gamma 90.000000
_cell_volume 1310.024613
_symmetry_space_group_name_H-M "P 2/C"
_symmetry_group_IT_number 13
_symmetry_cell_setting 'monoclinic'
loop_
_space_group_symop_operation_xyz
x,y,z
-x,y,1/2-z
-x,-y,-z
x,-y,1/2+z
loop_
_atom_site_type_symbol
_atom_site_label
_atom_site_fract_x
_atom_site_fract_y
_atom_site_fract_z
Si Si1 0.719126 0.115356 0.537049
Si Si2 0.222311 0.246947 0.289352
Si Si3 0.880058 0.278427 0.642135
Si Si4 0.779532 0.506125 0.210642
Si Si5 0.500000 0.833812 0.250000
Si Si6 0.030550 0.079166 0.402945
Si Si7 0.732724 0.891014 0.364389
O O1 0.800299 0.220887 0.578228
O O2 0.811721 0.137744 0.457801
O O3 0.424769 0.106282 0.559139
O O4 0.803890 0.991663 0.556306
O O5 0.500000 0.219012 0.250000
O O6 0.207657 0.376642 0.312835
O O7 0.000000 0.220866 0.250000
O O8 0.183126 0.174264 0.357193
O O9 0.849508 0.414637 0.643442
O O10 0.722532 0.243101 0.714424
O O11 0.152955 0.234819 0.643883
O O12 0.500000 0.532244 0.250000
O O13 0.000000 0.529890 0.250000
O O14 0.573857 0.912966 0.307624
O O15 0.930920 0.990523 0.354474
#
# Coordination Sequence:
#
# PCOD8117039 Si02
#       7
#     4   4   4   4   2   4   4
#     4   9  21  37  57  83 110 156 196 231 297 350
#     4  10  24  42  61  89 114 157 200 240 292 346
#     4  10  19  33  54  85 114 144 189 242 290 346
#     4  10  20  37  61  84 119 154 192 240 300 348
#     4  10  18  30  48  82 116 144 182 240 292 342
#     4  10  21  40  57  77 118 156 193 241 284 352
#     4  10  20  32  52  83 115 150 191 233 296 348
#
# _framework density 19.846952999999999
#
# number of rings (size 3 to 8) (size 9 to 14) (size 15 to 20)
#    0.000    2.154    0.769    1.846    4.308    3.692 
#    5.538    0.769    0.000    0.923    0.000    0.000 
#    0.000    0.000    0.000    0.000    0.000    0.000 
#
# Total GULP energy -322111.985847 kJ/mol
# GULP energy per Si atom -12388.922533 kJ/mol
# Density = 1.980178 g / cm^3
# Si number density = 19.846953 Si / 1000 Ang^3
#
#
#
# Elastic Constant Matrix: (Units=GPa)
#
#
# Indices 1 2 3 4 5 6 
#
# 1 100.3638 28.4891 27.3145 0.0000 -21.4007 0.0000
# 2 28.4891 115.3982 56.5059 0.0000 -11.3944 0.0000
# 3 27.3145 56.5059 101.5508 0.0000 -23.5696 0.0000
# 4 0.0000 0.0000 0.0000 25.0494 0.0000 -6.5321
# 5 -21.4007 -11.3944 -23.5696 0.0000 31.1443 0.0000
# 6 0.0000 0.0000 0.0000 -6.5321 0.0000 15.7467
#
#
#
# Elastic Compliance Matrix: (Units=1/GPa)
#
#
# Indices 1 2 3 4 5 6 
#
# 1 0.012234 -0.002087 -0.000431 0.000000 0.007316 0.000000
# 2 -0.002087 0.012283 -0.006749 0.000000 -0.002047 0.000000
# 3 -0.000431 -0.006749 0.015863 0.000000 0.009239 0.000000
# 4 0.000000 0.000000 0.000000 0.044763 0.000000 0.018569
# 5 0.007316 -0.002047 0.009239 0.000000 0.043379 0.000000
# 6 0.000000 0.000000 0.000000 0.018569 0.000000 0.071208
#
#
# Mechanical properties :
#
#
# Convention : Reuss Voigt Hill
#
# Bulk Modulus (GPa) = 45.77392 60.21465 52.99428
# Shear Modulus (GPa) = 22.16849 28.05495 25.11172
#
# Velocity S-wave (km/s) = 3.34574 3.76382 3.56092
# Velocity P-wave (km/s) = 6.16756 7.02095 6.60805
#
# Compressibility (1/GPa) = 0.02184650
#
# Stress axis : x y z
#
# Youngs Moduli (GPa) = 81.74263 81.41224 63.04020
#
# Poissons Ratio (x) = 0.16987 0.02720
# Poissons Ratio (y) = 0.17056 0.42544
# Poissons Ratio (z) = 0.03526 0.54942
#
# Static dielectric constant tensor:
#      x y z
#    x 3.812670 0.000000 -0.283980 
#    y 0.000000 3.556490 0.000000 
#    z -0.283980 0.000000 3.574390 
# 
# 
# High freq. dielectric constant tensor:
#      x y z
#    x 1.785490 0.000000 -0.019610 
#    y 0.000000 1.759380 0.000000 
#    z -0.019610 0.000000 1.755680 
# 
# From -- ./inp_files/73515.got.cif
#   From: 2010.06.25/outbox.cif.g09.slc.cpg/sg13_37_cif.got.tgz:73515.got - 2010.06.28 04:50:58.
