data_PCOD8117594
_publ_section_title
;
Structure prediction by ZEFSAII (Michael W. Deem and Ramdas Pophale) SiO2 
 PCOD8117594
Probable space group: P 2/C
;
_chemical_formula_sum "Si O2"
_cell_formula_units_Z 22
_cell_length_a 15.204351
_cell_length_b 7.212563
_cell_length_c 12.732532
_cell_angle_alpha 90.000000
_cell_angle_beta 42.779777
_cell_angle_gamma 90.000000
_cell_volume 948.328131
_symmetry_space_group_name_H-M "P 2/C"
_symmetry_group_IT_number 13
_symmetry_cell_setting 'monoclinic'
loop_
_space_group_symop_operation_xyz
x,y,z
-x,y,1/2-z
-x,-y,-z
x,-y,1/2+z
loop_
_atom_site_type_symbol
_atom_site_label
_atom_site_fract_x
_atom_site_fract_y
_atom_site_fract_z
Si Si1 0.000000 0.677080 0.750000
Si Si2 0.546755 0.667972 0.031728
Si Si3 0.285567 0.789866 0.202901
Si Si4 0.372329 0.354198 0.406369
Si Si5 0.158923 0.536449 0.940000
Si Si6 0.820508 0.174009 0.238150
O O1 0.892389 0.807627 0.788345
O O2 0.057972 0.540621 0.612017
O O3 0.670479 0.769365 0.876445
O O4 0.500000 0.500000 0.000000
O O5 0.423522 0.809464 0.145183
O O6 0.589641 0.569334 0.101943
O O7 0.207431 0.621082 0.319578
O O8 0.188318 0.964222 0.296382
O O9 0.313124 0.756248 0.055815
O O10 0.500000 0.249689 0.250000
O O11 0.273015 0.358837 0.399075
O O12 0.898923 0.302587 0.085592
#
# Coordination Sequence:
#
# PCOD8117594 Si02
#       6
#     2   4   4   4   4   4
#     4  12  28  46  72  98 142 194 246 284 346 418
#     4  10  18  41  71 101 136 173 223 286 352 417
#     4  11  24  42  73 105 141 179 227 295 355 411
#     4  11  20  40  75 107 143 179 228 286 354 421
#     4  12  23  47  71  98 139 187 236 291 341 416
#     4  12  25  46  72 103 138 186 235 285 355 416
#
# _framework density 23.198719000000001
#
# number of rings (size 3 to 8) (size 9 to 14) (size 15 to 20)
#    0.000    0.727    7.273    2.182    0.000    2.182 
#    0.000    5.455    4.000    0.000    0.000    0.000 
#    0.000    0.000    0.000    0.000    0.000    0.000 
#
# Total GULP energy -272659.062318 kJ/mol
# GULP energy per Si atom -12393.593742 kJ/mol
# Density = 2.314592 g / cm^3
# Si number density = 23.198719 Si / 1000 Ang^3
#
#
#
# Elastic Constant Matrix: (Units=GPa)
#
#
# Indices 1 2 3 4 5 6 
#
# 1 117.6319 26.6111 8.4344 0.0000 -9.6519 0.0000
# 2 26.6111 82.7922 17.5095 0.0000 -1.5076 0.0000
# 3 8.4344 17.5095 101.7755 0.0000 12.1828 0.0000
# 4 0.0000 0.0000 0.0000 -30.2387 0.0000 -54.7095
# 5 -9.6519 -1.5076 12.1828 0.0000 36.6232 0.0000
# 6 0.0000 0.0000 0.0000 -54.7095 0.0000 -47.2440
#
#
#
# Elastic Compliance Matrix: (Units=1/GPa)
#
#
# Indices 1 2 3 4 5 6 
#
# 1 0.009398 -0.002848 -0.000595 0.000000 0.002557 0.000000
# 2 -0.002848 0.013456 -0.002141 0.000000 0.000515 0.000000
# 3 -0.000595 -0.002141 0.010698 0.000000 -0.003804 0.000000
# 4 0.000000 0.000000 0.000000 0.030197 0.000000 -0.034969
# 5 0.002557 0.000515 -0.003804 0.000000 0.029266 0.000000
# 6 0.000000 0.000000 0.000000 -0.034969 0.000000 0.019328
#
#
# Mechanical properties :
#
#
# Convention : Reuss Voigt Hill
#
# Bulk Modulus (GPa) = 44.67339 45.25663 44.96501
# Shear Modulus (GPa) = 38.17611 8.47107 23.32359
#
# Velocity S-wave (km/s) = 4.06102 1.91297 3.17422
# Velocity P-wave (km/s) = 6.42556 4.94266 5.73226
#
# Compressibility (1/GPa) = 0.02238469
#
# Stress axis : x y z
#
# Youngs Moduli (GPa) = 106.40613 74.31605 93.47153
#
# Poissons Ratio (x) = 0.21167 0.05561
# Poissons Ratio (y) = 0.30308 0.20009
# Poissons Ratio (z) = 0.06331 0.15908
#
# Static dielectric constant tensor:
#      x y z
#    x 4.654850 0.000000 -0.092880 
#    y 0.000000 4.186630 0.000000 
#    z -0.092880 0.000000 4.296260 
# 
# 
# High freq. dielectric constant tensor:
#      x y z
#    x 1.934190 0.000000 -0.002090 
#    y 0.000000 1.886880 0.000000 
#    z -0.002090 0.000000 1.919130 
# 
# From -- ./inp_files/55019.got.cif
#   From: 2010.06.25/outbox.cif.g09.slc.cpg/sg13_28_cif.got.tgz:55019.got - 2010.06.28 04:50:58.
