data_PCOD8117770
_publ_section_title
;
Structure prediction by ZEFSAII (Michael W. Deem and Ramdas Pophale) SiO2 
 PCOD8117770
Probable space group: P 2/C
;
_chemical_formula_sum "Si O2"
_cell_formula_units_Z 24
_cell_length_a 20.138054
_cell_length_b 8.841901
_cell_length_c 8.781231
_cell_angle_alpha 90.000000
_cell_angle_beta 129.826333
_cell_angle_gamma 90.000000
_cell_volume 1200.808329
_symmetry_space_group_name_H-M "P 2/C"
_symmetry_group_IT_number 13
_symmetry_cell_setting 'monoclinic'
loop_
_space_group_symop_operation_xyz
x,y,z
-x,y,1/2-z
-x,-y,-z
x,-y,1/2+z
loop_
_atom_site_type_symbol
_atom_site_label
_atom_site_fract_x
_atom_site_fract_y
_atom_site_fract_z
Si Si1 0.203165 0.306254 0.170317
Si Si2 0.180186 0.859226 0.087151
Si Si3 0.908665 0.080686 0.343474
Si Si4 0.238682 0.612426 0.379014
Si Si5 0.594560 0.807855 0.852830
Si Si6 0.333767 0.949584 0.825028
O O1 0.109816 0.231390 0.080146
O O2 0.229596 0.436837 0.327837
O O3 0.276384 0.183294 0.313520
O O4 0.198401 0.355683 0.986624
O O5 0.187830 0.690511 0.163815
O O6 0.160691 0.954896 0.210920
O O7 0.269061 0.928535 0.147977
O O8 0.104018 0.872442 0.851499
O O9 0.000000 0.000000 0.500000
O O10 0.337270 0.672595 0.518464
O O11 0.500000 0.740805 0.750000
O O12 0.599358 0.867348 0.688295
O O13 0.610474 0.958975 0.972474
#
# Coordination Sequence:
#
# PCOD8117770 Si02
#       6
#     4   4   4   4   4   4
#     4  10  20  37  56  82 111 150 197 235 282 354
#     4  10  19  35  57  81 111 150 189 230 279 348
#     4  11  21  35  58  87 113 141 183 236 286 334
#     4  10  21  37  59  82 115 159 197 232 287 354
#     4  10  19  33  53  83 115 148 195 249 288 328
#     4   9  18  33  54  77 107 150 194 232 284 340
#
# _framework density 19.986536000000001
#
# number of rings (size 3 to 8) (size 9 to 14) (size 15 to 20)
#    0.000    2.000    0.000    7.000    0.000    1.333 
#    0.000    5.000    0.000    4.000    0.000    0.000 
#    0.000    0.000    0.000    0.000    0.000    0.000 
#
# Total GULP energy -297336.842306 kJ/mol
# GULP energy per Si atom -12389.035096 kJ/mol
# Density = 1.994105 g / cm^3
# Si number density = 19.986536 Si / 1000 Ang^3
#
#
#
# Elastic Constant Matrix: (Units=GPa)
#
#
# Indices 1 2 3 4 5 6 
#
# 1 103.4080 50.7898 43.8238 0.0000 1.9794 0.0000
# 2 50.7898 116.0721 42.0727 0.0000 1.1179 0.0000
# 3 43.8238 42.0727 97.4868 0.0000 -5.9908 0.0000
# 4 0.0000 0.0000 0.0000 31.6442 0.0000 -2.9495
# 5 1.9794 1.1179 -5.9908 0.0000 24.4318 0.0000
# 6 0.0000 0.0000 0.0000 -2.9495 0.0000 23.5299
#
#
#
# Elastic Compliance Matrix: (Units=1/GPa)
#
#
# Indices 1 2 3 4 5 6 
#
# 1 0.013731 -0.004395 -0.004398 0.000000 -0.001990 0.000000
# 2 -0.004395 0.011679 -0.003123 0.000000 -0.000944 0.000000
# 3 -0.004398 -0.003123 0.013822 0.000000 0.003888 0.000000
# 4 0.000000 0.000000 0.000000 0.031975 0.000000 0.004008
# 5 -0.001990 -0.000944 0.003888 0.000000 0.042088 0.000000
# 6 0.000000 0.000000 0.000000 0.004008 0.000000 0.043002
#
#
# Mechanical properties :
#
#
# Convention : Reuss Voigt Hill
#
# Bulk Modulus (GPa) = 64.93416 65.59329 65.26373
# Shear Modulus (GPa) = 26.98878 27.93989 27.46434
#
# Velocity S-wave (km/s) = 3.67870 3.74295 3.71096
# Velocity P-wave (km/s) = 7.11359 7.18120 7.14748
#
# Compressibility (1/GPa) = 0.01540021
#
# Stress axis : x y z
#
# Youngs Moduli (GPa) = 72.82768 85.62020 72.35044
#
# Poissons Ratio (x) = 0.37630 0.31821
# Poissons Ratio (y) = 0.32007 0.22594
# Poissons Ratio (z) = 0.32031 0.26738
#
# Static dielectric constant tensor:
#      x y z
#    x 3.879910 0.000000 -0.146260 
#    y 0.000000 3.617370 0.000000 
#    z -0.146260 0.000000 3.313720 
# 
# 
# High freq. dielectric constant tensor:
#      x y z
#    x 1.780350 0.000000 -0.019350 
#    y 0.000000 1.774960 0.000000 
#    z -0.019350 0.000000 1.762740 
# 
# From -- ./inp_files/18184.got.cif
#   From: 2010.06.25/outbox.cif.g09.slc.cpg/sg13_10_cif.got.tgz:18184.got - 2010.06.28 04:50:58.
