data_PCOD8117513
_publ_section_title
;
Structure prediction by ZEFSAII (Michael W. Deem and Ramdas Pophale) SiO2 
 PCOD8117513
Probable space group: P 2/C
;
_chemical_formula_sum "Si O2"
_cell_formula_units_Z 24
_cell_length_a 13.885715
_cell_length_b 14.358118
_cell_length_c 9.351448
_cell_angle_alpha 90.000000
_cell_angle_beta 141.103018
_cell_angle_gamma 90.000000
_cell_volume 1170.712814
_symmetry_space_group_name_H-M "P 2/C"
_symmetry_group_IT_number 13
_symmetry_cell_setting 'monoclinic'
loop_
_space_group_symop_operation_xyz
x,y,z
-x,y,1/2-z
-x,-y,-z
x,-y,1/2+z
loop_
_atom_site_type_symbol
_atom_site_label
_atom_site_fract_x
_atom_site_fract_y
_atom_site_fract_z
Si Si1 0.382325 0.707473 0.821069
Si Si2 0.238503 0.880874 0.767922
Si Si3 0.714618 0.339654 0.596681
Si Si4 0.941688 0.218139 0.025966
Si Si5 0.823276 0.956334 0.509562
Si Si6 0.391486 0.536133 0.996285
O O1 0.371141 0.807212 0.885105
O O2 0.288680 0.705745 0.564333
O O3 0.561301 0.687689 0.004354
O O4 0.307613 0.629043 0.840426
O O5 0.270556 0.935183 0.953261
O O6 0.079639 0.823304 0.590319
O O7 0.245541 0.954938 0.648075
O O8 0.863479 0.303734 0.853289
O O9 0.725046 0.452649 0.594613
O O10 0.817019 0.135238 0.901522
O O11 0.000000 0.251704 0.250000
O O12 0.000000 0.976659 0.750000
O O13 0.500000 0.566944 0.250000
O O14 0.500000 0.500000 0.000000
#
# Coordination Sequence:
#
# PCOD8117513 Si02
#       6
#     4   4   4   4   4   4
#     4  10  22  36  62  93 114 155 202 243 299 348
#     4  10  21  36  61  87 115 154 207 240 290 352
#     4  10  20  39  61  87 123 153 193 253 294 349
#     4   9  20  38  60  87 117 159 198 242 295 347
#     4   9  19  36  56  86 111 160 199 239 284 354
#     4  10  18  37  61  87 114 156 199 231 286 365
#
# _framework density 20.500330000000002
#
# number of rings (size 3 to 8) (size 9 to 14) (size 15 to 20)
#    0.000    2.667    3.333    2.000    4.667    5.333 
#    0.000    1.667    0.000    0.000    0.000    0.000 
#    0.000    0.000    0.000    0.000    0.000    0.000 
#
# Total GULP energy -297462.823560 kJ/mol
# GULP energy per Si atom -12394.284315 kJ/mol
# Density = 2.045367 g / cm^3
# Si number density = 20.500330 Si / 1000 Ang^3
#
#
#
# Elastic Constant Matrix: (Units=GPa)
#
#
# Indices 1 2 3 4 5 6 
#
# 1 71.0094 41.6705 27.9615 0.0000 -23.9762 0.0000
# 2 41.6705 129.3946 48.6965 0.0000 -15.1247 0.0000
# 3 27.9615 48.6965 85.1952 0.0000 -15.7377 0.0000
# 4 0.0000 0.0000 0.0000 38.4979 0.0000 -7.0584
# 5 -23.9762 -15.1247 -15.7377 0.0000 22.8968 0.0000
# 6 0.0000 0.0000 0.0000 -7.0584 0.0000 28.3620
#
#
#
# Elastic Compliance Matrix: (Units=1/GPa)
#
#
# Indices 1 2 3 4 5 6 
#
# 1 0.024907 -0.004977 -0.001282 0.000000 0.021912 0.000000
# 2 -0.004977 0.011027 -0.004910 0.000000 -0.001303 0.000000
# 3 -0.001282 -0.004910 0.016171 0.000000 0.006529 0.000000
# 4 0.000000 0.000000 0.000000 0.027217 0.000000 0.006773
# 5 0.021912 -0.001303 0.006529 0.000000 0.070247 0.000000
# 6 0.000000 0.000000 0.000000 0.006773 0.000000 0.036944
#
#
# Mechanical properties :
#
#
# Convention : Reuss Voigt Hill
#
# Bulk Modulus (GPa) = 33.59480 58.02848 45.81164
# Shear Modulus (GPa) = 22.85477 29.10272 25.97875
#
# Velocity S-wave (km/s) = 3.34256 3.77187 3.56369
# Velocity P-wave (km/s) = 5.59642 6.88019 6.27124
#
# Compressibility (1/GPa) = 0.02976651
#
# Stress axis : x y z
#
# Youngs Moduli (GPa) = 40.14957 90.68897 61.83926
#
# Poissons Ratio (x) = 0.45140 0.07927
# Poissons Ratio (y) = 0.19984 0.30362
# Poissons Ratio (z) = 0.05146 0.44526
#
# Static dielectric constant tensor:
#      x y z
#    x 3.593220 0.000000 -0.358110 
#    y 0.000000 4.716560 0.000000 
#    z -0.358110 0.000000 3.416380 
# 
# 
# High freq. dielectric constant tensor:
#      x y z
#    x 1.784220 0.000000 -0.034470 
#    y 0.000000 1.809460 0.000000 
#    z -0.034470 0.000000 1.774250 
# 
# From -- ./inp_files/19767.got.cif
#   From: 2010.06.25/outbox.cif.g09.slc.cpg/sg13_10_cif.got.tgz:19767.got - 2010.06.28 04:50:58.
