data_PCOD8117574
_publ_section_title
;
Structure prediction by ZEFSAII (Michael W. Deem and Ramdas Pophale) SiO2 
 PCOD8117574
Probable space group: P 2/C
;
_chemical_formula_sum "Si O2"
_cell_formula_units_Z 30
_cell_length_a 15.200601
_cell_length_b 8.461706
_cell_length_c 24.389170
_cell_angle_alpha 90.000000
_cell_angle_beta 153.157992
_cell_angle_gamma 90.000000
_cell_volume 1416.459286
_symmetry_space_group_name_H-M "P 2/C"
_symmetry_group_IT_number 13
_symmetry_cell_setting 'monoclinic'
loop_
_space_group_symop_operation_xyz
x,y,z
-x,y,1/2-z
-x,-y,-z
x,-y,1/2+z
loop_
_atom_site_type_symbol
_atom_site_label
_atom_site_fract_x
_atom_site_fract_y
_atom_site_fract_z
Si Si1 0.455645 0.629267 0.430639
Si Si2 0.169932 0.784858 0.011273
Si Si3 0.809056 0.196764 0.374452
Si Si4 0.165488 0.164656 0.383914
Si Si5 0.305280 0.555844 0.606999
Si Si6 0.633413 0.124538 0.544220
Si Si7 0.500000 0.038743 0.750000
Si Si8 0.551821 0.647193 0.646703
O O1 0.500000 0.500000 0.500000
O O2 0.646216 0.728421 0.520400
O O3 0.296615 0.751379 0.368879
O O4 0.383970 0.528250 0.338800
O O5 0.175413 0.598616 0.026265
O O6 0.383841 0.857234 0.140908
O O7 0.099103 0.818777 0.910061
O O8 0.020876 0.866182 0.972496
O O9 0.827265 0.312646 0.436716
O O10 0.651387 0.062449 0.298829
O O11 0.739952 0.294487 0.283183
O O12 0.000000 0.225729 0.250000
O O13 0.197180 0.975906 0.390690
O O14 0.500000 0.518691 0.750000
O O15 0.363936 0.628197 0.581122
O O16 0.503829 0.225195 0.430006
O O17 0.500000 0.000000 0.500000
#
# Coordination Sequence:
#
# PCOD8117574 Si02
#       8
#     4   4   4   4   4   4   2   4
#     4   9  19  37  66  86 117 168 220 256 317 390
#     4  12  25  41  69  98 130 178 220 272 332 396
#     4  11  24  41  70  98 130 171 218 277 331 399
#     4  11  24  40  58  95 135 166 214 276 322 387
#     4  10  20  42  65  93 133 166 214 275 328 381
#     4   9  20  37  60  88 126 171 218 258 320 388
#     4  12  24  46  66  96 138 168 218 272 334 396
#     4  10  18  39  67  93 123 172 217 266 335 380
#
# _framework density 21.179569000000001
#
# number of rings (size 3 to 8) (size 9 to 14) (size 15 to 20)
#    0.000    1.600    4.000    1.600    5.600    0.000 
#    0.000    4.000    2.933    0.000    0.000    0.000 
#    0.000    0.000    0.000    0.000    0.000    0.000 
#
# Total GULP energy -371774.350704 kJ/mol
# GULP energy per Si atom -12392.478357 kJ/mol
# Density = 2.113136 g / cm^3
# Si number density = 21.179569 Si / 1000 Ang^3
#
#
#
# Elastic Constant Matrix: (Units=GPa)
#
#
# Indices 1 2 3 4 5 6 
#
# 1 130.5970 44.9656 19.9447 0.0000 -6.5256 0.0000
# 2 44.9656 100.1706 15.6329 0.0000 -6.1033 0.0000
# 3 19.9447 15.6329 50.4990 0.0000 -9.2856 0.0000
# 4 0.0000 0.0000 0.0000 23.2083 0.0000 -4.8789
# 5 -6.5256 -6.1033 -9.2856 0.0000 35.2685 0.0000
# 6 0.0000 0.0000 0.0000 -4.8789 0.0000 41.4393
#
#
#
# Elastic Compliance Matrix: (Units=1/GPa)
#
#
# Indices 1 2 3 4 5 6 
#
# 1 0.009358 -0.003793 -0.002442 0.000000 0.000432 0.000000
# 2 -0.003793 0.012062 -0.002082 0.000000 0.000837 0.000000
# 3 -0.002442 -0.002082 0.022344 0.000000 0.005071 0.000000
# 4 0.000000 0.000000 0.000000 0.044182 0.000000 0.005202
# 5 0.000432 0.000837 0.005071 0.000000 0.029914 0.000000
# 6 0.000000 0.000000 0.000000 0.005202 0.000000 0.024744
#
#
# Mechanical properties :
#
#
# Convention : Reuss Voigt Hill
#
# Bulk Modulus (GPa) = 36.86119 49.15031 43.00575
# Shear Modulus (GPa) = 29.71246 33.36479 31.53863
#
# Velocity S-wave (km/s) = 3.74957 3.97335 3.86308
# Velocity P-wave (km/s) = 6.01562 6.65634 6.34407
#
# Compressibility (1/GPa) = 0.02712880
#
# Stress axis : x y z
#
# Youngs Moduli (GPa) = 106.86386 82.90797 44.75529
#
# Poissons Ratio (x) = 0.31448 0.10930
# Poissons Ratio (y) = 0.40535 0.09317
# Poissons Ratio (z) = 0.26098 0.17260
#
# Static dielectric constant tensor:
#      x y z
#    x 4.261870 0.000000 -0.186290 
#    y 0.000000 4.397020 0.000000 
#    z -0.186290 0.000000 3.490150 
# 
# 
# High freq. dielectric constant tensor:
#      x y z
#    x 1.849450 0.000000 -0.012120 
#    y 0.000000 1.845970 0.000000 
#    z -0.012120 0.000000 1.789680 
# 
# From -- ./inp_files/87331.got.cif
#   From: 2010.06.25/outbox.cif.g09.slc.cpg/sg13_44_cif.got.tgz:87331.got - 2010.06.28 04:50:58.
