data_PCOD8117458
_publ_section_title
;
Structure prediction by ZEFSAII (Michael W. Deem and Ramdas Pophale) SiO2 
 PCOD8117458
Probable space group: P 2/C
;
_chemical_formula_sum "Si O2"
_cell_formula_units_Z 24
_cell_length_a 12.139861
_cell_length_b 14.135758
_cell_length_c 14.945445
_cell_angle_alpha 90.000000
_cell_angle_beta 28.952316
_cell_angle_gamma 90.000000
_cell_volume 1241.538532
_symmetry_space_group_name_H-M "P 2/C"
_symmetry_group_IT_number 13
_symmetry_cell_setting 'monoclinic'
loop_
_space_group_symop_operation_xyz
x,y,z
-x,y,1/2-z
-x,-y,-z
x,-y,1/2+z
loop_
_atom_site_type_symbol
_atom_site_label
_atom_site_fract_x
_atom_site_fract_y
_atom_site_fract_z
Si Si1 0.264033 0.753665 0.070321
Si Si2 0.463586 0.864429 0.484522
Si Si3 0.751196 0.028989 0.209724
Si Si4 0.304577 0.573834 0.144378
Si Si5 0.561992 0.675073 0.103145
Si Si6 0.000000 0.547800 0.750000
Si Si7 0.500000 0.844304 0.750000
O O1 0.343534 0.834759 0.081843
O O2 0.357502 0.651859 0.032049
O O3 0.000000 0.753618 0.250000
O O4 0.346833 0.772611 0.913020
O O5 0.256874 0.913542 0.688918
O O6 0.377826 0.775189 0.487281
O O7 0.583027 0.939231 0.334117
O O8 0.664231 0.094081 0.192957
O O9 0.000000 0.000000 0.000000
O O10 0.335306 0.626184 0.219204
O O11 0.068955 0.519343 0.286770
O O12 0.500000 0.500000 0.000000
O O13 0.500000 0.692727 0.250000
O O14 0.786393 0.610371 0.933501
#
# Coordination Sequence:
#
# PCOD8117458 Si02
#       7
#     4   4   4   4   4   2   2
#     4  10  18  36  59  83 114 152 187 239 298 336
#     4   9  21  37  55  86 122 149 193 244 283 346
#     4  10  20  38  59  84 117 152 193 239 291 350
#     4   9  19  38  59  84 119 151 194 249 289 346
#     4  10  22  38  59  87 122 158 197 240 291 358
#     4  10  20  40  60  86 118 158 196 244 302 340
#     4  10  22  34  58  92 108 146 200 236 280 356
#
# _framework density 19.330853999999999
#
# number of rings (size 3 to 8) (size 9 to 14) (size 15 to 20)
#    0.000    2.333    0.833    1.000    1.167    2.000 
#    6.000    8.333    0.000    0.000    0.000    0.000 
#    0.000    0.000    0.000    0.000    0.000    0.000 
#
# Total GULP energy -297325.009100 kJ/mol
# GULP energy per Si atom -12388.542046 kJ/mol
# Density = 1.928686 g / cm^3
# Si number density = 19.330854 Si / 1000 Ang^3
#
#
#
# Elastic Constant Matrix: (Units=GPa)
#
#
# Indices 1 2 3 4 5 6 
#
# 1 112.1247 60.2759 67.8945 0.0000 10.7797 0.0000
# 2 60.2759 125.7616 65.0068 0.0000 8.0278 0.0000
# 3 67.8945 65.0068 122.2275 0.0000 10.4566 0.0000
# 4 0.0000 0.0000 0.0000 22.8956 0.0000 -2.9806
# 5 10.7797 8.0278 10.4566 0.0000 30.0319 0.0000
# 6 0.0000 0.0000 0.0000 -2.9806 0.0000 29.1323
#
#
#
# Elastic Compliance Matrix: (Units=1/GPa)
#
#
# Indices 1 2 3 4 5 6 
#
# 1 0.014844 -0.003874 -0.005997 0.000000 -0.002205 0.000000
# 2 -0.003874 0.012003 -0.004201 0.000000 -0.000355 0.000000
# 3 -0.005997 -0.004201 0.013880 0.000000 -0.001557 0.000000
# 4 0.000000 0.000000 0.000000 0.044266 0.000000 0.004529
# 5 -0.002205 -0.000355 -0.001557 0.000000 0.034726 0.000000
# 6 0.000000 0.000000 0.000000 0.004529 0.000000 0.034790
#
#
# Mechanical properties :
#
#
# Convention : Reuss Voigt Hill
#
# Bulk Modulus (GPa) = 79.47196 82.94091 81.20644
# Shear Modulus (GPa) = 26.75974 27.54108 27.15041
#
# Velocity S-wave (km/s) = 3.72466 3.77864 3.75175
# Velocity P-wave (km/s) = 7.72646 7.87633 7.80176
#
# Compressibility (1/GPa) = 0.01258305
#
# Stress axis : x y z
#
# Youngs Moduli (GPa) = 67.36521 83.31413 72.04593
#
# Poissons Ratio (x) = 0.32279 0.43203
# Poissons Ratio (y) = 0.26100 0.30268
# Poissons Ratio (z) = 0.40396 0.35002
#
# Static dielectric constant tensor:
#      x y z
#    x 4.055590 0.000000 -0.165920 
#    y 0.000000 3.929510 0.000000 
#    z -0.165920 0.000000 3.138980 
# 
# 
# High freq. dielectric constant tensor:
#      x y z
#    x 1.759520 0.000000 -0.000700 
#    y 0.000000 1.776020 0.000000 
#    z -0.000700 0.000000 1.727230 
# 
# From -- ./inp_files/43940.got.cif
#   From: 2010.06.25/outbox.cif.g09.slc.cpg/sg13_22_cif.got.tgz:43940.got - 2010.06.28 04:50:58.
