data_PCOD8117703
_publ_section_title
;
Structure prediction by ZEFSAII (Michael W. Deem and Ramdas Pophale) SiO2 
 PCOD8117703
Probable space group: P 2/C
;
_chemical_formula_sum "Si O2"
_cell_formula_units_Z 30
_cell_length_a 18.151469
_cell_length_b 12.526179
_cell_length_c 9.249094
_cell_angle_alpha 90.000000
_cell_angle_beta 125.505880
_cell_angle_gamma 90.000000
_cell_volume 1711.921411
_symmetry_space_group_name_H-M "P 2/C"
_symmetry_group_IT_number 13
_symmetry_cell_setting 'monoclinic'
loop_
_space_group_symop_operation_xyz
x,y,z
-x,y,1/2-z
-x,-y,-z
x,-y,1/2+z
loop_
_atom_site_type_symbol
_atom_site_label
_atom_site_fract_x
_atom_site_fract_y
_atom_site_fract_z
Si Si1 0.109382 0.904456 0.022656
Si Si2 0.298684 0.824486 0.209733
Si Si3 0.911896 0.881962 0.834297
Si Si4 0.500000 0.006655 0.250000
Si Si5 0.618371 0.947331 0.639627
Si Si6 0.389206 0.590583 0.985551
Si Si7 0.410318 0.620778 0.343468
Si Si8 0.262764 0.777224 0.839864
O O1 0.196227 0.830035 0.157981
O O2 0.119376 0.021574 0.100064
O O3 0.103132 0.922665 0.844863
O O4 0.017058 0.849203 0.978266
O O5 0.354714 0.723915 0.334121
O O6 0.350329 0.930453 0.315766
O O7 0.296676 0.813462 0.035485
O O8 0.847107 0.779692 0.793306
O O9 0.555954 0.931549 0.425597
O O10 0.435674 0.081122 0.274930
O O11 0.701714 0.866700 0.730684
O O12 0.388195 0.583528 0.156753
O O13 0.481521 0.642268 0.025658
O O14 0.377610 0.471901 0.913177
O O15 0.303186 0.662822 0.840279
#
# Coordination Sequence:
#
# PCOD8117703 Si02
#       8
#     4   4   4   2   4   4   4   4
#     4   9  17  30  48  72 100 129 160 196 238 290
#     4  10  19  32  52  71  99 131 163 198 244 294
#     4   9  17  30  48  72 100 129 160 196 238 290
#     4  10  24  30  44  62 108 134 162 196 236 292
#     4  11  20  34  43  72  98 134 165 194 239 294
#     4   9  19  35  51  68  91 126 165 204 244 283
#     4   9  19  35  51  68  91 126 165 204 244 283
#     4  10  19  32  52  71  99 131 163 198 244 294
#
# _framework density 17.524168
#
# number of rings (size 3 to 8) (size 9 to 14) (size 15 to 20)
#    0.000    2.400    2.667    0.000    3.733    0.000 
#    2.400    0.000    0.000    0.800    0.000    0.000 
#    0.000    0.000    0.000    0.000    0.000    0.000 
#
# Total GULP energy -371778.530976 kJ/mol
# GULP energy per Si atom -12392.617699 kJ/mol
# Density = 1.748428 g / cm^3
# Si number density = 17.524168 Si / 1000 Ang^3
#
#
#
# Elastic Constant Matrix: (Units=GPa)
#
#
# Indices 1 2 3 4 5 6 
#
# 1 122.7645 54.1138 32.5084 0.0000 18.7189 0.0000
# 2 54.1138 87.9483 20.4192 0.0000 14.7340 0.0000
# 3 32.5084 20.4192 39.4643 0.0000 8.7425 0.0000
# 4 0.0000 0.0000 0.0000 20.9177 0.0000 1.9846
# 5 18.7189 14.7340 8.7425 0.0000 28.5423 0.0000
# 6 0.0000 0.0000 0.0000 1.9846 0.0000 29.0609
#
#
#
# Elastic Compliance Matrix: (Units=1/GPa)
#
#
# Indices 1 2 3 4 5 6 
#
# 1 0.013108 -0.005865 -0.007004 0.000000 -0.003423 0.000000
# 2 -0.005865 0.016237 -0.002751 0.000000 -0.003692 0.000000
# 3 -0.007004 -0.002751 0.033472 0.000000 -0.004238 0.000000
# 4 0.000000 0.000000 0.000000 0.048118 0.000000 -0.003286
# 5 -0.003423 -0.003692 -0.004238 0.000000 0.040485 0.000000
# 6 0.000000 0.000000 0.000000 -0.003286 0.000000 0.034635
#
#
# Mechanical properties :
#
#
# Convention : Reuss Voigt Hill
#
# Bulk Modulus (GPa) = 31.67192 51.58445 41.62819
# Shear Modulus (GPa) = 21.94704 25.24655 23.59679
#
# Velocity S-wave (km/s) = 3.54275 3.79973 3.67349
# Velocity P-wave (km/s) = 5.90316 6.98217 6.46521
#
# Compressibility (1/GPa) = 0.03157371
#
# Stress axis : x y z
#
# Youngs Moduli (GPa) = 76.29008 61.58911 29.87605
#
# Poissons Ratio (x) = 0.36125 0.20926
# Poissons Ratio (y) = 0.44748 0.08220
# Poissons Ratio (z) = 0.53436 0.16946
#
# Static dielectric constant tensor:
#      x y z
#    x 3.665440 0.000000 0.136720 
#    y 0.000000 2.957940 0.000000 
#    z 0.136720 0.000000 3.224970 
# 
# 
# High freq. dielectric constant tensor:
#      x y z
#    x 1.692910 0.000000 0.001720 
#    y 0.000000 1.636130 0.000000 
#    z 0.001720 0.000000 1.664170 
# 
# From -- ./inp_files/21728.got.cif
#   From: 2010.06.25/outbox.cif.g09.slc.cpg/sg13_11_cif.got.tgz:21728.got - 2010.06.28 04:50:58.
