data_PCOD8117444
_publ_section_title
;
Structure prediction by ZEFSAII (Michael W. Deem and Ramdas Pophale) SiO2 
 PCOD8117444
Probable space group: P 2/C
;
_chemical_formula_sum "Si O2"
_cell_formula_units_Z 20
_cell_length_a 7.315776
_cell_length_b 10.413178
_cell_length_c 17.779258
_cell_angle_alpha 90.000000
_cell_angle_beta 48.627966
_cell_angle_gamma 90.000000
_cell_volume 1016.411782
_symmetry_space_group_name_H-M "P 2/C"
_symmetry_group_IT_number 13
_symmetry_cell_setting 'monoclinic'
loop_
_space_group_symop_operation_xyz
x,y,z
-x,y,1/2-z
-x,-y,-z
x,-y,1/2+z
loop_
_atom_site_type_symbol
_atom_site_label
_atom_site_fract_x
_atom_site_fract_y
_atom_site_fract_z
Si Si1 0.998024 0.813579 0.470752
Si Si2 0.753517 0.643978 0.986048
Si Si3 0.223171 0.962724 0.837626
Si Si4 0.159653 0.291267 0.276695
Si Si5 0.424045 0.633782 0.934735
O O1 0.837410 0.697886 0.482831
O O2 0.230881 0.755539 0.454259
O O3 0.084697 0.899985 0.376243
O O4 0.817424 0.899796 0.569928
O O5 0.588974 0.684040 0.959361
O O6 0.038517 0.630615 0.880071
O O7 0.632102 0.517104 0.052627
O O8 0.500000 0.996722 0.750000
O O9 0.135016 0.861990 0.798233
O O10 0.439947 0.330336 0.181515
O O11 0.000000 0.332383 0.250000
#
# Coordination Sequence:
#
# PCOD8117444 Si02
#       5
#     4   4   4   4   4
#     4  10  20  35  55  79 106 138 180 219 265 309
#     4   9  20  34  55  85 105 137 179 218 263 322
#     4  10  19  36  53  76 106 140 181 219 258 317
#     4   9  18  35  56  77 103 143 182 212 267 322
#     4  10  18  36  58  77 110 142 172 219 267 315
#
# _framework density 19.677064000000001
#
# number of rings (size 3 to 8) (size 9 to 14) (size 15 to 20)
#    0.000    2.400    2.000    0.600    0.000    0.000 
#    7.200    4.000    0.000    0.000    0.000    0.000 
#    0.000    0.000    0.000    0.000    0.000    0.000 
#
# Total GULP energy -247763.662334 kJ/mol
# GULP energy per Si atom -12388.183117 kJ/mol
# Density = 1.963228 g / cm^3
# Si number density = 19.677064 Si / 1000 Ang^3
#
#
#
# Elastic Constant Matrix: (Units=GPa)
#
#
# Indices 1 2 3 4 5 6 
#
# 1 37.5987 21.3154 22.7527 0.0000 -10.4683 0.0000
# 2 21.3154 83.1158 49.5056 0.0000 1.6091 0.0000
# 3 22.7527 49.5056 83.0124 0.0000 -7.4684 0.0000
# 4 0.0000 0.0000 0.0000 34.6899 0.0000 0.7481
# 5 -10.4683 1.6091 -7.4684 0.0000 20.8672 0.0000
# 6 0.0000 0.0000 0.0000 0.7481 0.0000 30.0442
#
#
#
# Elastic Compliance Matrix: (Units=1/GPa)
#
#
# Indices 1 2 3 4 5 6 
#
# 1 0.038742 -0.007689 -0.004372 0.000000 0.018463 0.000000
# 2 -0.007689 0.020841 -0.011173 0.000000 -0.009463 0.000000
# 3 -0.004372 -0.011173 0.020446 0.000000 0.005986 0.000000
# 4 0.000000 0.000000 0.000000 0.028842 0.000000 -0.000718
# 5 0.018463 -0.009463 0.005986 0.000000 0.060056 0.000000
# 6 0.000000 0.000000 0.000000 -0.000718 0.000000 0.033302
#
#
# Mechanical properties :
#
#
# Convention : Reuss Voigt Hill
#
# Bulk Modulus (GPa) = 29.79586 43.43047 36.61317
# Shear Modulus (GPa) = 19.23920 24.46382 21.85151
#
# Velocity S-wave (km/s) = 3.13029 3.52982 3.33604
# Velocity P-wave (km/s) = 5.31415 6.22354 5.78674
#
# Compressibility (1/GPa) = 0.03356171
#
# Stress axis : x y z
#
# Youngs Moduli (GPa) = 25.81179 47.98163 48.90814
#
# Poissons Ratio (x) = 0.36892 0.21384
# Poissons Ratio (y) = 0.19846 0.54645
# Poissons Ratio (z) = 0.11286 0.53610
#
# Static dielectric constant tensor:
#      x y z
#    x 3.478980 0.000000 -0.081480 
#    y 0.000000 3.565410 0.000000 
#    z -0.081480 0.000000 3.833490 
# 
# 
# High freq. dielectric constant tensor:
#      x y z
#    x 1.751510 0.000000 -0.009290 
#    y 0.000000 1.753410 0.000000 
#    z -0.009290 0.000000 1.765520 
# 
# From -- ./inp_files/28202.got.cif
#   From: 2010.06.25/outbox.cif.g09.slc.cpg/sg13_15_cif.got.tgz:28202.got - 2010.06.28 04:50:58.
