data_PCOD8117730
_publ_section_title
;
Structure prediction by ZEFSAII (Michael W. Deem and Ramdas Pophale) SiO2 
 PCOD8117730
Probable space group: P 2/C
;
_chemical_formula_sum "Si O2"
_cell_formula_units_Z 20
_cell_length_a 24.960201
_cell_length_b 7.004900
_cell_length_c 5.270907
_cell_angle_alpha 90.000000
_cell_angle_beta 101.865915
_cell_angle_gamma 90.000000
_cell_volume 901.892041
_symmetry_space_group_name_H-M "P 2/C"
_symmetry_group_IT_number 13
_symmetry_cell_setting 'monoclinic'
loop_
_space_group_symop_operation_xyz
x,y,z
-x,y,1/2-z
-x,-y,-z
x,-y,1/2+z
loop_
_atom_site_type_symbol
_atom_site_label
_atom_site_fract_x
_atom_site_fract_y
_atom_site_fract_z
Si Si1 0.333709 0.206229 0.612767
Si Si2 0.118493 0.127586 0.352729
Si Si3 0.222648 0.378888 0.442911
Si Si4 0.500000 0.124744 0.250000
Si Si5 0.000000 0.123902 0.250000
Si Si6 0.619938 0.223820 0.341579
O O1 0.267895 0.211021 0.520903
O O2 0.360716 0.320395 0.402208
O O3 0.358773 0.995168 0.660556
O O4 0.351175 0.319048 0.886204
O O5 0.162638 0.292954 0.412929
O O6 0.058467 0.234598 0.304852
O O7 0.125894 0.986009 0.597390
O O8 0.230432 0.534294 0.670984
O O9 0.554754 0.250618 0.304212
O O10 0.500000 0.000000 0.500000
O O11 0.000000 0.000000 0.500000
#
# Coordination Sequence:
#
# PCOD8117730 Si02
#       6
#     4   4   4   2   2   4
#     4  10  20  33  52  75 113 144 188 225 282 342
#     4  10  21  38  65  90 115 157 199 248 288 348
#     4  12  26  41  56  85 125 161 197 242 296 347
#     4  12  16  30  48  88 124 128 164 260 310 318
#     4   8  16  34  58  90 118 142 194 246 298 336
#     4  10  19  32  55  88 105 142 187 241 284 347
#
# _framework density 22.175602999999999
#
# number of rings (size 3 to 8) (size 9 to 14) (size 15 to 20)
#    0.000    1.600    4.000    2.400    5.600    0.000 
#    0.000    1.000    0.000    0.000    0.000   23.800 
#    0.000    0.000    0.000    0.000    0.000    0.000 
#
# Total GULP energy -247765.919583 kJ/mol
# GULP energy per Si atom -12388.295979 kJ/mol
# Density = 2.212513 g / cm^3
# Si number density = 22.175603 Si / 1000 Ang^3
#
#
#
# Elastic Constant Matrix: (Units=GPa)
#
#
# Indices 1 2 3 4 5 6 
#
# 1 152.4644 10.1958 29.1452 0.0000 25.8749 0.0000
# 2 10.1958 27.4082 -10.7870 0.0000 10.8559 0.0000
# 3 29.1452 -10.7870 167.0504 0.0000 -19.6619 0.0000
# 4 0.0000 0.0000 0.0000 10.0662 0.0000 3.0790
# 5 25.8749 10.8559 -19.6619 0.0000 53.7527 0.0000
# 6 0.0000 0.0000 0.0000 3.0790 0.0000 9.1416
#
#
#
# Elastic Compliance Matrix: (Units=1/GPa)
#
#
# Indices 1 2 3 4 5 6 
#
# 1 0.007756 -0.002059 -0.001961 0.000000 -0.004035 0.000000
# 2 -0.002059 0.040667 0.002231 0.000000 -0.006406 0.000000
# 3 -0.001961 0.002231 0.006824 0.000000 0.002990 0.000000
# 4 0.000000 0.000000 0.000000 0.110752 0.000000 -0.037302
# 5 -0.004035 -0.006406 0.002990 0.000000 0.022933 0.000000
# 6 0.000000 0.000000 0.000000 -0.037302 0.000000 0.121953
#
#
# Mechanical properties :
#
#
# Convention : Reuss Voigt Hill
#
# Bulk Modulus (GPa) = 19.35368 44.89233 32.12301
# Shear Modulus (GPa) = 15.07447 35.81671 25.44559
#
# Velocity S-wave (km/s) = 2.61008 4.02324 3.39109
# Velocity P-wave (km/s) = 4.22253 6.47070 5.46350
#
# Compressibility (1/GPa) = 0.05166975
#
# Stress axis : x y z
#
# Youngs Moduli (GPa) = 128.92741 24.59013 146.53441
#
# Poissons Ratio (x) = 0.05063 0.28737
# Poissons Ratio (y) = 0.26545 -0.32695
# Poissons Ratio (z) = 0.25284 -0.05487
#
# Static dielectric constant tensor:
#      x y z
#    x 4.777440 0.000000 -0.271430 
#    y 0.000000 3.227680 0.000000 
#    z -0.271430 0.000000 5.697570 
# 
# 
# High freq. dielectric constant tensor:
#      x y z
#    x 1.898180 0.000000 -0.005130 
#    y 0.000000 1.806300 0.000000 
#    z -0.005130 0.000000 1.917670 
# 
# From -- ./inp_files/7306.got.cif
#   From: 2010.06.25/outbox.cif.g09.slc.cpg/sg13_4_cif.got.tgz:7306.got - 2010.06.28 04:50:58.
