data_PCOD8117788
_publ_section_title
;
Structure prediction by ZEFSAII (Michael W. Deem and Ramdas Pophale) SiO2 
 PCOD8117788
Probable space group: P 2/C
;
_chemical_formula_sum "Si O2"
_cell_formula_units_Z 30
_cell_length_a 12.387216
_cell_length_b 8.244245
_cell_length_c 15.383807
_cell_angle_alpha 90.000000
_cell_angle_beta 70.814456
_cell_angle_gamma 90.000000
_cell_volume 1483.787394
_symmetry_space_group_name_H-M "P 2/C"
_symmetry_group_IT_number 13
_symmetry_cell_setting 'monoclinic'
loop_
_space_group_symop_operation_xyz
x,y,z
-x,y,1/2-z
-x,-y,-z
x,-y,1/2+z
loop_
_atom_site_type_symbol
_atom_site_label
_atom_site_fract_x
_atom_site_fract_y
_atom_site_fract_z
Si Si1 0.731406 0.841125 0.538984
Si Si2 0.431391 0.565249 0.936486
Si Si3 0.199747 0.136009 0.081267
Si Si4 0.625174 0.946301 0.204810
Si Si5 0.359315 0.755455 0.678824
Si Si6 0.835243 0.635197 0.655676
Si Si7 0.000000 0.241962 0.250000
Si Si8 0.749456 0.333271 0.594650
O O1 0.668325 0.690608 0.508840
O O2 0.825135 0.775760 0.584405
O O3 0.790541 0.947913 0.448745
O O4 0.636658 0.952649 0.611998
O O5 0.518231 0.666228 0.851935
O O6 0.369648 0.418609 0.902718
O O7 0.500000 0.500000 0.000000
O O8 0.313822 0.213881 0.093414
O O9 0.097907 0.134870 0.178853
O O10 0.180505 0.247691 0.001833
O O11 0.500000 0.870302 0.250000
O O12 0.716352 0.799750 0.176685
O O13 0.644284 0.065367 0.280038
O O14 0.277411 0.637549 0.754836
O O15 0.946855 0.651628 0.686136
O O16 0.839880 0.458991 0.610455
#
# Coordination Sequence:
#
# PCOD8117788 Si02
#       8
#     4   4   4   4   4   4   2   4
#     4   9  20  36  58  86 124 152 196 241 287 355
#     4  11  20  34  57  90 128 164 188 234 294 355
#     4  10  21  40  59  85 114 157 205 250 299 352
#     4  10  19  33  54  83 121 165 193 228 277 350
#     4  10  20  36  55  84 126 160 198 231 286 355
#     4   9  21  39  60  87 114 155 196 252 299 350
#     4  10  22  42  68  80 112 158 200 264 320 344
#     4  10  22  35  57  89 121 155 199 239 296 363
#
# _framework density 20.218530000000001
#
# number of rings (size 3 to 8) (size 9 to 14) (size 15 to 20)
#    0.000    2.133    2.667    0.000    1.867    2.667 
#    0.000    0.000    0.000   16.000    0.000    0.000 
#    0.000    0.000    0.000    0.000    0.000    0.000 
#
# Total GULP energy -371852.855127 kJ/mol
# GULP energy per Si atom -12395.095171 kJ/mol
# Density = 2.017251 g / cm^3
# Si number density = 20.218530 Si / 1000 Ang^3
#
#
#
# Elastic Constant Matrix: (Units=GPa)
#
#
# Indices 1 2 3 4 5 6 
#
# 1 81.6935 23.2003 26.8012 0.0000 7.5737 0.0000
# 2 23.2003 104.6816 42.8674 0.0000 0.6769 0.0000
# 3 26.8012 42.8674 84.2911 0.0000 -0.2882 0.0000
# 4 0.0000 0.0000 0.0000 28.8942 0.0000 3.4193
# 5 7.5737 0.6769 -0.2882 0.0000 28.6107 0.0000
# 6 0.0000 0.0000 0.0000 3.4193 0.0000 12.2133
#
#
#
# Elastic Compliance Matrix: (Units=1/GPa)
#
#
# Indices 1 2 3 4 5 6 
#
# 1 0.014273 -0.001611 -0.003732 0.000000 -0.003778 0.000000
# 2 -0.001611 0.012251 -0.005718 0.000000 0.000079 0.000000
# 3 -0.003732 -0.005718 0.015963 0.000000 0.001284 0.000000
# 4 0.000000 0.000000 0.000000 0.035795 0.000000 -0.010021
# 5 -0.003778 0.000079 0.001284 0.000000 0.035963 0.000000
# 6 0.000000 0.000000 0.000000 -0.010021 0.000000 0.084684
#
#
# Mechanical properties :
#
#
# Convention : Reuss Voigt Hill
#
# Bulk Modulus (GPa) = 49.10345 50.71157 49.90751
# Shear Modulus (GPa) = 21.94549 25.79678 23.87114
#
# Velocity S-wave (km/s) = 3.29814 3.57585 3.43980
# Velocity P-wave (km/s) = 6.23239 6.49500 6.36505
#
# Compressibility (1/GPa) = 0.02036517
#
# Stress axis : x y z
#
# Youngs Moduli (GPa) = 70.06300 81.62798 62.64650
#
# Poissons Ratio (x) = 0.13147 0.23380
# Poissons Ratio (y) = 0.11284 0.35821
# Poissons Ratio (z) = 0.26148 0.46674
#
# Static dielectric constant tensor:
#      x y z
#    x 3.591690 0.000000 0.075890 
#    y 0.000000 3.727430 0.000000 
#    z 0.075890 0.000000 3.625270 
# 
# 
# High freq. dielectric constant tensor:
#      x y z
#    x 1.768520 0.000000 0.005900 
#    y 0.000000 1.789120 0.000000 
#    z 0.005900 0.000000 1.784900 
# 
# From -- ./inp_files/50297.got.cif
#   From: 2010.06.25/outbox.cif.g09.slc.cpg/sg13_26_cif.got.tgz:50297.got - 2010.06.28 04:50:58.
