data_PCOD8117764
_publ_section_title
;
Structure prediction by ZEFSAII (Michael W. Deem and Ramdas Pophale) SiO2 
 PCOD8117764
Probable space group: P 2/C
;
_chemical_formula_sum "Si O2"
_cell_formula_units_Z 28
_cell_length_a 19.066827
_cell_length_b 13.979310
_cell_length_c 10.132278
_cell_angle_alpha 90.000000
_cell_angle_beta 145.466138
_cell_angle_gamma 90.000000
_cell_volume 1530.990536
_symmetry_space_group_name_H-M "P 2/C"
_symmetry_group_IT_number 13
_symmetry_cell_setting 'monoclinic'
loop_
_space_group_symop_operation_xyz
x,y,z
-x,y,1/2-z
-x,-y,-z
x,-y,1/2+z
loop_
_atom_site_type_symbol
_atom_site_label
_atom_site_fract_x
_atom_site_fract_y
_atom_site_fract_z
Si Si1 0.356727 0.584241 0.673544
Si Si2 0.127399 0.086198 0.497245
Si Si3 0.350124 0.433744 0.871188
Si Si4 0.211908 0.963607 0.397503
Si Si5 0.637476 0.858322 0.468666
Si Si6 0.373389 0.797791 0.757004
Si Si7 0.656465 0.228972 0.732694
O O1 0.297603 0.518966 0.697602
O O2 0.307287 0.547526 0.455137
O O3 0.318779 0.694793 0.631246
O O4 0.503005 0.573178 0.909190
O O5 0.112463 0.064897 0.630394
O O6 0.245748 0.153159 0.667935
O O7 0.000000 0.135528 0.250000
O O8 0.147305 0.991226 0.436289
O O9 0.296940 0.332954 0.738339
O O10 0.311550 0.879138 0.571447
O O11 0.275067 0.055360 0.431827
O O12 0.500000 0.901043 0.250000
O O13 0.668124 0.814371 0.657388
O O14 0.650347 0.772622 0.382320
O O15 0.521694 0.799554 0.965164
#
# Coordination Sequence:
#
# PCOD8117764 Si02
#       7
#     4   4   4   4   4   4   4
#     4   9  18  28  48  72 109 134 168 202 255 321
#     4  11  23  37  52  74 101 141 180 216 257 304
#     4   9  17  31  45  75 101 142 163 205 256 309
#     4  11  21  35  55  74 105 134 176 219 259 315
#     4   9  19  30  48  78 105 138 167 212 266 310
#     4  10  19  33  52  82 107 139 171 214 271 311
#     4   9  20  33  53  75 108 136 177 214 257 319
#
# _framework density 18.288812
#
# number of rings (size 3 to 8) (size 9 to 14) (size 15 to 20)
#    0.000    2.286    1.429    1.286    4.000    2.857 
#    0.000    0.000    0.000    0.000    0.000    5.000 
#    0.000    0.000    0.000    0.000    0.000    0.000 
#
# Total GULP energy -347066.029044 kJ/mol
# GULP energy per Si atom -12395.215323 kJ/mol
# Density = 1.824719 g / cm^3
# Si number density = 18.288812 Si / 1000 Ang^3
#
#
#
# Elastic Constant Matrix: (Units=GPa)
#
#
# Indices 1 2 3 4 5 6 
#
# 1 57.3914 29.9455 37.5185 0.0000 -24.5830 0.0000
# 2 29.9455 97.7938 40.1834 0.0000 -16.2169 0.0000
# 3 37.5185 40.1834 87.5898 0.0000 -24.9710 0.0000
# 4 0.0000 0.0000 0.0000 14.6437 0.0000 -11.2382
# 5 -24.5830 -16.2169 -24.9710 0.0000 31.2529 0.0000
# 6 0.0000 0.0000 0.0000 -11.2382 0.0000 18.5420
#
#
#
# Elastic Compliance Matrix: (Units=1/GPa)
#
#
# Indices 1 2 3 4 5 6 
#
# 1 0.031195 -0.003975 -0.006645 0.000000 0.017166 0.000000
# 2 -0.003975 0.013259 -0.004286 0.000000 0.000328 0.000000
# 3 -0.006645 -0.004286 0.018266 0.000000 0.007144 0.000000
# 4 0.000000 0.000000 0.000000 0.127675 0.000000 0.077383
# 5 0.017166 0.000328 0.007144 0.000000 0.051378 0.000000
# 6 0.000000 0.000000 0.000000 0.077383 0.000000 0.100833
#
#
# Mechanical properties :
#
#
# Convention : Reuss Voigt Hill
#
# Bulk Modulus (GPa) = 30.38855 50.89663 40.64259
# Shear Modulus (GPa) = 13.04166 21.89623 17.46894
#
# Velocity S-wave (km/s) = 2.67328 3.46388 3.09394
# Velocity P-wave (km/s) = 5.11670 6.62478 5.91897
#
# Compressibility (1/GPa) = 0.03290713
#
# Stress axis : x y z
#
# Youngs Moduli (GPa) = 32.05642 75.42317 54.74630
#
# Poissons Ratio (x) = 0.29984 0.36377
# Poissons Ratio (y) = 0.12744 0.23465
# Poissons Ratio (z) = 0.21300 0.32328
#
# Static dielectric constant tensor:
#      x y z
#    x 3.404080 0.000000 -0.434910 
#    y 0.000000 3.378140 0.000000 
#    z -0.434910 0.000000 3.321960 
# 
# 
# High freq. dielectric constant tensor:
#      x y z
#    x 1.696150 0.000000 -0.041960 
#    y 0.000000 1.699130 0.000000 
#    z -0.041960 0.000000 1.690690 
# 
# From -- ./inp_files/21986.got.cif
#   From: 2010.06.25/outbox.cif.g09.slc.cpg/sg13_11_cif.got.tgz:21986.got - 2010.06.28 04:50:58.
