data_PCOD8117374
_publ_section_title
;
Structure prediction by ZEFSAII (Michael W. Deem and Ramdas Pophale) SiO2 
 PCOD8117374
Probable space group: P 2/C
;
_chemical_formula_sum "Si O2"
_cell_formula_units_Z 28
_cell_length_a 8.377104
_cell_length_b 31.170440
_cell_length_c 5.261530
_cell_angle_alpha 90.000000
_cell_angle_beta 113.056169
_cell_angle_gamma 90.000000
_cell_volume 1264.136600
_symmetry_space_group_name_H-M "P 2/C"
_symmetry_group_IT_number 13
_symmetry_cell_setting 'monoclinic'
loop_
_space_group_symop_operation_xyz
x,y,z
-x,y,1/2-z
-x,-y,-z
x,-y,1/2+z
loop_
_atom_site_type_symbol
_atom_site_label
_atom_site_fract_x
_atom_site_fract_y
_atom_site_fract_z
Si Si1 0.295979 0.022489 0.640899
Si Si2 0.195266 0.481240 0.435171
Si Si3 0.703158 0.387865 0.878727
Si Si4 0.296051 0.335856 0.123850
Si Si5 0.196512 0.795072 0.107182
Si Si6 0.887416 0.891078 0.434226
Si Si7 0.807543 0.241339 0.397439
O O1 0.500000 0.016447 0.750000
O O2 0.255686 0.071967 0.673404
O O3 0.216394 0.005746 0.323868
O O4 0.286718 0.509846 0.717251
O O5 0.196826 0.432392 0.529205
O O6 0.000000 0.496779 0.250000
O O7 0.500000 0.397855 0.750000
O O8 0.759389 0.364161 0.654264
O O9 0.757787 0.359572 0.152758
O O10 0.500000 0.325231 0.250000
O O11 0.187500 0.292130 0.056170
O O12 0.209199 0.846037 0.085771
O O13 0.292065 0.780290 0.425460
O O14 0.289845 0.772349 0.923973
O O15 0.999564 0.778191 0.000188
O O16 0.000000 0.889178 0.250000
O O17 0.000000 0.901521 0.750000
#
# Coordination Sequence:
#
# PCOD8117374 Si02
#       7
#     4   4   4   4   4   4   4
#     4  10  23  42  60  85 123 160 196 242 296 357
#     4  10  21  38  58  81 115 148 182 231 282 334
#     4  10  21  38  57  83 115 146 189 236 277 332
#     4  10  21  37  56  80 115 149 185 237 282 331
#     4  10  19  35  55  79 112 145 178 241 277 325
#     4  12  21  37  63  88 121 152 195 248 299 339
#     4  10  18  35  55  76 109 149 180 224 288 333
#
# _framework density 22.149504
#
# number of rings (size 3 to 8) (size 9 to 14) (size 15 to 20)
#    0.000    1.714    2.857    2.571    0.000    2.286 
#    7.714    1.429    0.000    0.000    0.000    0.000 
#    0.000    0.000    0.000    0.000    0.000    0.000 
#
# Total GULP energy -347082.554897 kJ/mol
# GULP energy per Si atom -12395.805532 kJ/mol
# Density = 2.209909 g / cm^3
# Si number density = 22.149504 Si / 1000 Ang^3
#
#
#
# Elastic Constant Matrix: (Units=GPa)
#
#
# Indices 1 2 3 4 5 6 
#
# 1 27.8937 24.7003 39.8854 0.0000 -24.1350 0.0000
# 2 24.7003 173.1097 58.9661 0.0000 -18.8210 0.0000
# 3 39.8854 58.9661 161.4738 0.0000 -65.7278 0.0000
# 4 0.0000 0.0000 0.0000 41.1471 0.0000 -13.4795
# 5 -24.1350 -18.8210 -65.7278 0.0000 32.3845 0.0000
# 6 0.0000 0.0000 0.0000 -13.4795 0.0000 21.2186
#
#
#
# Elastic Compliance Matrix: (Units=1/GPa)
#
#
# Indices 1 2 3 4 5 6 
#
# 1 0.204333 -0.024225 0.084152 0.000000 0.309000 0.000000
# 2 -0.024225 0.009684 -0.015016 0.000000 -0.042902 0.000000
# 3 0.084152 -0.015016 0.074008 0.000000 0.204195 0.000000
# 4 0.000000 0.000000 0.000000 0.030690 0.000000 0.019496
# 5 0.309000 -0.042902 0.204195 0.000000 0.650668 0.000000
# 6 0.000000 0.000000 0.000000 0.019496 0.000000 0.059514
#
#
# Mechanical properties :
#
#
# Convention : Reuss Voigt Hill
#
# Bulk Modulus (GPa) = 2.64657 67.73122 35.18890
# Shear Modulus (GPa) = 4.69474 34.87840 19.78657
#
# Velocity S-wave (km/s) = 1.45745 3.97253 2.99209
# Velocity P-wave (km/s) = 2.00741 7.18936 5.27809
#
# Compressibility (1/GPa) = 0.37784757
#
# Stress axis : x y z
#
# Youngs Moduli (GPa) = 4.89397 103.26755 13.51213
#
# Poissons Ratio (x) = 2.50164 -1.13708
# Poissons Ratio (y) = 0.11856 0.20289
# Poissons Ratio (z) = -0.41184 1.55064
#
# Static dielectric constant tensor:
#      x y z
#    x 17.548130 0.000000 -29.428650 
#    y 0.000000 3.923030 0.000000 
#    z -29.428650 0.000000 64.557640 
# 
# 
# High freq. dielectric constant tensor:
#      x y z
#    x 1.837730 0.000000 -0.037300 
#    y 0.000000 1.878360 0.000000 
#    z -0.037300 0.000000 1.894390 
# 
# From -- ./inp_files/2750.got.cif
#   From: 2010.06.25/outbox.cif.g09.slc.cpg/sg13_2_cif.got.tgz:2750.got - 2010.06.28 04:50:58.
