data_PCOD8117972
_publ_section_title
;
Structure prediction by ZEFSAII (Michael W. Deem and Ramdas Pophale) SiO2 
 PCOD8117972
Probable space group: P 2/C
;
_chemical_formula_sum "Si O2"
_cell_formula_units_Z 32
_cell_length_a 19.409722
_cell_length_b 9.751074
_cell_length_c 13.669364
_cell_angle_alpha 90.000000
_cell_angle_beta 37.071402
_cell_angle_gamma 90.000000
_cell_volume 1559.553907
_symmetry_space_group_name_H-M "P 2/C"
_symmetry_group_IT_number 13
_symmetry_cell_setting 'monoclinic'
loop_
_space_group_symop_operation_xyz
x,y,z
-x,y,1/2-z
-x,-y,-z
x,-y,1/2+z
loop_
_atom_site_type_symbol
_atom_site_label
_atom_site_fract_x
_atom_site_fract_y
_atom_site_fract_z
Si Si1 0.218122 0.073670 0.710972
Si Si2 0.116209 0.105445 0.171705
Si Si3 0.693197 0.908751 0.192758
Si Si4 0.311566 0.602545 0.260997
Si Si5 0.513711 0.913144 0.623994
Si Si6 0.424242 0.619729 0.754439
Si Si7 0.243418 0.636812 0.119797
Si Si8 0.122505 0.420477 0.134774
O O1 0.205353 0.065851 0.842312
O O2 0.356184 0.054072 0.549885
O O3 0.176871 0.221804 0.717319
O O4 0.134632 0.961514 0.757620
O O5 0.110842 0.267793 0.190008
O O6 0.000000 0.052515 0.250000
O O7 0.235466 0.061193 0.985703
O O8 0.645888 0.753151 0.255284
O O9 0.580780 0.003271 0.331541
O O10 0.399283 0.484933 0.195485
O O11 0.304555 0.589908 0.151524
O O12 0.194130 0.573996 0.453014
O O13 0.500000 0.961427 0.750000
O O14 0.490751 0.750602 0.634690
O O15 0.500000 0.539855 0.750000
O O16 0.318634 0.674138 0.938985
O O17 0.166494 0.509868 0.175399
O O18 0.000000 0.483011 0.250000
#
# Coordination Sequence:
#
# PCOD8117972 Si02
#       8
#     4   4   4   4   4   4   4   4
#     4  11  21  37  57  81 111 143 180 221 269 319
#     4  10  21  39  58  78 109 144 179 226 272 316
#     4  10  21  37  55  83 111 140 183 221 264 323
#     4   9  21  35  53  80 108 138 177 221 258 315
#     4  11  19  36  57  78 113 147 172 219 270 319
#     4  10  19  35  53  74 108 145 170 212 263 312
#     4  10  19  36  54  78 107 138 177 217 262 313
#     4   9  20  38  56  76 105 140 177 220 270 313
#
# _framework density 20.518688000000001
#
# number of rings (size 3 to 8) (size 9 to 14) (size 15 to 20)
#    0.000    2.000    3.750    0.375    0.000    3.500 
#    2.250    0.000    0.000    0.000    0.000    0.000 
#    0.000    0.000    0.000    0.000    0.000    0.000 
#
# Total GULP energy -396456.863669 kJ/mol
# GULP energy per Si atom -12389.276990 kJ/mol
# Density = 2.047199 g / cm^3
# Si number density = 20.518688 Si / 1000 Ang^3
#
#
#
# Elastic Constant Matrix: (Units=GPa)
#
#
# Indices 1 2 3 4 5 6 
#
# 1 93.5725 54.4054 9.7672 0.0000 -9.3801 0.0000
# 2 54.4054 76.2253 12.1020 0.0000 -9.7820 0.0000
# 3 9.7672 12.1020 25.7528 0.0000 -5.0380 0.0000
# 4 0.0000 0.0000 0.0000 15.0022 0.0000 0.9247
# 5 -9.3801 -9.7820 -5.0380 0.0000 32.4096 0.0000
# 6 0.0000 0.0000 0.0000 0.9247 0.0000 43.6378
#
#
#
# Elastic Compliance Matrix: (Units=1/GPa)
#
#
# Indices 1 2 3 4 5 6 
#
# 1 0.018340 -0.012812 -0.000674 0.000000 0.001336 0.000000
# 2 -0.012812 0.023487 -0.005690 0.000000 0.002496 0.000000
# 3 -0.000674 -0.005690 0.042684 0.000000 0.004723 0.000000
# 4 0.000000 0.000000 0.000000 0.066744 0.000000 -0.001414
# 5 0.001336 0.002496 0.004723 0.000000 0.032730 0.000000
# 6 0.000000 0.000000 0.000000 -0.001414 0.000000 0.022946
#
#
# Mechanical properties :
#
#
# Convention : Reuss Voigt Hill
#
# Bulk Modulus (GPa) = 21.66347 38.67776 30.17062
# Shear Modulus (GPa) = 19.18142 26.16164 22.67153
#
# Velocity S-wave (km/s) = 3.06081 3.57461 3.32764
# Velocity P-wave (km/s) = 4.80336 5.99400 5.43140
#
# Compressibility (1/GPa) = 0.04616066
#
# Stress axis : x y z
#
# Youngs Moduli (GPa) = 54.52462 42.57655 23.42794
#
# Poissons Ratio (x) = 0.54548 0.01578
# Poissons Ratio (y) = 0.69856 0.13330
# Poissons Ratio (z) = 0.03673 0.24225
#
# Static dielectric constant tensor:
#      x y z
#    x 3.878170 0.000000 0.152420 
#    y 0.000000 3.620390 0.000000 
#    z 0.152420 0.000000 3.758820 
# 
# 
# High freq. dielectric constant tensor:
#      x y z
#    x 1.801030 0.000000 0.010520 
#    y 0.000000 1.792540 0.000000 
#    z 0.010520 0.000000 1.798670 
# 
# From -- ./inp_files/57264.got.cif
#   From: 2010.06.25/outbox.cif.g09.slc.cpg/sg13_29_cif.got.tgz:57264.got - 2010.06.28 04:50:58.
