data_PCOD8117370
_publ_section_title
;
Structure prediction by ZEFSAII (Michael W. Deem and Ramdas Pophale) SiO2 
 PCOD8117370
Probable space group: P 2/C
;
_chemical_formula_sum "Si O2"
_cell_formula_units_Z 32
_cell_length_a 21.249207
_cell_length_b 13.025344
_cell_length_c 9.740222
_cell_angle_alpha 90.000000
_cell_angle_beta 43.373029
_cell_angle_gamma 90.000000
_cell_volume 1851.384193
_symmetry_space_group_name_H-M "P 2/C"
_symmetry_group_IT_number 13
_symmetry_cell_setting 'monoclinic'
loop_
_space_group_symop_operation_xyz
x,y,z
-x,y,1/2-z
-x,-y,-z
x,-y,1/2+z
loop_
_atom_site_type_symbol
_atom_site_label
_atom_site_fract_x
_atom_site_fract_y
_atom_site_fract_z
Si Si1 0.606974 0.909953 0.934045
Si Si2 0.700072 0.308603 0.678341
Si Si3 0.599302 0.410583 0.621147
Si Si4 0.311975 0.393763 0.513825
Si Si5 0.096041 0.388832 0.552808
Si Si6 0.286680 0.288946 0.279025
Si Si7 0.843258 0.449643 0.328220
Si Si8 0.399370 0.103035 0.740645
O O1 0.687479 0.829930 0.771928
O O2 0.628684 0.012895 0.817403
O O3 0.612447 0.936690 0.085894
O O4 0.506506 0.865427 0.050548
O O5 0.623771 0.387960 0.741237
O O6 0.704435 0.315504 0.835718
O O7 0.797372 0.345407 0.461366
O O8 0.671016 0.195071 0.678066
O O9 0.500000 0.364230 0.750000
O O10 0.601083 0.532799 0.591111
O O11 0.673258 0.350742 0.412470
O O12 0.331806 0.328733 0.347495
O O13 0.229105 0.473108 0.625869
O O14 0.177226 0.307213 0.453668
O O15 0.089103 0.417019 0.402284
O O16 0.106503 0.492530 0.626885
O O17 0.000000 0.336718 0.750000
#
# Coordination Sequence:
#
# PCOD8117370 Si02
#       8
#     4   4   4   4   4   4   4   4
#     4  10  21  38  52  77 104 135 179 230 268 309
#     4  11  19  34  54  72 105 143 177 213 269 314
#     4  11  20  33  50  71 105 145 178 209 255 315
#     4  10  21  32  49  75 108 140 178 212 258 312
#     4  11  20  33  55  81 108 144 176 212 266 319
#     4  11  21  36  53  74 110 138 177 224 260 314
#     4  10  18  35  51  78 112 137 174 221 255 320
#     4  10  21  35  56  75 102 138 181 222 270 316
#
# _framework density 17.284365000000001
#
# number of rings (size 3 to 8) (size 9 to 14) (size 15 to 20)
#    0.000    1.500    5.000    2.625    1.750    3.000 
#    0.000    0.000    0.000    0.000    0.000    4.375 
#    0.000    0.000    0.000    0.000    0.000    0.000 
#
# Total GULP energy -396672.925823 kJ/mol
# GULP energy per Si atom -12396.028932 kJ/mol
# Density = 1.724502 g / cm^3
# Si number density = 17.284365 Si / 1000 Ang^3
#
#
#
# Elastic Constant Matrix: (Units=GPa)
#
#
# Indices 1 2 3 4 5 6 
#
# 1 58.8865 39.0706 36.9408 0.0000 0.3341 0.0000
# 2 39.0706 90.6741 51.4815 0.0000 6.3902 0.0000
# 3 36.9408 51.4815 83.2036 0.0000 -3.3178 0.0000
# 4 0.0000 0.0000 0.0000 24.9934 0.0000 6.2151
# 5 0.3341 6.3902 -3.3178 0.0000 34.6876 0.0000
# 6 0.0000 0.0000 0.0000 6.2151 0.0000 22.2921
#
#
#
# Elastic Compliance Matrix: (Units=1/GPa)
#
#
# Indices 1 2 3 4 5 6 
#
# 1 0.026310 -0.007311 -0.007141 0.000000 0.000410 0.000000
# 2 -0.007311 0.019651 -0.009089 0.000000 -0.004419 0.000000
# 3 -0.007141 -0.009089 0.020962 0.000000 0.003748 0.000000
# 4 0.000000 0.000000 0.000000 0.042991 0.000000 -0.011986
# 5 0.000410 -0.004419 0.003748 0.000000 0.029997 0.000000
# 6 0.000000 0.000000 0.000000 -0.011986 0.000000 0.048201
#
#
# Mechanical properties :
#
#
# Convention : Reuss Voigt Hill
#
# Bulk Modulus (GPa) = 50.40119 54.19445 52.29782
# Shear Modulus (GPa) = 20.67757 23.41270 22.04514
#
# Velocity S-wave (km/s) = 3.46253 3.68443 3.57520
# Velocity P-wave (km/s) = 6.72375 7.03724 6.88228
#
# Compressibility (1/GPa) = 0.01984080
#
# Stress axis : x y z
#
# Youngs Moduli (GPa) = 38.00808 50.88913 47.70482
#
# Poissons Ratio (x) = 0.37207 0.34066
# Poissons Ratio (y) = 0.27789 0.43358
# Poissons Ratio (z) = 0.27142 0.46252
#
# Static dielectric constant tensor:
#      x y z
#    x 3.231370 0.000000 0.158720 
#    y 0.000000 3.031480 0.000000 
#    z 0.158720 0.000000 3.289920 
# 
# 
# High freq. dielectric constant tensor:
#      x y z
#    x 1.661800 0.000000 0.024200 
#    y 0.000000 1.637880 0.000000 
#    z 0.024200 0.000000 1.669160 
# 
# From -- ./inp_files/23347.got.cif
#   From: 2010.06.25/outbox.cif.g09.slc.cpg/sg13_12_cif.got.tgz:23347.got - 2010.06.28 04:50:58.
