data_PCOD8117759
_publ_section_title
;
Structure prediction by ZEFSAII (Michael W. Deem and Ramdas Pophale) SiO2 
 PCOD8117759
Probable space group: P 2/C
;
_chemical_formula_sum "Si O2"
_cell_formula_units_Z 28
_cell_length_a 11.514637
_cell_length_b 22.894736
_cell_length_c 16.701103
_cell_angle_alpha 90.000000
_cell_angle_beta 21.356796
_cell_angle_gamma 90.000000
_cell_volume 1603.395709
_symmetry_space_group_name_H-M "P 2/C"
_symmetry_group_IT_number 13
_symmetry_cell_setting 'monoclinic'
loop_
_space_group_symop_operation_xyz
x,y,z
-x,y,1/2-z
-x,-y,-z
x,-y,1/2+z
loop_
_atom_site_type_symbol
_atom_site_label
_atom_site_fract_x
_atom_site_fract_y
_atom_site_fract_z
Si Si1 0.018615 0.150006 0.397150
Si Si2 0.685154 0.058506 0.400106
Si Si3 0.690273 0.244443 0.394560
Si Si4 0.760848 0.532787 0.280855
Si Si5 0.335438 0.358078 0.569285
Si Si6 0.395789 0.153791 0.690569
Si Si7 0.454382 0.545767 0.868292
O O1 0.208582 0.091045 0.250431
O O2 0.227740 0.205747 0.236377
O O3 0.691937 0.152777 0.559361
O O4 0.935386 0.151495 0.545829
O O5 0.428315 0.097845 0.612400
O O6 0.000000 0.045480 0.250000
O O7 0.500000 0.000000 0.500000
O O8 0.565099 0.305426 0.442713
O O9 0.416508 0.212393 0.623217
O O10 0.000000 0.254919 0.250000
O O11 0.500000 0.500000 0.500000
O O12 0.716907 0.603083 0.316250
O O13 0.706559 0.506691 0.226410
O O14 0.102804 0.517714 0.099248
O O15 0.503204 0.399273 0.395498
O O16 0.000000 0.334447 0.750000
O O17 0.500000 0.569819 0.750000
#
# Coordination Sequence:
#
# PCOD8117759 Si02
#       7
#     4   4   4   4   4   4   4
#     4   8  15  30  49  69  95 128 167 198 242 284
#     4   9  17  29  48  73  98 129 160 197 242 287
#     4   9  17  31  52  73  91 123 169 209 239 282
#     4   9  18  33  52  69  93 131 160 189 244 302
#     4   9  19  34  48  68  99 131 154 190 252 304
#     4   8  15  30  50  68  95 131 162 202 242 282
#     4  10  19  33  52  74  98 125 161 203 243 294
#
# _framework density 17.462938000000001
#
# number of rings (size 3 to 8) (size 9 to 14) (size 15 to 20)
#    0.000    3.143    0.000    3.429    0.000    2.857 
#    5.143    2.857    3.143    1.714    0.000    0.000 
#    0.000    0.000    0.000    0.000    0.000    0.000 
#
# Total GULP energy -346877.335433 kJ/mol
# GULP energy per Si atom -12388.476265 kJ/mol
# Density = 1.742319 g / cm^3
# Si number density = 17.462938 Si / 1000 Ang^3
#
#
#
# Elastic Constant Matrix: (Units=GPa)
#
#
# Indices 1 2 3 4 5 6 
#
# 1 78.6584 64.3911 44.8334 0.0000 16.3660 0.0000
# 2 64.3911 136.7783 58.6458 0.0000 -3.0859 0.0000
# 3 44.8334 58.6458 89.9218 0.0000 18.8456 0.0000
# 4 0.0000 0.0000 0.0000 24.5722 0.0000 -12.1715
# 5 16.3660 -3.0859 18.8456 0.0000 31.7843 0.0000
# 6 0.0000 0.0000 0.0000 -12.1715 0.0000 28.1718
#
#
#
# Elastic Compliance Matrix: (Units=1/GPa)
#
#
# Indices 1 2 3 4 5 6 
#
# 1 0.026550 -0.011501 -0.003012 0.000000 -0.013002 0.000000
# 2 -0.011501 0.016089 -0.007225 0.000000 0.011768 0.000000
# 3 -0.003012 -0.007225 0.019591 0.000000 -0.010767 0.000000
# 4 0.000000 0.000000 0.000000 0.051777 0.000000 0.022370
# 5 -0.013002 0.011768 -0.010767 0.000000 0.045683 0.000000
# 6 0.000000 0.000000 0.000000 0.022370 0.000000 0.045161
#
#
# Mechanical properties :
#
#
# Convention : Reuss Voigt Hill
#
# Bulk Modulus (GPa) = 53.32128 71.23321 62.27724
# Shear Modulus (GPa) = 19.64042 26.07154 22.85598
#
# Velocity S-wave (km/s) = 3.35728 3.86808 3.62170
# Velocity P-wave (km/s) = 6.75490 7.79930 7.29581
#
# Compressibility (1/GPa) = 0.01875424
#
# Stress axis : x y z
#
# Youngs Moduli (GPa) = 37.66515 62.15556 51.04441
#
# Poissons Ratio (x) = 0.71484 0.15373
# Poissons Ratio (y) = 0.43318 0.36879
# Poissons Ratio (z) = 0.11343 0.44907
#
# Static dielectric constant tensor:
#      x y z
#    x 3.991180 0.000000 0.196000 
#    y 0.000000 3.165680 0.000000 
#    z 0.196000 0.000000 3.559450 
# 
# 
# High freq. dielectric constant tensor:
#      x y z
#    x 1.657870 0.000000 0.013920 
#    y 0.000000 1.662970 0.000000 
#    z 0.013920 0.000000 1.671530 
# 
# From -- ./inp_files/67008.got.cif
#   From: 2010.06.25/outbox.cif.g09.slc.cpg/sg13_34_cif.got.tgz:67008.got - 2010.06.28 04:50:58.
