data_PCOD8117741
_publ_section_title
;
Structure prediction by ZEFSAII (Michael W. Deem and Ramdas Pophale) SiO2 
 PCOD8117741
Probable space group: P 2/C
;
_chemical_formula_sum "Si O2"
_cell_formula_units_Z 32
_cell_length_a 18.229480
_cell_length_b 5.288325
_cell_length_c 33.345421
_cell_angle_alpha 90.000000
_cell_angle_beta 145.394466
_cell_angle_gamma 90.000000
_cell_volume 1825.653140
_symmetry_space_group_name_H-M "P 2/C"
_symmetry_group_IT_number 13
_symmetry_cell_setting 'monoclinic'
loop_
_space_group_symop_operation_xyz
x,y,z
-x,y,1/2-z
-x,-y,-z
x,-y,1/2+z
loop_
_atom_site_type_symbol
_atom_site_label
_atom_site_fract_x
_atom_site_fract_y
_atom_site_fract_z
Si Si1 0.892877 0.802702 0.442255
Si Si2 0.082340 0.415575 0.384143
Si Si3 0.115924 0.087258 0.857528
Si Si4 0.785106 0.592741 0.728719
Si Si5 0.816023 0.090882 0.700542
Si Si6 0.363394 0.829919 0.209412
Si Si7 0.277001 0.686534 0.710401
Si Si8 0.998210 0.569617 0.933759
O O1 0.745550 0.897555 0.373262
O O2 0.904311 0.616107 0.485430
O O3 0.928912 0.693668 0.414314
O O4 0.000000 0.000000 0.500000
O O5 0.155390 0.661110 0.399684
O O6 0.086143 0.438783 0.433944
O O7 0.937529 0.414329 0.303312
O O8 0.152160 0.159759 0.400308
O O9 0.198255 0.088763 0.853819
O O10 0.964828 0.089176 0.780108
O O11 0.744847 0.337632 0.686944
O O12 0.713557 0.608499 0.738955
O O13 0.746390 0.838805 0.685523
O O14 0.500000 0.841944 0.250000
O O15 0.340891 0.546445 0.215349
O O16 0.356023 0.052910 0.239387
O O17 0.127692 0.750683 0.629853
#
# Coordination Sequence:
#
# PCOD8117741 Si02
#       8
#     4   4   4   4   4   4   4   4
#     4  10  19  33  51  69  94 127 168 206 239 282
#     4   9  17  25  38  58  84 118 153 189 231 271
#     4   9  16  24  35  54  86 121 151 183 226 283
#     4   9  16  25  41  59  81 115 157 194 221 266
#     4   9  15  24  36  56  83 118 156 185 222 274
#     4  11  22  35  51  71  98 129 160 200 249 291
#     4  10  19  33  49  69  94 125 164 201 238 284
#     4   9  19  30  47  70  92 123 167 207 234 280
#
# _framework density 17.527972999999999
#
# number of rings (size 3 to 8) (size 9 to 14) (size 15 to 20)
#    0.000    2.500    1.250    1.875    1.750    6.000 
#    0.000    0.000    0.000    0.000    0.000    0.000 
#    0.000    0.000    0.000   22.500    0.000   17.500 
#
# Total GULP energy -396506.388774 kJ/mol
# GULP energy per Si atom -12390.824649 kJ/mol
# Density = 1.748808 g / cm^3
# Si number density = 17.527973 Si / 1000 Ang^3
#
#
#
# Elastic Constant Matrix: (Units=GPa)
#
#
# Indices 1 2 3 4 5 6 
#
# 1 118.4504 51.9445 44.8236 0.0000 -22.2432 0.0000
# 2 51.9445 129.2126 24.2244 0.0000 -11.7568 0.0000
# 3 44.8236 24.2244 41.8552 0.0000 -1.6527 0.0000
# 4 0.0000 0.0000 0.0000 12.1902 0.0000 -2.7053
# 5 -22.2432 -11.7568 -1.6527 0.0000 23.7996 0.0000
# 6 0.0000 0.0000 0.0000 -2.7053 0.0000 26.7048
#
#
#
# Elastic Compliance Matrix: (Units=1/GPa)
#
#
# Indices 1 2 3 4 5 6 
#
# 1 0.019895 -0.003010 -0.018941 0.000000 0.015792 0.000000
# 2 -0.003010 0.009524 -0.002220 0.000000 0.001737 0.000000
# 3 -0.018941 -0.002220 0.044841 0.000000 -0.015684 0.000000
# 4 0.000000 0.000000 0.000000 0.083920 0.000000 0.008501
# 5 0.015792 0.001737 -0.015684 0.000000 0.056546 0.000000
# 6 0.000000 0.000000 0.000000 0.008501 0.000000 0.038308
#
#
# Mechanical properties :
#
#
# Convention : Reuss Voigt Hill
#
# Bulk Modulus (GPa) = 38.58151 59.05592 48.81871
# Shear Modulus (GPa) = 16.12834 23.77396 19.95115
#
# Velocity S-wave (km/s) = 3.03669 3.68685 3.37745
# Velocity P-wave (km/s) = 5.86127 7.20343 6.56673
#
# Compressibility (1/GPa) = 0.02591915
#
# Stress axis : x y z
#
# Youngs Moduli (GPa) = 50.26291 105.00336 22.30101
#
# Poissons Ratio (x) = 0.31609 0.42239
# Poissons Ratio (y) = 0.15131 0.04950
# Poissons Ratio (z) = 0.95201 0.23306
#
# Static dielectric constant tensor:
#      x y z
#    x 5.046840 0.000000 -1.220300 
#    y 0.000000 3.475850 0.000000 
#    z -1.220300 0.000000 2.818400 
# 
# 
# High freq. dielectric constant tensor:
#      x y z
#    x 1.670960 0.000000 -0.034230 
#    y 0.000000 1.696470 0.000000 
#    z -0.034230 0.000000 1.605120 
# 
# From -- ./inp_files/96871.got.cif
#   From: 2010.06.25/outbox.cif.g09.slc.cpg/sg13_49_cif.got.tgz:96871.got - 2010.06.28 04:50:58.
