data_PCOD8117155
_publ_section_title
;
Structure prediction by ZEFSAII (Michael W. Deem and Ramdas Pophale) SiO2 
 PCOD8117155
Probable space group: P 2/C
;
_chemical_formula_sum "Si O2"
_cell_formula_units_Z 22
_cell_length_a 25.290168
_cell_length_b 7.344116
_cell_length_c 5.326578
_cell_angle_alpha 90.000000
_cell_angle_beta 78.160709
_cell_angle_gamma 90.000000
_cell_volume 968.280239
_symmetry_space_group_name_H-M "P 2/C"
_symmetry_group_IT_number 13
_symmetry_cell_setting 'monoclinic'
loop_
_space_group_symop_operation_xyz
x,y,z
-x,y,1/2-z
-x,-y,-z
x,-y,1/2+z
loop_
_atom_site_type_symbol
_atom_site_label
_atom_site_fract_x
_atom_site_fract_y
_atom_site_fract_z
Si Si1 0.114594 0.287502 0.641292
Si Si2 0.668932 0.292513 0.054615
Si Si3 0.840425 0.691291 0.902571
Si Si4 0.713962 0.305931 0.510638
Si Si5 0.559853 0.885817 0.715509
Si Si6 0.000000 0.120624 0.750000
O O1 0.127115 0.501848 0.631844
O O2 0.142235 0.198823 0.365383
O O3 0.051041 0.253925 0.700067
O O4 0.141165 0.198214 0.866424
O O5 0.692398 0.197424 0.777034
O O6 0.682179 0.504521 0.020329
O O7 0.698901 0.200573 0.267128
O O8 0.604509 0.270148 0.135662
O O9 0.777072 0.653524 0.970070
O O10 0.500000 0.798374 0.750000
O O11 0.567473 0.033225 0.486872
O O12 0.000000 0.000000 0.500000
#
# Coordination Sequence:
#
# PCOD8117155 Si02
#       6
#     4   4   4   4   4   2
#     4  10  20  35  59  83 106 138 180 220 263 315
#     4  10  18  32  54  80 109 142 175 215 273 325
#     4  10  19  35  62  87 106 133 173 228 271 311
#     4  10  19  33  57  85 114 137 161 217 285 329
#     4  10  21  37  55  74 103 146 191 228 257 299
#     4  12  26  42  56  76 112 152 180 214 262 314
#
# _framework density 22.720693000000001
#
# number of rings (size 3 to 8) (size 9 to 14) (size 15 to 20)
#    0.000    1.818    0.000    7.636    0.000    2.909 
#    0.000    3.636    0.000   37.091    0.000    0.000 
#    0.000    0.000    0.000    0.000    0.000    0.000 
#
# Total GULP energy -272625.421340 kJ/mol
# GULP energy per Si atom -12392.064606 kJ/mol
# Density = 2.266898 g / cm^3
# Si number density = 22.720693 Si / 1000 Ang^3
#
#
#
# Elastic Constant Matrix: (Units=GPa)
#
#
# Indices 1 2 3 4 5 6 
#
# 1 187.3992 34.9982 67.4415 0.0000 -23.3453 0.0000
# 2 34.9982 23.8402 2.2722 0.0000 -14.5629 0.0000
# 3 67.4415 2.2722 228.3885 0.0000 23.1923 0.0000
# 4 0.0000 0.0000 0.0000 0.9411 0.0000 3.2611
# 5 -23.3453 -14.5629 23.1923 0.0000 59.8954 0.0000
# 6 0.0000 0.0000 0.0000 3.2611 0.0000 -3.9485
#
#
#
# Elastic Compliance Matrix: (Units=1/GPa)
#
#
# Indices 1 2 3 4 5 6 
#
# 1 0.008592 -0.011405 -0.002584 0.000000 0.001577 0.000000
# 2 -0.011405 0.065102 0.001628 0.000000 0.010753 0.000000
# 3 -0.002584 0.001628 0.005400 0.000000 -0.002702 0.000000
# 4 0.000000 0.000000 0.000000 0.275146 0.000000 0.227244
# 5 0.001577 0.010753 -0.002702 0.000000 0.020971 0.000000
# 6 0.000000 0.000000 0.000000 0.227244 0.000000 -0.065578
#
#
# Mechanical properties :
#
#
# Convention : Reuss Voigt Hill
#
# Bulk Modulus (GPa) = 18.39149 72.11684 45.25417
# Shear Modulus (GPa) = 14.18526 33.70532 23.94529
#
# Velocity S-wave (km/s) = 2.50137 3.85575 3.24990
# Velocity P-wave (km/s) = 4.05644 7.18554 5.83467
#
# Compressibility (1/GPa) = 0.05437298
#
# Stress axis : x y z
#
# Youngs Moduli (GPa) = 116.38185 15.36058 185.19484
#
# Poissons Ratio (x) = 0.17518 0.47853
# Poissons Ratio (y) = 1.32728 -0.30150
# Poissons Ratio (z) = 0.30072 -0.02501
#
# Static dielectric constant tensor:
#      x y z
#    x 4.472800 0.000000 1.069340 
#    y 0.000000 3.267670 0.000000 
#    z 1.069340 0.000000 7.555290 
# 
# 
# High freq. dielectric constant tensor:
#      x y z
#    x 1.907820 0.000000 0.012640 
#    y 0.000000 1.832940 0.000000 
#    z 0.012640 0.000000 1.945600 
# 
# From -- ./inp_files/6719.got.cif
#   From: 2010.06.25/outbox.cif.g09.slc.cpg/sg13_4_cif.got.tgz:6719.got - 2010.06.28 04:50:58.
