data_PCOD8117004
_publ_section_title
;
Structure prediction by ZEFSAII (Michael W. Deem and Ramdas Pophale) SiO2 
 PCOD8117004
Probable space group: P 2/C
;
_chemical_formula_sum "Si O2"
_cell_formula_units_Z 28
_cell_length_a 13.515050
_cell_length_b 16.867124
_cell_length_c 10.582517
_cell_angle_alpha 90.000000
_cell_angle_beta 41.688883
_cell_angle_gamma 90.000000
_cell_volume 1604.446098
_symmetry_space_group_name_H-M "P 2/C"
_symmetry_group_IT_number 13
_symmetry_cell_setting 'monoclinic'
loop_
_space_group_symop_operation_xyz
x,y,z
-x,y,1/2-z
-x,-y,-z
x,-y,1/2+z
loop_
_atom_site_type_symbol
_atom_site_label
_atom_site_fract_x
_atom_site_fract_y
_atom_site_fract_z
Si Si1 0.949015 0.204276 0.005113
Si Si2 0.225234 0.200748 0.587307
Si Si3 0.840906 0.960036 0.669396
Si Si4 0.884411 0.625309 0.600683
Si Si5 0.669481 0.033461 0.070979
Si Si6 0.116990 0.518016 0.245528
Si Si7 0.669312 0.364618 0.072463
O O1 0.875820 0.212756 0.938387
O O2 0.123403 0.187166 0.809355
O O3 0.871383 0.133832 0.156860
O O4 0.931716 0.286304 0.100516
O O5 0.332912 0.125467 0.467965
O O6 0.320687 0.280886 0.511966
O O7 0.749483 0.979231 0.629162
O O8 0.000000 0.000000 0.500000
O O9 0.754129 0.985817 0.878788
O O10 0.820126 0.567246 0.768602
O O11 0.757734 0.638253 0.618598
O O12 0.033317 0.577985 0.419500
O O13 0.500000 0.003718 0.250000
O O14 0.000000 0.497949 0.250000
O O15 0.265400 0.563222 0.068075
O O16 0.500000 0.386581 0.250000
#
# Coordination Sequence:
#
# PCOD8117004 Si02
#       7
#     4   4   4   4   4   4   4
#     4   9  16  30  53  74  97 128 171 218 249 295
#     4   9  16  30  51  76  99 127 167 213 261 302
#     4  11  21  36  57  81 106 141 183 221 260 316
#     4   9  17  31  50  68  93 129 163 205 244 289
#     4  11  22  36  55  81 113 141 172 219 273 320
#     4   9  17  30  48  69  93 124 167 202 241 294
#     4  10  18  28  47  75 101 124 157 205 256 301
#
# _framework density 17.451505999999998
#
# number of rings (size 3 to 8) (size 9 to 14) (size 15 to 20)
#    0.000    2.286    2.857    1.286    0.000    0.571 
#    0.000    1.429    0.000    0.857    0.000    0.000 
#    0.000    0.000    0.000    0.000    0.000    0.000 
#
# Total GULP energy -346897.656284 kJ/mol
# GULP energy per Si atom -12389.202010 kJ/mol
# Density = 1.741179 g / cm^3
# Si number density = 17.451506 Si / 1000 Ang^3
#
#
#
# Elastic Constant Matrix: (Units=GPa)
#
#
# Indices 1 2 3 4 5 6 
#
# 1 42.8404 40.4504 37.2895 0.0000 -5.8324 0.0000
# 2 40.4504 138.9795 59.0612 0.0000 5.8472 0.0000
# 3 37.2895 59.0612 115.4138 0.0000 -11.9961 0.0000
# 4 0.0000 0.0000 0.0000 28.3375 0.0000 3.0330
# 5 -5.8324 5.8472 -11.9961 0.0000 28.7498 0.0000
# 6 0.0000 0.0000 0.0000 3.0330 0.0000 21.8615
#
#
#
# Elastic Compliance Matrix: (Units=1/GPa)
#
#
# Indices 1 2 3 4 5 6 
#
# 1 0.038634 -0.008292 -0.007578 0.000000 0.006362 0.000000
# 2 -0.008292 0.011438 -0.003754 0.000000 -0.005575 0.000000
# 3 -0.007578 -0.003754 0.013541 0.000000 0.004876 0.000000
# 4 0.000000 0.000000 0.000000 0.035821 0.000000 -0.004970
# 5 0.006362 -0.005575 0.004876 0.000000 0.039242 0.000000
# 6 0.000000 0.000000 0.000000 -0.004970 0.000000 0.046432
#
#
# Mechanical properties :
#
#
# Convention : Reuss Voigt Hill
#
# Bulk Modulus (GPa) = 41.04113 63.42619 52.23366
# Shear Modulus (GPa) = 21.50752 26.48525 23.99639
#
# Velocity S-wave (km/s) = 3.51439 3.89993 3.71217
# Velocity P-wave (km/s) = 6.32742 7.53010 6.95480
#
# Compressibility (1/GPa) = 0.02436580
#
# Stress axis : x y z
#
# Youngs Moduli (GPa) = 25.88407 87.42424 73.85173
#
# Poissons Ratio (x) = 0.72491 0.55964
# Poissons Ratio (y) = 0.21463 0.27723
# Poissons Ratio (z) = 0.19615 0.32818
#
# Static dielectric constant tensor:
#      x y z
#    x 2.967550 0.000000 0.018200 
#    y 0.000000 3.875700 0.000000 
#    z 0.018200 0.000000 3.208980 
# 
# 
# High freq. dielectric constant tensor:
#      x y z
#    x 1.639710 0.000000 -0.011790 
#    y 0.000000 1.689340 0.000000 
#    z -0.011790 0.000000 1.664220 
# 
# From -- ./inp_files/37372.got.cif
#   From: 2010.06.25/outbox.cif.g09.slc.cpg/sg13_19_cif.got.tgz:37372.got - 2010.06.28 04:50:58.
