data_PCOD8117736
_publ_section_title
;
Structure prediction by ZEFSAII (Michael W. Deem and Ramdas Pophale) SiO2 
 PCOD8117736
Probable space group: P 2/C
;
_chemical_formula_sum "Si O2"
_cell_formula_units_Z 32
_cell_length_a 15.940018
_cell_length_b 13.168461
_cell_length_c 9.462671
_cell_angle_alpha 90.000000
_cell_angle_beta 125.919885
_cell_angle_gamma 90.000000
_cell_volume 1608.554454
_symmetry_space_group_name_H-M "P 2/C"
_symmetry_group_IT_number 13
_symmetry_cell_setting 'monoclinic'
loop_
_space_group_symop_operation_xyz
x,y,z
-x,y,1/2-z
-x,-y,-z
x,-y,1/2+z
loop_
_atom_site_type_symbol
_atom_site_label
_atom_site_fract_x
_atom_site_fract_y
_atom_site_fract_z
Si Si1 0.825919 0.511647 0.357330
Si Si2 0.994147 0.358398 0.897968
Si Si3 0.877968 0.006892 0.359485
Si Si4 0.398591 0.195884 0.559664
Si Si5 0.922688 0.784252 0.792538
Si Si6 0.750139 0.372623 0.047986
Si Si7 0.443381 0.916938 0.842246
Si Si8 0.252997 0.015813 0.517495
O O1 0.917434 0.444658 0.514554
O O2 0.750010 0.445526 0.184288
O O3 0.755899 0.562488 0.409934
O O4 0.880639 0.595676 0.313573
O O5 0.000000 0.307740 0.750000
O O6 0.008646 0.268577 0.021389
O O7 0.856563 0.126081 0.300783
O O8 0.834551 0.954036 0.456528
O O9 0.812423 0.953454 0.167136
O O10 0.000000 0.000000 0.500000
O O11 0.500000 0.173731 0.750000
O O12 0.355917 0.308118 0.549715
O O13 0.430285 0.183848 0.425337
O O14 0.313663 0.112022 0.516900
O O15 0.848097 0.701798 0.648029
O O16 0.000000 0.827795 0.750000
O O17 0.500000 0.894736 0.750000
O O18 0.328451 0.945963 0.683079
O O19 0.500000 0.000000 0.000000
#
# Coordination Sequence:
#
# PCOD8117736 Si02
#       8
#     4   4   4   4   4   4   4   4
#     4  10  20  35  61  91 125 163 206 263 326 390
#     4  10  19  32  58  91 119 161 217 264 306 365
#     4  12  26  39  57  91 139 189 217 243 318 403
#     4  12  25  44  70 100 124 167 226 280 337 395
#     4  11  21  37  58  86 128 171 219 262 304 376
#     4  11  22  41  65  94 126 164 213 269 336 392
#     4  12  20  39  72 102 125 161 222 289 330 369
#     4  12  21  41  63  90 131 177 217 262 319 378
#
# _framework density 19.893637999999999
#
# number of rings (size 3 to 8) (size 9 to 14) (size 15 to 20)
#    0.000    0.750    7.500    1.125    0.000    1.000 
#    0.000    1.875    0.000    0.000    0.000    0.000 
#    0.000    0.000    0.000    0.000    0.000    0.000 
#
# Total GULP energy -396513.686394 kJ/mol
# GULP energy per Si atom -12391.052700 kJ/mol
# Density = 1.984836 g / cm^3
# Si number density = 19.893638 Si / 1000 Ang^3
#
#
#
# Elastic Constant Matrix: (Units=GPa)
#
#
# Indices 1 2 3 4 5 6 
#
# 1 125.9683 33.1146 65.5228 0.0000 -18.9702 0.0000
# 2 33.1146 54.3619 22.2326 0.0000 -10.9463 0.0000
# 3 65.5228 22.2326 127.6951 0.0000 -1.3572 0.0000
# 4 0.0000 0.0000 0.0000 16.9385 0.0000 0.4272
# 5 -18.9702 -10.9463 -1.3572 0.0000 42.4256 0.0000
# 6 0.0000 0.0000 0.0000 0.4272 0.0000 30.2645
#
#
#
# Elastic Compliance Matrix: (Units=1/GPa)
#
#
# Indices 1 2 3 4 5 6 
#
# 1 0.012762 -0.004564 -0.005707 0.000000 0.004346 0.000000
# 2 -0.004564 0.022559 -0.001546 0.000000 0.003730 0.000000
# 3 -0.005707 -0.001546 0.011001 0.000000 -0.002599 0.000000
# 4 0.000000 0.000000 0.000000 0.059058 0.000000 -0.000834
# 5 0.004346 0.003730 -0.002599 0.000000 0.026393 0.000000
# 6 0.000000 0.000000 0.000000 -0.000834 0.000000 0.033054
#
#
# Mechanical properties :
#
#
# Convention : Reuss Voigt Hill
#
# Bulk Modulus (GPa) = 44.07929 61.08502 52.58215
# Shear Modulus (GPa) = 25.50703 30.40274 27.95488
#
# Velocity S-wave (km/s) = 3.58462 3.91354 3.75269
# Velocity P-wave (km/s) = 6.27202 7.15497 6.72800
#
# Compressibility (1/GPa) = 0.02268639
#
# Stress axis : x y z
#
# Youngs Moduli (GPa) = 78.36027 44.32824 90.89906
#
# Poissons Ratio (x) = 0.20234 0.51879
# Poissons Ratio (y) = 0.35767 0.14052
# Poissons Ratio (z) = 0.44723 0.06853
#
# Static dielectric constant tensor:
#      x y z
#    x 3.799270 0.000000 -0.108050 
#    y 0.000000 3.526500 0.000000 
#    z -0.108050 0.000000 4.062520 
# 
# 
# High freq. dielectric constant tensor:
#      x y z
#    x 1.773590 0.000000 -0.009670 
#    y 0.000000 1.744010 0.000000 
#    z -0.009670 0.000000 1.794340 
# 
# From -- ./inp_files/19663.got.cif
#   From: 2010.06.25/outbox.cif.g09.slc.cpg/sg13_10_cif.got.tgz:19663.got - 2010.06.28 04:50:58.
