data_PCOD8117272
_publ_section_title
;
Structure prediction by ZEFSAII (Michael W. Deem and Ramdas Pophale) SiO2 
 PCOD8117272
Probable space group: P 2/C
;
_chemical_formula_sum "Si O2"
_cell_formula_units_Z 28
_cell_length_a 8.254149
_cell_length_b 15.861599
_cell_length_c 18.032285
_cell_angle_alpha 90.000000
_cell_angle_beta 32.054201
_cell_angle_gamma 90.000000
_cell_volume 1252.958035
_symmetry_space_group_name_H-M "P 2/C"
_symmetry_group_IT_number 13
_symmetry_cell_setting 'monoclinic'
loop_
_space_group_symop_operation_xyz
x,y,z
-x,y,1/2-z
-x,-y,-z
x,-y,1/2+z
loop_
_atom_site_type_symbol
_atom_site_label
_atom_site_fract_x
_atom_site_fract_y
_atom_site_fract_z
Si Si1 0.613743 0.838570 0.057340
Si Si2 0.652093 0.008256 0.364119
Si Si3 0.919307 0.732368 0.194696
Si Si4 0.184911 0.742849 0.833287
Si Si5 0.060336 0.440198 0.046647
Si Si6 0.469566 0.807321 0.584855
Si Si7 0.230136 0.552676 0.227996
O O1 0.395596 0.781521 0.192373
O O2 0.504801 0.932916 0.121686
O O3 0.609797 0.812899 0.971219
O O4 0.960508 0.819010 0.945457
O O5 0.581596 0.100177 0.357261
O O6 0.000000 0.990329 0.250000
O O7 0.500000 0.000000 0.500000
O O8 0.858652 0.636844 0.191360
O O9 0.000000 0.733694 0.250000
O O10 0.182599 0.774681 0.042629
O O11 0.500000 0.762755 0.750000
O O12 0.250682 0.744799 0.717979
O O13 0.035696 0.657119 0.922850
O O14 0.829746 0.472224 0.198630
O O15 0.414962 0.445579 0.934086
O O16 0.000000 0.500000 0.000000
O O17 0.000000 0.545228 0.250000
#
# Coordination Sequence:
#
# PCOD8117272 Si02
#       7
#     4   4   4   4   4   4   4
#     4  10  19  40  64  94 130 168 213 267 323 386
#     4  10  18  33  63 101 131 164 211 264 322 384
#     4   9  19  36  61  93 126 157 205 263 320 382
#     4  12  26  42  59  93 130 174 224 267 326 392
#     4  12  27  48  68  95 133 177 218 275 343 411
#     4  10  21  37  66  98 130 169 212 268 325 388
#     4  11  24  44  70 100 126 163 219 277 336 399
#
# _framework density 22.347117999999998
#
# number of rings (size 3 to 8) (size 9 to 14) (size 15 to 20)
#    0.000    1.429    1.429    6.000    4.000    1.143 
#    0.000    1.429    0.000    0.000    0.000    0.000 
#    0.000    0.000    0.000    0.000    0.000    0.000 
#
# Total GULP energy -346870.912827 kJ/mol
# GULP energy per Si atom -12388.246887 kJ/mol
# Density = 2.229626 g / cm^3
# Si number density = 22.347118 Si / 1000 Ang^3
#
#
#
# Elastic Constant Matrix: (Units=GPa)
#
#
# Indices 1 2 3 4 5 6 
#
# 1 39.0976 22.7698 21.6716 0.0000 -17.9193 0.0000
# 2 22.7698 122.2752 46.2815 0.0000 -8.3928 0.0000
# 3 21.6716 46.2815 150.9679 0.0000 -32.5678 0.0000
# 4 0.0000 0.0000 0.0000 46.2192 0.0000 -4.1503
# 5 -17.9193 -8.3928 -32.5678 0.0000 36.7270 0.0000
# 6 0.0000 0.0000 0.0000 -4.1503 0.0000 24.1083
#
#
#
# Elastic Compliance Matrix: (Units=1/GPa)
#
#
# Indices 1 2 3 4 5 6 
#
# 1 0.036421 -0.005677 0.000081 0.000000 0.016545 0.000000
# 2 -0.005677 0.010144 -0.002958 0.000000 -0.003075 0.000000
# 3 0.000081 -0.002958 0.009128 0.000000 0.007458 0.000000
# 4 0.000000 0.000000 0.000000 0.021976 0.000000 0.003783
# 5 0.016545 -0.003075 0.007458 0.000000 0.041211 0.000000
# 6 0.000000 0.000000 0.000000 0.003783 0.000000 0.042131
#
#
# Mechanical properties :
#
#
# Convention : Reuss Voigt Hill
#
# Bulk Modulus (GPa) = 25.91697 54.86517 40.39107
# Shear Modulus (GPa) = 26.18060 36.18540 31.18300
#
# Velocity S-wave (km/s) = 3.42649 4.02835 3.73955
# Velocity P-wave (km/s) = 5.22275 6.80010 6.06294
#
# Compressibility (1/GPa) = 0.03858476
#
# Stress axis : x y z
#
# Youngs Moduli (GPa) = 27.45647 98.57909 109.55286
#
# Poissons Ratio (x) = 0.55968 -0.00891
# Poissons Ratio (y) = 0.15588 0.32408
# Poissons Ratio (z) = -0.00223 0.29162
#
# Static dielectric constant tensor:
#      x y z
#    x 3.706540 0.000000 -0.025330 
#    y 0.000000 3.592920 0.000000 
#    z -0.025330 0.000000 4.410720 
# 
# 
# High freq. dielectric constant tensor:
#      x y z
#    x 1.832630 0.000000 -0.014880 
#    y 0.000000 1.888650 0.000000 
#    z -0.014880 0.000000 1.907000 
# 
# From -- ./inp_files/76709.got.cif
#   From: 2010.06.25/outbox.cif.g09.slc.cpg/sg13_39_cif.got.tgz:76709.got - 2010.06.28 04:50:58.
