data_PCOD8117632
_publ_section_title
;
Structure prediction by ZEFSAII (Michael W. Deem and Ramdas Pophale) SiO2 
 PCOD8117632
Probable space group: P 2/C
;
_chemical_formula_sum "Si O2"
_cell_formula_units_Z 24
_cell_length_a 9.850438
_cell_length_b 5.161934
_cell_length_c 23.792028
_cell_angle_alpha 90.000000
_cell_angle_beta 110.461473
_cell_angle_gamma 90.000000
_cell_volume 1133.433777
_symmetry_space_group_name_H-M "P 2/C"
_symmetry_group_IT_number 13
_symmetry_cell_setting 'monoclinic'
loop_
_space_group_symop_operation_xyz
x,y,z
-x,y,1/2-z
-x,-y,-z
x,-y,1/2+z
loop_
_atom_site_type_symbol
_atom_site_label
_atom_site_fract_x
_atom_site_fract_y
_atom_site_fract_z
Si Si1 0.642911 0.295955 0.732886
Si Si2 0.981108 0.783158 0.618991
Si Si3 0.155180 0.378212 0.508094
Si Si4 0.961381 0.707446 0.308071
Si Si5 0.538116 0.199957 0.190022
Si Si6 0.751668 0.848195 0.919390
O O1 0.500000 0.253015 0.750000
O O2 0.787423 0.314599 0.791264
O O3 0.621783 0.534364 0.686305
O O4 0.652883 0.032424 0.697848
O O5 0.848844 0.728223 0.556409
O O6 0.969993 0.567830 0.665842
O O7 0.970213 0.070542 0.642762
O O8 0.134191 0.748455 0.609887
O O9 0.197897 0.130112 0.551939
O O10 0.000000 0.500000 0.500000
O O11 0.262277 0.623488 0.534239
O O12 0.000000 0.772586 0.250000
O O13 0.500000 0.247116 0.250000
O O14 0.402651 0.133160 0.132043
#
# Coordination Sequence:
#
# PCOD8117632 Si02
#       6
#     4   4   4   4   4   4
#     4  10  19  34  52  78 108 141 179 224 276 328
#     4  11  20  36  54  77 115 152 183 231 279 333
#     4  10  20  32  52  82 114 150 187 230 287 337
#     4  12  24  37  56  84 115 152 188 225 280 341
#     4  10  19  30  50  78 108 141 173 218 277 330
#     4  11  19  33  54  85 116 144 184 236 286 335
#
# _framework density 21.174593000000002
#
# number of rings (size 3 to 8) (size 9 to 14) (size 15 to 20)
#    0.000    1.333    0.000   11.500    0.000    0.000 
#    0.000    0.000    0.000    0.000    0.000   23.333 
#    0.000    0.000    0.000    0.000    0.000    0.000 
#
# Total GULP energy -297374.348970 kJ/mol
# GULP energy per Si atom -12390.597874 kJ/mol
# Density = 2.112640 g / cm^3
# Si number density = 21.174593 Si / 1000 Ang^3
#
#
#
# Elastic Constant Matrix: (Units=GPa)
#
#
# Indices 1 2 3 4 5 6 
#
# 1 25.0409 6.4409 17.1267 0.0000 1.8948 0.0000
# 2 6.4409 180.4182 41.6883 0.0000 12.7175 0.0000
# 3 17.1267 41.6883 114.4418 0.0000 19.1986 0.0000
# 4 0.0000 0.0000 0.0000 65.4910 0.0000 12.6558
# 5 1.8948 12.7175 19.1986 0.0000 23.7143 0.0000
# 6 0.0000 0.0000 0.0000 12.6558 0.0000 14.6819
#
#
#
# Elastic Compliance Matrix: (Units=1/GPa)
#
#
# Indices 1 2 3 4 5 6 
#
# 1 0.044584 -0.000129 -0.006988 0.000000 0.002164 0.000000
# 2 -0.000129 0.006112 -0.001920 0.000000 -0.001713 0.000000
# 3 -0.006988 -0.001920 0.011822 0.000000 -0.007983 0.000000
# 4 0.000000 0.000000 0.000000 0.018321 0.000000 -0.015793
# 5 0.002164 -0.001713 -0.007983 0.000000 0.049378 0.000000
# 6 0.000000 0.000000 0.000000 -0.015793 0.000000 0.081724
#
#
# Mechanical properties :
#
#
# Convention : Reuss Voigt Hill
#
# Bulk Modulus (GPa) = 22.50051 50.04587 36.27319
# Shear Modulus (GPa) = 20.42239 37.75378 29.08809
#
# Velocity S-wave (km/s) = 3.10897 4.22711 3.71040
# Velocity P-wave (km/s) = 4.85148 6.89281 5.96019
#
# Compressibility (1/GPa) = 0.04444344
#
# Stress axis : x y z
#
# Youngs Moduli (GPa) = 22.42972 163.62338 84.58540
#
# Poissons Ratio (x) = 0.02119 0.59109
# Poissons Ratio (y) = 0.00290 0.16236
# Poissons Ratio (z) = 0.15674 0.31408
#
# Static dielectric constant tensor:
#      x y z
#    x 3.234260 0.000000 0.287940 
#    y 0.000000 5.181960 0.000000 
#    z 0.287940 0.000000 4.152480 
# 
# 
# High freq. dielectric constant tensor:
#      x y z
#    x 1.758860 0.000000 0.031730 
#    y 0.000000 1.873880 0.000000 
#    z 0.031730 0.000000 1.829240 
# 
# From -- ./inp_files/85629.got.cif
#   From: 2010.06.25/outbox.cif.g09.slc.cpg/sg13_43_cif.got.tgz:85629.got - 2010.06.28 04:50:58.
