data_PCOD8117800
_publ_section_title
;
Structure prediction by ZEFSAII (Michael W. Deem and Ramdas Pophale) SiO2 
 PCOD8117800
Probable space group: P 2/C
;
_chemical_formula_sum "Si O2"
_cell_formula_units_Z 32
_cell_length_a 14.305416
_cell_length_b 11.221703
_cell_length_c 9.629714
_cell_angle_alpha 90.000000
_cell_angle_beta 95.640489
_cell_angle_gamma 90.000000
_cell_volume 1538.384068
_symmetry_space_group_name_H-M "P 2/C"
_symmetry_group_IT_number 13
_symmetry_cell_setting 'monoclinic'
loop_
_space_group_symop_operation_xyz
x,y,z
-x,y,1/2-z
-x,-y,-z
x,-y,1/2+z
loop_
_atom_site_type_symbol
_atom_site_label
_atom_site_fract_x
_atom_site_fract_y
_atom_site_fract_z
Si Si1 0.893958 0.618809 0.232205
Si Si2 0.724932 0.002172 0.976126
Si Si3 0.220072 0.737643 0.498435
Si Si4 0.560700 0.521324 0.645019
Si Si5 0.199316 0.248126 0.548801
Si Si6 0.638897 0.716830 0.218887
Si Si7 0.765671 0.390846 0.208877
Si Si8 0.597240 0.978720 0.205843
O O1 0.881230 0.717383 0.352227
O O2 0.821694 0.511192 0.252480
O O3 0.000000 0.570352 0.250000
O O4 0.875446 0.681692 0.080065
O O5 0.781080 0.880991 0.017192
O O6 0.801555 0.108281 0.992703
O O7 0.683698 0.989871 0.817055
O O8 0.634347 0.028197 0.063227
O O9 0.301717 0.688420 0.411395
O O10 0.236546 0.693184 0.656574
O O11 0.500000 0.596746 0.750000
O O12 0.500000 0.500000 0.500000
O O13 0.572348 0.395025 0.724893
O O14 0.660442 0.585197 0.637691
O O15 0.299831 0.273858 0.632964
O O16 0.181390 0.323742 0.407391
O O17 0.579911 0.837360 0.189129
O O18 0.500000 0.037108 0.250000
#
# Coordination Sequence:
#
# PCOD8117800 Si02
#       8
#     4   4   4   4   4   4   4   4
#     4  11  25  44  70  91 119 161 202 254 331 392
#     4  10  21  38  61  86 121 171 202 252 316 354
#     4  10  21  40  64  89 127 157 205 255 311 366
#     4  12  23  34  55  86 127 171 212 242 298 360
#     4  10  21  40  65  88 125 161 204 248 322 372
#     4   9  19  37  55  80 123 177 204 252 299 358
#     4  12  23  38  63  95 128 160 206 265 306 362
#     4  10  19  33  55  85 121 162 222 259 292 354
#
# _framework density 20.801047000000001
#
# number of rings (size 3 to 8) (size 9 to 14) (size 15 to 20)
#    0.000    1.500    2.500    4.500    0.000    3.000 
#    0.000    5.625    0.000    1.500    0.000    0.000 
#    0.000    0.000    0.000    0.000    0.000    0.000 
#
# Total GULP energy -396641.433152 kJ/mol
# GULP energy per Si atom -12395.044786 kJ/mol
# Density = 2.075370 g / cm^3
# Si number density = 20.801047 Si / 1000 Ang^3
#
#
#
# Elastic Constant Matrix: (Units=GPa)
#
#
# Indices 1 2 3 4 5 6 
#
# 1 90.1658 20.5759 20.4841 0.0000 1.9746 0.0000
# 2 20.5759 88.7210 23.0968 0.0000 -5.1338 0.0000
# 3 20.4841 23.0968 116.7565 0.0000 -2.6641 0.0000
# 4 0.0000 0.0000 0.0000 32.5535 0.0000 -3.4989
# 5 1.9746 -5.1338 -2.6641 0.0000 20.3533 0.0000
# 6 0.0000 0.0000 0.0000 -3.4989 0.0000 9.8088
#
#
#
# Elastic Compliance Matrix: (Units=1/GPa)
#
#
# Indices 1 2 3 4 5 6 
#
# 1 0.012082 -0.002483 -0.001675 0.000000 -0.002018 0.000000
# 2 -0.002483 0.012543 -0.001974 0.000000 0.003146 0.000000
# 3 -0.001675 -0.001974 0.009269 0.000000 0.000878 0.000000
# 4 0.000000 0.000000 0.000000 0.031943 0.000000 0.011395
# 5 -0.002018 0.003146 0.000878 0.000000 0.050236 0.000000
# 6 0.000000 0.000000 0.000000 0.011395 0.000000 0.106013
#
#
# Mechanical properties :
#
#
# Convention : Reuss Voigt Hill
#
# Bulk Modulus (GPa) = 46.22882 47.10631 46.66756
# Shear Modulus (GPa) = 20.69879 27.97556 24.33717
#
# Velocity S-wave (km/s) = 3.15792 3.67128 3.42423
# Velocity P-wave (km/s) = 5.96398 6.37702 6.17396
#
# Compressibility (1/GPa) = 0.02163153
#
# Stress axis : x y z
#
# Youngs Moduli (GPa) = 82.76860 79.72564 107.88501
#
# Poissons Ratio (x) = 0.19794 0.18066
# Poissons Ratio (y) = 0.20550 0.21295
# Poissons Ratio (z) = 0.13860 0.15737
#
# Static dielectric constant tensor:
#      x y z
#    x 3.426640 0.000000 -0.068330 
#    y 0.000000 3.790710 0.000000 
#    z -0.068330 0.000000 3.686280 
# 
# 
# High freq. dielectric constant tensor:
#      x y z
#    x 1.780400 0.000000 -0.008350 
#    y 0.000000 1.809220 0.000000 
#    z -0.008350 0.000000 1.828710 
# 
# From -- ./inp_files/19038.got.cif
#   From: 2010.06.25/outbox.cif.g09.slc.cpg/sg13_10_cif.got.tgz:19038.got - 2010.06.28 04:50:58.
