data_PCOD8117433
_publ_section_title
;
Structure prediction by ZEFSAII (Michael W. Deem and Ramdas Pophale) SiO2 
 PCOD8117433
Probable space group: P 2/C
;
_chemical_formula_sum "Si O2"
_cell_formula_units_Z 26
_cell_length_a 22.471941
_cell_length_b 6.872180
_cell_length_c 16.664502
_cell_angle_alpha 90.000000
_cell_angle_beta 28.704988
_cell_angle_gamma 90.000000
_cell_volume 1236.061017
_symmetry_space_group_name_H-M "P 2/C"
_symmetry_group_IT_number 13
_symmetry_cell_setting 'monoclinic'
loop_
_space_group_symop_operation_xyz
x,y,z
-x,y,1/2-z
-x,-y,-z
x,-y,1/2+z
loop_
_atom_site_type_symbol
_atom_site_label
_atom_site_fract_x
_atom_site_fract_y
_atom_site_fract_z
Si Si1 0.500000 0.222482 0.750000
Si Si2 0.815929 0.725050 0.198785
Si Si3 0.082873 0.253480 0.083994
Si Si4 0.288588 0.337217 0.110255
Si Si5 0.881664 0.997976 0.752500
Si Si6 0.640699 0.942549 0.839702
Si Si7 0.708595 0.983260 0.092387
O O1 0.599172 0.355352 0.586076
O O2 0.427459 0.083302 0.774133
O O3 0.759821 0.551672 0.316209
O O4 0.905908 0.848195 0.152122
O O5 0.709977 0.871386 0.294946
O O6 0.891313 0.639198 0.032014
O O7 0.000000 0.367888 0.250000
O O8 0.010448 0.052971 0.144476
O O9 0.211378 0.205813 0.975802
O O10 0.177704 0.204429 0.208307
O O11 0.342938 0.249152 0.127478
O O12 0.783366 0.092063 0.932527
O O13 0.692309 0.883940 0.690468
O O14 0.500000 0.000000 0.000000
#
# Coordination Sequence:
#
# PCOD8117433 Si02
#       7
#     2   4   4   4   4   4   4
#     4  10  18  36  56  80 122 150 184 238 282 338
#     4  10  21  36  57  88 112 147 192 228 289 339
#     4   9  18  36  60  82 111 153 190 235 287 336
#     4  10  21  36  56  86 116 150 188 231 282 339
#     4   9  19  37  59  82 114 149 187 238 281 334
#     4  10  19  37  56  79 116 153 184 230 279 333
#     4   9  18  34  59  82 111 152 191 227 286 337
#
# _framework density 21.034559000000002
#
# number of rings (size 3 to 8) (size 9 to 14) (size 15 to 20)
#    0.000    2.462    1.538    0.462    0.000    1.231 
#    2.769    4.615    0.000   16.615    0.000    0.000 
#    0.000    0.000    0.000    0.000    0.000    0.000 
#
# Total GULP energy -322171.310223 kJ/mol
# GULP energy per Si atom -12391.204239 kJ/mol
# Density = 2.098668 g / cm^3
# Si number density = 21.034559 Si / 1000 Ang^3
#
#
#
# Elastic Constant Matrix: (Units=GPa)
#
#
# Indices 1 2 3 4 5 6 
#
# 1 109.1756 26.3678 28.4220 0.0000 6.8829 0.0000
# 2 26.3678 65.8805 23.1464 0.0000 9.4422 0.0000
# 3 28.4220 23.1464 83.0726 0.0000 18.2938 0.0000
# 4 0.0000 0.0000 0.0000 21.2513 0.0000 3.0748
# 5 6.8829 9.4422 18.2938 0.0000 52.3013 0.0000
# 6 0.0000 0.0000 0.0000 3.0748 0.0000 10.4108
#
#
#
# Elastic Compliance Matrix: (Units=1/GPa)
#
#
# Indices 1 2 3 4 5 6 
#
# 1 0.010671 -0.003324 -0.002760 0.000000 0.000161 0.000000
# 2 -0.003324 0.017973 -0.003524 0.000000 -0.001575 0.000000
# 3 -0.002760 -0.003524 0.014891 0.000000 -0.004209 0.000000
# 4 0.000000 0.000000 0.000000 0.049157 0.000000 -0.014518
# 5 0.000161 -0.001575 -0.004209 0.000000 0.020855 0.000000
# 6 0.000000 0.000000 0.000000 -0.014518 0.000000 0.100342
#
#
# Mechanical properties :
#
#
# Convention : Reuss Voigt Hill
#
# Bulk Modulus (GPa) = 41.12093 46.00013 43.56053
# Shear Modulus (GPa) = 20.72878 28.80551 24.76715
#
# Velocity S-wave (km/s) = 3.14261 3.70461 3.43512
# Velocity P-wave (km/s) = 5.72361 6.34154 6.04048
#
# Compressibility (1/GPa) = 0.02431852
#
# Stress axis : x y z
#
# Youngs Moduli (GPa) = 93.71370 55.63839 67.15599
#
# Poissons Ratio (x) = 0.18495 0.18536
# Poissons Ratio (y) = 0.31153 0.23664
# Poissons Ratio (z) = 0.25866 0.19606
#
# Static dielectric constant tensor:
#      x y z
#    x 4.323480 0.000000 0.353910 
#    y 0.000000 3.104980 0.000000 
#    z 0.353910 0.000000 4.199830 
# 
# 
# High freq. dielectric constant tensor:
#      x y z
#    x 1.854240 0.000000 0.012520 
#    y 0.000000 1.745290 0.000000 
#    z 0.012520 0.000000 1.846030 
# 
# From -- ./inp_files/70903.got.cif
#   From: 2010.06.25/outbox.cif.g09.slc.cpg/sg13_36_cif.got.tgz:70903.got - 2010.06.28 04:50:58.
