data_PCOD8117348
_publ_section_title
;
Structure prediction by ZEFSAII (Michael W. Deem and Ramdas Pophale) SiO2 
 PCOD8117348
Probable space group: P 2/C
;
_chemical_formula_sum "Si O2"
_cell_formula_units_Z 30
_cell_length_a 10.589382
_cell_length_b 12.422637
_cell_length_c 16.968230
_cell_angle_alpha 90.000000
_cell_angle_beta 135.566594
_cell_angle_gamma 90.000000
_cell_volume 1562.674386
_symmetry_space_group_name_H-M "P 2/C"
_symmetry_group_IT_number 13
_symmetry_cell_setting 'monoclinic'
loop_
_space_group_symop_operation_xyz
x,y,z
-x,y,1/2-z
-x,-y,-z
x,-y,1/2+z
loop_
_atom_site_type_symbol
_atom_site_label
_atom_site_fract_x
_atom_site_fract_y
_atom_site_fract_z
Si Si1 0.966862 0.673051 0.603169
Si Si2 0.015854 0.905354 0.671356
Si Si3 0.387006 0.543188 0.377493
Si Si4 0.627552 0.336636 0.232674
Si Si5 0.000000 0.501899 0.750000
Si Si6 0.602789 0.877268 0.632469
Si Si7 0.349332 0.066484 0.529673
Si Si8 0.589794 0.712981 0.372402
O O1 0.956821 0.780041 0.651400
O O2 0.799393 0.673290 0.466814
O O3 0.162030 0.671610 0.646583
O O4 0.942176 0.573024 0.649806
O O5 0.863752 0.958784 0.547532
O O6 0.000000 0.958870 0.750000
O O7 0.223482 0.918037 0.738514
O O8 0.500000 0.500000 0.500000
O O9 0.402147 0.454248 0.315952
O O10 0.474057 0.654421 0.388215
O O11 0.177457 0.567588 0.307277
O O12 0.500000 0.318780 0.250000
O O13 0.572196 0.247346 0.141912
O O14 0.630137 0.890619 0.551144
O O15 0.442537 0.953552 0.589564
O O16 0.425178 0.158888 0.620358
O O17 0.500000 0.683109 0.250000
#
# Coordination Sequence:
#
# PCOD8117348 Si02
#       8
#     4   4   4   4   2   4   4   4
#     4   9  17  33  57  79 102 141 192 225 255 318
#     4   8  13  25  51  78 100 127 177 227 257 301
#     4  11  21  37  60  83 108 141 184 231 269 321
#     4  10  21  36  55  83 110 140 181 232 276 312
#     4  10  18  34  60  86  96 138 194 236 262 300
#     4   9  17  32  56  80 106 136 186 233 264 305
#     4   9  18  32  55  80 105 143 183 222 268 321
#     4  11  22  37  55  81 117 150 177 215 281 345
#
# _framework density 19.197856000000002
#
# number of rings (size 3 to 8) (size 9 to 14) (size 15 to 20)
#    0.000    2.400    2.000    1.200    3.733    0.533 
#    2.400    3.333    7.333    4.800    0.000    0.000 
#    0.000    0.000    0.000    0.000    0.000    0.000 
#
# Total GULP energy -371669.124595 kJ/mol
# GULP energy per Si atom -12388.970820 kJ/mol
# Density = 1.915416 g / cm^3
# Si number density = 19.197856 Si / 1000 Ang^3
#
#
#
# Elastic Constant Matrix: (Units=GPa)
#
#
# Indices 1 2 3 4 5 6 
#
# 1 74.2292 9.1063 33.1408 0.0000 18.1008 0.0000
# 2 9.1063 45.2505 18.3025 0.0000 15.5793 0.0000
# 3 33.1408 18.3025 113.4532 0.0000 19.3931 0.0000
# 4 0.0000 0.0000 0.0000 25.3827 0.0000 5.4317
# 5 18.1008 15.5793 19.3931 0.0000 31.7841 0.0000
# 6 0.0000 0.0000 0.0000 5.4317 0.0000 24.5217
#
#
#
# Elastic Compliance Matrix: (Units=1/GPa)
#
#
# Indices 1 2 3 4 5 6 
#
# 1 0.016938 0.000772 -0.003750 0.000000 -0.007736 0.000000
# 2 0.000772 0.027170 -0.002520 0.000000 -0.012220 0.000000
# 3 -0.003750 -0.002520 0.010874 0.000000 -0.003264 0.000000
# 4 0.000000 0.000000 0.000000 0.041357 0.000000 -0.009161
# 5 -0.007736 -0.012220 -0.003264 0.000000 0.043849 0.000000
# 6 0.000000 0.000000 0.000000 -0.009161 0.000000 0.042809
#
#
# Mechanical properties :
#
#
# Convention : Reuss Voigt Hill
#
# Bulk Modulus (GPa) = 22.73443 39.33689 31.03566
# Shear Modulus (GPa) = 23.96290 27.82993 25.89642
#
# Velocity S-wave (km/s) = 3.53683 3.81154 3.67675
# Velocity P-wave (km/s) = 5.34292 6.31706 5.85030
#
# Compressibility (1/GPa) = 0.04398615
#
# Stress axis : x y z
#
# Youngs Moduli (GPa) = 59.03972 36.80499 91.96239
#
# Poissons Ratio (x) = -0.02840 0.34484
# Poissons Ratio (y) = -0.04556 0.23172
# Poissons Ratio (z) = 0.22138 0.09274
#
# Static dielectric constant tensor:
#      x y z
#    x 3.480020 0.000000 0.454650 
#    y 0.000000 3.325930 0.000000 
#    z 0.454650 0.000000 3.706580 
# 
# 
# High freq. dielectric constant tensor:
#      x y z
#    x 1.727890 0.000000 0.027550 
#    y 0.000000 1.724400 0.000000 
#    z 0.027550 0.000000 1.751470 
# 
# From -- ./inp_files/66668.got.cif
#   From: 2010.06.25/outbox.cif.g09.slc.cpg/sg13_34_cif.got.tgz:66668.got - 2010.06.28 04:50:58.
