data_PCOD8117998
_publ_section_title
;
Structure prediction by ZEFSAII (Michael W. Deem and Ramdas Pophale) SiO2 
 PCOD8117998
Probable space group: P 2/C
;
_chemical_formula_sum "Si O2"
_cell_formula_units_Z 26
_cell_length_a 6.751659
_cell_length_b 8.583524
_cell_length_c 28.555859
_cell_angle_alpha 90.000000
_cell_angle_beta 53.736260
_cell_angle_gamma 90.000000
_cell_volume 1334.349237
_symmetry_space_group_name_H-M "P 2/C"
_symmetry_group_IT_number 13
_symmetry_cell_setting 'monoclinic'
loop_
_space_group_symop_operation_xyz
x,y,z
-x,y,1/2-z
-x,-y,-z
x,-y,1/2+z
loop_
_atom_site_type_symbol
_atom_site_label
_atom_site_fract_x
_atom_site_fract_y
_atom_site_fract_z
Si Si1 0.485193 0.013498 0.304011
Si Si2 0.000000 0.853827 0.750000
Si Si3 0.855378 0.802017 0.090989
Si Si4 0.047887 0.233583 0.346808
Si Si5 0.228617 0.061499 0.039446
Si Si6 0.310902 0.372790 0.972649
Si Si7 0.855414 0.458393 0.918214
O O1 0.500000 0.940281 0.250000
O O2 0.754498 0.043582 0.286838
O O3 0.319193 0.171414 0.323637
O O4 0.377030 0.885925 0.354133
O O5 0.013432 0.753235 0.795691
O O6 0.770909 0.662162 0.068538
O O7 0.003460 0.704209 0.109361
O O8 0.041312 0.932920 0.044176
O O9 0.853417 0.110579 0.396404
O O10 0.005542 0.406034 0.371722
O O11 0.237209 0.212499 0.007076
O O12 0.500000 0.000000 0.000000
O O13 0.591041 0.429565 0.932267
O O14 0.167887 0.505291 0.022339
#
# Coordination Sequence:
#
# PCOD8117998 Si02
#       7
#     4   2   4   4   4   4   4
#     4   9  21  39  60  83 106 142 190 246 288 323
#     4  10  20  40  64  80 104 146 204 238 278 344
#     4  11  21  35  60  85 115 152 191 231 282 348
#     4   9  21  38  59  82 113 152 188 234 285 336
#     4  10  19  35  56  87 122 147 184 240 283 331
#     4  10  21  35  54  83 118 160 186 218 284 344
#     4  10  21  38  52  82 124 150 183 232 279 342
#
# _framework density 19.485153
#
# number of rings (size 3 to 8) (size 9 to 14) (size 15 to 20)
#    0.000    2.154    1.538    0.923    2.154    2.462 
#    0.000    3.846    0.000    1.846    0.000    0.000 
#    0.000    0.000    0.000    0.000    0.000    0.000 
#
# Total GULP energy -322116.125390 kJ/mol
# GULP energy per Si atom -12389.081746 kJ/mol
# Density = 1.944080 g / cm^3
# Si number density = 19.485153 Si / 1000 Ang^3
#
#
#
# Elastic Constant Matrix: (Units=GPa)
#
#
# Indices 1 2 3 4 5 6 
#
# 1 76.9905 38.2698 49.7939 0.0000 -18.5842 0.0000
# 2 38.2698 87.6609 28.2923 0.0000 -15.5747 0.0000
# 3 49.7939 28.2923 85.8030 0.0000 -20.0267 0.0000
# 4 0.0000 0.0000 0.0000 21.6381 0.0000 -3.4669
# 5 -18.5842 -15.5747 -20.0267 0.0000 33.8169 0.0000
# 6 0.0000 0.0000 0.0000 -3.4669 0.0000 23.5381
#
#
#
# Elastic Compliance Matrix: (Units=1/GPa)
#
#
# Indices 1 2 3 4 5 6 
#
# 1 0.024218 -0.006316 -0.011075 0.000000 0.003841 0.000000
# 2 -0.006316 0.014880 -0.000524 0.000000 0.003072 0.000000
# 3 -0.011075 -0.000524 0.019469 0.000000 0.005202 0.000000
# 4 0.000000 0.000000 0.000000 0.047332 0.000000 0.006971
# 5 0.003841 0.003072 0.005202 0.000000 0.036177 0.000000
# 6 0.000000 0.000000 0.000000 0.006971 0.000000 0.043511
#
#
# Mechanical properties :
#
#
# Convention : Reuss Voigt Hill
#
# Bulk Modulus (GPa) = 43.98274 53.68514 48.83394
# Shear Modulus (GPa) = 21.83433 24.73850 23.28641
#
# Velocity S-wave (km/s) = 3.35111 3.56702 3.46075
# Velocity P-wave (km/s) = 6.13145 6.67656 6.40980
#
# Compressibility (1/GPa) = 0.02273619
#
# Stress axis : x y z
#
# Youngs Moduli (GPa) = 41.29093 67.20514 51.36388
#
# Poissons Ratio (x) = 0.42446 0.56888
# Poissons Ratio (y) = 0.26079 0.02692
# Poissons Ratio (z) = 0.45731 0.03523
#
# Static dielectric constant tensor:
#      x y z
#    x 3.504710 0.000000 -0.071200 
#    y 0.000000 3.400000 0.000000 
#    z -0.071200 0.000000 3.763650 
# 
# 
# High freq. dielectric constant tensor:
#      x y z
#    x 1.757150 0.000000 -0.012830 
#    y 0.000000 1.753430 0.000000 
#    z -0.012830 0.000000 1.758200 
# 
# From -- ./inp_files/94810.got.cif
#   From: 2010.06.25/outbox.cif.g09.slc.cpg/sg13_48_cif.got.tgz:94810.got - 2010.06.28 04:50:58.
