data_PCOD8117629
_publ_section_title
;
Structure prediction by ZEFSAII (Michael W. Deem and Ramdas Pophale) SiO2 
 PCOD8117629
Probable space group: P 2/C
;
_chemical_formula_sum "Si O2"
_cell_formula_units_Z 32
_cell_length_a 11.675575
_cell_length_b 17.820297
_cell_length_c 11.489303
_cell_angle_alpha 90.000000
_cell_angle_beta 135.818377
_cell_angle_gamma 90.000000
_cell_volume 1666.016324
_symmetry_space_group_name_H-M "P 2/C"
_symmetry_group_IT_number 13
_symmetry_cell_setting 'monoclinic'
loop_
_space_group_symop_operation_xyz
x,y,z
-x,y,1/2-z
-x,-y,-z
x,-y,1/2+z
loop_
_atom_site_type_symbol
_atom_site_label
_atom_site_fract_x
_atom_site_fract_y
_atom_site_fract_z
Si Si1 0.479399 0.773733 0.045196
Si Si2 0.865928 0.045156 0.560983
Si Si3 0.847867 0.398096 0.061310
Si Si4 0.232770 0.241398 0.563272
Si Si5 0.612362 0.072579 0.559568
Si Si6 0.429806 0.385542 0.454822
Si Si7 0.904005 0.095612 0.953470
Si Si8 0.637859 0.487627 0.753158
O O1 0.627515 0.751616 0.238109
O O2 0.313446 0.783366 0.999431
O O3 0.509109 0.850162 0.994803
O O4 0.465580 0.701564 0.948251
O O5 0.687190 0.067257 0.482526
O O6 0.000000 0.072994 0.750000
O O7 0.915837 0.084712 0.474590
O O8 0.879820 0.956133 0.549500
O O9 0.686642 0.385828 0.019159
O O10 0.000000 0.425052 0.250000
O O11 0.875978 0.317129 0.022411
O O12 0.810403 0.461266 0.936172
O O13 0.100975 0.180152 0.506681
O O14 0.757103 0.072977 0.759185
O O15 0.500000 0.000000 0.500000
O O16 0.593439 0.430925 0.614284
O O17 0.343678 0.427984 0.283812
O O18 0.500000 0.489172 0.750000
#
# Coordination Sequence:
#
# PCOD8117629 Si02
#       8
#     4   4   4   4   4   4   4   4
#     4   9  16  29  51  74  98 128 172 224 263 306
#     4   9  18  32  47  70  99 137 183 209 257 316
#     4  10  19  30  49  81 109 131 163 219 266 309
#     4   9  16  29  48  73 100 128 171 215 266 314
#     4  10  19  30  50  77 103 133 176 225 266 304
#     4   9  17  32  54  76  99 136 176 211 257 314
#     4   9  18  32  51  69  98 142 175 214 259 320
#     4   9  17  32  55  77 100 135 175 209 252 320
#
# _framework density 19.207494000000001
#
# number of rings (size 3 to 8) (size 9 to 14) (size 15 to 20)
#    0.000    2.750    1.250    0.750    0.000    2.500 
#    0.000    3.750    5.500    0.000    0.000    0.000 
#    0.000    0.000    0.000    0.000    0.000    0.000 
#
# Total GULP energy -396548.869900 kJ/mol
# GULP energy per Si atom -12392.152184 kJ/mol
# Density = 1.916378 g / cm^3
# Si number density = 19.207494 Si / 1000 Ang^3
#
#
#
# Elastic Constant Matrix: (Units=GPa)
#
#
# Indices 1 2 3 4 5 6 
#
# 1 82.7230 61.1362 16.6073 0.0000 -7.2377 0.0000
# 2 61.1362 170.5100 50.7834 0.0000 -7.5514 0.0000
# 3 16.6073 50.7834 62.1099 0.0000 -0.6821 0.0000
# 4 0.0000 0.0000 0.0000 30.4348 0.0000 -3.8253
# 5 -7.2377 -7.5514 -0.6821 0.0000 17.7239 0.0000
# 6 0.0000 0.0000 0.0000 -3.8253 0.0000 21.4288
#
#
#
# Elastic Compliance Matrix: (Units=1/GPa)
#
#
# Indices 1 2 3 4 5 6 
#
# 1 0.016781 -0.005952 0.000427 0.000000 0.004333 0.000000
# 2 -0.005952 0.010033 -0.006595 0.000000 0.001590 0.000000
# 3 0.000427 -0.006595 0.021358 0.000000 -0.001813 0.000000
# 4 0.000000 0.000000 0.000000 0.033611 0.000000 0.006000
# 5 0.004333 0.001590 -0.001813 0.000000 0.058798 0.000000
# 6 0.000000 0.000000 0.000000 0.006000 0.000000 0.047737
#
#
# Mechanical properties :
#
#
# Convention : Reuss Voigt Hill
#
# Bulk Modulus (GPa) = 41.78236 63.59962 52.69099
# Shear Modulus (GPa) = 22.67201 26.37190 24.52196
#
# Velocity S-wave (km/s) = 3.43938 3.70942 3.57695
# Velocity P-wave (km/s) = 6.12967 7.17845 6.67469
#
# Compressibility (1/GPa) = 0.02393354
#
# Stress axis : x y z
#
# Youngs Moduli (GPa) = 59.59219 99.66687 46.81994
#
# Poissons Ratio (x) = 0.59322 -0.02001
# Poissons Ratio (y) = 0.35470 0.30877
# Poissons Ratio (z) = -0.02546 0.65728
#
# Static dielectric constant tensor:
#      x y z
#    x 3.463730 0.000000 -0.074810 
#    y 0.000000 3.646950 0.000000 
#    z -0.074810 0.000000 3.329380 
# 
# 
# High freq. dielectric constant tensor:
#      x y z
#    x 1.725510 0.000000 -0.002940 
#    y 0.000000 1.748080 0.000000 
#    z -0.002940 0.000000 1.724800 
# 
# From -- ./inp_files/34714.got.cif
#   From: 2010.06.25/outbox.cif.g09.slc.cpg/sg13_18_cif.got.tgz:34714.got - 2010.06.28 04:50:58.
