data_PCOD8117435
_publ_section_title
;
Structure prediction by ZEFSAII (Michael W. Deem and Ramdas Pophale) SiO2 
 PCOD8117435
Probable space group: P 2/C
;
_chemical_formula_sum "Si O2"
_cell_formula_units_Z 30
_cell_length_a 8.971354
_cell_length_b 12.005006
_cell_length_c 22.252383
_cell_angle_alpha 90.000000
_cell_angle_beta 42.383959
_cell_angle_gamma 90.000000
_cell_volume 1615.542565
_symmetry_space_group_name_H-M "P 2/C"
_symmetry_group_IT_number 13
_symmetry_cell_setting 'monoclinic'
loop_
_space_group_symop_operation_xyz
x,y,z
-x,y,1/2-z
-x,-y,-z
x,-y,1/2+z
loop_
_atom_site_type_symbol
_atom_site_label
_atom_site_fract_x
_atom_site_fract_y
_atom_site_fract_z
Si Si1 0.672154 0.587354 0.826820
Si Si2 0.815155 0.825855 0.531757
Si Si3 0.077646 0.432549 0.127529
Si Si4 0.242098 0.980320 0.065670
Si Si5 0.993040 0.193907 0.403741
Si Si6 0.180108 0.434594 0.485746
Si Si7 0.000000 0.001222 0.250000
Si Si8 0.664019 0.831786 0.792422
O O1 0.752734 0.554263 0.868575
O O2 0.685337 0.720465 0.825238
O O3 0.829811 0.545510 0.726020
O O4 0.427499 0.537139 0.888071
O O5 0.832795 0.903481 0.467829
O O6 0.005490 0.839384 0.525911
O O7 0.838526 0.697741 0.507266
O O8 0.593094 0.861936 0.632638
O O9 0.145226 0.532423 0.064538
O O10 0.099052 0.317410 0.083260
O O11 0.112083 0.928918 0.162678
O O12 0.162116 0.106655 0.082967
O O13 0.500000 0.000000 0.000000
O O14 0.242005 0.186840 0.302659
O O15 0.000000 0.500000 0.500000
O O16 0.203101 0.073346 0.213320
#
# Coordination Sequence:
#
# PCOD8117435 Si02
#       8
#     4   4   4   4   4   4   2   4
#     4   9  19  33  58  84 112 145 197 245 290 334
#     4  11  21  36  55  86 118 151 191 229 296 345
#     4  10  19  37  58  86 111 148 196 247 293 337
#     4  11  22  37  61  84 114 152 191 241 287 342
#     4  10  20  34  59  84 117 142 189 243 294 340
#     4  11  22  36  56  84 121 155 189 235 290 352
#     4  10  18  36  56  86 112 146 188 240 286 334
#     4   9  17  31  58  85 110 141 185 248 290 326
#
# _framework density 18.569611999999999
#
# number of rings (size 3 to 8) (size 9 to 14) (size 15 to 20)
#    0.000    1.867    2.667    3.600    1.867    0.533 
#    0.000    1.333    0.000    0.000    0.000    0.000 
#    0.000    0.000    0.000    0.000    0.000    0.000 
#
# Total GULP energy -371682.873276 kJ/mol
# GULP energy per Si atom -12389.429109 kJ/mol
# Density = 1.852735 g / cm^3
# Si number density = 18.569612 Si / 1000 Ang^3
#
#
#
# Elastic Constant Matrix: (Units=GPa)
#
#
# Indices 1 2 3 4 5 6 
#
# 1 90.1497 30.5075 48.1524 0.0000 7.4858 0.0000
# 2 30.5075 54.0855 37.4717 0.0000 0.0382 0.0000
# 3 48.1524 37.4717 112.3644 0.0000 1.3494 0.0000
# 4 0.0000 0.0000 0.0000 31.2958 0.0000 6.1317
# 5 7.4858 0.0382 1.3494 0.0000 34.1964 0.0000
# 6 0.0000 0.0000 0.0000 6.1317 0.0000 27.8576
#
#
#
# Elastic Compliance Matrix: (Units=1/GPa)
#
#
# Indices 1 2 3 4 5 6 
#
# 1 0.015863 -0.005544 -0.004910 0.000000 -0.003273 0.000000
# 2 -0.005544 0.025985 -0.006307 0.000000 0.001433 0.000000
# 3 -0.004910 -0.006307 0.013100 0.000000 0.000565 0.000000
# 4 0.000000 0.000000 0.000000 0.033393 0.000000 -0.007350
# 5 -0.003273 0.001433 0.000565 0.000000 0.029935 0.000000
# 6 0.000000 0.000000 0.000000 -0.007350 0.000000 0.037515
#
#
# Mechanical properties :
#
#
# Convention : Reuss Voigt Hill
#
# Bulk Modulus (GPa) = 46.67049 54.31810 50.49429
# Shear Modulus (GPa) = 25.45114 28.03449 26.74282
#
# Velocity S-wave (km/s) = 3.70615 3.88970 3.79903
# Velocity P-wave (km/s) = 6.59556 7.03474 6.81868
#
# Compressibility (1/GPa) = 0.02142681
#
# Stress axis : x y z
#
# Youngs Moduli (GPa) = 63.03986 38.48395 76.33481
#
# Poissons Ratio (x) = 0.21334 0.37479
# Poissons Ratio (y) = 0.34947 0.48145
# Poissons Ratio (z) = 0.30952 0.24272
#
# Static dielectric constant tensor:
#      x y z
#    x 3.652080 0.000000 0.086770 
#    y 0.000000 3.178810 0.000000 
#    z 0.086770 0.000000 3.732470 
# 
# 
# High freq. dielectric constant tensor:
#      x y z
#    x 1.733360 0.000000 0.006310 
#    y 0.000000 1.690220 0.000000 
#    z 0.006310 0.000000 1.723240 
# 
# From -- ./inp_files/85210.got.cif
#   From: 2010.06.25/outbox.cif.g09.slc.cpg/sg13_43_cif.got.tgz:85210.got - 2010.06.28 04:50:58.
