data_PCOD8117148
_publ_section_title
;
Structure prediction by ZEFSAII (Michael W. Deem and Ramdas Pophale) SiO2 
 PCOD8117148
Probable space group: P 2/C
;
_chemical_formula_sum "Si O2"
_cell_formula_units_Z 28
_cell_length_a 15.427796
_cell_length_b 13.373714
_cell_length_c 8.923214
_cell_angle_alpha 90.000000
_cell_angle_beta 126.206594
_cell_angle_gamma 90.000000
_cell_volume 1485.568965
_symmetry_space_group_name_H-M "P 2/C"
_symmetry_group_IT_number 13
_symmetry_cell_setting 'monoclinic'
loop_
_space_group_symop_operation_xyz
x,y,z
-x,y,1/2-z
-x,-y,-z
x,-y,1/2+z
loop_
_atom_site_type_symbol
_atom_site_label
_atom_site_fract_x
_atom_site_fract_y
_atom_site_fract_z
Si Si1 0.195721 0.107066 0.739964
Si Si2 0.598990 0.746681 0.748410
Si Si3 0.038739 0.597845 0.122700
Si Si4 0.764223 0.088296 0.378351
Si Si5 0.274317 0.324246 0.850163
Si Si6 0.022217 0.188697 0.949822
Si Si7 0.479765 0.605868 0.406212
O O1 0.254114 0.211871 0.773130
O O2 0.069663 0.119410 0.568478
O O3 0.254281 0.022628 0.702809
O O4 0.204853 0.073618 0.919510
O O5 0.500000 0.782020 0.750000
O O6 0.657671 0.845811 0.747246
O O7 0.559764 0.685347 0.564318
O O8 0.677902 0.678761 0.931598
O O9 0.167834 0.608588 0.246593
O O10 0.984894 0.697530 0.995256
O O11 0.000000 0.583303 0.250000
O O12 0.000000 0.500000 0.000000
O O13 0.862475 0.142877 0.392143
O O14 0.355899 0.369367 0.812796
O O15 0.000000 0.196271 0.750000
O O16 0.500000 0.603579 0.250000
O O17 0.500000 0.500000 0.500000
#
# Coordination Sequence:
#
# PCOD8117148 Si02
#       7
#     4   4   4   4   4   4   4
#     4   9  18  32  52  77 106 140 175 216 271 320
#     4   9  19  37  56  78 107 142 182 223 270 324
#     4  10  20  35  55  80 109 145 181 218 273 330
#     4  10  18  32  54  77 104 140 177 219 265 317
#     4   9  20  39  56  77 114 146 178 228 272 322
#     4   8  16  32  51  72 103 141 177 211 259 325
#     4  11  23  39  60  83 106 140 184 227 273 324
#
# _framework density 18.847996999999999
#
# number of rings (size 3 to 8) (size 9 to 14) (size 15 to 20)
#    0.000    2.571    0.000    4.286    0.000    4.571 
#    0.000   10.000    0.000    0.000    0.000    0.000 
#    0.000    0.000    0.000    0.000    0.000    0.000 
#
# Total GULP energy -347133.315136 kJ/mol
# GULP energy per Si atom -12397.618398 kJ/mol
# Density = 1.880510 g / cm^3
# Si number density = 18.847997 Si / 1000 Ang^3
#
#
#
# Elastic Constant Matrix: (Units=GPa)
#
#
# Indices 1 2 3 4 5 6 
#
# 1 138.5969 80.6139 62.3099 0.0000 7.2658 0.0000
# 2 80.6139 143.2036 62.3264 0.0000 2.6355 0.0000
# 3 62.3099 62.3264 76.0799 0.0000 6.8539 0.0000
# 4 0.0000 0.0000 0.0000 25.0525 0.0000 -4.4960
# 5 7.2658 2.6355 6.8539 0.0000 30.6983 0.0000
# 6 0.0000 0.0000 0.0000 -4.4960 0.0000 33.0893
#
#
#
# Elastic Compliance Matrix: (Units=1/GPa)
#
#
# Indices 1 2 3 4 5 6 
#
# 1 0.012845 -0.004158 -0.007013 0.000000 -0.001117 0.000000
# 2 -0.004158 0.012233 -0.006746 0.000000 0.001440 0.000000
# 3 -0.007013 -0.006746 0.024710 0.000000 -0.003278 0.000000
# 4 0.000000 0.000000 0.000000 0.040914 0.000000 0.005559
# 5 -0.001117 0.001440 -0.003278 0.000000 0.033448 0.000000
# 6 0.000000 0.000000 0.000000 0.005559 0.000000 0.030977
#
#
# Mechanical properties :
#
#
# Convention : Reuss Voigt Hill
#
# Bulk Modulus (GPa) = 71.66635 85.37566 78.52100
# Shear Modulus (GPa) = 25.56068 27.94337 26.75203
#
# Velocity S-wave (km/s) = 3.68659 3.85459 3.77152
# Velocity P-wave (km/s) = 7.49847 8.07501 7.79207
#
# Compressibility (1/GPa) = 0.01395355
#
# Stress axis : x y z
#
# Youngs Moduli (GPa) = 77.84960 81.74370 40.46965
#
# Poissons Ratio (x) = 0.33989 0.28383
# Poissons Ratio (y) = 0.32370 0.27301
# Poissons Ratio (z) = 0.54598 0.55145
#
# Static dielectric constant tensor:
#      x y z
#    x 3.511780 0.000000 0.323800 
#    y 0.000000 3.592760 0.000000 
#    z 0.323800 0.000000 3.168020 
# 
# 
# High freq. dielectric constant tensor:
#      x y z
#    x 1.738460 0.000000 0.012870 
#    y 0.000000 1.737990 0.000000 
#    z 0.012870 0.000000 1.705710 
# 
# From -- ./inp_files/19135.got.cif
#   From: 2010.06.25/outbox.cif.g09.slc.cpg/sg13_10_cif.got.tgz:19135.got - 2010.06.28 04:50:58.
