data_PCOD8117036
_publ_section_title
;
Structure prediction by ZEFSAII (Michael W. Deem and Ramdas Pophale) SiO2 
 PCOD8117036
Probable space group: P 2/C
;
_chemical_formula_sum "Si O2"
_cell_formula_units_Z 28
_cell_length_a 5.012172
_cell_length_b 17.656398
_cell_length_c 18.536955
_cell_angle_alpha 90.000000
_cell_angle_beta 73.829449
_cell_angle_gamma 90.000000
_cell_volume 1575.561405
_symmetry_space_group_name_H-M "P 2/C"
_symmetry_group_IT_number 13
_symmetry_cell_setting 'monoclinic'
loop_
_space_group_symop_operation_xyz
x,y,z
-x,y,1/2-z
-x,-y,-z
x,-y,1/2+z
loop_
_atom_site_type_symbol
_atom_site_label
_atom_site_fract_x
_atom_site_fract_y
_atom_site_fract_z
Si Si1 0.691681 0.589834 0.044349
Si Si2 0.258517 0.246074 0.004358
Si Si3 0.655362 0.777133 0.604194
Si Si4 0.129987 0.491569 0.598250
Si Si5 0.000000 0.575271 0.750000
Si Si6 0.205382 0.913642 0.469581
Si Si7 0.500000 0.679645 0.750000
Si Si8 0.607187 0.064021 0.065271
O O1 0.368039 0.570962 0.071808
O O2 0.841458 0.549420 0.100413
O O3 0.733979 0.679743 0.045821
O O4 0.821559 0.561942 0.959001
O O5 0.517185 0.247635 0.039325
O O6 0.981003 0.240981 0.073772
O O7 0.283013 0.174019 0.947537
O O8 0.512326 0.731796 0.678983
O O9 0.607458 0.867478 0.623345
O O10 0.129013 0.521891 0.679243
O O11 0.768068 0.627165 0.731622
O O12 0.323372 0.931971 0.541265
O O13 0.873321 0.921907 0.492569
O O14 0.347986 0.977871 0.406270
#
# Coordination Sequence:
#
# PCOD8117036 Si02
#       8
#     4   4   4   4   2   4   2   4
#     4  10  19  33  50  71  94 119 155 198 241 283
#     4  10  18  30  48  69  95 120 154 199 244 277
#     4  10  19  29  44  68  96 128 155 190 232 279
#     4  10  21  34  50  68  92 124 155 192 241 287
#     4  12  24  38  52  70  96 128 162 194 234 294
#     4   8  14  24  41  63  87 117 144 178 222 267
#     4  12  22  32  48  68  94 126 162 188 224 280
#     4   8  14  25  39  60  91 118 145 174 215 265
#
# _framework density 17.771443000000001
#
# number of rings (size 3 to 8) (size 9 to 14) (size 15 to 20)
#    0.000    2.286    0.000    4.286    0.000    2.286 
#    0.000    0.000    0.000    0.000    0.000    2.000 
#    0.000    0.000    0.000    0.000    0.000    0.000 
#
# Total GULP energy -347006.631284 kJ/mol
# GULP energy per Si atom -12393.093974 kJ/mol
# Density = 1.773099 g / cm^3
# Si number density = 17.771443 Si / 1000 Ang^3
#
#
#
# Elastic Constant Matrix: (Units=GPa)
#
#
# Indices 1 2 3 4 5 6 
#
# 1 75.6701 13.8885 0.5068 0.0000 4.0490 0.0000
# 2 13.8885 148.1400 31.1566 0.0000 -0.6515 0.0000
# 3 0.5068 31.1566 43.7200 0.0000 4.9355 0.0000
# 4 0.0000 0.0000 0.0000 14.4617 0.0000 3.0629
# 5 4.0490 -0.6515 4.9355 0.0000 13.7432 0.0000
# 6 0.0000 0.0000 0.0000 3.0629 0.0000 23.0059
#
#
#
# Elastic Compliance Matrix: (Units=1/GPa)
#
#
# Indices 1 2 3 4 5 6 
#
# 1 0.013755 -0.001632 0.001532 0.000000 -0.004680 0.000000
# 2 -0.001632 0.008218 -0.006187 0.000000 0.003092 0.000000
# 3 0.001532 -0.006187 0.028504 0.000000 -0.010981 0.000000
# 4 0.000000 0.000000 0.000000 0.071154 0.000000 -0.009473
# 5 -0.004680 0.003092 -0.010981 0.000000 0.078232 0.000000
# 6 0.000000 0.000000 0.000000 -0.009473 0.000000 0.044728
#
#
# Mechanical properties :
#
#
# Convention : Reuss Voigt Hill
#
# Bulk Modulus (GPa) = 26.38322 39.84820 33.11571
# Shear Modulus (GPa) = 18.53224 25.04071 21.78648
#
# Velocity S-wave (km/s) = 3.23276 3.75779 3.50512
# Velocity P-wave (km/s) = 5.36772 6.42645 5.92080
#
# Compressibility (1/GPa) = 0.03790288
#
# Stress axis : x y z
#
# Youngs Moduli (GPa) = 72.70065 121.68105 35.08331
#
# Poissons Ratio (x) = 0.19863 -0.05375
# Poissons Ratio (y) = 0.11868 0.21705
# Poissons Ratio (z) = -0.11139 0.75281
#
# Static dielectric constant tensor:
#      x y z
#    x 3.433990 0.000000 0.023440 
#    y 0.000000 3.753670 0.000000 
#    z 0.023440 0.000000 2.680810 
# 
# 
# High freq. dielectric constant tensor:
#      x y z
#    x 1.714520 0.000000 0.003700 
#    y 0.000000 1.711360 0.000000 
#    z 0.003700 0.000000 1.603830 
# 
# From -- ./inp_files/44278.got.cif
#   From: 2010.06.25/outbox.cif.g09.slc.cpg/sg13_23_cif.got.tgz:44278.got - 2010.06.28 04:50:58.
