data_PCOD8117857
_publ_section_title
;
Structure prediction by ZEFSAII (Michael W. Deem and Ramdas Pophale) SiO2 
 PCOD8117857
Probable space group: P 2/C
;
_chemical_formula_sum "Si O2"
_cell_formula_units_Z 28
_cell_length_a 12.058060
_cell_length_b 9.393993
_cell_length_c 14.782966
_cell_angle_alpha 90.000000
_cell_angle_beta 117.144961
_cell_angle_gamma 90.000000
_cell_volume 1490.076356
_symmetry_space_group_name_H-M "P 2/C"
_symmetry_group_IT_number 13
_symmetry_cell_setting 'monoclinic'
loop_
_space_group_symop_operation_xyz
x,y,z
-x,y,1/2-z
-x,-y,-z
x,-y,1/2+z
loop_
_atom_site_type_symbol
_atom_site_label
_atom_site_fract_x
_atom_site_fract_y
_atom_site_fract_z
Si Si1 0.827451 0.608857 0.925289
Si Si2 0.542875 0.212092 0.579913
Si Si3 0.286956 0.116108 0.189722
Si Si4 0.490873 0.898544 0.614378
Si Si5 0.387855 0.398937 0.642145
Si Si6 0.024453 0.407364 0.653250
Si Si7 0.234632 0.802990 0.206345
O O1 0.811428 0.764781 0.875932
O O2 0.694551 0.539786 0.901889
O O3 0.895563 0.526721 0.868957
O O4 0.899988 0.614933 0.047675
O O5 0.558119 0.214190 0.477828
O O6 0.450621 0.340870 0.573639
O O7 0.678420 0.224363 0.674681
O O8 0.480346 0.062401 0.581382
O O9 0.364881 0.145476 0.310932
O O10 0.397870 0.109365 0.161251
O O11 0.213663 0.967592 0.173075
O O12 0.500000 0.439586 0.750000
O O13 0.299262 0.273697 0.645723
O O14 0.099666 0.259529 0.679811
O O15 0.000000 0.450339 0.750000
#
# Coordination Sequence:
#
# PCOD8117857 Si02
#       7
#     4   4   4   4   4   4   4
#     4  10  23  38  58  80 111 150 181 231 287 316
#     4   9  16  31  54  85 111 143 177 214 273 335
#     4  10  19  34  53  81 115 141 174 224 280 324
#     4   9  18  29  52  84 119 140 166 223 280 323
#     4   9  17  33  54  81 110 146 177 210 270 342
#     4  10  23  43  58  75 105 148 197 232 269 327
#     4   9  18  35  58  77 106 145 184 225 267 322
#
# _framework density 18.790983000000001
#
# number of rings (size 3 to 8) (size 9 to 14) (size 15 to 20)
#    0.000    2.571    1.429    0.000    4.000    1.714 
#    0.000    1.429    0.000    0.000    0.000    0.000 
#    0.000    0.000    0.000    0.000    0.000    0.000 
#
# Total GULP energy -346978.658076 kJ/mol
# GULP energy per Si atom -12392.094931 kJ/mol
# Density = 1.874821 g / cm^3
# Si number density = 18.790983 Si / 1000 Ang^3
#
#
#
# Elastic Constant Matrix: (Units=GPa)
#
#
# Indices 1 2 3 4 5 6 
#
# 1 69.6562 37.0604 35.7904 0.0000 9.8565 0.0000
# 2 37.0604 94.0704 41.4628 0.0000 12.1725 0.0000
# 3 35.7904 41.4628 92.9650 0.0000 -3.5094 0.0000
# 4 0.0000 0.0000 0.0000 28.5009 0.0000 -0.2540
# 5 9.8565 12.1725 -3.5094 0.0000 21.5061 0.0000
# 6 0.0000 0.0000 0.0000 -0.2540 0.0000 49.2043
#
#
#
# Elastic Compliance Matrix: (Units=1/GPa)
#
#
# Indices 1 2 3 4 5 6 
#
# 1 0.021228 -0.004419 -0.006515 0.000000 -0.008291 0.000000
# 2 -0.004419 0.015901 -0.005689 0.000000 -0.007904 0.000000
# 3 -0.006515 -0.005689 0.016136 0.000000 0.008839 0.000000
# 4 0.000000 0.000000 0.000000 0.035088 0.000000 0.000181
# 5 -0.008291 -0.007904 0.008839 0.000000 0.056214 0.000000
# 6 0.000000 0.000000 0.000000 0.000181 0.000000 0.020324
#
#
# Mechanical properties :
#
#
# Convention : Reuss Voigt Hill
#
# Bulk Modulus (GPa) = 49.95065 53.92430 51.93748
# Shear Modulus (GPa) = 24.41284 29.33413 26.87349
#
# Velocity S-wave (km/s) = 3.60832 3.95533 3.78580
# Velocity P-wave (km/s) = 6.63324 7.04406 6.84173
#
# Compressibility (1/GPa) = 0.02001976
#
# Stress axis : x y z
#
# Youngs Moduli (GPa) = 47.10833 62.88716 61.97352
#
# Poissons Ratio (x) = 0.27788 0.40373
# Poissons Ratio (y) = 0.20816 0.35259
# Poissons Ratio (z) = 0.30689 0.35779
#
# Static dielectric constant tensor:
#      x y z
#    x 3.341030 0.000000 -0.006730 
#    y 0.000000 3.424410 0.000000 
#    z -0.006730 0.000000 3.716770 
# 
# 
# High freq. dielectric constant tensor:
#      x y z
#    x 1.713650 0.000000 0.002150 
#    y 0.000000 1.723990 0.000000 
#    z 0.002150 0.000000 1.731970 
# 
# From -- ./inp_files/50091.got.cif
#   From: 2010.06.25/outbox.cif.g09.slc.cpg/sg13_26_cif.got.tgz:50091.got - 2010.06.28 04:50:58.
