data_PCOD8117220
_publ_section_title
;
Structure prediction by ZEFSAII (Michael W. Deem and Ramdas Pophale) SiO2 
 PCOD8117220
Probable space group: P 2/C
;
_chemical_formula_sum "Si O2"
_cell_formula_units_Z 32
_cell_length_a 8.489293
_cell_length_b 11.381316
_cell_length_c 20.398450
_cell_angle_alpha 90.000000
_cell_angle_beta 59.791689
_cell_angle_gamma 90.000000
_cell_volume 1703.241983
_symmetry_space_group_name_H-M "P 2/C"
_symmetry_group_IT_number 13
_symmetry_cell_setting 'monoclinic'
loop_
_space_group_symop_operation_xyz
x,y,z
-x,y,1/2-z
-x,-y,-z
x,-y,1/2+z
loop_
_atom_site_type_symbol
_atom_site_label
_atom_site_fract_x
_atom_site_fract_y
_atom_site_fract_z
Si Si1 0.117319 0.937410 0.418843
Si Si2 0.522726 0.085371 0.821695
Si Si3 0.292863 0.692918 0.770924
Si Si4 0.886244 0.333449 0.555393
Si Si5 0.516391 0.653979 0.324592
Si Si6 0.200661 0.532235 0.683566
Si Si7 0.144747 0.941272 0.776769
Si Si8 0.014863 0.558642 0.594825
O O1 0.330707 0.960158 0.392072
O O2 0.077489 0.797973 0.426296
O O3 0.073085 0.981576 0.353762
O O4 0.000000 0.000000 0.500000
O O5 0.500000 0.097529 0.750000
O O6 0.574501 0.215239 0.835321
O O7 0.686883 0.995842 0.799791
O O8 0.500000 0.694538 0.750000
O O9 0.278046 0.652858 0.698495
O O10 0.204218 0.819959 0.797754
O O11 0.180554 0.595188 0.834578
O O12 0.678810 0.374471 0.604426
O O13 0.008259 0.425337 0.570301
O O14 0.940819 0.343098 0.468291
O O15 0.500000 0.636057 0.250000
O O16 0.664085 0.572136 0.327277
O O17 0.000000 0.495910 0.750000
O O18 0.183214 0.559194 0.610312
O O19 0.000000 0.921217 0.750000
#
# Coordination Sequence:
#
# PCOD8117220 Si02
#       8
#     4   4   4   4   4   4   4   4
#     4  10  20  37  60  80 106 149 190 222 267 329
#     4   8  18  34  53  78 107 142 184 225 268 325
#     4  11  21  36  58  81 108 145 182 218 270 330
#     4  10  21  36  55  78 109 148 181 220 273 324
#     4  10  18  33  54  77 106 142 182 221 268 324
#     4  10  20  32  53  81 108 139 179 227 272 316
#     4  11  22  36  56  83 112 140 180 232 278 320
#     4  10  21  36  53  81 113 139 180 226 269 323
#
# _framework density 18.787700000000001
#
# number of rings (size 3 to 8) (size 9 to 14) (size 15 to 20)
#    0.000    2.000    0.000    6.375    0.000    2.000 
#    0.000    0.625    0.000    4.500    0.000    0.000 
#    0.000    0.000    0.000    0.000    0.000    0.000 
#
# Total GULP energy -396648.247721 kJ/mol
# GULP energy per Si atom -12395.257741 kJ/mol
# Density = 1.874494 g / cm^3
# Si number density = 18.787700 Si / 1000 Ang^3
#
#
#
# Elastic Constant Matrix: (Units=GPa)
#
#
# Indices 1 2 3 4 5 6 
#
# 1 119.5648 49.2404 55.4357 0.0000 8.6001 0.0000
# 2 49.2404 102.9738 44.6832 0.0000 2.4968 0.0000
# 3 55.4357 44.6832 95.4770 0.0000 4.5831 0.0000
# 4 0.0000 0.0000 0.0000 25.6086 0.0000 -7.9680
# 5 8.6001 2.4968 4.5831 0.0000 27.7607 0.0000
# 6 0.0000 0.0000 0.0000 -7.9680 0.0000 43.2722
#
#
#
# Elastic Compliance Matrix: (Units=1/GPa)
#
#
# Indices 1 2 3 4 5 6 
#
# 1 0.012574 -0.003558 -0.005508 0.000000 -0.002666 0.000000
# 2 -0.003558 0.013193 -0.004137 0.000000 0.000599 0.000000
# 3 -0.005508 -0.004137 0.015632 0.000000 -0.000502 0.000000
# 4 0.000000 0.000000 0.000000 0.041423 0.000000 0.007627
# 5 -0.002666 0.000599 -0.000502 0.000000 0.036877 0.000000
# 6 0.000000 0.000000 0.000000 0.007627 0.000000 0.024514
#
#
# Mechanical properties :
#
#
# Convention : Reuss Voigt Hill
#
# Bulk Modulus (GPa) = 66.69621 68.52601 67.61111
# Shear Modulus (GPa) = 28.47087 30.57206 29.52146
#
# Velocity S-wave (km/s) = 3.89704 4.03828 3.96829
# Velocity P-wave (km/s) = 7.47169 7.63522 7.55390
#
# Compressibility (1/GPa) = 0.01499336
#
# Stress axis : x y z
#
# Youngs Moduli (GPa) = 79.52617 75.79495 63.97161
#
# Poissons Ratio (x) = 0.26970 0.35234
# Poissons Ratio (y) = 0.28298 0.26467
# Poissons Ratio (z) = 0.43801 0.31358
#
# Static dielectric constant tensor:
#      x y z
#    x 3.235440 0.000000 0.126460 
#    y 0.000000 3.652350 0.000000 
#    z 0.126460 0.000000 3.346600 
# 
# 
# High freq. dielectric constant tensor:
#      x y z
#    x 1.720720 0.000000 -0.006760 
#    y 0.000000 1.740950 0.000000 
#    z -0.006760 0.000000 1.721870 
# 
# From -- ./inp_files/76257.got.cif
#   From: 2010.06.25/outbox.cif.g09.slc.cpg/sg13_39_cif.got.tgz:76257.got - 2010.06.28 04:50:58.
