data_PCOD8117041
_publ_section_title
;
Structure prediction by ZEFSAII (Michael W. Deem and Ramdas Pophale) SiO2 
 PCOD8117041
Probable space group: P 2/C
;
_chemical_formula_sum "Si O2"
_cell_formula_units_Z 32
_cell_length_a 13.495382
_cell_length_b 10.101637
_cell_length_c 18.926777
_cell_angle_alpha 90.000000
_cell_angle_beta 134.526055
_cell_angle_gamma 90.000000
_cell_volume 1839.507212
_symmetry_space_group_name_H-M "P 2/C"
_symmetry_group_IT_number 13
_symmetry_cell_setting 'monoclinic'
loop_
_space_group_symop_operation_xyz
x,y,z
-x,y,1/2-z
-x,-y,-z
x,-y,1/2+z
loop_
_atom_site_type_symbol
_atom_site_label
_atom_site_fract_x
_atom_site_fract_y
_atom_site_fract_z
Si Si1 0.338806 0.865105 0.886518
Si Si2 0.849962 0.646039 0.646628
Si Si3 0.661196 0.865105 0.047713
Si Si4 0.150037 0.646038 0.296666
Si Si5 0.659778 0.723385 0.750285
Si Si6 0.159752 0.468881 0.502839
Si Si7 0.340219 0.723385 0.590505
Si Si8 0.840247 0.531117 0.343087
O O1 0.269955 0.741710 0.889438
O O2 0.312944 0.847537 0.789088
O O3 0.274501 1.000000 0.887251
O O4 0.500001 0.859562 0.986254
O O5 0.822515 0.500001 0.661258
O O6 0.833145 0.644275 0.553084
O O7 0.000000 0.696297 0.750000
O O8 0.730046 0.741711 0.119484
O O9 0.687058 0.847536 0.976146
O O10 0.166853 0.644274 0.219938
O O11 0.000000 0.696296 0.250000
O O12 0.499999 0.676183 0.663978
O O13 0.693892 0.771837 0.846946
O O14 0.756463 0.599949 0.777007
O O15 0.243532 0.599949 0.520542
O O16 0.216901 0.419979 0.608451
O O17 0.999999 0.499995 0.431481
#
# Coordination Sequence:
#
# PCOD8117041 Si02
#       8
#     4   4   4   4   4   4   4   4
#     4  10  21  35  51  74 102 134 171 207 248 297
#     4  11  19  33  52  78 103 127 167 210 249 297
#     4  10  21  35  51  74 102 134 171 207 248 297
#     4  11  19  33  52  78 103 127 167 210 249 297
#     4   9  17  30  49  72  98 130 166 201 244 300
#     4  10  18  30  49  74 103 131 160 202 252 297
#     4   9  17  30  49  72  98 130 166 201 244 300
#     4  10  18  30  49  74 103 131 160 202 252 297
#
# _framework density 17.395965
#
# number of rings (size 3 to 8) (size 9 to 14) (size 15 to 20)
#    0.000    2.000    5.000    0.000    0.000    2.000 
#    0.000    1.250    0.000    1.500    0.000    8.750 
#    0.000    0.000    0.000    0.000    0.000    0.000 
#
# Total GULP energy -396517.807188 kJ/mol
# GULP energy per Si atom -12391.181475 kJ/mol
# Density = 1.735637 g / cm^3
# Si number density = 17.395965 Si / 1000 Ang^3
#
#
#
# Elastic Constant Matrix: (Units=GPa)
#
#
# Indices 1 2 3 4 5 6 
#
# 1 84.5832 34.5717 40.3063 0.0000 -20.0458 0.0000
# 2 34.5717 44.2690 34.8223 0.0000 1.6248 0.0000
# 3 40.3063 34.8223 78.6171 0.0000 -18.5360 0.0000
# 4 0.0000 0.0000 0.0000 -75.0963 0.0000 -81.1811
# 5 -20.0458 1.6248 -18.5360 0.0000 30.3662 0.0000
# 6 0.0000 0.0000 0.0000 -81.1811 0.0000 -62.5494
#
#
#
# Elastic Compliance Matrix: (Units=1/GPa)
#
#
# Indices 1 2 3 4 5 6 
#
# 1 0.023487 -0.019358 0.000505 0.000000 0.016849 0.000000
# 2 -0.019358 0.055758 -0.021597 0.000000 -0.028946 0.000000
# 3 0.000505 -0.021597 0.026140 0.000000 0.017445 0.000000
# 4 0.000000 0.000000 0.000000 0.033040 0.000000 -0.042882
# 5 0.016849 -0.028946 0.017445 0.000000 0.056252 0.000000
# 6 0.000000 0.000000 0.000000 -0.042882 0.000000 0.039667
#
#
# Mechanical properties :
#
#
# Convention : Reuss Voigt Hill
#
# Bulk Modulus (GPa) = 40.84075 47.43000 44.13537
# Shear Modulus (GPa) = 15.46046 -14.93798 0.26124
#
# Velocity S-wave (km/s) = 2.98441 -2.93354 0.38794
# Velocity P-wave (km/s) = 5.95010 3.98119 5.06229
#
# Compressibility (1/GPa) = 0.02448535
#
# Stress axis : x y z
#
# Youngs Moduli (GPa) = 42.57613 17.93478 38.25548
#
# Poissons Ratio (x) = 0.34719 -0.01933
# Poissons Ratio (y) = 0.82420 0.82620
# Poissons Ratio (z) = -0.02151 0.38733
#
# Static dielectric constant tensor:
#      x y z
#    x 3.877720 0.000000 -0.545450 
#    y 0.000000 3.021820 0.000000 
#    z -0.545450 0.000000 3.793480 
# 
# 
# High freq. dielectric constant tensor:
#      x y z
#    x 1.686400 0.000000 -0.012370 
#    y 0.000000 1.624140 0.000000 
#    z -0.012370 0.000000 1.684490 
# 
# From -- ./inp_files/79846.got.cif
#   From: 2010.06.25/outbox.cif.g09.slc.cpg/sg13_40_cif.got.tgz:79846.got - 2010.06.28 04:50:58.
