data_PCOD8117989
_publ_section_title
;
Structure prediction by ZEFSAII (Michael W. Deem and Ramdas Pophale) SiO2 
 PCOD8117989
Probable space group: P 2/C
;
_chemical_formula_sum "Si O2"
_cell_formula_units_Z 28
_cell_length_a 8.605823
_cell_length_b 8.847261
_cell_length_c 30.497621
_cell_angle_alpha 90.000000
_cell_angle_beta 38.496748
_cell_angle_gamma 90.000000
_cell_volume 1445.392471
_symmetry_space_group_name_H-M "P 2/C"
_symmetry_group_IT_number 13
_symmetry_cell_setting 'monoclinic'
loop_
_space_group_symop_operation_xyz
x,y,z
-x,y,1/2-z
-x,-y,-z
x,-y,1/2+z
loop_
_atom_site_type_symbol
_atom_site_label
_atom_site_fract_x
_atom_site_fract_y
_atom_site_fract_z
Si Si1 0.638484 0.711231 0.487924
Si Si2 0.837474 0.777787 0.154583
Si Si3 0.345708 0.714664 0.848723
Si Si4 0.656829 0.874452 0.565868
Si Si5 0.500000 0.969561 0.750000
Si Si6 0.782387 0.386382 0.485313
Si Si7 0.500000 0.522773 0.250000
Si Si8 0.766130 0.188043 0.570800
O O1 0.529691 0.828647 0.547888
O O2 0.758060 0.567440 0.487717
O O3 0.415936 0.680031 0.504610
O O4 0.864134 0.786357 0.410972
O O5 0.749443 0.623376 0.197395
O O6 0.711105 0.773162 0.133620
O O7 0.737174 0.919102 0.205373
O O8 0.429233 0.748621 0.879801
O O9 0.413769 0.870293 0.809762
O O10 0.506543 0.580459 0.792203
O O11 0.052380 0.673284 0.910390
O O12 0.951250 0.864474 0.494162
O O13 0.591804 0.046861 0.593766
O O14 0.720128 0.331686 0.548682
#
# Coordination Sequence:
#
# PCOD8117989 Si02
#       8
#     4   4   4   4   2   4   2   4
#     4  10  21  35  54  80 110 137 170 221 270 313
#     4  10  19  35  55  82 102 138 179 218 259 309
#     4  10  19  35  55  82 102 138 179 218 259 309
#     4   9  18  32  53  78 104 133 176 223 261 304
#     4  10  20  34  56  76 110 138 174 222 250 308
#     4  10  21  35  54  80 110 137 170 221 270 313
#     4  10  20  30  56  80 102 142 182 214 250 308
#     4   9  18  32  53  78 104 133 176 223 261 304
#
# _framework density 19.371901000000001
#
# number of rings (size 3 to 8) (size 9 to 14) (size 15 to 20)
#    0.000    2.286    2.857    0.000    4.000    2.286 
#    0.000    0.000    0.000   10.286    0.000    0.000 
#    0.000    0.000    0.000    0.000    0.000    0.000 
#
# Total GULP energy -346959.989211 kJ/mol
# GULP energy per Si atom -12391.428186 kJ/mol
# Density = 1.932781 g / cm^3
# Si number density = 19.371901 Si / 1000 Ang^3
#
#
#
# Elastic Constant Matrix: (Units=GPa)
#
#
# Indices 1 2 3 4 5 6 
#
# 1 41.8983 6.3987 17.2395 0.0000 0.2281 0.0000
# 2 6.3987 85.2021 31.5223 0.0000 -1.7897 0.0000
# 3 17.2395 31.5223 87.2331 0.0000 7.3784 0.0000
# 4 0.0000 0.0000 0.0000 31.4138 0.0000 5.8418
# 5 0.2281 -1.7897 7.3784 0.0000 10.1080 0.0000
# 6 0.0000 0.0000 0.0000 5.8418 0.0000 21.8369
#
#
#
# Elastic Compliance Matrix: (Units=1/GPa)
#
#
# Indices 1 2 3 4 5 6 
#
# 1 0.026090 0.000149 -0.005502 0.000000 0.003454 0.000000
# 2 0.000149 0.013944 -0.005624 0.000000 0.006571 0.000000
# 3 -0.005502 -0.005624 0.015621 0.000000 -0.012275 0.000000
# 4 0.000000 0.000000 0.000000 0.033500 0.000000 -0.008962
# 5 0.003454 0.006571 -0.012275 0.000000 0.108977 0.000000
# 6 0.000000 0.000000 0.000000 -0.008962 0.000000 0.048191
#
#
# Mechanical properties :
#
#
# Convention : Reuss Voigt Hill
#
# Bulk Modulus (GPa) = 29.67276 36.07274 32.87275
# Shear Modulus (GPa) = 17.88833 23.28328 20.58580
#
# Velocity S-wave (km/s) = 3.04207 3.47062 3.26339
# Velocity P-wave (km/s) = 5.26209 5.89252 5.58621
#
# Compressibility (1/GPa) = 0.03370094
#
# Stress axis : x y z
#
# Youngs Moduli (GPa) = 38.32946 71.71332 64.01486
#
# Poissons Ratio (x) = -0.01067 0.35220
# Poissons Ratio (y) = -0.00570 0.36003
# Poissons Ratio (z) = 0.21088 0.40332
#
# Static dielectric constant tensor:
#      x y z
#    x 3.167710 0.000000 0.305970 
#    y 0.000000 3.922660 0.000000 
#    z 0.305970 0.000000 3.724260 
# 
# 
# High freq. dielectric constant tensor:
#      x y z
#    x 1.702860 0.000000 0.024000 
#    y 0.000000 1.774550 0.000000 
#    z 0.024000 0.000000 1.754950 
# 
# From -- ./inp_files/69322.got.cif
#   From: 2010.06.25/outbox.cif.g09.slc.cpg/sg13_35_cif.got.tgz:69322.got - 2010.06.28 04:50:58.
