data_PCOD8117164
_publ_section_title
;
Structure prediction by ZEFSAII (Michael W. Deem and Ramdas Pophale) SiO2 
 PCOD8117164
Probable space group: P 2/C
;
_chemical_formula_sum "Si O2"
_cell_formula_units_Z 26
_cell_length_a 13.096600
_cell_length_b 9.818036
_cell_length_c 21.456066
_cell_angle_alpha 90.000000
_cell_angle_beta 31.022056
_cell_angle_gamma 90.000000
_cell_volume 1421.840012
_symmetry_space_group_name_H-M "P 2/C"
_symmetry_group_IT_number 13
_symmetry_cell_setting 'monoclinic'
loop_
_space_group_symop_operation_xyz
x,y,z
-x,y,1/2-z
-x,-y,-z
x,-y,1/2+z
loop_
_atom_site_type_symbol
_atom_site_label
_atom_site_fract_x
_atom_site_fract_y
_atom_site_fract_z
Si Si1 0.320094 0.274809 0.227331
Si Si2 0.500000 0.379256 0.250000
Si Si3 0.706523 0.009647 0.814750
Si Si4 0.729397 0.938778 0.938679
Si Si5 0.938091 0.328463 0.353023
Si Si6 0.047374 0.196675 0.653407
Si Si7 0.699240 0.429051 0.025999
O O1 0.346575 0.291426 0.288098
O O2 0.316117 0.111684 0.222405
O O3 0.507596 0.351866 0.095367
O O4 0.122435 0.346292 0.303785
O O5 0.642843 0.463548 0.127927
O O6 0.787387 0.936230 0.835254
O O7 0.859931 0.128539 0.716088
O O8 0.502606 0.089248 0.932441
O O9 0.853390 0.822610 0.908152
O O10 0.776074 0.086651 0.942244
O O11 0.758023 0.430747 0.462628
O O12 0.000000 0.357319 0.250000
O O13 0.112300 0.328094 0.580030
O O14 0.000000 0.237320 0.750000
#
# Coordination Sequence:
#
# PCOD8117164 Si02
#       7
#     4   2   4   4   4   4   4
#     4  10  20  40  59  80 114 156 190 241 283 337
#     4   8  22  44  58  72 110 174 198 220 298 334
#     4  10  18  32  60  83 122 155 185 230 287 354
#     4  10  18  32  55  88 122 151 181 222 296 361
#     4  12  22  35  60  95 118 143 188 244 302 342
#     4  10  18  32  57  89 117 150 183 227 302 355
#     4  10  23  39  58  82 118 154 196 240 281 348
#
# _framework density 18.286165
#
# number of rings (size 3 to 8) (size 9 to 14) (size 15 to 20)
#    0.923    0.923    4.615    0.923    0.000    2.462 
#    0.000    0.769    0.000    0.923    0.000    0.000 
#    0.000    0.000    0.000    0.000    0.000    0.000 
#
# Total GULP energy -322157.827975 kJ/mol
# GULP energy per Si atom -12390.685691 kJ/mol
# Density = 1.824454 g / cm^3
# Si number density = 18.286165 Si / 1000 Ang^3
#
#
#
# Elastic Constant Matrix: (Units=GPa)
#
#
# Indices 1 2 3 4 5 6 
#
# 1 89.3164 15.1571 24.5123 0.0000 -5.1762 0.0000
# 2 15.1571 66.5701 35.6085 0.0000 5.5106 0.0000
# 3 24.5123 35.6085 86.6976 0.0000 -1.1118 0.0000
# 4 0.0000 0.0000 0.0000 17.2903 0.0000 -8.4068
# 5 -5.1762 5.5106 -1.1118 0.0000 32.3844 0.0000
# 6 0.0000 0.0000 0.0000 -8.4068 0.0000 16.7746
#
#
#
# Elastic Compliance Matrix: (Units=1/GPa)
#
#
# Indices 1 2 3 4 5 6 
#
# 1 0.012353 -0.001454 -0.002868 0.000000 0.002123 0.000000
# 2 -0.001454 0.019839 -0.007787 0.000000 -0.003876 0.000000
# 3 -0.002868 -0.007787 0.015561 0.000000 0.001401 0.000000
# 4 0.000000 0.000000 0.000000 0.076469 0.000000 0.038323
# 5 0.002123 -0.003876 0.001401 0.000000 0.031926 0.000000
# 6 0.000000 0.000000 0.000000 0.038323 0.000000 0.078820
#
#
# Mechanical properties :
#
#
# Convention : Reuss Voigt Hill
#
# Bulk Modulus (GPa) = 42.48971 43.68222 43.08596
# Shear Modulus (GPa) = 18.72433 24.44360 21.58397
#
# Velocity S-wave (km/s) = 3.20341 3.66009 3.43934
# Velocity P-wave (km/s) = 6.08020 6.46542 6.27577
#
# Compressibility (1/GPa) = 0.02353511
#
# Stress axis : x y z
#
# Youngs Moduli (GPa) = 80.95104 50.40616 64.26156
#
# Poissons Ratio (x) = 0.07330 0.18431
# Poissons Ratio (y) = 0.11772 0.50039
# Poissons Ratio (z) = 0.23218 0.39250
#
# Static dielectric constant tensor:
#      x y z
#    x 3.153820 0.000000 -0.247590 
#    y 0.000000 3.124790 0.000000 
#    z -0.247590 0.000000 3.350570 
# 
# 
# High freq. dielectric constant tensor:
#      x y z
#    x 1.682330 0.000000 -0.028410 
#    y 0.000000 1.696380 0.000000 
#    z -0.028410 0.000000 1.707930 
# 
# From -- ./inp_files/87154.got.cif
#   From: 2010.06.25/outbox.cif.g09.slc.cpg/sg13_44_cif.got.tgz:87154.got - 2010.06.28 04:50:58.
