data_PCOD8117289
_publ_section_title
;
Structure prediction by ZEFSAII (Michael W. Deem and Ramdas Pophale) SiO2 
 PCOD8117289
Probable space group: P 2/C
;
_chemical_formula_sum "Si O2"
_cell_formula_units_Z 20
_cell_length_a 15.902989
_cell_length_b 14.312980
_cell_length_c 8.475431
_cell_angle_alpha 90.000000
_cell_angle_beta 31.685207
_cell_angle_gamma 90.000000
_cell_volume 1013.300605
_symmetry_space_group_name_H-M "P 2/C"
_symmetry_group_IT_number 13
_symmetry_cell_setting 'monoclinic'
loop_
_space_group_symop_operation_xyz
x,y,z
-x,y,1/2-z
-x,-y,-z
x,-y,1/2+z
loop_
_atom_site_type_symbol
_atom_site_label
_atom_site_fract_x
_atom_site_fract_y
_atom_site_fract_z
Si Si1 0.000000 0.336706 0.750000
Si Si2 0.779350 0.858706 0.130408
Si Si3 0.500000 0.771038 0.750000
Si Si4 0.043559 0.186716 0.434823
Si Si5 0.000000 0.970720 0.250000
Si Si6 0.500000 0.541043 0.250000
Si Si7 0.666113 0.388725 0.180533
O O1 0.079937 0.272662 0.489228
O O2 0.143303 0.396302 0.595759
O O3 0.600694 0.841752 0.478411
O O4 0.793453 0.824065 0.926606
O O5 0.895649 0.795132 0.053255
O O6 0.840346 0.966225 0.028101
O O7 0.387006 0.707501 0.819096
O O8 0.990727 0.093065 0.610426
O O9 0.632887 0.475606 0.119129
O O10 0.422909 0.604747 0.508966
#
# Coordination Sequence:
#
# PCOD8117289 Si02
#       7
#     2   4   2   4   2   2   4
#     4  11  20  36  62  91 112 142 204 235 268 340
#     4  10  18  34  54  81 113 160 191 234 282 333
#     4  11  22  36  56  89 120 148 192 239 290 332
#     4   9  19  35  57  82 112 160 192 237 279 331
#     4   9  18  36  58  77 118 156 206 231 282 334
#     4   9  22  44  62  81 118 156 172 229 316 332
#     4  10  22  40  61  85 117 149 187 235 282 360
#
# _framework density 19.737479
#
# number of rings (size 3 to 8) (size 9 to 14) (size 15 to 20)
#    0.000    2.400    2.000    2.400    2.800    0.800 
#    0.000    4.000    0.000    0.000    0.000    0.000 
#    0.000    0.000    0.000    0.000    0.000    0.000 
#
# Total GULP energy -247838.616328 kJ/mol
# GULP energy per Si atom -12391.930816 kJ/mol
# Density = 1.969256 g / cm^3
# Si number density = 19.737479 Si / 1000 Ang^3
#
#
#
# Elastic Constant Matrix: (Units=GPa)
#
#
# Indices 1 2 3 4 5 6 
#
# 1 99.4702 30.4505 48.8724 0.0000 1.8118 0.0000
# 2 30.4505 68.0938 47.9015 0.0000 -0.2280 0.0000
# 3 48.8724 47.9015 146.6657 0.0000 7.7068 0.0000
# 4 0.0000 0.0000 0.0000 18.2573 0.0000 3.5242
# 5 1.8118 -0.2280 7.7068 0.0000 42.1778 0.0000
# 6 0.0000 0.0000 0.0000 3.5242 0.0000 11.7155
#
#
#
# Elastic Compliance Matrix: (Units=1/GPa)
#
#
# Indices 1 2 3 4 5 6 
#
# 1 0.012629 -0.003489 -0.003069 0.000000 -0.000001 0.000000
# 2 -0.003489 0.020096 -0.005467 0.000000 0.001257 0.000000
# 3 -0.003069 -0.005467 0.009714 0.000000 -0.001673 0.000000
# 4 0.000000 0.000000 0.000000 0.058149 0.000000 -0.017492
# 5 -0.000001 0.001257 -0.001673 0.000000 0.024022 0.000000
# 6 0.000000 0.000000 0.000000 -0.017492 0.000000 0.090619
#
#
# Mechanical properties :
#
#
# Convention : Reuss Voigt Hill
#
# Bulk Modulus (GPa) = 54.37700 63.18651 58.78175
# Shear Modulus (GPa) = 20.37427 26.89714 23.63570
#
# Velocity S-wave (km/s) = 3.21637 3.69554 3.46425
# Velocity P-wave (km/s) = 6.43454 7.09171 6.77110
#
# Compressibility (1/GPa) = 0.01839013
#
# Stress axis : x y z
#
# Youngs Moduli (GPa) = 79.18245 49.76200 102.94175
#
# Poissons Ratio (x) = 0.17360 0.31591
# Poissons Ratio (y) = 0.27624 0.56277
# Poissons Ratio (z) = 0.24300 0.27204
#
# Static dielectric constant tensor:
#      x y z
#    x 3.697130 0.000000 0.360460 
#    y 0.000000 3.366120 0.000000 
#    z 0.360460 0.000000 3.629040 
# 
# 
# High freq. dielectric constant tensor:
#      x y z
#    x 1.773230 0.000000 0.028920 
#    y 0.000000 1.749510 0.000000 
#    z 0.028920 0.000000 1.766070 
# 
# From -- ./inp_files/16113.got.cif
#   From: 2010.06.25/outbox.cif.g09.slc.cpg/sg13_9_cif.got.tgz:16113.got - 2010.06.28 04:50:58.
