data_PCOD8117951
_publ_section_title
;
Structure prediction by ZEFSAII (Michael W. Deem and Ramdas Pophale) SiO2 
 PCOD8117951
Probable space group: P 2/C
;
_chemical_formula_sum "Si O2"
_cell_formula_units_Z 32
_cell_length_a 15.255302
_cell_length_b 21.653475
_cell_length_c 9.063135
_cell_angle_alpha 90.000000
_cell_angle_beta 148.310410
_cell_angle_gamma 90.000000
_cell_volume 1572.708978
_symmetry_space_group_name_H-M "P 2/C"
_symmetry_group_IT_number 13
_symmetry_cell_setting 'monoclinic'
loop_
_space_group_symop_operation_xyz
x,y,z
-x,y,1/2-z
-x,-y,-z
x,-y,1/2+z
loop_
_atom_site_type_symbol
_atom_site_label
_atom_site_fract_x
_atom_site_fract_y
_atom_site_fract_z
Si Si1 0.687749 0.979264 0.299832
Si Si2 0.885855 0.869219 0.446550
Si Si3 0.824072 0.338647 0.566671
Si Si4 0.827882 0.533745 0.236186
Si Si5 0.329870 0.249466 0.923683
Si Si6 0.636680 0.453431 0.750966
Si Si7 0.130807 0.051406 0.152875
Si Si8 0.499021 0.680572 0.084840
O O1 0.751426 0.923849 0.284256
O O2 0.718183 0.957722 0.511169
O O3 0.795229 0.040689 0.405565
O O4 0.500000 0.000000 0.000000
O O5 0.782994 0.810410 0.250314
O O6 0.024640 0.885441 0.518416
O O7 0.000000 0.854591 0.750000
O O8 0.831297 0.410391 0.623479
O O9 0.779227 0.300253 0.647860
O O10 0.000000 0.318012 0.750000
O O11 0.686224 0.324267 0.246038
O O12 0.772760 0.556757 0.317645
O O13 0.000000 0.500000 0.500000
O O14 0.706539 0.481059 0.001946
O O15 0.378656 0.276226 0.834489
O O16 0.500000 0.231849 0.250000
O O17 0.500000 0.500000 0.500000
O O18 0.568408 0.387633 0.695240
O O19 0.000000 0.000000 0.000000
O O20 0.500000 0.709823 0.250000
#
# Coordination Sequence:
#
# PCOD8117951 Si02
#       8
#     4   4   4   4   4   4   4   4
#     4  10  19  34  59  93 127 162 201 250 304 355
#     4   9  20  39  60  88 126 165 206 254 305 366
#     4  11  24  44  63  88 124 157 202 263 313 371
#     4  12  25  41  58  93 127 154 197 255 310 382
#     4  10  23  45  67  85 119 168 216 258 313 372
#     4  12  23  39  64  90 122 160 196 249 319 380
#     4   9  18  34  56  86 125 162 198 247 304 352
#     4  11  24  43  65  91 118 159 209 256 316 383
#
# _framework density 20.347057
#
# number of rings (size 3 to 8) (size 9 to 14) (size 15 to 20)
#    0.000    1.500    2.500    3.750    1.750    3.000 
#    0.000    7.500    0.000    1.500    0.000    0.000 
#    0.000    0.000    0.000    0.000    0.000    0.000 
#
# Total GULP energy -396608.709367 kJ/mol
# GULP energy per Si atom -12394.022168 kJ/mol
# Density = 2.030075 g / cm^3
# Si number density = 20.347057 Si / 1000 Ang^3
#
#
#
# Elastic Constant Matrix: (Units=GPa)
#
#
# Indices 1 2 3 4 5 6 
#
# 1 120.1334 34.3110 33.0893 0.0000 2.8216 0.0000
# 2 34.3110 99.1059 51.3797 0.0000 4.5419 0.0000
# 3 33.0893 51.3797 90.9723 0.0000 15.4389 0.0000
# 4 0.0000 0.0000 0.0000 40.3322 0.0000 9.3209
# 5 2.8216 4.5419 15.4389 0.0000 33.3720 0.0000
# 6 0.0000 0.0000 0.0000 9.3209 0.0000 26.1426
#
#
#
# Elastic Compliance Matrix: (Units=1/GPa)
#
#
# Indices 1 2 3 4 5 6 
#
# 1 0.009569 -0.002098 -0.002395 0.000000 0.000584 0.000000
# 2 -0.002098 0.014844 -0.007931 0.000000 0.001826 0.000000
# 3 -0.002395 -0.007931 0.017499 0.000000 -0.006814 0.000000
# 4 0.000000 0.000000 0.000000 0.027021 0.000000 -0.009634
# 5 0.000584 0.001826 -0.006814 0.000000 0.032820 0.000000
# 6 0.000000 0.000000 0.000000 -0.009634 0.000000 0.041687
#
#
# Mechanical properties :
#
#
# Convention : Reuss Voigt Hill
#
# Bulk Modulus (GPa) = 58.59824 60.86351 59.73088
# Shear Modulus (GPa) = 28.73980 32.73146 30.73563
#
# Velocity S-wave (km/s) = 3.76237 4.01516 3.89082
# Velocity P-wave (km/s) = 6.90911 7.17447 7.04304
#
# Compressibility (1/GPa) = 0.01706536
#
# Stress axis : x y z
#
# Youngs Moduli (GPa) = 104.50181 67.36534 57.14667
#
# Poissons Ratio (x) = 0.14134 0.13685
# Poissons Ratio (y) = 0.21926 0.45321
# Poissons Ratio (z) = 0.25026 0.53425
#
# Static dielectric constant tensor:
#      x y z
#    x 4.461780 0.000000 -0.014200 
#    y 0.000000 3.600390 0.000000 
#    z -0.014200 0.000000 3.827540 
# 
# 
# High freq. dielectric constant tensor:
#      x y z
#    x 1.805630 0.000000 0.004370 
#    y 0.000000 1.775930 0.000000 
#    z 0.004370 0.000000 1.802570 
# 
# From -- ./inp_files/20237.got.cif
#   From: 2010.06.25/outbox.cif.g09.slc.cpg/sg13_11_cif.got.tgz:20237.got - 2010.06.28 04:50:58.
