data_PCOD8117445
_publ_section_title
;
Structure prediction by ZEFSAII (Michael W. Deem and Ramdas Pophale) SiO2 
 PCOD8117445
Probable space group: P 2/C
;
_chemical_formula_sum "Si O2"
_cell_formula_units_Z 22
_cell_length_a 22.521084
_cell_length_b 6.996787
_cell_length_c 15.343630
_cell_angle_alpha 90.000000
_cell_angle_beta 153.649808
_cell_angle_gamma 90.000000
_cell_volume 1073.145243
_symmetry_space_group_name_H-M "P 2/C"
_symmetry_group_IT_number 13
_symmetry_cell_setting 'monoclinic'
loop_
_space_group_symop_operation_xyz
x,y,z
-x,y,1/2-z
-x,-y,-z
x,-y,1/2+z
loop_
_atom_site_type_symbol
_atom_site_label
_atom_site_fract_x
_atom_site_fract_y
_atom_site_fract_z
Si Si1 0.233696 0.663683 0.452286
Si Si2 0.792441 0.329111 0.867505
Si Si3 0.840621 0.968499 0.285972
Si Si4 0.704135 0.626602 0.612926
Si Si5 0.569268 0.456176 0.681616
Si Si6 0.000000 0.496011 0.750000
O O1 0.212240 0.858166 0.369810
O O2 0.240979 0.481943 0.398766
O O3 0.368905 0.647729 0.689798
O O4 0.108234 0.644966 0.350898
O O5 0.791087 0.143108 0.806270
O O6 0.754498 0.519653 0.764996
O O7 0.690211 0.309245 0.815828
O O8 0.940573 0.363195 0.098675
O O9 0.764581 0.165311 0.189015
O O10 0.000000 0.000000 0.500000
O O11 0.541473 0.636965 0.400083
O O12 0.500000 0.500000 0.500000
#
# Coordination Sequence:
#
# PCOD8117445 Si02
#       6
#     4   4   4   4   4   2
#     4  10  21  38  60  84 114 153 194 242 295 352
#     4   9  20  37  58  83 117 155 194 243 295 350
#     4  11  22  37  60  90 119 154 197 244 301 359
#     4  10  20  38  60  85 117 153 196 243 293 355
#     4   9  19  39  61  82 114 154 195 240 291 346
#     4  10  18  36  58  80 116 156 192 240 296 350
#
# _framework density 20.500485999999999
#
# number of rings (size 3 to 8) (size 9 to 14) (size 15 to 20)
#    0.000    2.182    0.000    2.727    0.000    3.636 
#    0.000   33.636    0.000    0.000    0.000    0.000 
#    0.000    0.000    0.000    0.000    0.000    0.000 
#
# Total GULP energy -272618.120982 kJ/mol
# GULP energy per Si atom -12391.732772 kJ/mol
# Density = 2.045383 g / cm^3
# Si number density = 20.500486 Si / 1000 Ang^3
#
#
#
# Elastic Constant Matrix: (Units=GPa)
#
#
# Indices 1 2 3 4 5 6 
#
# 1 111.2009 52.4252 42.4860 0.0000 16.7260 0.0000
# 2 52.4252 133.6088 51.1159 0.0000 7.5708 0.0000
# 3 42.4860 51.1159 136.7911 0.0000 5.2171 0.0000
# 4 0.0000 0.0000 0.0000 27.2656 0.0000 2.0382
# 5 16.7260 7.5708 5.2171 0.0000 42.0248 0.0000
# 6 0.0000 0.0000 0.0000 2.0382 0.0000 17.5283
#
#
#
# Elastic Compliance Matrix: (Units=1/GPa)
#
#
# Indices 1 2 3 4 5 6 
#
# 1 0.012184 -0.003697 -0.002254 0.000000 -0.003903 0.000000
# 2 -0.003697 0.009913 -0.002556 0.000000 0.000003 0.000000
# 3 -0.002254 -0.002556 0.008956 0.000000 0.000246 0.000000
# 4 0.000000 0.000000 0.000000 0.036998 0.000000 -0.004302
# 5 -0.003903 0.000003 0.000246 0.000000 0.025318 0.000000
# 6 0.000000 0.000000 0.000000 -0.004302 0.000000 0.057551
#
#
# Mechanical properties :
#
#
# Convention : Reuss Voigt Hill
#
# Bulk Modulus (GPa) = 71.23029 74.85055 73.04042
# Shear Modulus (GPa) = 28.96639 33.06865 31.01752
#
# Velocity S-wave (km/s) = 3.76302 4.02066 3.89397
# Velocity P-wave (km/s) = 7.32813 7.62529 7.47819
#
# Compressibility (1/GPa) = 0.01403897
#
# Stress axis : x y z
#
# Youngs Moduli (GPa) = 82.07469 100.87763 111.65476
#
# Poissons Ratio (x) = 0.37298 0.25164
# Poissons Ratio (y) = 0.30346 0.28539
# Poissons Ratio (z) = 0.18498 0.25785
#
# Static dielectric constant tensor:
#      x y z
#    x 4.359370 0.000000 0.175310 
#    y 0.000000 3.331730 0.000000 
#    z 0.175310 0.000000 4.236480 
# 
# 
# High freq. dielectric constant tensor:
#      x y z
#    x 1.825960 0.000000 0.000980 
#    y 0.000000 1.759370 0.000000 
#    z 0.000980 0.000000 1.820410 
# 
# From -- ./inp_files/58278.got.cif
#   From: 2010.06.25/outbox.cif.g09.slc.cpg/sg13_30_cif.got.tgz:58278.got - 2010.06.28 04:50:58.
