data_PCOD8117213
_publ_section_title
;
Structure prediction by ZEFSAII (Michael W. Deem and Ramdas Pophale) SiO2 
 PCOD8117213
Probable space group: P 2/C
;
_chemical_formula_sum "Si O2"
_cell_formula_units_Z 26
_cell_length_a 17.052359
_cell_length_b 13.279186
_cell_length_c 11.488773
_cell_angle_alpha 90.000000
_cell_angle_beta 30.475906
_cell_angle_gamma 90.000000
_cell_volume 1319.435765
_symmetry_space_group_name_H-M "P 2/C"
_symmetry_group_IT_number 13
_symmetry_cell_setting 'monoclinic'
loop_
_space_group_symop_operation_xyz
x,y,z
-x,y,1/2-z
-x,-y,-z
x,-y,1/2+z
loop_
_atom_site_type_symbol
_atom_site_label
_atom_site_fract_x
_atom_site_fract_y
_atom_site_fract_z
Si Si1 0.842091 0.367784 0.396607
Si Si2 0.583202 0.638831 0.415904
Si Si3 0.268510 0.936384 0.751492
Si Si4 0.000000 0.985644 0.250000
Si Si5 0.778179 0.144938 0.433019
Si Si6 0.374900 0.552377 0.503383
Si Si7 0.411646 0.865190 0.100768
O O1 0.713566 0.389397 0.656672
O O2 0.865403 0.250084 0.338958
O O3 0.793556 0.422148 0.336528
O O4 0.000000 0.411423 0.250000
O O5 0.415321 0.615271 0.570374
O O6 0.610395 0.567076 0.492001
O O7 0.599407 0.753615 0.439731
O O8 0.277195 0.865578 0.628348
O O9 0.415033 0.904818 0.642810
O O10 0.290640 0.056726 0.694585
O O11 0.110334 0.917865 0.026187
O O12 0.103324 0.054387 0.200731
O O13 0.630862 0.139277 0.707312
O O14 0.500000 0.588810 0.250000
#
# Coordination Sequence:
#
# PCOD8117213 Si02
#       7
#     4   4   4   2   4   4   4
#     4  10  19  32  56  84 105 134 178 225 268 317
#     4   9  18  35  55  78 108 135 181 222 264 323
#     4  10  19  32  52  76 107 140 180 221 262 313
#     4  10  20  32  46  74 110 148 176 210 270 318
#     4  10  18  33  53  75 105 141 179 219 263 311
#     4   9  18  33  55  80 104 141 173 217 275 319
#     4   9  19  33  53  79 101 135 186 224 254 307
#
# _framework density 19.705392
#
# number of rings (size 3 to 8) (size 9 to 14) (size 15 to 20)
#    0.000    2.462    0.769    1.846    0.000    3.077 
#    0.000    4.615    0.000    0.000   12.000    0.000 
#    0.000    0.000    0.000    0.000    0.000    0.000 
#
# Total GULP energy -322247.568202 kJ/mol
# GULP energy per Si atom -12394.137239 kJ/mol
# Density = 1.966054 g / cm^3
# Si number density = 19.705392 Si / 1000 Ang^3
#
#
#
# Elastic Constant Matrix: (Units=GPa)
#
#
# Indices 1 2 3 4 5 6 
#
# 1 89.1372 22.5525 21.7950 0.0000 -17.1355 0.0000
# 2 22.5525 75.2897 17.2886 0.0000 -2.0750 0.0000
# 3 21.7950 17.2886 74.5306 0.0000 -14.8022 0.0000
# 4 0.0000 0.0000 0.0000 20.7169 0.0000 4.8758
# 5 -17.1355 -2.0750 -14.8022 0.0000 26.2434 0.0000
# 6 0.0000 0.0000 0.0000 4.8758 0.0000 33.1688
#
#
#
# Elastic Compliance Matrix: (Units=1/GPa)
#
#
# Indices 1 2 3 4 5 6 
#
# 1 0.014074 -0.003606 -0.001701 0.000000 0.007945 0.000000
# 2 -0.003606 0.014969 -0.002985 0.000000 -0.002855 0.000000
# 3 -0.001701 -0.002985 0.016149 0.000000 0.007762 0.000000
# 4 0.000000 0.000000 0.000000 0.050000 0.000000 -0.007350
# 5 0.007945 -0.002855 0.007762 0.000000 0.047445 0.000000
# 6 0.000000 0.000000 0.000000 -0.007350 0.000000 0.031229
#
#
# Mechanical properties :
#
#
# Convention : Reuss Voigt Hill
#
# Bulk Modulus (GPa) = 34.95579 40.24774 37.60176
# Shear Modulus (GPa) = 25.00179 27.84724 26.42451
#
# Velocity S-wave (km/s) = 3.56586 3.76331 3.66591
# Velocity P-wave (km/s) = 5.89334 6.27315 6.08621
#
# Compressibility (1/GPa) = 0.02860757
#
# Stress axis : x y z
#
# Youngs Moduli (GPa) = 71.05099 66.80508 61.92469
#
# Poissons Ratio (x) = 0.24091 0.10535
# Poissons Ratio (y) = 0.25623 0.18482
# Poissons Ratio (z) = 0.12088 0.19939
#
# Static dielectric constant tensor:
#      x y z
#    x 3.571820 0.000000 -0.170200 
#    y 0.000000 3.531810 0.000000 
#    z -0.170200 0.000000 3.428050 
# 
# 
# High freq. dielectric constant tensor:
#      x y z
#    x 1.753920 0.000000 -0.013030 
#    y 0.000000 1.757850 0.000000 
#    z -0.013030 0.000000 1.746800 
# 
# From -- ./inp_files/39330.got.cif
#   From: 2010.06.25/outbox.cif.g09.slc.cpg/sg13_20_cif.got.tgz:39330.got - 2010.06.28 04:50:58.
