data_PCOD8117675
_publ_section_title
;
Structure prediction by ZEFSAII (Michael W. Deem and Ramdas Pophale) SiO2 
 PCOD8117675
Probable space group: P 2/C
;
_chemical_formula_sum "Si O2"
_cell_formula_units_Z 32
_cell_length_a 14.436080
_cell_length_b 17.318221
_cell_length_c 13.648990
_cell_angle_alpha 90.000000
_cell_angle_beta 29.453335
_cell_angle_gamma 90.000000
_cell_volume 1677.900154
_symmetry_space_group_name_H-M "P 2/C"
_symmetry_group_IT_number 13
_symmetry_cell_setting 'monoclinic'
loop_
_space_group_symop_operation_xyz
x,y,z
-x,y,1/2-z
-x,-y,-z
x,-y,1/2+z
loop_
_atom_site_type_symbol
_atom_site_label
_atom_site_fract_x
_atom_site_fract_y
_atom_site_fract_z
Si Si1 0.967602 0.562106 0.618744
Si Si2 0.723046 0.473657 0.526840
Si Si3 0.099262 0.279156 0.425656
Si Si4 0.446615 0.097114 0.409266
Si Si5 0.162632 0.110850 0.353000
Si Si6 0.283209 0.643669 0.934187
Si Si7 0.156460 0.771669 0.179371
Si Si8 0.077060 0.982769 0.285333
O O1 0.930091 0.649159 0.617952
O O2 0.000000 0.500000 0.500000
O O3 0.155125 0.577596 0.510500
O O4 0.788183 0.538425 0.853215
O O5 0.500000 0.458163 0.750000
O O6 0.796000 0.557373 0.495784
O O7 0.173968 0.200215 0.306570
O O8 0.247731 0.306516 0.370150
O O9 0.910029 0.245382 0.649454
O O10 0.500000 0.076769 0.250000
O O11 0.623722 0.088560 0.317820
O O12 0.351045 0.181633 0.499771
O O13 0.297363 0.034839 0.582661
O O14 0.034805 0.091923 0.567507
O O15 0.061470 0.060577 0.362632
O O16 0.500000 0.633970 0.750000
O O17 0.190823 0.685150 0.110912
O O18 0.000000 0.810964 0.250000
O O19 0.000000 0.002582 0.250000
#
# Coordination Sequence:
#
# PCOD8117675 Si02
#       8
#     4   4   4   4   4   4   4   4
#     4  11  22  41  64  89 123 166 207 254 310 370
#     4  10  23  42  60  87 123 164 210 257 309 367
#     4  11  21  38  59  89 122 159 202 250 305 360
#     4  12  20  36  63  93 123 156 193 249 315 367
#     4  11  24  40  63  89 122 156 203 251 301 361
#     4  10  19  33  56  89 122 150 192 259 316 363
#     4  10  19  31  55  90 126 152 188 248 316 365
#     4  11  23  43  61  88 122 160 200 243 303 365
#
# _framework density 19.071456999999999
#
# number of rings (size 3 to 8) (size 9 to 14) (size 15 to 20)
#    0.000    1.250    3.750    4.125    3.500    0.500 
#    6.750    0.000    0.000    0.750    0.000    0.000 
#    0.000    0.000    0.000    0.000    0.000    0.000 
#
# Total GULP energy -396484.612188 kJ/mol
# GULP energy per Si atom -12390.144131 kJ/mol
# Density = 1.902805 g / cm^3
# Si number density = 19.071457 Si / 1000 Ang^3
#
#
#
# Elastic Constant Matrix: (Units=GPa)
#
#
# Indices 1 2 3 4 5 6 
#
# 1 88.7400 43.6054 35.9669 0.0000 3.0140 0.0000
# 2 43.6054 119.6829 19.7886 0.0000 6.4071 0.0000
# 3 35.9669 19.7886 102.9826 0.0000 1.2734 0.0000
# 4 0.0000 0.0000 0.0000 28.7477 0.0000 -1.2880
# 5 3.0140 6.4071 1.2734 0.0000 27.6475 0.0000
# 6 0.0000 0.0000 0.0000 -1.2880 0.0000 33.3785
#
#
#
# Elastic Compliance Matrix: (Units=1/GPa)
#
#
# Indices 1 2 3 4 5 6 
#
# 1 0.015493 -0.004887 -0.004468 0.000000 -0.000351 0.000000
# 2 -0.004887 0.010275 -0.000245 0.000000 -0.001837 0.000000
# 3 -0.004468 -0.000245 0.011317 0.000000 0.000022 0.000000
# 4 0.000000 0.000000 0.000000 0.034846 0.000000 0.001345
# 5 -0.000351 -0.001837 0.000022 0.000000 0.036633 0.000000
# 6 0.000000 0.000000 0.000000 0.001345 0.000000 0.030011
#
#
# Mechanical properties :
#
#
# Convention : Reuss Voigt Hill
#
# Bulk Modulus (GPa) = 55.90912 56.68082 56.29497
# Shear Modulus (GPa) = 30.53696 32.09105 31.31400
#
# Velocity S-wave (km/s) = 4.00582 4.10649 4.05647
# Velocity P-wave (km/s) = 7.12564 7.22974 7.17788
#
# Compressibility (1/GPa) = 0.01788617
#
# Stress axis : x y z
#
# Youngs Moduli (GPa) = 64.54508 97.32476 88.35933
#
# Poissons Ratio (x) = 0.47566 0.39475
# Poissons Ratio (y) = 0.31545 0.02163
# Poissons Ratio (z) = 0.28836 0.02382
#
# Static dielectric constant tensor:
#      x y z
#    x 3.245620 0.000000 0.054800 
#    y 0.000000 3.671270 0.000000 
#    z 0.054800 0.000000 3.564090 
# 
# 
# High freq. dielectric constant tensor:
#      x y z
#    x 1.725120 0.000000 -0.006790 
#    y 0.000000 1.743730 0.000000 
#    z -0.006790 0.000000 1.748690 
# 
# From -- ./inp_files/53924.got.cif
#   From: 2010.06.25/outbox.cif.g09.slc.cpg/sg13_27_cif.got.tgz:53924.got - 2010.06.28 04:50:58.
