data_PCOD8117481
_publ_section_title
;
Structure prediction by ZEFSAII (Michael W. Deem and Ramdas Pophale) SiO2 
 PCOD8117481
Probable space group: P 2/C
;
_chemical_formula_sum "Si O2"
_cell_formula_units_Z 26
_cell_length_a 8.780518
_cell_length_b 8.771368
_cell_length_c 17.260387
_cell_angle_alpha 90.000000
_cell_angle_beta 93.937398
_cell_angle_gamma 90.000000
_cell_volume 1326.208201
_symmetry_space_group_name_H-M "P 2/C"
_symmetry_group_IT_number 13
_symmetry_cell_setting 'monoclinic'
loop_
_space_group_symop_operation_xyz
x,y,z
-x,y,1/2-z
-x,-y,-z
x,-y,1/2+z
loop_
_atom_site_type_symbol
_atom_site_label
_atom_site_fract_x
_atom_site_fract_y
_atom_site_fract_z
Si Si1 0.665032 0.297718 0.621794
Si Si2 0.500000 0.533267 0.250000
Si Si3 0.035040 0.786149 0.563740
Si Si4 0.450338 0.792759 0.977293
Si Si5 0.685702 0.649294 0.878834
Si Si6 0.794971 0.546750 0.523292
Si Si7 0.205022 0.026919 0.936406
O O1 0.602493 0.357865 0.700498
O O2 0.522871 0.258146 0.561062
O O3 0.784192 0.416553 0.588303
O O4 0.757248 0.137969 0.634862
O O5 0.385710 0.424674 0.199429
O O6 0.156345 0.739213 0.634744
O O7 0.127506 0.871466 0.499813
O O8 0.962187 0.629553 0.524923
O O9 0.908392 0.895546 0.596827
O O10 0.572307 0.773686 0.912561
O O11 0.317717 0.676460 0.951098
O O12 0.366805 0.959787 0.975605
O O13 0.733535 0.515465 0.939656
#
# Coordination Sequence:
#
# PCOD8117481 Si02
#       7
#     4   2   4   4   4   4   4
#     4  11  20  36  61  91 120 152 205 249 300 344
#     4  12  24  38  60  92 116 162 206 254 294 358
#     4  10  21  35  63  95 117 150 195 249 310 358
#     4  10  18  36  63  87 120 152 201 255 290 342
#     4  11  20  36  61  92 114 156 205 248 294 354
#     4  10  18  36  63  88 119 150 201 258 292 338
#     4  10  21  35  63  96 120 148 195 257 304 351
#
# _framework density 19.604766999999999
#
# number of rings (size 3 to 8) (size 9 to 14) (size 15 to 20)
#    0.000    1.538    6.154    1.846    0.000    0.000 
#    0.000    1.538    0.000    1.846    0.000    0.000 
#    0.000    0.000    0.000    0.000    0.000    0.000 
#
# Total GULP energy -322151.323390 kJ/mol
# GULP energy per Si atom -12390.435515 kJ/mol
# Density = 1.956015 g / cm^3
# Si number density = 19.604767 Si / 1000 Ang^3
#
#
#
# Elastic Constant Matrix: (Units=GPa)
#
#
# Indices 1 2 3 4 5 6 
#
# 1 126.9895 75.3326 53.9508 0.0000 11.6054 0.0000
# 2 75.3326 122.7784 50.3140 0.0000 -4.5134 0.0000
# 3 53.9508 50.3140 96.1331 0.0000 0.0382 0.0000
# 4 0.0000 0.0000 0.0000 4.9370 0.0000 1.0421
# 5 11.6054 -4.5134 0.0382 0.0000 15.9529 0.0000
# 6 0.0000 0.0000 0.0000 1.0421 0.0000 49.3436
#
#
#
# Elastic Compliance Matrix: (Units=1/GPa)
#
#
# Indices 1 2 3 4 5 6 
#
# 1 0.016229 -0.008594 -0.004604 0.000000 -0.014226 0.000000
# 2 -0.008594 0.015059 -0.003063 0.000000 0.010520 0.000000
# 3 -0.004604 -0.003063 0.014589 0.000000 0.002448 0.000000
# 4 0.000000 0.000000 0.000000 0.203458 0.000000 -0.004297
# 5 -0.014226 0.010520 0.002448 0.000000 0.076004 0.000000
# 6 0.000000 0.000000 0.000000 -0.004297 0.000000 0.020357
#
#
# Mechanical properties :
#
#
# Convention : Reuss Voigt Hill
#
# Bulk Modulus (GPa) = 74.88141 78.34399 76.61270
# Shear Modulus (GPa) = 13.06608 25.13359 19.09983
#
# Velocity S-wave (km/s) = 2.58442 3.58441 3.12468
# Velocity P-wave (km/s) = 6.86906 7.56169 7.22368
#
# Compressibility (1/GPa) = 0.01335445
#
# Stress axis : x y z
#
# Youngs Moduli (GPa) = 61.61865 66.40335 68.54699
#
# Poissons Ratio (x) = 0.57064 0.31562
# Poissons Ratio (y) = 0.52952 0.20997
# Poissons Ratio (z) = 0.28372 0.20341
#
# Static dielectric constant tensor:
#      x y z
#    x 4.219530 0.000000 0.130650 
#    y 0.000000 4.213290 0.000000 
#    z 0.130650 0.000000 2.990140 
# 
# 
# High freq. dielectric constant tensor:
#      x y z
#    x 1.793530 0.000000 0.004850 
#    y 0.000000 1.793530 0.000000 
#    z 0.004850 0.000000 1.690420 
# 
# From -- ./inp_files/63751.got.cif
#   From: 2010.06.25/outbox.cif.g09.slc.cpg/sg13_32_cif.got.tgz:63751.got - 2010.06.28 04:50:58.
