data_PCOD8117466
_publ_section_title
;
Structure prediction by ZEFSAII (Michael W. Deem and Ramdas Pophale) SiO2 
 PCOD8117466
Probable space group: P 2/C
;
_chemical_formula_sum "Si O2"
_cell_formula_units_Z 28
_cell_length_a 24.292447
_cell_length_b 9.538058
_cell_length_c 20.626669
_cell_angle_alpha 90.000000
_cell_angle_beta 16.763501
_cell_angle_gamma 90.000000
_cell_volume 1378.442182
_symmetry_space_group_name_H-M "P 2/C"
_symmetry_group_IT_number 13
_symmetry_cell_setting 'monoclinic'
loop_
_space_group_symop_operation_xyz
x,y,z
-x,y,1/2-z
-x,-y,-z
x,-y,1/2+z
loop_
_atom_site_type_symbol
_atom_site_label
_atom_site_fract_x
_atom_site_fract_y
_atom_site_fract_z
Si Si1 0.416044 0.681057 0.658857
Si Si2 0.699940 0.547992 0.832702
Si Si3 0.429729 0.945847 0.725594
Si Si4 0.908582 0.132360 0.420012
Si Si5 0.005540 0.366363 0.819645
Si Si6 0.786588 0.098254 0.902685
Si Si7 0.998600 0.382881 0.094065
O O1 0.419071 0.659449 0.577018
O O2 0.559001 0.563102 0.527384
O O3 0.466494 0.838978 0.624356
O O4 0.206817 0.651193 0.917879
O O5 0.815902 0.641214 0.753689
O O6 0.836210 0.453415 0.634104
O O7 0.639180 0.976209 0.519344
O O8 0.303461 0.876871 0.924796
O O9 0.315972 0.087609 0.833002
O O10 0.000000 0.193986 0.250000
O O11 0.925332 0.240196 0.460167
O O12 0.024254 0.993951 0.307957
O O13 0.000000 0.352380 0.750000
O O14 0.144350 0.252088 0.697258
O O15 0.076271 0.517755 0.763470
#
# Coordination Sequence:
#
# PCOD8117466 Si02
#       7
#     4   4   4   4   4   4   4
#     4  10  18  36  60  82 115 151 197 246 289 339
#     4   9  21  38  57  80 114 162 201 240 288 337
#     4  10  19  34  61  85 117 152 187 241 293 357
#     4  10  20  39  59  88 121 153 181 241 305 360
#     4  11  18  33  61  91 113 149 190 250 301 353
#     4  10  19  34  59  90 118 145 191 230 305 361
#     4  10  21  38  59  79 120 155 199 241 295 348
#
# _framework density 20.312785999999999
#
# number of rings (size 3 to 8) (size 9 to 14) (size 15 to 20)
#    0.000    2.000    2.857    1.714    0.000    0.000 
#    7.714    1.429    3.143    0.000    0.000    0.000 
#    0.000    0.000    0.000    0.000    0.000    0.000 
#
# Total GULP energy -346960.049682 kJ/mol
# GULP energy per Si atom -12391.430346 kJ/mol
# Density = 2.026655 g / cm^3
# Si number density = 20.312786 Si / 1000 Ang^3
#
#
#
# Elastic Constant Matrix: (Units=GPa)
#
#
# Indices 1 2 3 4 5 6 
#
# 1 100.7063 47.0024 26.8540 0.0000 -27.6413 0.0000
# 2 47.0024 74.9958 18.2687 0.0000 -7.0499 0.0000
# 3 26.8540 18.2687 65.5274 0.0000 -19.6766 0.0000
# 4 0.0000 0.0000 0.0000 24.3108 0.0000 -4.6005
# 5 -27.6413 -7.0499 -19.6766 0.0000 28.1889 0.0000
# 6 0.0000 0.0000 0.0000 -4.6005 0.0000 42.9879
#
#
#
# Elastic Compliance Matrix: (Units=1/GPa)
#
#
# Indices 1 2 3 4 5 6 
#
# 1 0.019359 -0.010580 -0.000099 0.000000 0.016268 0.000000
# 2 -0.010580 0.020110 -0.003638 0.000000 -0.007885 0.000000
# 3 -0.000099 -0.003638 0.020260 0.000000 0.013135 0.000000
# 4 0.000000 0.000000 0.000000 0.041984 0.000000 0.004493
# 5 0.016268 -0.007885 0.013135 0.000000 0.058624 0.000000
# 6 0.000000 0.000000 0.000000 0.004493 0.000000 0.023743
#
#
# Mechanical properties :
#
#
# Convention : Reuss Voigt Hill
#
# Bulk Modulus (GPa) = 32.15990 47.27553 39.71771
# Shear Modulus (GPa) = 22.41352 29.03781 25.72566
#
# Velocity S-wave (km/s) = 3.32538 3.78502 3.56262
# Velocity P-wave (km/s) = 5.53271 6.51353 6.04306
#
# Compressibility (1/GPa) = 0.03109462
#
# Stress axis : x y z
#
# Youngs Moduli (GPa) = 51.65464 49.72679 49.35856
#
# Poissons Ratio (x) = 0.52610 0.00489
# Poissons Ratio (y) = 0.54649 0.17959
# Poissons Ratio (z) = 0.00512 0.18092
#
# Static dielectric constant tensor:
#      x y z
#    x 3.701120 0.000000 -0.494780 
#    y 0.000000 3.549860 0.000000 
#    z -0.494780 0.000000 3.472530 
# 
# 
# High freq. dielectric constant tensor:
#      x y z
#    x 1.792950 0.000000 -0.020370 
#    y 0.000000 1.770250 0.000000 
#    z -0.020370 0.000000 1.791510 
# 
# From -- ./inp_files/82122.got.cif
#   From: 2010.06.25/outbox.cif.g09.slc.cpg/sg13_42_cif.got.tgz:82122.got - 2010.06.28 04:50:58.
