data_PCOD8117777
_publ_section_title
;
Structure prediction by ZEFSAII (Michael W. Deem and Ramdas Pophale) SiO2 
 PCOD8117777
Probable space group: P 2/C
;
_chemical_formula_sum "Si O2"
_cell_formula_units_Z 28
_cell_length_a 5.244420
_cell_length_b 31.161976
_cell_length_c 10.055371
_cell_angle_alpha 90.000000
_cell_angle_beta 58.563474
_cell_angle_gamma 90.000000
_cell_volume 1402.105866
_symmetry_space_group_name_H-M "P 2/C"
_symmetry_group_IT_number 13
_symmetry_cell_setting 'monoclinic'
loop_
_space_group_symop_operation_xyz
x,y,z
-x,y,1/2-z
-x,-y,-z
x,-y,1/2+z
loop_
_atom_site_type_symbol
_atom_site_label
_atom_site_fract_x
_atom_site_fract_y
_atom_site_fract_z
Si Si1 0.851646 0.221144 0.148354
Si Si2 0.845023 0.526964 0.154977
Si Si3 0.855995 0.685754 0.644005
Si Si4 0.854406 0.127875 0.145594
Si Si5 0.685154 0.996689 0.814846
Si Si6 0.179348 0.907979 0.320652
Si Si7 0.846555 0.372833 0.653445
O O1 0.500000 0.221057 0.250000
O O2 0.942082 0.266908 0.057918
O O3 0.940827 0.175204 0.059173
O O4 0.000000 0.221057 0.250000
O O5 0.500000 0.513900 0.250000
O O6 0.886062 0.577041 0.113938
O O7 0.000000 0.513900 0.250000
O O8 0.000000 0.500000 0.000000
O O9 0.500000 0.679708 0.750000
O O10 0.000000 0.679708 0.750000
O O11 0.988920 0.650532 0.511080
O O12 0.500000 0.121352 0.250000
O O13 0.000000 0.121352 0.250000
O O14 0.992532 0.093251 0.007468
O O15 0.500000 0.971603 0.750000
O O16 0.768120 0.042753 0.731880
O O17 0.000000 0.971603 0.750000
O O18 0.500000 0.000000 0.000000
O O19 0.500000 0.884739 0.250000
O O20 0.000000 0.884739 0.250000
O O21 0.500000 0.359432 0.750000
O O22 0.000000 0.359432 0.750000
#
# Coordination Sequence:
#
# PCOD8117777 Si02
#       7
#     4   4   4   4   4   4   4
#     4   8  16  30  50  76 105 134 172 216 257 301
#     4  10  21  36  54  75 102 135 173 219 268 319
#     4  10  19  33  54  78 102 137 181 217 249 308
#     4  10  19  35  58  81 106 142 179 216 262 311
#     4  10  21  40  60  81 109 142 176 217 263 309
#     4  10  21  38  55  81 113 139 173 219 261 308
#     4  10  21  36  51  74 109 139 167 216 275 318
#
# _framework density 19.96996
#
# number of rings (size 3 to 8) (size 9 to 14) (size 15 to 20)
#    0.000    2.286    0.000    2.571    0.000    1.143 
#    0.000   18.571    0.000    0.000    0.000    0.000 
#    0.000    0.000    0.000    0.000    0.000    0.000 
#
# Total GULP energy -346908.122921 kJ/mol
# GULP energy per Si atom -12389.575819 kJ/mol
# Density = 1.992451 g / cm^3
# Si number density = 19.969960 Si / 1000 Ang^3
#
#
#
# Elastic Constant Matrix: (Units=GPa)
#
#
# Indices 1 2 3 4 5 6 
#
# 1 202.9431 25.2868 60.6040 0.0000 6.6496 0.0000
# 2 25.2868 75.4794 64.5419 0.0000 -3.3682 0.0000
# 3 60.6040 64.5419 130.1171 0.0000 -0.4010 0.0000
# 4 0.0000 0.0000 0.0000 24.5220 0.0000 -0.4876
# 5 6.6496 -3.3682 -0.4010 0.0000 33.0255 0.0000
# 6 0.0000 0.0000 0.0000 -0.4876 0.0000 18.8383
#
#
#
# Elastic Compliance Matrix: (Units=1/GPa)
#
#
# Indices 1 2 3 4 5 6 
#
# 1 0.005783 0.000552 -0.002971 0.000000 -0.001144 0.000000
# 2 0.000552 0.023222 -0.011769 0.000000 0.002114 0.000000
# 3 -0.002971 -0.011769 0.014906 0.000000 -0.000421 0.000000
# 4 0.000000 0.000000 0.000000 0.040801 0.000000 0.001056
# 5 -0.001144 0.002114 -0.000421 0.000000 0.030721 0.000000
# 6 0.000000 0.000000 0.000000 0.001056 0.000000 0.053111
#
#
# Mechanical properties :
#
#
# Convention : Reuss Voigt Hill
#
# Bulk Modulus (GPa) = 64.37350 78.82279 71.59814
# Shear Modulus (GPa) = 24.74046 32.48429 28.61237
#
# Velocity S-wave (km/s) = 3.52360 4.03756 3.78930
# Velocity P-wave (km/s) = 6.98995 7.82893 7.42131
#
# Compressibility (1/GPa) = 0.01553434
#
# Stress axis : x y z
#
# Youngs Moduli (GPa) = 172.90760 43.06260 67.08789
#
# Poissons Ratio (x) = -0.02377 0.19932
# Poissons Ratio (y) = -0.09542 0.78958
# Poissons Ratio (z) = 0.51371 0.50682
#
# Static dielectric constant tensor:
#      x y z
#    x 11.022530 0.000000 0.716610 
#    y 0.000000 3.821440 0.000000 
#    z 0.716610 0.000000 2.669820 
# 
# 
# High freq. dielectric constant tensor:
#      x y z
#    x 1.820240 0.000000 0.005880 
#    y 0.000000 1.773060 0.000000 
#    z 0.005880 0.000000 1.751700 
# 
# From -- ./inp_files/10346.got.cif
#   From: 2010.06.25/outbox.cif.g09.slc.cpg/sg13_6_cif.got.tgz:10346.got - 2010.06.28 04:50:58.
