data_PCOD8117244
_publ_section_title
;
Structure prediction by ZEFSAII (Michael W. Deem and Ramdas Pophale) SiO2 
 PCOD8117244
Probable space group: P 2/C
;
_chemical_formula_sum "Si O2"
_cell_formula_units_Z 32
_cell_length_a 22.076231
_cell_length_b 11.425778
_cell_length_c 20.531226
_cell_angle_alpha 90.000000
_cell_angle_beta 19.038049
_cell_angle_gamma 90.000000
_cell_volume 1689.289969
_symmetry_space_group_name_H-M "P 2/C"
_symmetry_group_IT_number 13
_symmetry_cell_setting 'monoclinic'
loop_
_space_group_symop_operation_xyz
x,y,z
-x,y,1/2-z
-x,-y,-z
x,-y,1/2+z
loop_
_atom_site_type_symbol
_atom_site_label
_atom_site_fract_x
_atom_site_fract_y
_atom_site_fract_z
Si Si1 0.659340 0.253516 0.855401
Si Si2 0.835332 0.491957 0.717404
Si Si3 0.265404 0.233260 0.873323
Si Si4 0.034351 0.103819 0.914397
Si Si5 0.020711 0.968720 0.800074
Si Si6 0.687093 0.207707 0.469496
Si Si7 0.035115 0.588851 0.785248
Si Si8 0.264695 0.741247 0.721651
O O1 0.711171 0.378647 0.832873
O O2 0.713606 0.240010 0.725164
O O3 0.754319 0.147240 0.797427
O O4 0.441297 0.233530 0.087389
O O5 0.717712 0.607770 0.821019
O O6 0.000000 0.500000 0.500000
O O7 0.912595 0.492632 0.713251
O O8 0.465684 0.222613 0.705825
O O9 0.138512 0.126277 0.024434
O O10 0.161581 0.352288 0.997473
O O11 0.914521 0.219776 0.055032
O O12 0.995552 0.067933 0.879978
O O13 0.000000 0.000000 0.000000
O O14 0.000000 0.027178 0.750000
O O15 0.225948 0.909963 0.588524
O O16 0.732650 0.184756 0.347220
O O17 0.796343 0.317604 0.389446
O O18 0.000000 0.530130 0.750000
#
# Coordination Sequence:
#
# PCOD8117244 Si02
#       8
#     4   4   4   4   4   4   4   4
#     4  11  21  36  61  87 113 145 189 237 282 325
#     4  11  19  38  61  83 113 147 185 235 280 329
#     4  10  18  33  57  82 110 146 179 234 290 329
#     4  12  21  38  58  82 115 148 187 227 276 334
#     4  11  23  36  52  80 114 149 190 230 274 334
#     4   9  18  33  55  83 112 142 182 229 286 335
#     4  10  20  33  51  82 114 144 183 227 280 341
#     4  10  21  35  60  90 112 143 186 235 284 331
#
# _framework density 18.942869000000002
#
# number of rings (size 3 to 8) (size 9 to 14) (size 15 to 20)
#    0.000    1.500    5.000    2.625    0.000    3.500 
#    0.000    0.625    0.000    0.000    0.000    0.000 
#    0.000    0.000    0.000    0.000    0.000    0.000 
#
# Total GULP energy -396628.438129 kJ/mol
# GULP energy per Si atom -12394.638692 kJ/mol
# Density = 1.889975 g / cm^3
# Si number density = 18.942869 Si / 1000 Ang^3
#
#
#
# Elastic Constant Matrix: (Units=GPa)
#
#
# Indices 1 2 3 4 5 6 
#
# 1 140.9872 38.7228 28.0289 0.0000 -7.8913 0.0000
# 2 38.7228 55.4932 5.8679 0.0000 -7.7757 0.0000
# 3 28.0289 5.8679 84.8189 0.0000 -24.8226 0.0000
# 4 0.0000 0.0000 0.0000 16.7159 0.0000 0.3397
# 5 -7.8913 -7.7757 -24.8226 0.0000 24.9368 0.0000
# 6 0.0000 0.0000 0.0000 0.3397 0.0000 26.0392
#
#
#
# Elastic Compliance Matrix: (Units=1/GPa)
#
#
# Indices 1 2 3 4 5 6 
#
# 1 0.009430 -0.006562 -0.003369 0.000000 -0.002416 0.000000
# 2 -0.006562 0.023431 0.002932 0.000000 0.008148 0.000000
# 3 -0.003369 0.002932 0.017858 0.000000 0.017625 0.000000
# 4 0.000000 0.000000 0.000000 0.059839 0.000000 -0.000781
# 5 -0.002416 0.008148 0.017625 0.000000 0.059421 0.000000
# 6 0.000000 0.000000 0.000000 -0.000781 0.000000 0.038414
#
#
# Mechanical properties :
#
#
# Convention : Reuss Voigt Hill
#
# Bulk Modulus (GPa) = 27.23273 47.39316 37.31294
# Shear Modulus (GPa) = 21.30996 27.45038 24.38017
#
# Velocity S-wave (km/s) = 3.35768 3.81085 3.59142
# Velocity P-wave (km/s) = 5.42582 6.66609 6.07767
#
# Compressibility (1/GPa) = 0.03672052
#
# Stress axis : x y z
#
# Youngs Moduli (GPa) = 106.04689 42.67840 55.99662
#
# Poissons Ratio (x) = 0.28007 0.18866
# Poissons Ratio (y) = 0.69591 -0.16419
# Poissons Ratio (z) = 0.35729 -0.12514
#
# Static dielectric constant tensor:
#      x y z
#    x 3.609360 0.000000 -0.211790 
#    y 0.000000 0.873000 0.000000 
#    z -0.211790 0.000000 3.616040 
# 
# 
# High freq. dielectric constant tensor:
#      x y z
#    x 1.739650 0.000000 -0.015450 
#    y 0.000000 1.702570 0.000000 
#    z -0.015450 0.000000 1.737760 
# 
# From -- ./inp_files/81808.got.cif
#   From: 2010.06.25/outbox.cif.g09.slc.cpg/sg13_41_cif.got.tgz:81808.got - 2010.06.28 04:50:58.
