data_PCOD8117567
_publ_section_title
;
Structure prediction by ZEFSAII (Michael W. Deem and Ramdas Pophale) SiO2 
 PCOD8117567
Probable space group: P 2/C
;
_chemical_formula_sum "Si O2"
_cell_formula_units_Z 28
_cell_length_a 12.347665
_cell_length_b 7.876157
_cell_length_c 17.707402
_cell_angle_alpha 90.000000
_cell_angle_beta 126.526636
_cell_angle_gamma 90.000000
_cell_volume 1383.831791
_symmetry_space_group_name_H-M "P 2/C"
_symmetry_group_IT_number 13
_symmetry_cell_setting 'monoclinic'
loop_
_space_group_symop_operation_xyz
x,y,z
-x,y,1/2-z
-x,-y,-z
x,-y,1/2+z
loop_
_atom_site_type_symbol
_atom_site_label
_atom_site_fract_x
_atom_site_fract_y
_atom_site_fract_z
Si Si1 0.475920 0.128255 0.328370
Si Si2 0.291045 0.172247 0.808433
Si Si3 0.727087 0.182769 0.524619
Si Si4 0.614484 0.494118 0.239951
Si Si5 0.030689 0.059559 0.625421
Si Si6 0.193551 0.452653 0.047415
Si Si7 0.038149 0.239664 0.483815
O O1 0.500000 0.107032 0.250000
O O2 0.612635 0.080290 0.430624
O O3 0.429103 0.324496 0.324945
O O4 0.364200 0.993357 0.306649
O O5 0.317466 0.190111 0.907737
O O6 0.343436 0.348934 0.795385
O O7 0.130721 0.138063 0.729235
O O8 0.721902 0.371172 0.485711
O O9 0.875725 0.105709 0.577989
O O10 0.500000 0.559405 0.250000
O O11 0.738915 0.440488 0.343118
O O12 0.092534 0.106493 0.568595
O O13 0.027941 0.852516 0.616917
O O14 0.057388 0.349459 0.002157
O O15 0.161991 0.644065 0.007357
#
# Coordination Sequence:
#
# PCOD8117567 Si02
#       7
#     4   4   4   4   4   4   4
#     4  11  24  44  67  93 130 174 226 269 315 390
#     4  12  25  42  66  97 133 173 211 274 335 385
#     4  11  24  43  63  92 138 167 208 276 334 381
#     4  11  22  41  65  91 126 168 224 263 316 386
#     4  10  21  38  64  95 127 166 216 263 322 386
#     4  10  18  39  61  94 122 166 213 268 315 382
#     4   9  19  33  66  91 118 164 216 261 310 379
#
# _framework density 20.233673
#
# number of rings (size 3 to 8) (size 9 to 14) (size 15 to 20)
#    0.000    1.429    4.286    2.143    4.000    1.714 
#    2.571    0.000    0.000    0.000    0.000    0.000 
#    0.000    0.000    0.000    0.000    0.000    0.000 
#
# Total GULP energy -346884.734067 kJ/mol
# GULP energy per Si atom -12388.740502 kJ/mol
# Density = 2.018762 g / cm^3
# Si number density = 20.233673 Si / 1000 Ang^3
#
#
#
# Elastic Constant Matrix: (Units=GPa)
#
#
# Indices 1 2 3 4 5 6 
#
# 1 74.0002 51.5023 42.2996 0.0000 2.5600 0.0000
# 2 51.5023 117.5795 44.9056 0.0000 -4.5895 0.0000
# 3 42.2996 44.9056 121.8462 0.0000 -3.1654 0.0000
# 4 0.0000 0.0000 0.0000 3.0822 0.0000 12.3527
# 5 2.5600 -4.5895 -3.1654 0.0000 38.8437 0.0000
# 6 0.0000 0.0000 0.0000 12.3527 0.0000 21.3936
#
#
#
# Elastic Compliance Matrix: (Units=1/GPa)
#
#
# Indices 1 2 3 4 5 6 
#
# 1 0.021770 -0.007832 -0.004743 0.000000 -0.002747 0.000000
# 2 -0.007832 0.012745 -0.001930 0.000000 0.001865 0.000000
# 3 -0.004743 -0.001930 0.010589 0.000000 0.000947 0.000000
# 4 0.000000 0.000000 0.000000 -0.246900 0.000000 0.142560
# 5 -0.002747 0.001865 0.000947 0.000000 0.026223 0.000000
# 6 0.000000 0.000000 0.000000 0.142560 0.000000 -0.035571
#
#
# Mechanical properties :
#
#
# Convention : Reuss Voigt Hill
#
# Bulk Modulus (GPa) = 62.12645 65.64898 63.88772
# Shear Modulus (GPa) = -28.28528 24.31180 -1.98674
#
# Velocity S-wave (km/s) = -3.74295 3.47010 -0.99198
# Velocity P-wave (km/s) = 3.47730 6.96931 5.50740
#
# Compressibility (1/GPa) = 0.01609620
#
# Stress axis : x y z
#
# Youngs Moduli (GPa) = 45.93461 78.46116 94.43427
#
# Poissons Ratio (x) = 0.61448 0.44787
# Poissons Ratio (y) = 0.35974 0.18225
# Poissons Ratio (z) = 0.21785 0.15142
#
# Static dielectric constant tensor:
#      x y z
#    x 3.637800 0.000000 0.216900 
#    y 0.000000 4.055460 0.000000 
#    z 0.216900 0.000000 3.708490 
# 
# 
# High freq. dielectric constant tensor:
#      x y z
#    x 1.779700 0.000000 0.019370 
#    y 0.000000 1.796110 0.000000 
#    z 0.019370 0.000000 1.783290 
# 
# From -- ./inp_files/50439.got.cif
#   From: 2010.06.25/outbox.cif.g09.slc.cpg/sg13_26_cif.got.tgz:50439.got - 2010.06.28 04:50:58.
