data_PCOD8117193
_publ_section_title
;
Structure prediction by ZEFSAII (Michael W. Deem and Ramdas Pophale) SiO2 
 PCOD8117193
Probable space group: P 2/C
;
_chemical_formula_sum "Si O2"
_cell_formula_units_Z 18
_cell_length_a 25.074697
_cell_length_b 8.650415
_cell_length_c 19.928833
_cell_angle_alpha 90.000000
_cell_angle_beta 12.711769
_cell_angle_gamma 90.000000
_cell_volume 951.194065
_symmetry_space_group_name_H-M "P 2/C"
_symmetry_group_IT_number 13
_symmetry_cell_setting 'monoclinic'
loop_
_space_group_symop_operation_xyz
x,y,z
-x,y,1/2-z
-x,-y,-z
x,-y,1/2+z
loop_
_atom_site_type_symbol
_atom_site_label
_atom_site_fract_x
_atom_site_fract_y
_atom_site_fract_z
Si Si1 0.674580 0.396203 0.873349
Si Si2 0.089454 0.829299 0.904085
Si Si3 0.505683 0.343924 0.664601
Si Si4 0.000000 0.462127 0.250000
Si Si5 0.196958 0.649104 0.893703
O O1 0.735858 0.523510 0.743684
O O2 0.894824 0.281432 0.608782
O O3 0.631120 0.489212 0.996411
O O4 0.433498 0.303624 0.146906
O O5 0.349404 0.795191 0.550228
O O6 0.099904 0.799035 0.972010
O O7 0.000000 0.000000 0.000000
O O8 0.500000 0.308749 0.750000
O O9 0.234953 0.351116 0.965305
O O10 0.000937 0.573941 0.313960
#
# Coordination Sequence:
#
# PCOD8117193 Si02
#       5
#     4   4   4   2   4
#     4   9  18  34  56  78 102 135 181 226 262 308
#     4  11  22  35  53  80 116 149 173 208 268 334
#     4  10  19  34  57  81 104 137 183 231 268 308
#     4  10  18  32  60  84 100 130 188 242 266 296
#     4   9  18  34  56  79 101 136 182 225 264 306
#
# _framework density 18.923582
#
# number of rings (size 3 to 8) (size 9 to 14) (size 15 to 20)
#    0.000    2.222    0.000    6.667    0.000    0.889 
#    0.000    5.556    0.000    2.667    0.000    0.000 
#    0.000    0.000    0.000    0.000    0.000    0.000 
#
# Total GULP energy -223127.634104 kJ/mol
# GULP energy per Si atom -12395.979672 kJ/mol
# Density = 1.888051 g / cm^3
# Si number density = 18.923582 Si / 1000 Ang^3
#
#
#
# Elastic Constant Matrix: (Units=GPa)
#
#
# Indices 1 2 3 4 5 6 
#
# 1 96.1553 33.2586 35.3642 0.0000 4.8071 0.0000
# 2 33.2586 82.1389 51.4062 0.0000 -7.1800 0.0000
# 3 35.3642 51.4062 122.0055 0.0000 -2.0752 0.0000
# 4 0.0000 0.0000 0.0000 21.1349 0.0000 -4.6468
# 5 4.8071 -7.1800 -2.0752 0.0000 30.6762 0.0000
# 6 0.0000 0.0000 0.0000 -4.6468 0.0000 14.2551
#
#
#
# Elastic Compliance Matrix: (Units=1/GPa)
#
#
# Indices 1 2 3 4 5 6 
#
# 1 0.012732 -0.004189 -0.001978 0.000000 -0.003109 0.000000
# 2 -0.004189 0.018275 -0.006409 0.000000 0.004500 0.000000
# 3 -0.001978 -0.006409 0.011463 0.000000 -0.000415 0.000000
# 4 0.000000 0.000000 0.000000 0.050968 0.000000 0.016614
# 5 -0.003109 0.004500 -0.000415 0.000000 0.034111 0.000000
# 6 0.000000 0.000000 0.000000 0.016614 0.000000 0.075566
#
#
# Mechanical properties :
#
#
# Convention : Reuss Voigt Hill
#
# Bulk Modulus (GPa) = 57.74644 60.03973 58.89309
# Shear Modulus (GPa) = 21.36375 25.23128 23.29751
#
# Velocity S-wave (km/s) = 3.36363 3.65543 3.51256
# Velocity P-wave (km/s) = 6.75775 7.04362 6.90217
#
# Compressibility (1/GPa) = 0.01731709
#
# Stress axis : x y z
#
# Youngs Moduli (GPa) = 78.54392 54.71868 87.23480
#
# Poissons Ratio (x) = 0.22921 0.17258
# Poissons Ratio (y) = 0.32901 0.55913
# Poissons Ratio (z) = 0.15539 0.35072
#
# Static dielectric constant tensor:
#      x y z
#    x 3.969200 0.000000 -0.000420 
#    y 0.000000 3.180290 0.000000 
#    z -0.000420 0.000000 3.863070 
# 
# 
# High freq. dielectric constant tensor:
#      x y z
#    x 1.747740 0.000000 -0.005850 
#    y 0.000000 1.680880 0.000000 
#    z -0.005850 0.000000 1.751140 
# 
# From -- ./inp_files/84507.got.cif
#   From: 2010.06.25/outbox.cif.g09.slc.cpg/sg13_43_cif.got.tgz:84507.got - 2010.06.28 04:50:58.
