data_PCOD8117634
_publ_section_title
;
Structure prediction by ZEFSAII (Michael W. Deem and Ramdas Pophale) SiO2 
 PCOD8117634
Probable space group: P 2/C
;
_chemical_formula_sum "Si O2"
_cell_formula_units_Z 22
_cell_length_a 11.108365
_cell_length_b 21.041879
_cell_length_c 5.291945
_cell_angle_alpha 90.000000
_cell_angle_beta 114.002675
_cell_angle_gamma 90.000000
_cell_volume 1129.980936
_symmetry_space_group_name_H-M "P 2/C"
_symmetry_group_IT_number 13
_symmetry_cell_setting 'monoclinic'
loop_
_space_group_symop_operation_xyz
x,y,z
-x,y,1/2-z
-x,-y,-z
x,-y,1/2+z
loop_
_atom_site_type_symbol
_atom_site_label
_atom_site_fract_x
_atom_site_fract_y
_atom_site_fract_z
Si Si1 0.147465 0.973575 0.660831
Si Si2 0.656255 0.464597 0.886053
Si Si3 0.648745 0.248926 0.384675
Si Si4 0.000000 0.268184 0.250000
Si Si5 0.877516 0.836886 0.984612
Si Si6 0.730814 0.320331 0.942677
O O1 0.157759 0.897597 0.718920
O O2 0.219800 0.992482 0.459572
O O3 0.000000 0.000000 0.500000
O O4 0.500000 0.462667 0.750000
O O5 0.709031 0.495217 0.670749
O O6 0.709869 0.394234 0.962872
O O7 0.500000 0.222364 0.250000
O O8 0.746971 0.188707 0.518308
O O9 0.656810 0.297163 0.627211
O O10 0.679355 0.283716 0.146352
O O11 0.929171 0.224631 0.390495
O O12 0.112816 0.311167 0.471582
O O13 0.000000 0.863268 0.250000
#
# Coordination Sequence:
#
# PCOD8117634 Si02
#       6
#     4   4   4   2   4   4
#     4  10  19  30  51  79 107 138 185 228 271 315
#     4  10  20  35  55  78 105 143 188 228 269 325
#     4  11  23  37  58  85 115 149 186 231 284 335
#     4  10  22  36  56  88 112 150 182 234 280 346
#     4  11  20  35  57  82 115 144 187 233 279 329
#     4  11  22  38  60  82 117 144 188 228 288 329
#
# _framework density 19.469353000000002
#
# number of rings (size 3 to 8) (size 9 to 14) (size 15 to 20)
#    0.000    1.455    3.636    3.818    0.000    1.455 
#    0.000    0.909    0.000    1.091    0.000    0.000 
#    0.000    0.000    0.000    0.000    0.000    0.000 
#
# Total GULP energy -272650.920774 kJ/mol
# GULP energy per Si atom -12393.223672 kJ/mol
# Density = 1.942504 g / cm^3
# Si number density = 19.469353 Si / 1000 Ang^3
#
#
#
# Elastic Constant Matrix: (Units=GPa)
#
#
# Indices 1 2 3 4 5 6 
#
# 1 80.8442 29.8550 40.5668 0.0000 4.3842 0.0000
# 2 29.8550 68.3978 14.3556 0.0000 -13.4434 0.0000
# 3 40.5668 14.3556 105.9289 0.0000 -22.3460 0.0000
# 4 0.0000 0.0000 0.0000 27.3549 0.0000 -6.9368
# 5 4.3842 -13.4434 -22.3460 0.0000 28.8686 0.0000
# 6 0.0000 0.0000 0.0000 -6.9368 0.0000 15.8105
#
#
#
# Elastic Compliance Matrix: (Units=1/GPa)
#
#
# Indices 1 2 3 4 5 6 
#
# 1 0.022774 -0.011004 -0.010805 0.000000 -0.016947 0.000000
# 2 -0.011004 0.021456 0.004502 0.000000 0.015147 0.000000
# 3 -0.010805 0.004502 0.016441 0.000000 0.016464 0.000000
# 4 0.000000 0.000000 0.000000 0.041133 0.000000 0.018047
# 5 -0.016947 0.015147 0.016464 0.000000 0.057011 0.000000
# 6 0.000000 0.000000 0.000000 0.018047 0.000000 0.071167
#
#
# Mechanical properties :
#
#
# Convention : Reuss Voigt Hill
#
# Bulk Modulus (GPa) = 38.37845 47.19174 42.78509
# Shear Modulus (GPa) = 18.29609 25.76636 22.03122
#
# Velocity S-wave (km/s) = 3.06884 3.64185 3.36755
# Velocity P-wave (km/s) = 5.68437 6.47886 6.09458
#
# Compressibility (1/GPa) = 0.02605629
#
# Stress axis : x y z
#
# Youngs Moduli (GPa) = 43.90963 46.60780 60.82207
#
# Poissons Ratio (x) = 0.51286 0.65720
# Poissons Ratio (y) = 0.48317 -0.27380
# Poissons Ratio (z) = 0.47446 -0.20981
#
# Static dielectric constant tensor:
#      x y z
#    x 3.803800 0.000000 -0.089190 
#    y 0.000000 3.558930 0.000000 
#    z -0.089190 0.000000 5.052460 
# 
# 
# High freq. dielectric constant tensor:
#      x y z
#    x 1.732320 0.000000 -0.017760 
#    y 0.000000 1.760110 0.000000 
#    z -0.017760 0.000000 1.762910 
# 
# From -- ./inp_files/2133.got.cif
#   From: 2010.06.25/outbox.cif.g09.slc.cpg/sg13_2_cif.got.tgz:2133.got - 2010.06.28 04:50:58.
