data_PCOD8117295
_publ_section_title
;
Structure prediction by ZEFSAII (Michael W. Deem and Ramdas Pophale) SiO2 
 PCOD8117295
Probable space group: P 2/C
;
_chemical_formula_sum "Si O2"
_cell_formula_units_Z 20
_cell_length_a 15.596136
_cell_length_b 9.811517
_cell_length_c 26.485254
_cell_angle_alpha 90.000000
_cell_angle_beta 17.105587
_cell_angle_gamma 90.000000
_cell_volume 1192.070234
_symmetry_space_group_name_H-M "P 2/C"
_symmetry_group_IT_number 13
_symmetry_cell_setting 'monoclinic'
loop_
_space_group_symop_operation_xyz
x,y,z
-x,y,1/2-z
-x,-y,-z
x,-y,1/2+z
loop_
_atom_site_type_symbol
_atom_site_label
_atom_site_fract_x
_atom_site_fract_y
_atom_site_fract_z
Si Si1 0.824268 0.471515 0.801134
Si Si2 0.200811 0.867577 0.443028
Si Si3 0.184164 0.828863 0.934453
Si Si4 0.169614 0.628008 0.532439
Si Si5 0.824992 0.390052 0.694236
O O1 0.816101 0.361846 0.759935
O O2 0.000000 0.412169 0.750000
O O3 0.500000 0.500000 0.000000
O O4 0.013118 0.608732 0.812216
O O5 0.500000 0.812635 0.250000
O O6 0.143295 0.782367 0.526711
O O7 0.934590 0.848237 0.554886
O O8 0.224964 0.028145 0.441583
O O9 0.500000 0.758808 0.750000
O O10 0.964952 0.740191 0.090082
O O11 0.503747 0.584682 0.353177
O O12 0.025142 0.525040 0.572105
#
# Coordination Sequence:
#
# PCOD8117295 Si02
#       5
#     4   4   4   4   4
#     4  10  18  34  55  80 106 137 174 223 282 319
#     4  10  20  37  54  76 111 151 176 212 265 323
#     4  10  22  35  54  77 112 150 179 210 263 321
#     4  10  21  34  56  83 106 141 179 225 264 318
#     4  10  21  35  54  84 104 144 180 224 262 319
#
# _framework density 16.777535
#
# number of rings (size 3 to 8) (size 9 to 14) (size 15 to 20)
#    1.200    0.800    4.000    0.000    2.800    1.600 
#    0.000    0.000    0.000    2.400    0.000    0.000 
#    0.000    0.000    0.000    0.000    0.000    0.000 
#
# Total GULP energy -247802.320610 kJ/mol
# GULP energy per Si atom -12390.116031 kJ/mol
# Density = 1.673935 g / cm^3
# Si number density = 16.777535 Si / 1000 Ang^3
#
#
#
# Elastic Constant Matrix: (Units=GPa)
#
#
# Indices 1 2 3 4 5 6 
#
# 1 71.5567 23.7027 37.0663 0.0000 -16.0308 0.0000
# 2 23.7027 59.9150 37.3731 0.0000 0.9778 0.0000
# 3 37.0663 37.3731 130.4550 0.0000 -17.2075 0.0000
# 4 0.0000 0.0000 0.0000 15.3292 0.0000 -7.1719
# 5 -16.0308 0.9778 -17.2075 0.0000 35.5270 0.0000
# 6 0.0000 0.0000 0.0000 -7.1719 0.0000 16.0441
#
#
#
# Elastic Compliance Matrix: (Units=1/GPa)
#
#
# Indices 1 2 3 4 5 6 
#
# 1 0.019018 -0.005948 -0.002720 0.000000 0.007428 0.000000
# 2 -0.005948 0.022625 -0.005585 0.000000 -0.006012 0.000000
# 3 -0.002720 -0.005585 0.010572 0.000000 0.004047 0.000000
# 4 0.000000 0.000000 0.000000 0.082486 0.000000 0.036872
# 5 0.007428 -0.006012 0.004047 0.000000 0.033625 0.000000
# 6 0.000000 0.000000 0.000000 0.036872 0.000000 0.078810
#
#
# Mechanical properties :
#
#
# Convention : Reuss Voigt Hill
#
# Bulk Modulus (GPa) = 42.17663 50.91231 46.54447
# Shear Modulus (GPa) = 17.63389 24.29903 20.96646
#
# Velocity S-wave (km/s) = 3.24549 3.80979 3.53891
# Velocity P-wave (km/s) = 6.26400 7.05437 6.67090
#
# Compressibility (1/GPa) = 0.02370981
#
# Stress axis : x y z
#
# Youngs Moduli (GPa) = 52.58107 44.19863 94.59001
#
# Poissons Ratio (x) = 0.26291 0.25726
# Poissons Ratio (y) = 0.31278 0.52824
# Poissons Ratio (z) = 0.14301 0.24683
#
# Static dielectric constant tensor:
#      x y z
#    x 6.652740 0.000000 -0.953970 
#    y 0.000000 2.909000 0.000000 
#    z -0.953970 0.000000 3.421440 
# 
# 
# High freq. dielectric constant tensor:
#      x y z
#    x 1.647860 0.000000 -0.023970 
#    y 0.000000 1.612690 0.000000 
#    z -0.023970 0.000000 1.657070 
# 
# From -- ./inp_files/31837.got.cif
#   From: 2010.06.25/outbox.cif.g09.slc.cpg/sg13_16_cif.got.tgz:31837.got - 2010.06.28 04:50:58.
