data_PCOD8117113
_publ_section_title
;
Structure prediction by ZEFSAII (Michael W. Deem and Ramdas Pophale) SiO2 
 PCOD8117113
Probable space group: P 2/C
;
_chemical_formula_sum "Si O2"
_cell_formula_units_Z 32
_cell_length_a 23.495307
_cell_length_b 8.198494
_cell_length_c 21.917828
_cell_angle_alpha 90.000000
_cell_angle_beta 157.548158
_cell_angle_gamma 90.000000
_cell_volume 1612.389903
_symmetry_space_group_name_H-M "P 2/C"
_symmetry_group_IT_number 13
_symmetry_cell_setting 'monoclinic'
loop_
_space_group_symop_operation_xyz
x,y,z
-x,y,1/2-z
-x,-y,-z
x,-y,1/2+z
loop_
_atom_site_type_symbol
_atom_site_label
_atom_site_fract_x
_atom_site_fract_y
_atom_site_fract_z
Si Si1 0.786490 0.753030 0.578080
Si Si2 0.274003 0.337582 0.072980
Si Si3 0.371344 0.080085 0.076371
Si Si4 0.692677 0.242048 0.769252
Si Si5 0.464595 0.454983 0.615288
Si Si6 0.435328 0.646729 0.473223
Si Si7 0.094474 0.361794 0.423937
Si Si8 0.612728 0.117739 0.218003
O O1 0.649792 0.631020 0.452821
O O2 0.824351 0.755977 0.544066
O O3 0.920242 0.680634 0.751679
O O4 0.750091 0.940157 0.557330
O O5 0.291066 0.243531 0.024619
O O6 0.421371 0.445487 0.229742
O O7 0.264362 0.204354 0.117382
O O8 0.127217 0.452058 0.933050
O O9 0.500000 0.016509 0.250000
O O10 0.452056 0.110380 0.092459
O O11 0.548436 0.316940 0.659222
O O12 0.694246 0.275320 0.697653
O O13 0.688194 0.049439 0.773629
O O14 0.840795 0.323141 0.944966
O O15 0.380234 0.577656 0.484381
O O16 0.500000 0.500000 0.500000
O O17 0.571758 0.775573 0.617781
#
# Coordination Sequence:
#
# PCOD8117113 Si02
#       8
#     4   4   4   4   4   4   4   4
#     4  11  22  37  54  84 117 148 187 226 286 340
#     4   9  20  33  56  84 114 144 188 229 282 338
#     4  10  20  33  58  90 110 146 190 240 282 333
#     4  10  18  36  57  82 108 148 188 231 284 337
#     4   9  19  34  58  84 112 144 187 237 276 332
#     4   9  19  33  54  86 111 140 184 245 285 326
#     4  10  23  36  54  80 117 156 182 225 283 342
#     4  10  18  31  56  90 107 140 187 244 286 321
#
# _framework density 19.846316000000002
#
# number of rings (size 3 to 8) (size 9 to 14) (size 15 to 20)
#    0.000    2.250    1.250    2.625    8.750    0.000 
#    0.000    5.625    0.000    0.750    0.000    0.000 
#    0.000    0.000    0.000    0.000    0.000    0.000 
#
# Total GULP energy -396557.485832 kJ/mol
# GULP energy per Si atom -12392.421432 kJ/mol
# Density = 1.980115 g / cm^3
# Si number density = 19.846316 Si / 1000 Ang^3
#
#
#
# Elastic Constant Matrix: (Units=GPa)
#
#
# Indices 1 2 3 4 5 6 
#
# 1 30.5057 18.6390 17.1064 0.0000 -5.9993 0.0000
# 2 18.6390 129.2611 33.2189 0.0000 6.0983 0.0000
# 3 17.1064 33.2189 77.9746 0.0000 -2.1527 0.0000
# 4 0.0000 0.0000 0.0000 33.7927 0.0000 -5.1823
# 5 -5.9993 6.0983 -2.1527 0.0000 24.6421 0.0000
# 6 0.0000 0.0000 0.0000 -5.1823 0.0000 26.7619
#
#
#
# Elastic Compliance Matrix: (Units=1/GPa)
#
#
# Indices 1 2 3 4 5 6 
#
# 1 0.041611 -0.004756 -0.006807 0.000000 0.010713 0.000000
# 2 -0.004756 0.009385 -0.003058 0.000000 -0.003748 0.000000
# 3 -0.006807 -0.003058 0.015634 0.000000 0.000465 0.000000
# 4 0.000000 0.000000 0.000000 0.030498 0.000000 0.005906
# 5 0.010713 -0.003748 0.000465 0.000000 0.044157 0.000000
# 6 0.000000 0.000000 0.000000 0.005906 0.000000 0.038510
#
#
# Mechanical properties :
#
#
# Convention : Reuss Voigt Hill
#
# Bulk Modulus (GPa) = 26.74736 41.74110 34.24423
# Shear Modulus (GPa) = 22.57350 28.29115 25.43233
#
# Velocity S-wave (km/s) = 3.37622 3.77969 3.58364
# Velocity P-wave (km/s) = 5.35770 6.33450 5.86647
#
# Compressibility (1/GPa) = 0.03738687
#
# Stress axis : x y z
#
# Youngs Moduli (GPa) = 24.03239 106.55484 63.96455
#
# Poissons Ratio (x) = 0.50680 0.43538
# Poissons Ratio (y) = 0.11430 0.19561
# Poissons Ratio (z) = 0.16358 0.32586
#
# Static dielectric constant tensor:
#      x y z
#    x 3.806390 0.000000 -0.655220 
#    y 0.000000 3.951120 0.000000 
#    z -0.655220 0.000000 3.779520 
# 
# 
# High freq. dielectric constant tensor:
#      x y z
#    x 1.745480 0.000000 -0.031030 
#    y 0.000000 1.795470 0.000000 
#    z -0.031030 0.000000 1.740660 
# 
# From -- ./inp_files/89515.got.cif
#   From: 2010.06.25/outbox.cif.g09.slc.cpg/sg13_45_cif.got.tgz:89515.got - 2010.06.28 04:50:58.
