data_PCOD8117643
_publ_section_title
;
Structure prediction by ZEFSAII (Michael W. Deem and Ramdas Pophale) SiO2 
 PCOD8117643
Probable space group: P 2/C
;
_chemical_formula_sum "Si O2"
_cell_formula_units_Z 30
_cell_length_a 15.365080
_cell_length_b 20.313987
_cell_length_c 5.152645
_cell_angle_alpha 90.000000
_cell_angle_beta 80.841583
_cell_angle_gamma 90.000000
_cell_volume 1587.772435
_symmetry_space_group_name_H-M "P 2/C"
_symmetry_group_IT_number 13
_symmetry_cell_setting 'monoclinic'
loop_
_space_group_symop_operation_xyz
x,y,z
-x,y,1/2-z
-x,-y,-z
x,-y,1/2+z
loop_
_atom_site_type_symbol
_atom_site_label
_atom_site_fract_x
_atom_site_fract_y
_atom_site_fract_z
Si Si1 0.402843 0.228664 0.336334
Si Si2 0.341122 0.836569 0.358952
Si Si3 0.500000 0.543954 0.750000
Si Si4 0.771203 0.957330 0.145822
Si Si5 0.767315 0.682129 0.587419
Si Si6 0.309101 0.545101 0.825759
Si Si7 0.942848 0.868710 0.026704
Si Si8 0.171645 0.747794 0.434239
O O1 0.500000 0.260694 0.250000
O O2 0.406298 0.186405 0.599129
O O3 0.330277 0.286190 0.375372
O O4 0.383867 0.177086 0.116317
O O5 0.316712 0.913443 0.350475
O O6 0.252520 0.796250 0.360481
O O7 0.500000 0.500000 0.500000
O O8 0.406051 0.581655 0.792658
O O9 0.858086 0.914682 0.060428
O O10 0.769960 0.984044 0.439018
O O11 0.760939 0.603582 0.620876
O O12 0.823687 0.695650 0.302261
O O13 0.824623 0.709890 0.796400
O O14 0.295803 0.506917 0.562778
O O15 0.916654 0.791460 0.037286
O O16 0.000000 0.885257 0.250000
O O17 0.000000 0.886126 0.750000
#
# Coordination Sequence:
#
# PCOD8117643 Si02
#       8
#     4   4   2   4   4   4   4   4
#     4  10  19  32  53  75  95 128 176 229 268 293
#     4   9  19  35  51  71 100 133 169 213 262 300
#     4   8  16  28  40  58  92 136 166 196 242 294
#     4  11  22  36  56  78 105 143 174 195 238 311
#     4  10  19  32  52  73 103 135 175 217 247 310
#     4  10  19  31  46  69 103 140 173 209 256 303
#     4  11  22  36  56  82 113 137 159 202 251 303
#     4   9  19  35  51  74 101 135 169 206 256 296
#
# _framework density 18.894393999999998
#
# number of rings (size 3 to 8) (size 9 to 14) (size 15 to 20)
#    0.000    2.133    0.000    3.600    0.933    5.867 
#    0.000    0.000    0.000    8.000    0.000    0.000 
#    0.000   37.333    0.000    0.000    0.000    0.000 
#
# Total GULP energy -371895.069091 kJ/mol
# GULP energy per Si atom -12396.502303 kJ/mol
# Density = 1.885139 g / cm^3
# Si number density = 18.894394 Si / 1000 Ang^3
#
#
#
# Elastic Constant Matrix: (Units=GPa)
#
#
# Indices 1 2 3 4 5 6 
#
# 1 21.2306 5.2461 3.6219 0.0000 5.3928 0.0000
# 2 5.2461 64.4585 4.0794 0.0000 0.2467 0.0000
# 3 3.6219 4.0794 94.9028 0.0000 10.9278 0.0000
# 4 0.0000 0.0000 0.0000 27.9643 0.0000 -4.1737
# 5 5.3928 0.2467 10.9278 0.0000 21.4127 0.0000
# 6 0.0000 0.0000 0.0000 -4.1737 0.0000 21.7757
#
#
#
# Elastic Compliance Matrix: (Units=1/GPa)
#
#
# Indices 1 2 3 4 5 6 
#
# 1 0.051408 -0.004115 -0.000318 0.000000 -0.012737 0.000000
# 2 -0.004115 0.015886 -0.000663 0.000000 0.001192 0.000000
# 3 -0.000318 -0.000663 0.011227 0.000000 -0.005642 0.000000
# 4 0.000000 0.000000 0.000000 0.036813 0.000000 0.007056
# 5 -0.012737 0.001192 -0.005642 0.000000 0.052775 0.000000
# 6 0.000000 0.000000 0.000000 0.007056 0.000000 0.047275
#
#
# Mechanical properties :
#
#
# Convention : Reuss Voigt Hill
#
# Bulk Modulus (GPa) = 14.63508 22.94294 18.78901
# Shear Modulus (GPa) = 20.13251 25.40683 22.76967
#
# Velocity S-wave (km/s) = 3.26778 3.67096 3.47522
# Velocity P-wave (km/s) = 4.69046 5.48972 5.10575
#
# Compressibility (1/GPa) = 0.06832899
#
# Stress axis : x y z
#
# Youngs Moduli (GPa) = 19.45206 62.94777 89.06769
#
# Poissons Ratio (x) = 0.25904 0.02836
# Poissons Ratio (y) = 0.08005 0.05906
# Poissons Ratio (z) = 0.00619 0.04174
#
# Static dielectric constant tensor:
#      x y z
#    x 3.378390 0.000000 0.006250 
#    y 0.000000 3.254850 0.000000 
#    z 0.006250 0.000000 3.656590 
# 
# 
# High freq. dielectric constant tensor:
#      x y z
#    x 1.711260 0.000000 0.011110 
#    y 0.000000 1.713930 0.000000 
#    z 0.011110 0.000000 1.754380 
# 
# From -- ./inp_files/5347.got.cif
#   From: 2010.06.25/outbox.cif.g09.slc.cpg/sg13_3_cif.got.tgz:5347.got - 2010.06.28 04:50:58.
