data_PCOD8117044
_publ_section_title
;
Structure prediction by ZEFSAII (Michael W. Deem and Ramdas Pophale) SiO2 
 PCOD8117044
Probable space group: P 2/C
;
_chemical_formula_sum "Si O2"
_cell_formula_units_Z 28
_cell_length_a 21.751917
_cell_length_b 5.030996
_cell_length_c 21.074321
_cell_angle_alpha 90.000000
_cell_angle_beta 140.207699
_cell_angle_gamma 90.000000
_cell_volume 1476.010531
_symmetry_space_group_name_H-M "P 2/C"
_symmetry_group_IT_number 13
_symmetry_cell_setting 'monoclinic'
loop_
_space_group_symop_operation_xyz
x,y,z
-x,y,1/2-z
-x,-y,-z
x,-y,1/2+z
loop_
_atom_site_type_symbol
_atom_site_label
_atom_site_fract_x
_atom_site_fract_y
_atom_site_fract_z
Si Si1 0.612264 0.992993 0.018756
Si Si2 0.022956 0.986295 0.124124
Si Si3 0.911823 0.702315 0.440590
Si Si4 0.399970 0.014900 0.843158
Si Si5 0.942604 0.508834 0.767868
Si Si6 0.719214 0.472377 0.255732
Si Si7 0.268470 0.518592 0.882467
O O1 0.596806 0.057841 0.080258
O O2 0.687037 0.213288 0.051994
O O3 0.654560 0.704951 0.040198
O O4 0.508505 0.003313 0.901798
O O5 0.068567 0.219360 0.201611
O O6 0.097880 0.895628 0.128632
O O7 0.001555 0.726955 0.150413
O O8 0.928023 0.107607 0.014702
O O9 0.814055 0.538206 0.372226
O O10 0.000000 0.500000 0.500000
O O11 0.328445 0.797563 0.755169
O O12 0.360853 0.304683 0.797677
O O13 0.832354 0.434068 0.664896
O O14 0.000000 0.571322 0.750000
O O15 0.751065 0.454037 0.207941
#
# Coordination Sequence:
#
# PCOD8117044 Si02
#       7
#     4   4   4   4   4   4   4
#     4   9  17  29  45  66 101 138 176 214 253 322
#     4  11  23  37  55  78 108 149 183 224 277 312
#     4  11  22  35  58  79 113 145 187 222 266 344
#     4   9  18  28  42  71 102 138 171 211 259 315
#     4  12  24  39  55  79 112 147 191 231 265 319
#     4  10  19  28  49  72 106 139 175 207 261 329
#     4  10  18  30  50  69  99 143 182 209 265 318
#
# _framework density 18.970053
#
# number of rings (size 3 to 8) (size 9 to 14) (size 15 to 20)
#    0.000    1.714    2.857    2.143    8.000    3.429 
#    0.000    0.000    0.000    0.000    0.000    0.000 
#    0.000   17.143    0.000    0.000    0.000    0.000 
#
# Total GULP energy -347127.795974 kJ/mol
# GULP energy per Si atom -12397.421285 kJ/mol
# Density = 1.892688 g / cm^3
# Si number density = 18.970053 Si / 1000 Ang^3
#
#
#
# Elastic Constant Matrix: (Units=GPa)
#
#
# Indices 1 2 3 4 5 6 
#
# 1 57.8295 20.0622 35.4484 0.0000 16.4210 0.0000
# 2 20.0622 95.3683 18.1777 0.0000 -1.2513 0.0000
# 3 35.4484 18.1777 72.9454 0.0000 22.0556 0.0000
# 4 0.0000 0.0000 0.0000 37.7522 0.0000 4.3671
# 5 16.4210 -1.2513 22.0556 0.0000 21.6443 0.0000
# 6 0.0000 0.0000 0.0000 4.3671 0.0000 15.1733
#
#
#
# Elastic Compliance Matrix: (Units=1/GPa)
#
#
# Indices 1 2 3 4 5 6 
#
# 1 0.027576 -0.004334 -0.008555 0.000000 -0.012454 0.000000
# 2 -0.004334 0.012071 -0.003045 0.000000 0.007089 0.000000
# 3 -0.008555 -0.003045 0.024160 0.000000 -0.018304 0.000000
# 4 0.000000 0.000000 0.000000 0.027401 0.000000 -0.007886
# 5 -0.012454 0.007089 -0.018304 0.000000 0.074712 0.000000
# 6 0.000000 0.000000 0.000000 -0.007886 0.000000 0.068175
#
#
# Mechanical properties :
#
#
# Convention : Reuss Voigt Hill
#
# Bulk Modulus (GPa) = 31.31088 41.50220 36.40654
# Shear Modulus (GPa) = 18.07599 25.07762 21.57681
#
# Velocity S-wave (km/s) = 3.09021 3.63982 3.37622
# Velocity P-wave (km/s) = 5.41052 6.29203 5.86785
#
# Compressibility (1/GPa) = 0.03193778
#
# Stress axis : x y z
#
# Youngs Moduli (GPa) = 36.26291 82.84429 41.39118
#
# Poissons Ratio (x) = 0.35903 0.35412
# Poissons Ratio (y) = 0.15716 0.12605
# Poissons Ratio (z) = 0.31024 0.25229
#
# Static dielectric constant tensor:
#      x y z
#    x 2.998630 0.000000 0.249560 
#    y 0.000000 3.732360 0.000000 
#    z 0.249560 0.000000 3.418570 
# 
# 
# High freq. dielectric constant tensor:
#      x y z
#    x 1.667660 0.000000 0.040460 
#    y 0.000000 1.764710 0.000000 
#    z 0.040460 0.000000 1.722040 
# 
# From -- ./inp_files/81271.got.cif
#   From: 2010.06.25/outbox.cif.g09.slc.cpg/sg13_41_cif.got.tgz:81271.got - 2010.06.28 04:50:58.
