data_PCOD8117023
_publ_section_title
;
Structure prediction by ZEFSAII (Michael W. Deem and Ramdas Pophale) SiO2 
 PCOD8117023
Probable space group: P 2/C
;
_chemical_formula_sum "Si O2"
_cell_formula_units_Z 32
_cell_length_a 13.880973
_cell_length_b 14.950443
_cell_length_c 8.387206
_cell_angle_alpha 90.000000
_cell_angle_beta 107.421676
_cell_angle_gamma 90.000000
_cell_volume 1660.724241
_symmetry_space_group_name_H-M "P 2/C"
_symmetry_group_IT_number 13
_symmetry_cell_setting 'monoclinic'
loop_
_space_group_symop_operation_xyz
x,y,z
-x,y,1/2-z
-x,-y,-z
x,-y,1/2+z
loop_
_atom_site_type_symbol
_atom_site_label
_atom_site_fract_x
_atom_site_fract_y
_atom_site_fract_z
Si Si1 0.786602 0.961046 0.809501
Si Si2 0.090208 0.084306 0.412374
Si Si3 0.485315 0.388349 0.403748
Si Si4 0.278548 0.875653 0.414864
Si Si5 0.755856 0.372451 0.818274
Si Si6 0.579488 0.749973 0.172706
Si Si7 0.672380 0.495552 0.035186
Si Si8 0.905284 0.770843 0.319129
O O1 0.819492 0.901070 0.672856
O O2 0.719659 0.042016 0.707805
O O3 0.720244 0.902901 0.898640
O O4 0.882505 0.000573 0.958677
O O5 0.068368 0.171596 0.508741
O O6 0.000000 0.056784 0.250000
O O7 0.500000 0.329545 0.250000
O O8 0.514798 0.330878 0.569690
O O9 0.368672 0.421863 0.358217
O O10 0.565079 0.470502 0.410810
O O11 0.380886 0.820312 0.437597
O O12 0.179632 0.817075 0.330687
O O13 0.675296 0.293082 0.811564
O O14 0.733702 0.422120 0.640454
O O15 0.866139 0.326247 0.861323
O O16 0.748908 0.447262 0.951613
O O17 0.500000 0.799575 0.250000
O O18 0.000000 0.757693 0.250000
#
# Coordination Sequence:
#
# PCOD8117023 Si02
#       8
#     4   4   4   4   4   4   4   4
#     4   9  18  33  52  79 107 136 175 217 263 308
#     4  10  18  31  55  81 103 134 173 225 267 304
#     4  10  18  29  50  82 107 130 163 223 264 308
#     4   9  19  35  54  77 107 141 177 219 259 309
#     4  10  20  35  53  77 104 141 168 219 268 312
#     4  10  19  33  52  77 109 140 171 212 270 316
#     4  10  18  31  53  77 106 129 174 212 266 308
#     4  10  21  37  53  75 109 142 175 213 266 316
#
# _framework density 19.268701
#
# number of rings (size 3 to 8) (size 9 to 14) (size 15 to 20)
#    0.000    2.250    2.500    1.125    0.000    3.500 
#    2.250    3.750    0.000    0.000    0.000    0.000 
#    0.000    0.000    0.000    0.000    0.000    0.000 
#
# Total GULP energy -396476.361828 kJ/mol
# GULP energy per Si atom -12389.886307 kJ/mol
# Density = 1.922485 g / cm^3
# Si number density = 19.268701 Si / 1000 Ang^3
#
#
#
# Elastic Constant Matrix: (Units=GPa)
#
#
# Indices 1 2 3 4 5 6 
#
# 1 96.3485 49.9996 37.7626 0.0000 -33.6034 0.0000
# 2 49.9996 74.0587 29.5525 0.0000 -21.5039 0.0000
# 3 37.7626 29.5525 84.8234 0.0000 -28.6497 0.0000
# 4 0.0000 0.0000 0.0000 26.5863 0.0000 -13.7882
# 5 -33.6034 -21.5039 -28.6497 0.0000 30.0453 0.0000
# 6 0.0000 0.0000 0.0000 -13.7882 0.0000 24.9376
#
#
#
# Elastic Compliance Matrix: (Units=1/GPa)
#
#
# Indices 1 2 3 4 5 6 
#
# 1 0.021170 -0.009264 -0.000648 0.000000 0.016429 0.000000
# 2 -0.009264 0.021523 -0.002465 0.000000 0.002693 0.000000
# 3 -0.000648 -0.002465 0.017842 0.000000 0.014524 0.000000
# 4 0.000000 0.000000 0.000000 0.052735 0.000000 0.029158
# 5 0.016429 0.002693 0.014524 0.000000 0.067435 0.000000
# 6 0.000000 0.000000 0.000000 0.029158 0.000000 0.056222
#
#
# Mechanical properties :
#
#
# Convention : Reuss Voigt Hill
#
# Bulk Modulus (GPa) = 27.94739 54.42889 41.18814
# Shear Modulus (GPa) = 18.27433 25.50824 21.89129
#
# Velocity S-wave (km/s) = 3.08294 3.64238 3.37427
# Velocity P-wave (km/s) = 5.21615 6.78217 6.05004
#
# Compressibility (1/GPa) = 0.03578151
#
# Stress axis : x y z
#
# Youngs Moduli (GPa) = 47.23573 46.46284 56.04677
#
# Poissons Ratio (x) = 0.43042 0.03634
# Poissons Ratio (y) = 0.43758 0.13814
# Poissons Ratio (z) = 0.03062 0.11452
#
# Static dielectric constant tensor:
#      x y z
#    x 3.354110 0.000000 -0.233320 
#    y 0.000000 3.398110 0.000000 
#    z -0.233320 0.000000 3.628400 
# 
# 
# High freq. dielectric constant tensor:
#      x y z
#    x 1.720560 0.000000 -0.028260 
#    y 0.000000 1.726220 0.000000 
#    z -0.028260 0.000000 1.752270 
# 
# From -- ./inp_files/16764.got.cif
#   From: 2010.06.25/outbox.cif.g09.slc.cpg/sg13_9_cif.got.tgz:16764.got - 2010.06.28 04:50:58.
