data_PCOD8117613
_publ_section_title
;
Structure prediction by ZEFSAII (Michael W. Deem and Ramdas Pophale) SiO2 
 PCOD8117613
Probable space group: P 2/C
;
_chemical_formula_sum "Si O2"
_cell_formula_units_Z 24
_cell_length_a 11.448578
_cell_length_b 8.883158
_cell_length_c 24.831673
_cell_angle_alpha 90.000000
_cell_angle_beta 29.670120
_cell_angle_gamma 90.000000
_cell_volume 1250.072012
_symmetry_space_group_name_H-M "P 2/C"
_symmetry_group_IT_number 13
_symmetry_cell_setting 'monoclinic'
loop_
_space_group_symop_operation_xyz
x,y,z
-x,y,1/2-z
-x,-y,-z
x,-y,1/2+z
loop_
_atom_site_type_symbol
_atom_site_label
_atom_site_fract_x
_atom_site_fract_y
_atom_site_fract_z
Si Si1 0.470832 0.501843 0.403932
Si Si2 0.418112 0.250000 0.554834
Si Si3 0.567054 0.250000 0.784773
Si Si4 0.529168 0.001844 0.596068
Si Si5 0.243164 0.750000 0.681817
Si Si6 0.875282 0.250000 0.921577
O O1 0.518929 0.602668 0.437141
O O2 0.449272 0.603174 0.359348
O O3 0.706545 0.397977 0.302383
O O4 0.236251 0.400559 0.505906
O O5 0.481072 0.102668 0.562859
O O6 0.559693 0.250001 0.442732
O O7 0.156365 0.250000 0.631845
O O8 0.500000 0.250000 0.750000
O O9 0.449272 0.103174 0.859348
O O10 0.846945 0.250000 0.680098
O O11 0.293455 0.897977 0.697616
O O12 0.763749 0.900559 0.494094
O O13 0.000000 0.750000 0.750000
#
# Coordination Sequence:
#
# PCOD8117613 Si02
#       6
#     4   4   4   4   4   4
#     4   9  21  37  55  88 113 146 191 226 290 347
#     4   9  18  34  55  86 119 143 176 226 298 354
#     4  11  25  40  59  80 109 161 207 229 273 324
#     4   9  21  37  55  88 113 146 191 226 290 347
#     4  10  19  29  56  88 118 138 175 226 291 355
#     4  10  20  38  59  80 124 142 180 249 282 329
#
# _framework density 19.198893999999999
#
# number of rings (size 3 to 8) (size 9 to 14) (size 15 to 20)
#    0.000    2.667    0.000    4.000    9.333    2.667 
#    0.000    3.333    0.000    0.000    0.000    0.000 
#    0.000    0.000    0.000    0.000    0.000    0.000 
#
# Total GULP energy -297334.701614 kJ/mol
# GULP energy per Si atom -12388.945901 kJ/mol
# Density = 1.915520 g / cm^3
# Si number density = 19.198894 Si / 1000 Ang^3
#
#
#
# Elastic Constant Matrix: (Units=GPa)
#
#
# Indices 1 2 3 4 5 6 
#
# 1 113.8775 40.7179 26.9988 0.0000 21.9119 0.0000
# 2 40.7179 140.9082 29.1490 0.0000 14.1929 0.0000
# 3 26.9988 29.1490 46.7310 0.0000 -1.9495 0.0000
# 4 0.0000 0.0000 0.0000 20.4089 0.0000 1.7547
# 5 21.9119 14.1929 -1.9495 0.0000 30.8375 0.0000
# 6 0.0000 0.0000 0.0000 1.7547 0.0000 13.6467
#
#
#
# Elastic Compliance Matrix: (Units=1/GPa)
#
#
# Indices 1 2 3 4 5 6 
#
# 1 0.012547 -0.001346 -0.006774 0.000000 -0.008724 0.000000
# 2 -0.001346 0.008840 -0.004879 0.000000 -0.003421 0.000000
# 3 -0.006774 -0.004879 0.028726 0.000000 0.008875 0.000000
# 4 0.000000 0.000000 0.000000 0.049546 0.000000 -0.006370
# 5 -0.008724 -0.003421 0.008875 0.000000 0.040763 0.000000
# 6 0.000000 0.000000 0.000000 -0.006370 0.000000 0.074097
#
#
# Mechanical properties :
#
#
# Convention : Reuss Voigt Hill
#
# Bulk Modulus (GPa) = 41.46610 55.02758 48.24684
# Shear Modulus (GPa) = 20.11638 26.62203 23.36921
#
# Velocity S-wave (km/s) = 3.24047 3.72781 3.49265
# Velocity P-wave (km/s) = 5.97042 6.87407 6.43812
#
# Compressibility (1/GPa) = 0.02411609
#
# Stress axis : x y z
#
# Youngs Moduli (GPa) = 79.69894 113.12841 34.81150
#
# Poissons Ratio (x) = 0.15224 0.23580
# Poissons Ratio (y) = 0.10725 0.16984
# Poissons Ratio (z) = 0.53986 0.55195
#
# Static dielectric constant tensor:
#      x y z
#    x 2.742430 0.000000 0.519160 
#    y 0.000000 4.098370 0.000000 
#    z 0.519160 0.000000 2.879390 
# 
# 
# High freq. dielectric constant tensor:
#      x y z
#    x 1.721710 0.000000 -0.004510 
#    y 0.000000 1.773870 0.000000 
#    z -0.004510 0.000000 1.728860 
# 
# From -- ./inp_files/92069.got.cif
#   From: 2010.06.25/outbox.cif.g09.slc.cpg/sg13_47_cif.got.tgz:92069.got - 2010.06.28 04:50:58.
