data_PCOD8117077
_publ_section_title
;
Structure prediction by ZEFSAII (Michael W. Deem and Ramdas Pophale) SiO2 
 PCOD8117077
Probable space group: P 2/C
;
_chemical_formula_sum "Si O2"
_cell_formula_units_Z 18
_cell_length_a 6.761765
_cell_length_b 18.540528
_cell_length_c 5.505627
_cell_angle_alpha 90.000000
_cell_angle_beta 77.667341
_cell_angle_gamma 90.000000
_cell_volume 674.294674
_symmetry_space_group_name_H-M "P 2/C"
_symmetry_group_IT_number 13
_symmetry_cell_setting 'monoclinic'
loop_
_space_group_symop_operation_xyz
x,y,z
-x,y,1/2-z
-x,-y,-z
x,-y,1/2+z
loop_
_atom_site_type_symbol
_atom_site_label
_atom_site_fract_x
_atom_site_fract_y
_atom_site_fract_z
Si Si1 0.667900 0.317073 0.505276
Si Si2 0.790491 0.809305 0.668194
Si Si3 0.000000 0.280337 0.750000
Si Si4 0.766435 0.972368 0.574489
Si Si5 0.759362 0.536506 0.802402
O O1 0.500000 0.327122 0.750000
O O2 0.641542 0.239426 0.376221
O O3 0.890574 0.327008 0.572256
O O4 0.671214 0.381880 0.311347
O O5 0.715462 0.888645 0.628011
O O6 0.000000 0.818138 0.750000
O O7 0.821224 0.768880 0.405963
O O8 0.664248 0.991654 0.340985
O O9 0.000000 0.000000 0.500000
O O10 0.675836 0.500697 0.574433
O O11 0.000000 0.533176 0.750000
#
# Coordination Sequence:
#
# PCOD8117077 Si02
#       5
#     4   4   2   4   4
#     4  11  26  43  65 101 137 178 230 279 338 415
#     4  10  20  36  61  94 130 174 226 277 340 399
#     4  10  22  40  68  90 132 176 226 284 334 398
#     4  10  18  30  56  93 128 167 223 281 332 405
#     4  10  23  43  72 100 136 179 228 285 345 405
#
# _framework density 26.694561
#
# number of rings (size 3 to 8) (size 9 to 14) (size 15 to 20)
#    0.000    1.778    2.222    3.333   10.889    1.778 
#    0.000    0.000    0.000    1.333    0.000    0.000 
#    0.000    0.000    0.000    0.000    0.000    0.000 
#
# Total GULP energy -223112.093382 kJ/mol
# GULP energy per Si atom -12395.116299 kJ/mol
# Density = 2.663380 g / cm^3
# Si number density = 26.694561 Si / 1000 Ang^3
#
#
#
# Elastic Constant Matrix: (Units=GPa)
#
#
# Indices 1 2 3 4 5 6 
#
# 1 50.0399 13.4857 35.4516 0.0000 21.7925 0.0000
# 2 13.4857 198.5507 74.2300 0.0000 7.3742 0.0000
# 3 35.4516 74.2300 208.6216 0.0000 13.1845 0.0000
# 4 0.0000 0.0000 0.0000 26.8883 0.0000 -15.4184
# 5 21.7925 7.3742 13.1845 0.0000 45.6718 0.0000
# 6 0.0000 0.0000 0.0000 -15.4184 0.0000 -27.2625
#
#
#
# Elastic Compliance Matrix: (Units=1/GPa)
#
#
# Indices 1 2 3 4 5 6 
#
# 1 0.028178 0.000049 -0.004029 0.000000 -0.012290 0.000000
# 2 0.000049 0.005815 -0.002054 0.000000 -0.000369 0.000000
# 3 -0.004029 -0.002054 0.006179 0.000000 0.000470 0.000000
# 4 0.000000 0.000000 0.000000 0.028083 0.000000 -0.015883
# 5 -0.012290 -0.000369 0.000470 0.000000 0.027683 0.000000
# 6 0.000000 0.000000 0.000000 -0.015883 0.000000 -0.027698
#
#
# Mechanical properties :
#
#
# Convention : Reuss Voigt Hill
#
# Bulk Modulus (GPa) = 35.58294 78.17185 56.87739
# Shear Modulus (GPa) = 55.75623 31.32918 43.54270
#
# Velocity S-wave (km/s) = 4.57516 3.42953 4.04313
# Velocity P-wave (km/s) = 6.42402 6.71041 6.56878
#
# Compressibility (1/GPa) = 0.02810336
#
# Stress axis : x y z
#
# Youngs Moduli (GPa) = 35.48928 171.97578 161.83553
#
# Poissons Ratio (x) = -0.00840 0.65203
# Poissons Ratio (y) = -0.00173 0.33240
# Poissons Ratio (z) = 0.14299 0.35323
#
# Static dielectric constant tensor:
#      x y z
#    x 4.641760 0.000000 0.235920 
#    y 0.000000 4.893040 0.000000 
#    z 0.235920 0.000000 5.572760 
# 
# 
# High freq. dielectric constant tensor:
#      x y z
#    x 2.076030 0.000000 0.004630 
#    y 0.000000 2.062570 0.000000 
#    z 0.004630 0.000000 2.096200 
# 
# From -- ./inp_files/1488.got.cif
#   From: 2010.06.25/outbox.cif.g09.slc.cpg/sg13_1_cif.got.tgz:1488.got - 2010.06.28 04:50:58.
