data_PCOD8117191
_publ_section_title
;
Structure prediction by ZEFSAII (Michael W. Deem and Ramdas Pophale) SiO2 
 PCOD8117191
Probable space group: P 2/C
;
_chemical_formula_sum "Si O2"
_cell_formula_units_Z 24
_cell_length_a 17.045512
_cell_length_b 8.654128
_cell_length_c 24.423896
_cell_angle_alpha 90.000000
_cell_angle_beta 18.090079
_cell_angle_gamma 90.000000
_cell_volume 1118.733057
_symmetry_space_group_name_H-M "P 2/C"
_symmetry_group_IT_number 13
_symmetry_cell_setting 'monoclinic'
loop_
_space_group_symop_operation_xyz
x,y,z
-x,y,1/2-z
-x,-y,-z
x,-y,1/2+z
loop_
_atom_site_type_symbol
_atom_site_label
_atom_site_fract_x
_atom_site_fract_y
_atom_site_fract_z
Si Si1 0.979007 0.180440 0.501479
Si Si2 0.995519 0.186379 0.366919
Si Si3 0.521062 0.802036 0.115911
Si Si4 0.496800 0.135782 0.316570
Si Si5 0.493478 0.681050 0.496379
Si Si6 0.013841 0.141053 0.803422
O O1 0.259171 0.243766 0.331761
O O2 0.901216 0.203491 0.490939
O O3 0.753635 0.266143 0.684268
O O4 0.000000 0.000000 0.500000
O O5 0.771618 0.264247 0.479479
O O6 0.053495 0.008487 0.314635
O O7 0.259507 0.272423 0.188767
O O8 0.557326 0.756269 0.029095
O O9 0.509880 0.983752 0.139521
O O10 0.500000 0.090588 0.250000
O O11 0.241037 0.225848 0.504341
O O12 0.500000 0.500000 0.500000
O O13 0.756424 0.741981 0.344903
O O14 0.000000 0.085701 0.750000
#
# Coordination Sequence:
#
# PCOD8117191 Si02
#       6
#     4   4   4   4   4   4
#     4  10  18  33  60  94 124 148 185 243 301 357
#     4  11  21  38  63  92 118 153 196 246 300 354
#     4  10  19  36  59  84 117 155 191 236 293 353
#     4  10  18  32  59  97 126 149 185 245 305 352
#     4  12  26  41  57  82 120 165 203 245 295 350
#     4  11  21  36  60  89 118 152 196 247 296 350
#
# _framework density 21.452838
#
# number of rings (size 3 to 8) (size 9 to 14) (size 15 to 20)
#    0.000    1.333    0.000   11.500    0.000    1.333 
#    0.000    0.833    0.000    4.000    0.000    0.000 
#    0.000    0.000    0.000    0.000    0.000    0.000 
#
# Total GULP energy -297347.326588 kJ/mol
# GULP energy per Si atom -12389.471941 kJ/mol
# Density = 2.140401 g / cm^3
# Si number density = 21.452838 Si / 1000 Ang^3
#
#
#
# Elastic Constant Matrix: (Units=GPa)
#
#
# Indices 1 2 3 4 5 6 
#
# 1 99.7157 12.8300 20.5968 0.0000 2.9883 0.0000
# 2 12.8300 43.3858 19.0417 0.0000 -8.8636 0.0000
# 3 20.5968 19.0417 155.0768 0.0000 -29.4197 0.0000
# 4 0.0000 0.0000 0.0000 -3.3843 0.0000 1.7348
# 5 2.9883 -8.8636 -29.4197 0.0000 55.7781 0.0000
# 6 0.0000 0.0000 0.0000 1.7348 0.0000 6.6625
#
#
#
# Elastic Compliance Matrix: (Units=1/GPa)
#
#
# Indices 1 2 3 4 5 6 
#
# 1 0.010749 -0.002925 -0.001407 0.000000 -0.001783 0.000000
# 2 -0.002925 0.025489 -0.002159 0.000000 0.003068 0.000000
# 3 -0.001407 -0.002159 0.007611 0.000000 0.003747 0.000000
# 4 0.000000 0.000000 0.000000 -0.260692 0.000000 0.067878
# 5 -0.001783 0.003068 0.003747 0.000000 0.020487 0.000000
# 6 0.000000 0.000000 0.000000 0.067878 0.000000 0.132420
#
#
# Mechanical properties :
#
#
# Convention : Reuss Voigt Hill
#
# Bulk Modulus (GPa) = 32.39784 44.79060 38.59422
# Shear Modulus (GPa) = -122.95774 28.19193 -47.38290
#
# Velocity S-wave (km/s) = -7.57890 3.62903 -4.70478
# Velocity P-wave (km/s) = 7.83911 6.20353 3.38880
#
# Compressibility (1/GPa) = 0.03086625
#
# Stress axis : x y z
#
# Youngs Moduli (GPa) = 93.03292 39.23330 131.38645
#
# Poissons Ratio (x) = 0.11478 0.18481
# Poissons Ratio (y) = 0.27217 0.28367
# Poissons Ratio (z) = 0.13086 0.08471
#
# Static dielectric constant tensor:
#      x y z
#    x 3.991300 0.000000 -0.506560 
#    y 0.000000 3.170080 0.000000 
#    z -0.506560 0.000000 5.493340 
# 
# 
# High freq. dielectric constant tensor:
#      x y z
#    x 1.858430 0.000000 -0.008980 
#    y 0.000000 1.755570 0.000000 
#    z -0.008980 0.000000 1.887720 
# 
# From -- ./inp_files/87986.got.cif
#   From: 2010.06.25/outbox.cif.g09.slc.cpg/sg13_44_cif.got.tgz:87986.got - 2010.06.28 04:50:58.
