data_PCOD8117258
_publ_section_title
;
Structure prediction by ZEFSAII (Michael W. Deem and Ramdas Pophale) SiO2 
 PCOD8117258
Probable space group: P 2/C
;
_chemical_formula_sum "Si O2"
_cell_formula_units_Z 22
_cell_length_a 8.511763
_cell_length_b 7.841891
_cell_length_c 16.908021
_cell_angle_alpha 90.000000
_cell_angle_beta 76.741091
_cell_angle_gamma 90.000000
_cell_volume 1098.498034
_symmetry_space_group_name_H-M "P 2/C"
_symmetry_group_IT_number 13
_symmetry_cell_setting 'monoclinic'
loop_
_space_group_symop_operation_xyz
x,y,z
-x,y,1/2-z
-x,-y,-z
x,-y,1/2+z
loop_
_atom_site_type_symbol
_atom_site_label
_atom_site_fract_x
_atom_site_fract_y
_atom_site_fract_z
Si Si1 0.500000 0.607602 0.750000
Si Si2 0.997745 0.187178 0.581590
Si Si3 0.683515 0.641517 0.479549
Si Si4 0.806355 0.511367 0.629763
Si Si5 0.376507 0.688614 0.602145
Si Si6 0.961004 0.818317 0.903490
O O1 0.650585 0.494078 0.703569
O O2 0.442344 0.722374 0.682954
O O3 0.190313 0.215961 0.561513
O O4 0.906183 0.340081 0.636137
O O5 0.933259 0.187173 0.500062
O O6 0.966338 0.004837 0.627493
O O7 0.756345 0.529446 0.543763
O O8 0.518951 0.739248 0.523784
O O9 0.655814 0.512864 0.409699
O O10 0.916332 0.673930 0.641721
O O11 0.215505 0.798380 0.613672
#
# Coordination Sequence:
#
# PCOD8117258 Si02
#       6
#     2   4   4   4   4   4
#     4  10  24  34  60  74 112 164 190 212 292 326
#     4  10  18  33  58  91 105 138 180 238 283 330
#     4   9  17  32  59  81 112 134 183 233 280 312
#     4  10  18  38  55  83 110 145 182 238 269 340
#     4  10  18  34  55  83 107 151 181 228 270 336
#     4  10  19  32  61  84 112 139 182 232 289 324
#
# _framework density 20.027346000000001
#
# number of rings (size 3 to 8) (size 9 to 14) (size 15 to 20)
#    0.000    2.182    3.636    1.091    0.000    1.455 
#    0.000    0.909    8.000    0.000    0.000    0.000 
#    0.000    0.000    0.000    0.000    0.000    0.000 
#
# Total GULP energy -272696.477433 kJ/mol
# GULP energy per Si atom -12395.294429 kJ/mol
# Density = 1.998176 g / cm^3
# Si number density = 20.027346 Si / 1000 Ang^3
#
#
#
# Elastic Constant Matrix: (Units=GPa)
#
#
# Indices 1 2 3 4 5 6 
#
# 1 139.0753 57.6755 35.9837 0.0000 -16.9091 0.0000
# 2 57.6755 140.7715 33.7286 0.0000 -25.0286 0.0000
# 3 35.9837 33.7286 56.7433 0.0000 -10.1135 0.0000
# 4 0.0000 0.0000 0.0000 4.1696 0.0000 1.2619
# 5 -16.9091 -25.0286 -10.1135 0.0000 31.8963 0.0000
# 6 0.0000 0.0000 0.0000 1.2619 0.0000 21.9569
#
#
#
# Elastic Compliance Matrix: (Units=1/GPa)
#
#
# Indices 1 2 3 4 5 6 
#
# 1 0.009569 -0.002610 -0.004216 0.000000 0.001688 0.000000
# 2 -0.002610 0.009911 -0.003282 0.000000 0.005353 0.000000
# 3 -0.004216 -0.003282 0.022671 0.000000 0.002378 0.000000
# 4 0.000000 0.000000 0.000000 0.244075 0.000000 -0.014027
# 5 0.001688 0.005353 0.002378 0.000000 0.037201 0.000000
# 6 0.000000 0.000000 0.000000 -0.014027 0.000000 0.046350
#
#
# Mechanical properties :
#
#
# Convention : Reuss Voigt Hill
#
# Bulk Modulus (GPa) = 45.58816 65.70729 55.64773
# Shear Modulus (GPa) = 12.58480 25.55140 19.06810
#
# Velocity S-wave (km/s) = 2.50947 3.57574 3.08896
# Velocity P-wave (km/s) = 5.58650 7.06597 6.36934
#
# Compressibility (1/GPa) = 0.02193552
#
# Stress axis : x y z
#
# Youngs Moduli (GPa) = 104.50633 100.89565 44.10871
#
# Poissons Ratio (x) = 0.26337 0.18595
# Poissons Ratio (y) = 0.27279 0.14476
# Poissons Ratio (z) = 0.44056 0.33113
#
# Static dielectric constant tensor:
#      x y z
#    x 3.923020 0.000000 -0.073990 
#    y 0.000000 3.455630 0.000000 
#    z -0.073990 0.000000 3.329050 
# 
# 
# High freq. dielectric constant tensor:
#      x y z
#    x 1.803710 0.000000 -0.007220 
#    y 0.000000 1.749580 0.000000 
#    z -0.007220 0.000000 1.744890 
# 
# From -- ./inp_files/63284.got.cif
#   From: 2010.06.25/outbox.cif.g09.slc.cpg/sg13_32_cif.got.tgz:63284.got - 2010.06.28 04:50:58.
