data_PCOD8117650
_publ_section_title
;
Structure prediction by ZEFSAII (Michael W. Deem and Ramdas Pophale) SiO2 
 PCOD8117650
Probable space group: P 2/C
;
_chemical_formula_sum "Si O2"
_cell_formula_units_Z 32
_cell_length_a 19.393326
_cell_length_b 10.192496
_cell_length_c 26.022042
_cell_angle_alpha 90.000000
_cell_angle_beta 159.912754
_cell_angle_gamma 90.000000
_cell_volume 1766.601345
_symmetry_space_group_name_H-M "P 2/C"
_symmetry_group_IT_number 13
_symmetry_cell_setting 'monoclinic'
loop_
_space_group_symop_operation_xyz
x,y,z
-x,y,1/2-z
-x,-y,-z
x,-y,1/2+z
loop_
_atom_site_type_symbol
_atom_site_label
_atom_site_fract_x
_atom_site_fract_y
_atom_site_fract_z
Si Si1 0.504566 0.346167 0.010034
Si Si2 0.197057 0.195719 0.862717
Si Si3 0.528481 0.054440 0.148920
Si Si4 0.302943 0.195719 0.137283
Si Si5 0.336471 0.202340 0.795921
Si Si6 0.995434 0.346167 0.989966
Si Si7 0.163529 0.797660 0.704079
Si Si8 0.028481 0.054440 0.648920
O O1 0.334553 0.306973 0.932823
O O2 0.468003 0.274259 0.930661
O O3 0.500000 0.500000 0.000000
O O4 0.729447 0.309965 0.185080
O O5 0.125795 0.088412 0.771446
O O6 0.000000 0.263788 0.750000
O O7 0.307923 0.116285 0.986120
O O8 0.625795 0.088412 0.271446
O O9 0.658051 0.115702 0.193831
O O10 0.522607 0.896092 0.138473
O O11 0.500000 0.263788 0.250000
O O12 0.165447 0.306973 0.067177
O O13 0.192077 0.116285 0.013880
O O14 0.158051 0.115702 0.693831
O O15 0.229447 0.309965 0.685080
O O16 0.031997 0.274258 0.069339
O O17 0.000000 0.500000 0.000000
O O18 0.022607 0.896092 0.638473
#
# Coordination Sequence:
#
# PCOD8117650 Si02
#       8
#     4   4   4   4   4   4   4   4
#     4  10  19  31  49  73  99 130 167 198 233 286
#     4  10  19  31  49  71  96 126 161 204 248 293
#     4   9  17  30  49  72  94 119 153 199 252 287
#     4  10  19  31  49  71  96 126 161 204 248 293
#     4   9  17  30  49  72  95 119 155 203 242 278
#     4  10  19  31  49  73  99 130 167 198 233 286
#     4   9  17  30  49  72  95 119 155 203 242 278
#     4   9  17  30  49  72  94 119 153 199 252 287
#
# _framework density 18.113876000000001
#
# number of rings (size 3 to 8) (size 9 to 14) (size 15 to 20)
#    0.000    2.500    0.000    3.000    0.000    6.000 
#    0.000    0.000    0.000    9.000    0.000    0.000 
#    0.000    0.000    0.000    0.000    0.000    0.000 
#
# Total GULP energy -396696.606496 kJ/mol
# GULP energy per Si atom -12396.768953 kJ/mol
# Density = 1.807265 g / cm^3
# Si number density = 18.113876 Si / 1000 Ang^3
#
#
#
# Elastic Constant Matrix: (Units=GPa)
#
#
# Indices 1 2 3 4 5 6 
#
# 1 40.8858 27.4824 21.9492 0.0000 -2.7420 0.0000
# 2 27.4824 97.1011 13.3669 0.0000 0.5881 0.0000
# 3 21.9492 13.3669 78.2768 0.0000 -11.7699 0.0000
# 4 0.0000 0.0000 0.0000 24.1552 0.0000 -3.5809
# 5 -2.7420 0.5881 -11.7699 0.0000 31.8570 0.0000
# 6 0.0000 0.0000 0.0000 -3.5809 0.0000 13.3685
#
#
#
# Elastic Compliance Matrix: (Units=1/GPa)
#
#
# Indices 1 2 3 4 5 6 
#
# 1 0.034734 -0.008697 -0.008239 0.000000 0.000106 0.000000
# 2 -0.008697 0.012749 0.000120 0.000000 -0.000939 0.000000
# 3 -0.008239 0.000120 0.015838 0.000000 0.005140 0.000000
# 4 0.000000 0.000000 0.000000 0.043111 0.000000 0.011548
# 5 0.000106 -0.000939 0.005140 0.000000 0.033316 0.000000
# 6 0.000000 0.000000 0.000000 0.011548 0.000000 0.077896
#
#
# Mechanical properties :
#
#
# Convention : Reuss Voigt Hill
#
# Bulk Modulus (GPa) = 33.68098 37.98454 35.83276
# Shear Modulus (GPa) = 19.14450 24.10716 21.62583
#
# Velocity S-wave (km/s) = 3.25452 3.65206 3.45901
# Velocity P-wave (km/s) = 5.72337 6.22887 5.98146
#
# Compressibility (1/GPa) = 0.02969035
#
# Stress axis : x y z
#
# Youngs Moduli (GPa) = 28.78984 78.43586 63.14088
#
# Poissons Ratio (x) = 0.68219 0.52019
# Poissons Ratio (y) = 0.25040 -0.00760
# Poissons Ratio (z) = 0.23719 -0.00944
#
# Static dielectric constant tensor:
#      x y z
#    x 3.184900 0.000000 -0.076050 
#    y 0.000000 3.196840 0.000000 
#    z -0.076050 0.000000 3.589380 
# 
# 
# High freq. dielectric constant tensor:
#      x y z
#    x 1.677780 0.000000 -0.021050 
#    y 0.000000 1.680450 0.000000 
#    z -0.021050 0.000000 1.717200 
# 
# From -- ./inp_files/70222.got.cif
#   From: 2010.06.25/outbox.cif.g09.slc.cpg/sg13_36_cif.got.tgz:70222.got - 2010.06.28 04:50:58.
