data_PCOD8117011
_publ_section_title
;
Structure prediction by ZEFSAII (Michael W. Deem and Ramdas Pophale) SiO2 
 PCOD8117011
Probable space group: P 2/C
;
_chemical_formula_sum "Si O2"
_cell_formula_units_Z 28
_cell_length_a 14.116529
_cell_length_b 5.194742
_cell_length_c 28.495765
_cell_angle_alpha 90.000000
_cell_angle_beta 68.203094
_cell_angle_gamma 90.000000
_cell_volume 1940.246400
_symmetry_space_group_name_H-M "P 2/C"
_symmetry_group_IT_number 13
_symmetry_cell_setting 'monoclinic'
loop_
_space_group_symop_operation_xyz
x,y,z
-x,y,1/2-z
-x,-y,-z
x,-y,1/2+z
loop_
_atom_site_type_symbol
_atom_site_label
_atom_site_fract_x
_atom_site_fract_y
_atom_site_fract_z
Si Si1 0.866423 0.735114 0.522873
Si Si2 0.916712 0.236826 0.466792
Si Si3 0.023070 0.856665 0.854274
Si Si4 0.380054 0.110797 0.269664
Si Si5 0.951546 0.644486 0.208648
Si Si6 0.771421 0.714292 0.636095
Si Si7 0.728504 0.605724 0.225350
O O1 0.857395 0.504058 0.486914
O O2 0.780523 0.687483 0.578537
O O3 0.976064 0.742095 0.526746
O O4 0.848194 0.004502 0.499869
O O5 0.933542 0.189481 0.408599
O O6 0.015610 0.631383 0.817483
O O7 0.132161 0.865695 0.859903
O O8 0.006869 0.131518 0.832947
O O9 0.500000 0.142351 0.250000
O O10 0.331091 0.126373 0.331294
O O11 0.330429 0.343466 0.247904
O O12 0.350073 0.838552 0.252667
O O13 0.828956 0.657182 0.237713
O O14 0.000000 0.686704 0.250000
O O15 0.764496 0.434970 0.663830
#
# Coordination Sequence:
#
# PCOD8117011 Si02
#       7
#     4   4   4   4   4   4   4
#     4   9  16  24  38  56  78 107 147 165 196 240
#     4   9  17  25  37  56  78 111 139 174 198 233
#     4  10  18  30  41  58  88 112 146 175 209 244
#     4  10  18  29  44  61  82 117 146 170 212 250
#     4  11  19  30  46  62  81 116 150 178 209 249
#     4   8  18  26  43  57  86 113 144 171 204 244
#     4   9  18  30  41  61  84 112 144 174 210 242
#
# _framework density 14.431156
#
# number of rings (size 3 to 8) (size 9 to 14) (size 15 to 20)
#    0.857    1.714    1.429    1.714    2.000    3.429 
#    0.000    0.000    0.000    0.000    0.000    0.000 
#    0.000    0.000    0.000   25.714    0.000    1.429 
#
# Total GULP energy -346932.433003 kJ/mol
# GULP energy per Si atom -12390.444036 kJ/mol
# Density = 1.439831 g / cm^3
# Si number density = 14.431156 Si / 1000 Ang^3
#
#
#
# Elastic Constant Matrix: (Units=GPa)
#
#
# Indices 1 2 3 4 5 6 
#
# 1 53.6971 22.3669 33.9309 0.0000 -4.8691 0.0000
# 2 22.3669 98.2569 18.7386 0.0000 -1.3342 0.0000
# 3 33.9309 18.7386 63.3936 0.0000 -5.6562 0.0000
# 4 0.0000 0.0000 0.0000 22.0682 0.0000 -2.0520
# 5 -4.8691 -1.3342 -5.6562 0.0000 13.8677 0.0000
# 6 0.0000 0.0000 0.0000 -2.0520 0.0000 13.1841
#
#
#
# Elastic Compliance Matrix: (Units=1/GPa)
#
#
# Indices 1 2 3 4 5 6 
#
# 1 0.029737 -0.003972 -0.014368 0.000000 0.004199 0.000000
# 2 -0.003972 0.011317 -0.001293 0.000000 -0.000833 0.000000
# 3 -0.014368 -0.001293 0.024269 0.000000 0.004729 0.000000
# 4 0.000000 0.000000 0.000000 0.045979 0.000000 0.007156
# 5 0.004199 -0.000833 0.004729 0.000000 0.075433 0.000000
# 6 0.000000 0.000000 0.000000 0.007156 0.000000 0.076963
#
#
# Mechanical properties :
#
#
# Convention : Reuss Voigt Hill
#
# Bulk Modulus (GPa) = 38.37852 40.60229 39.49040
# Shear Modulus (GPa) = 16.04359 19.17809 17.61084
#
# Velocity S-wave (km/s) = 3.33788 3.64941 3.49712
# Velocity P-wave (km/s) = 6.44261 6.77893 6.61291
#
# Compressibility (1/GPa) = 0.02605624
#
# Stress axis : x y z
#
# Youngs Moduli (GPa) = 33.62788 88.36278 41.20476
#
# Poissons Ratio (x) = 0.35099 0.59202
# Poissons Ratio (y) = 0.13358 0.05330
# Poissons Ratio (z) = 0.48316 0.11430
#
# Static dielectric constant tensor:
#      x y z
#    x 2.362840 0.000000 -0.137170 
#    y 0.000000 2.968680 0.000000 
#    z -0.137170 0.000000 2.736010 
# 
# 
# High freq. dielectric constant tensor:
#      x y z
#    x 1.489780 0.000000 -0.017140 
#    y 0.000000 1.572850 0.000000 
#    z -0.017140 0.000000 1.532070 
# 
# From -- ./inp_files/86753.got.cif
#   From: 2010.06.25/outbox.cif.g09.slc.cpg/sg13_44_cif.got.tgz:86753.got - 2010.06.28 04:50:58.
