data_PCOD8117749
_publ_section_title
;
Structure prediction by ZEFSAII (Michael W. Deem and Ramdas Pophale) SiO2 
 PCOD8117749
Probable space group: P 2/C
;
_chemical_formula_sum "Si O2"
_cell_formula_units_Z 28
_cell_length_a 14.916613
_cell_length_b 12.479953
_cell_length_c 9.293500
_cell_angle_alpha 90.000000
_cell_angle_beta 65.847040
_cell_angle_gamma 90.000000
_cell_volume 1578.609008
_symmetry_space_group_name_H-M "P 2/C"
_symmetry_group_IT_number 13
_symmetry_cell_setting 'monoclinic'
loop_
_space_group_symop_operation_xyz
x,y,z
-x,y,1/2-z
-x,-y,-z
x,-y,1/2+z
loop_
_atom_site_type_symbol
_atom_site_label
_atom_site_fract_x
_atom_site_fract_y
_atom_site_fract_z
Si Si1 0.071552 0.458534 0.072127
Si Si2 0.876888 0.926143 0.180148
Si Si3 0.592710 0.394093 0.106843
Si Si4 0.200082 0.717110 0.355969
Si Si5 0.806728 0.333629 0.965067
Si Si6 0.406972 0.617961 0.233273
Si Si7 0.895293 0.878795 0.483347
O O1 0.156479 0.547098 0.029648
O O2 0.000000 0.438640 0.250000
O O3 0.126406 0.346478 0.008346
O O4 0.000000 0.500000 0.000000
O O5 0.813315 0.845173 0.122820
O O6 0.847342 0.923074 0.367001
O O7 0.988078 0.885311 0.093594
O O8 0.857124 0.046377 0.137913
O O9 0.500000 0.338770 0.250000
O O10 0.610287 0.508650 0.168565
O O11 0.690124 0.324099 0.070503
O O12 0.572637 0.405390 0.948956
O O13 0.167754 0.685665 0.217012
O O14 0.312905 0.692510 0.316615
O O15 0.861090 0.244478 0.028357
O O16 0.500000 0.675731 0.250000
#
# Coordination Sequence:
#
# PCOD8117749 Si02
#       7
#     4   4   4   4   4   4   4
#     4  12  22  34  49  74 109 141 171 203 251 305
#     4   9  18  35  53  73 102 133 174 213 251 298
#     4  10  19  33  51  74 102 134 172 211 253 306
#     4  10  20  36  53  75 104 140 171 210 256 308
#     4  10  20  35  55  73 104 143 170 205 263 307
#     4  10  19  33  52  73 102 135 170 211 257 303
#     4   9  18  34  54  73  99 136 173 211 253 299
#
# _framework density 17.737134000000001
#
# number of rings (size 3 to 8) (size 9 to 14) (size 15 to 20)
#    0.000    2.000    2.857    2.571    2.000    0.000 
#   10.286    0.000    0.000    0.857    0.000    6.000 
#    0.000    0.000    0.000    0.000    0.000    0.000 
#
# Total GULP energy -347029.423129 kJ/mol
# GULP energy per Si atom -12393.907969 kJ/mol
# Density = 1.769676 g / cm^3
# Si number density = 17.737134 Si / 1000 Ang^3
#
#
#
# Elastic Constant Matrix: (Units=GPa)
#
#
# Indices 1 2 3 4 5 6 
#
# 1 90.0223 27.5790 35.5542 0.0000 -3.1948 0.0000
# 2 27.5790 58.2963 20.0528 0.0000 -2.6208 0.0000
# 3 35.5542 20.0528 89.2831 0.0000 -5.8051 0.0000
# 4 0.0000 0.0000 0.0000 21.6448 0.0000 4.6002
# 5 -3.1948 -2.6208 -5.8051 0.0000 26.5657 0.0000
# 6 0.0000 0.0000 0.0000 4.6002 0.0000 26.8099
#
#
#
# Elastic Compliance Matrix: (Units=1/GPa)
#
#
# Indices 1 2 3 4 5 6 
#
# 1 0.014552 -0.005295 -0.004591 0.000000 0.000224 0.000000
# 2 -0.005295 0.020539 -0.002449 0.000000 0.000854 0.000000
# 3 -0.004591 -0.002449 0.013722 0.000000 0.002205 0.000000
# 4 0.000000 0.000000 0.000000 0.047949 0.000000 -0.008227
# 5 0.000224 0.000854 0.002205 0.000000 0.038236 0.000000
# 6 0.000000 0.000000 0.000000 -0.008227 0.000000 0.038711
#
#
# Mechanical properties :
#
#
# Convention : Reuss Voigt Hill
#
# Bulk Modulus (GPa) = 41.41927 44.88598 43.15263
# Shear Modulus (GPa) = 24.22169 25.29846 24.76007
#
# Velocity S-wave (km/s) = 3.69940 3.78073 3.74029
# Velocity P-wave (km/s) = 6.45367 6.66482 6.56009
#
# Compressibility (1/GPa) = 0.02414335
#
# Stress axis : x y z
#
# Youngs Moduli (GPa) = 68.72083 48.68670 72.87596
#
# Poissons Ratio (x) = 0.25779 0.33457
# Poissons Ratio (y) = 0.36387 0.17848
# Poissons Ratio (z) = 0.31549 0.11924
#
# Static dielectric constant tensor:
#      x y z
#    x 3.493120 0.000000 0.044440 
#    y 0.000000 3.102050 0.000000 
#    z 0.044440 0.000000 4.412640 
# 
# 
# High freq. dielectric constant tensor:
#      x y z
#    x 1.687580 0.000000 0.003990 
#    y 0.000000 1.661810 0.000000 
#    z 0.003990 0.000000 1.683390 
# 
# From -- ./inp_files/18754.got.cif
#   From: 2010.06.25/outbox.cif.g09.slc.cpg/sg13_10_cif.got.tgz:18754.got - 2010.06.28 04:50:58.
