data_PCOD8117073
_publ_section_title
;
Structure prediction by ZEFSAII (Michael W. Deem and Ramdas Pophale) SiO2 
 PCOD8117073
Probable space group: P 2/C
;
_chemical_formula_sum "Si O2"
_cell_formula_units_Z 32
_cell_length_a 16.531369
_cell_length_b 13.943866
_cell_length_c 9.660680
_cell_angle_alpha 90.000000
_cell_angle_beta 54.240438
_cell_angle_gamma 90.000000
_cell_volume 1807.072790
_symmetry_space_group_name_H-M "P 2/C"
_symmetry_group_IT_number 13
_symmetry_cell_setting 'monoclinic'
loop_
_space_group_symop_operation_xyz
x,y,z
-x,y,1/2-z
-x,-y,-z
x,-y,1/2+z
loop_
_atom_site_type_symbol
_atom_site_label
_atom_site_fract_x
_atom_site_fract_y
_atom_site_fract_z
Si Si1 0.089407 0.738521 0.060396
Si Si2 0.016268 0.146661 0.391371
Si Si3 0.236458 0.097313 0.471731
Si Si4 0.589407 0.761479 0.760789
Si Si5 0.841735 0.973912 0.181319
Si Si6 0.736458 0.402687 0.055354
Si Si7 0.658265 0.526088 0.364789
Si Si8 0.483732 0.646661 0.423908
O O1 0.139453 0.835596 0.064149
O O2 0.000000 0.710524 0.250000
O O3 0.053969 0.759699 0.938394
O O4 0.165266 0.650233 0.989541
O O5 0.000000 0.179534 0.250000
O O6 0.914051 0.112293 0.564543
O O7 0.095991 0.060547 0.312712
O O8 0.334734 0.150233 0.320074
O O9 0.240858 0.062312 0.625873
O O10 0.220494 0.006525 0.389270
O O11 0.500000 0.789476 0.750000
O O12 0.639453 0.664404 0.656945
O O13 0.553969 0.740301 0.953668
O O14 0.720494 0.493475 0.169742
O O15 0.740858 0.437688 0.892410
O O16 0.585949 0.612293 0.392645
O O17 0.595991 0.439453 0.495306
O O18 0.500000 0.679534 0.250000
#
# Coordination Sequence:
#
# PCOD8117073 Si02
#       8
#     4   4   4   4   4   4   4   4
#     4  10  20  35  54  79 112 147 179 222 282 336
#     4  10  18  30  56  85 107 136 183 236 271 313
#     4  10  20  34  55  81 112 142 182 229 278 322
#     4  10  20  35  54  79 112 147 179 222 282 336
#     4  10  18  31  54  84 107 138 181 231 272 318
#     4  10  20  34  55  81 112 142 182 229 278 322
#     4  10  18  31  54  84 107 138 181 231 272 318
#     4  10  18  30  56  85 107 136 183 236 271 313
#
# _framework density 17.708196000000001
#
# number of rings (size 3 to 8) (size 9 to 14) (size 15 to 20)
#    0.000    2.000    5.000    0.000    0.000    0.000 
#    0.000    3.750    5.500    0.000    0.000    0.000 
#    0.000    0.000    0.000    0.000    0.000    0.000 
#
# Total GULP energy -396793.845934 kJ/mol
# GULP energy per Si atom -12399.807685 kJ/mol
# Density = 1.766789 g / cm^3
# Si number density = 17.708196 Si / 1000 Ang^3
#
#
#
# Elastic Constant Matrix: (Units=GPa)
#
#
# Indices 1 2 3 4 5 6 
#
# 1 98.8018 40.9664 57.0298 0.0000 14.6208 0.0000
# 2 40.9664 53.2570 42.4132 0.0000 1.6827 0.0000
# 3 57.0298 42.4132 125.8189 0.0000 16.8005 0.0000
# 4 0.0000 0.0000 0.0000 24.0819 0.0000 0.7393
# 5 14.6208 1.6827 16.8005 0.0000 29.7067 0.0000
# 6 0.0000 0.0000 0.0000 0.7393 0.0000 23.4463
#
#
#
# Elastic Compliance Matrix: (Units=1/GPa)
#
#
# Indices 1 2 3 4 5 6 
#
# 1 0.017339 -0.010281 -0.003604 0.000000 -0.005913 0.000000
# 2 -0.010281 0.032149 -0.007150 0.000000 0.007282 0.000000
# 3 -0.003604 -0.007150 0.012657 0.000000 -0.004979 0.000000
# 4 0.000000 0.000000 0.000000 0.041565 0.000000 -0.001311
# 5 -0.005913 0.007282 -0.004979 0.000000 0.038976 0.000000
# 6 0.000000 0.000000 0.000000 -0.001311 0.000000 0.042692
#
#
# Mechanical properties :
#
#
# Convention : Reuss Voigt Hill
#
# Bulk Modulus (GPa) = 49.81183 62.07739 55.94461
# Shear Modulus (GPa) = 21.35479 24.61154 22.98317
#
# Velocity S-wave (km/s) = 3.47641 3.73210 3.60652
# Velocity P-wave (km/s) = 6.65614 7.32825 7.00027
#
# Compressibility (1/GPa) = 0.02007555
#
# Stress axis : x y z
#
# Youngs Moduli (GPa) = 57.67202 31.10525 79.00978
#
# Poissons Ratio (x) = 0.31978 0.28477
# Poissons Ratio (y) = 0.59291 0.56491
# Poissons Ratio (z) = 0.20786 0.22240
#
# Static dielectric constant tensor:
#      x y z
#    x 3.163090 0.000000 0.121830 
#    y 0.000000 2.979320 0.000000 
#    z 0.121830 0.000000 3.267840 
# 
# 
# High freq. dielectric constant tensor:
#      x y z
#    x 1.674630 0.000000 0.015040 
#    y 0.000000 1.651010 0.000000 
#    z 0.015040 0.000000 1.687560 
# 
# From -- ./inp_files/19628.got.cif
#   From: 2010.06.25/outbox.cif.g09.slc.cpg/sg13_10_cif.got.tgz:19628.got - 2010.06.28 04:50:58.
