data_PCOD8117570
_publ_section_title
;
Structure prediction by ZEFSAII (Michael W. Deem and Ramdas Pophale) SiO2 
 PCOD8117570
Probable space group: P 2/C
;
_chemical_formula_sum "Si O2"
_cell_formula_units_Z 24
_cell_length_a 14.173702
_cell_length_b 14.419648
_cell_length_c 10.326051
_cell_angle_alpha 90.000000
_cell_angle_beta 34.090929
_cell_angle_gamma 90.000000
_cell_volume 1182.916126
_symmetry_space_group_name_H-M "P 2/C"
_symmetry_group_IT_number 13
_symmetry_cell_setting 'monoclinic'
loop_
_space_group_symop_operation_xyz
x,y,z
-x,y,1/2-z
-x,-y,-z
x,-y,1/2+z
loop_
_atom_site_type_symbol
_atom_site_label
_atom_site_fract_x
_atom_site_fract_y
_atom_site_fract_z
Si Si1 0.419238 0.875356 0.202771
Si Si2 0.273168 0.699121 0.263226
Si Si3 0.891870 0.517986 0.995533
Si Si4 0.631932 0.078672 0.216781
Si Si5 0.179646 0.758416 0.091134
Si Si6 0.583157 0.392983 0.284912
O O1 0.500000 0.867990 0.250000
O O2 0.301877 0.785051 0.326500
O O3 0.315551 0.972342 0.312218
O O4 0.556722 0.874274 0.931651
O O5 0.141989 0.627951 0.476881
O O6 0.192042 0.745757 0.229637
O O7 0.440197 0.637612 0.048146
O O8 0.000000 0.484071 0.750000
O O9 0.714336 0.463145 0.202875
O O10 0.000000 0.500000 0.000000
O O11 0.500000 0.083347 0.250000
O O12 0.795774 0.135118 0.983074
O O13 0.000000 0.721175 0.250000
O O14 0.326254 0.701194 0.857557
O O15 0.500000 0.438861 0.250000
#
# Coordination Sequence:
#
# PCOD8117570 Si02
#       6
#     4   4   4   4   4   4
#     4  10  21  35  63  95 123 154 207 262 313 354
#     4  11  22  40  63  94 123 161 218 261 301 379
#     4  12  26  44  63  93 132 169 200 267 334 374
#     4  10  18  39  65  87 120 165 211 254 302 381
#     4  11  20  37  64  91 118 164 212 258 308 378
#     4  10  20  39  66  92 116 165 220 256 303 387
#
# _framework density 20.288844000000001
#
# number of rings (size 3 to 8) (size 9 to 14) (size 15 to 20)
#    0.000    1.333    3.333    4.500    0.000    2.000 
#    3.000    1.667    0.000    0.000    0.000    0.000 
#    0.000    0.000    0.000    0.000    0.000    0.000 
#
# Total GULP energy -297567.148952 kJ/mol
# GULP energy per Si atom -12398.631206 kJ/mol
# Density = 2.024267 g / cm^3
# Si number density = 20.288844 Si / 1000 Ang^3
#
#
#
# Elastic Constant Matrix: (Units=GPa)
#
#
# Indices 1 2 3 4 5 6 
#
# 1 123.0150 43.9203 37.5543 0.0000 -3.0190 0.0000
# 2 43.9203 115.0262 14.6080 0.0000 -5.9289 0.0000
# 3 37.5543 14.6080 54.2380 0.0000 -4.7811 0.0000
# 4 0.0000 0.0000 0.0000 2.9806 0.0000 1.5306
# 5 -3.0190 -5.9289 -4.7811 0.0000 31.2631 0.0000
# 6 0.0000 0.0000 0.0000 1.5306 0.0000 30.9326
#
#
#
# Elastic Compliance Matrix: (Units=1/GPa)
#
#
# Indices 1 2 3 4 5 6 
#
# 1 0.011543 -0.003539 -0.007096 0.000000 -0.000642 0.000000
# 2 -0.003539 0.010144 -0.000144 0.000000 0.001560 0.000000
# 3 -0.007096 -0.000144 0.023645 0.000000 0.002904 0.000000
# 4 0.000000 0.000000 0.000000 0.344251 0.000000 -0.017034
# 5 -0.000642 0.001560 0.002904 0.000000 0.032665 0.000000
# 6 0.000000 0.000000 0.000000 -0.017034 0.000000 0.033171
#
#
# Mechanical properties :
#
#
# Convention : Reuss Voigt Hill
#
# Bulk Modulus (GPa) = 42.06281 53.82715 47.94498
# Shear Modulus (GPa) = 10.31137 26.11502 18.21319
#
# Velocity S-wave (km/s) = 2.25684 3.59160 2.99941
# Velocity P-wave (km/s) = 5.25053 6.61721 5.97309
#
# Compressibility (1/GPa) = 0.02377397
#
# Stress axis : x y z
#
# Youngs Moduli (GPa) = 86.63041 98.58225 42.29205
#
# Poissons Ratio (x) = 0.34893 0.30010
# Poissons Ratio (y) = 0.30663 0.00608
# Poissons Ratio (z) = 0.61472 0.01418
#
# Static dielectric constant tensor:
#      x y z
#    x 3.805370 0.000000 0.061610 
#    y 0.000000 4.011700 0.000000 
#    z 0.061610 0.000000 3.679320 
# 
# 
# High freq. dielectric constant tensor:
#      x y z
#    x 1.791950 0.000000 0.006660 
#    y 0.000000 1.809360 0.000000 
#    z 0.006660 0.000000 1.766890 
# 
# From -- ./inp_files/37442.got.cif
#   From: 2010.06.25/outbox.cif.g09.slc.cpg/sg13_19_cif.got.tgz:37442.got - 2010.06.28 04:50:58.
