data_PCOD8117440
_publ_section_title
;
Structure prediction by ZEFSAII (Michael W. Deem and Ramdas Pophale) SiO2 
 PCOD8117440
Probable space group: P 2/C
;
_chemical_formula_sum "Si O2"
_cell_formula_units_Z 28
_cell_length_a 13.276034
_cell_length_b 13.608314
_cell_length_c 9.987597
_cell_angle_alpha 90.000000
_cell_angle_beta 118.561550
_cell_angle_gamma 90.000000
_cell_volume 1584.814943
_symmetry_space_group_name_H-M "P 2/C"
_symmetry_group_IT_number 13
_symmetry_cell_setting 'monoclinic'
loop_
_space_group_symop_operation_xyz
x,y,z
-x,y,1/2-z
-x,-y,-z
x,-y,1/2+z
loop_
_atom_site_type_symbol
_atom_site_label
_atom_site_fract_x
_atom_site_fract_y
_atom_site_fract_z
Si Si1 0.091614 0.408511 0.695253
Si Si2 0.945914 0.369018 0.350248
Si Si3 0.428280 0.123849 0.830300
Si Si4 0.478435 0.588813 0.885596
Si Si5 0.726473 0.728757 0.808056
Si Si6 0.691522 0.713972 0.091105
Si Si7 0.418682 0.093349 0.318180
O O1 0.111623 0.525161 0.714168
O O2 0.216620 0.361094 0.789562
O O3 0.000000 0.375290 0.750000
O O4 0.046049 0.377250 0.522261
O O5 0.852906 0.290924 0.336803
O O6 0.000000 0.326173 0.250000
O O7 0.500000 0.168811 0.750000
O O8 0.325987 0.195092 0.816717
O O9 0.375229 0.017235 0.755935
O O10 0.516047 0.099580 0.002201
O O11 0.500000 0.548313 0.750000
O O12 0.354116 0.640908 0.800968
O O13 0.500000 0.500000 0.000000
O O14 0.565617 0.670742 0.991045
O O15 0.689161 0.835096 0.732164
O O16 0.735984 0.741443 0.973424
O O17 0.500000 0.133550 0.250000
#
# Coordination Sequence:
#
# PCOD8117440 Si02
#       7
#     4   4   4   4   4   4   4
#     4  10  20  38  58  81 110 148 196 228 267 331
#     4  10  22  37  57  83 110 146 192 238 271 315
#     4  10  21  33  55  87 115 143 184 233 274 334
#     4  10  21  35  51  79 113 146 177 220 285 338
#     4  11  19  36  60  79 109 151 185 225 283 339
#     4  11  20  36  58  81 111 150 187 225 275 342
#     4  10  18  36  57  81 116 149 181 221 283 344
#
# _framework density 17.667677999999999
#
# number of rings (size 3 to 8) (size 9 to 14) (size 15 to 20)
#    0.000    1.714    4.286    1.286    0.000    1.714 
#    2.571    0.000    0.000    1.714    0.000    0.000 
#    0.000    0.000    0.000    0.000    0.000    0.000 
#
# Total GULP energy -347067.177082 kJ/mol
# GULP energy per Si atom -12395.256324 kJ/mol
# Density = 1.762747 g / cm^3
# Si number density = 17.667678 Si / 1000 Ang^3
#
#
#
# Elastic Constant Matrix: (Units=GPa)
#
#
# Indices 1 2 3 4 5 6 
#
# 1 89.0234 36.1091 31.1463 0.0000 -14.1202 0.0000
# 2 36.1091 80.0798 25.6500 0.0000 -6.2978 0.0000
# 3 31.1463 25.6500 76.6912 0.0000 -15.2393 0.0000
# 4 0.0000 0.0000 0.0000 28.1519 0.0000 3.1111
# 5 -14.1202 -6.2978 -15.2393 0.0000 30.6918 0.0000
# 6 0.0000 0.0000 0.0000 3.1111 0.0000 35.4488
#
#
#
# Elastic Compliance Matrix: (Units=1/GPa)
#
#
# Indices 1 2 3 4 5 6 
#
# 1 0.015359 -0.005449 -0.003587 0.000000 0.004167 0.000000
# 2 -0.005449 0.015929 -0.003288 0.000000 -0.000871 0.000000
# 3 -0.003587 -0.003288 0.016790 0.000000 0.006012 0.000000
# 4 0.000000 0.000000 0.000000 0.035870 0.000000 -0.003148
# 5 0.004167 -0.000871 0.006012 0.000000 0.037305 0.000000
# 6 0.000000 0.000000 0.000000 -0.003148 0.000000 0.028486
#
#
# Mechanical properties :
#
#
# Convention : Reuss Voigt Hill
#
# Bulk Modulus (GPa) = 42.67878 47.95614 45.31746
# Shear Modulus (GPa) = 27.44270 29.05109 28.24690
#
# Velocity S-wave (km/s) = 3.94543 4.05940 4.00282
# Velocity P-wave (km/s) = 6.70553 7.01242 6.86069
#
# Compressibility (1/GPa) = 0.02343085
#
# Stress axis : x y z
#
# Youngs Moduli (GPa) = 65.10777 62.77803 59.55771
#
# Poissons Ratio (x) = 0.34207 0.21365
# Poissons Ratio (y) = 0.35477 0.19581
# Poissons Ratio (z) = 0.23356 0.20640
#
# Static dielectric constant tensor:
#      x y z
#    x 2.756210 0.000000 0.118120 
#    y 0.000000 3.445600 0.000000 
#    z 0.118120 0.000000 3.254120 
# 
# 
# High freq. dielectric constant tensor:
#      x y z
#    x 1.664040 0.000000 -0.013480 
#    y 0.000000 1.673540 0.000000 
#    z -0.013480 0.000000 1.694330 
# 
# From -- ./inp_files/16554.got.cif
#   From: 2010.06.25/outbox.cif.g09.slc.cpg/sg13_9_cif.got.tgz:16554.got - 2010.06.28 04:50:58.
