data_PCOD8117661
_publ_section_title
;
Structure prediction by ZEFSAII (Michael W. Deem and Ramdas Pophale) SiO2 
 PCOD8117661
Probable space group: P 2/C
;
_chemical_formula_sum "Si O2"
_cell_formula_units_Z 22
_cell_length_a 29.420991
_cell_length_b 7.977661
_cell_length_c 4.988888
_cell_angle_alpha 90.000000
_cell_angle_beta 80.001062
_cell_angle_gamma 90.000000
_cell_volume 1153.159835
_symmetry_space_group_name_H-M "P 2/C"
_symmetry_group_IT_number 13
_symmetry_cell_setting 'monoclinic'
loop_
_space_group_symop_operation_xyz
x,y,z
-x,y,1/2-z
-x,-y,-z
x,-y,1/2+z
loop_
_atom_site_type_symbol
_atom_site_label
_atom_site_fract_x
_atom_site_fract_y
_atom_site_fract_z
Si Si1 0.319893 0.609351 0.989013
Si Si2 0.225271 0.389546 0.440810
Si Si3 0.580181 0.616115 0.706976
Si Si4 0.051921 0.890497 0.228879
Si Si5 0.873417 0.612912 0.353015
Si Si6 0.500000 0.879925 0.750000
O O1 0.318647 0.557149 0.301077
O O2 0.272729 0.714321 0.963614
O O3 0.368600 0.700139 0.875893
O O4 0.226142 0.444381 0.130349
O O5 0.176781 0.295633 0.553513
O O6 0.572874 0.464305 0.505899
O O7 0.544924 0.764809 0.696795
O O8 0.086683 0.742987 0.123602
O O9 0.000000 0.819931 0.250000
O O10 0.060290 0.954147 0.520915
O O11 0.877953 0.454868 0.547253
O O12 0.500000 0.000000 0.500000
#
# Coordination Sequence:
#
# PCOD8117661 Si02
#       6
#     4   4   4   4   4   2
#     4   8  14  25  45  70  93 118 153 196 234 271
#     4   8  14  25  42  69  98 119 146 191 242 279
#     4  10  19  34  55  75  94 125 170 206 229 276
#     4  10  21  36  51  68  96 132 164 197 242 291
#     4  10  19  31  51  76  99 124 159 202 240 282
#     4  12  24  36  50  72 104 134 156 196 256 296
#
# _framework density 19.078015000000001
#
# number of rings (size 3 to 8) (size 9 to 14) (size 15 to 20)
#    0.000    2.545    0.000    2.727    0.000    0.727 
#    0.000    0.000    0.000    2.182    0.000    0.000 
#    0.000    0.000    0.000    0.000    0.000    0.000 
#
# Total GULP energy -272559.517000 kJ/mol
# GULP energy per Si atom -12389.068955 kJ/mol
# Density = 1.903459 g / cm^3
# Si number density = 19.078015 Si / 1000 Ang^3
#
#
#
# Elastic Constant Matrix: (Units=GPa)
#
#
# Indices 1 2 3 4 5 6 
#
# 1 193.5009 60.1872 24.4801 0.0000 -22.3580 0.0000
# 2 60.1872 44.7123 9.6393 0.0000 -9.8523 0.0000
# 3 24.4801 9.6393 81.9744 0.0000 0.2311 0.0000
# 4 0.0000 0.0000 0.0000 15.0087 0.0000 5.0705
# 5 -22.3580 -9.8523 0.2311 0.0000 31.6907 0.0000
# 6 0.0000 0.0000 0.0000 5.0705 0.0000 -5.1411
#
#
#
# Elastic Compliance Matrix: (Units=1/GPa)
#
#
# Indices 1 2 3 4 5 6 
#
# 1 0.009276 -0.011525 -0.001423 0.000000 0.002972 0.000000
# 2 -0.011525 0.039011 -0.001157 0.000000 0.004006 0.000000
# 3 -0.001423 -0.001157 0.012764 0.000000 -0.001457 0.000000
# 4 0.000000 0.000000 0.000000 0.049976 0.000000 0.049290
# 5 0.002972 0.004006 -0.001457 0.000000 0.034908 0.000000
# 6 0.000000 0.000000 0.000000 0.049290 0.000000 -0.145898
#
#
# Mechanical properties :
#
#
# Convention : Reuss Voigt Hill
#
# Bulk Modulus (GPa) = 30.44976 56.53342 43.49159
# Shear Modulus (GPa) = 127.57211 23.37040 75.47126
#
# Velocity S-wave (km/s) = 8.18620 3.50378 6.29644
# Velocity P-wave (km/s) = 10.26387 6.78718 8.70094
#
# Compressibility (1/GPa) = 0.03284098
#
# Stress axis : x y z
#
# Youngs Moduli (GPa) = 107.80377 25.63384 78.34466
#
# Poissons Ratio (x) = 0.29543 0.11151
# Poissons Ratio (y) = 1.24243 0.09064
# Poissons Ratio (z) = 0.15344 0.02966
#
# Static dielectric constant tensor:
#      x y z
#    x 4.214630 0.000000 -0.086890 
#    y 0.000000 2.724600 0.000000 
#    z -0.086890 0.000000 3.676810 
# 
# 
# High freq. dielectric constant tensor:
#      x y z
#    x 1.780720 0.000000 -0.002090 
#    y 0.000000 1.646220 0.000000 
#    z -0.002090 0.000000 1.770880 
# 
# From -- ./inp_files/7951.got.cif
#   From: 2010.06.25/outbox.cif.g09.slc.cpg/sg13_4_cif.got.tgz:7951.got - 2010.06.28 04:50:58.
