data_PCOD8117016
_publ_section_title
;
Structure prediction by ZEFSAII (Michael W. Deem and Ramdas Pophale) SiO2 
 PCOD8117016
Probable space group: P 2/C
;
_chemical_formula_sum "Si O2"
_cell_formula_units_Z 20
_cell_length_a 7.516549
_cell_length_b 24.577648
_cell_length_c 5.255888
_cell_angle_alpha 90.000000
_cell_angle_beta 94.831790
_cell_angle_gamma 90.000000
_cell_volume 967.517445
_symmetry_space_group_name_H-M "P 2/C"
_symmetry_group_IT_number 13
_symmetry_cell_setting 'monoclinic'
loop_
_space_group_symop_operation_xyz
x,y,z
-x,y,1/2-z
-x,-y,-z
x,-y,1/2+z
loop_
_atom_site_type_symbol
_atom_site_label
_atom_site_fract_x
_atom_site_fract_y
_atom_site_fract_z
Si Si1 0.698488 0.477513 0.293019
Si Si2 0.500000 0.697623 0.250000
Si Si3 0.701349 0.024579 0.260313
Si Si4 0.789981 0.212644 0.722588
Si Si5 0.500000 0.626477 0.750000
Si Si6 0.208175 0.146515 0.277243
O O1 0.500000 0.505463 0.250000
O O2 0.801462 0.502145 0.551040
O O3 0.676780 0.411843 0.302622
O O4 0.321170 0.732393 0.267176
O O5 0.528025 0.661952 0.503474
O O6 0.500000 0.001926 0.250000
O O7 0.694666 0.089299 0.236317
O O8 0.799247 0.003541 0.529552
O O9 0.734328 0.184059 0.452301
O O10 0.000000 0.227000 0.750000
O O11 0.735244 0.174298 0.951612
O O12 0.000000 0.134595 0.250000
#
# Coordination Sequence:
#
# PCOD8117016 Si02
#       6
#     4   2   4   4   2   4
#     4   8  13  24  42  66 108 142 161 216 259 292
#     4  12  22  33  56  78 104 143 168 228 264 292
#     4  10  21  34  51  79 106 127 157 205 257 310
#     4  10  23  39  54  78 104 136 180 216 257 309
#     4  10  18  29  46  82 110 131 188 212 256 324
#     4  10  21  38  57  74 100 135 171 211 252 311
#
# _framework density 20.671461999999998
#
# number of rings (size 3 to 8) (size 9 to 14) (size 15 to 20)
#    0.600    1.600    0.000    3.600    2.800    0.800 
#    0.000    0.000    0.000    0.000    0.000    0.000 
#    0.000   64.000    0.000    0.000    0.000    0.000 
#
# Total GULP energy -247894.112865 kJ/mol
# GULP energy per Si atom -12394.705643 kJ/mol
# Density = 2.062441 g / cm^3
# Si number density = 20.671462 Si / 1000 Ang^3
#
#
#
# Elastic Constant Matrix: (Units=GPa)
#
#
# Indices 1 2 3 4 5 6 
#
# 1 29.1324 25.9351 22.8983 0.0000 -11.8381 0.0000
# 2 25.9351 146.6799 86.0649 0.0000 -11.8088 0.0000
# 3 22.8983 86.0649 227.9467 0.0000 -8.6031 0.0000
# 4 0.0000 0.0000 0.0000 52.6065 0.0000 1.6939
# 5 -11.8381 -11.8088 -8.6031 0.0000 8.8824 0.0000
# 6 0.0000 0.0000 0.0000 1.6939 0.0000 -6.6311
#
#
#
# Elastic Compliance Matrix: (Units=1/GPa)
#
#
# Indices 1 2 3 4 5 6 
#
# 1 0.080757 -0.004826 -0.002564 0.000000 0.098730 0.000000
# 2 -0.004826 0.009756 -0.003064 0.000000 0.003571 0.000000
# 3 -0.002564 -0.003064 0.005728 0.000000 -0.001943 0.000000
# 4 0.000000 0.000000 0.000000 0.018854 0.000000 0.004816
# 5 0.098730 0.003571 -0.001943 0.000000 0.247029 0.000000
# 6 0.000000 0.000000 0.000000 0.004816 0.000000 -0.149574
#
#
# Mechanical properties :
#
#
# Convention : Reuss Voigt Hill
#
# Bulk Modulus (GPa) = 13.27435 74.83951 44.05693
# Shear Modulus (GPa) = 19.33714 28.89561 24.11637
#
# Velocity S-wave (km/s) = 3.06183 3.74284 3.41933
# Velocity P-wave (km/s) = 4.35147 7.41359 6.07851
#
# Compressibility (1/GPa) = 0.07533324
#
# Stress axis : x y z
#
# Youngs Moduli (GPa) = 12.38279 102.49896 174.57764
#
# Poissons Ratio (x) = 0.49467 0.44763
# Poissons Ratio (y) = 0.05976 0.53491
# Poissons Ratio (z) = 0.03175 0.31406
#
# Static dielectric constant tensor:
#      x y z
#    x 3.274890 0.000000 0.020310 
#    y 0.000000 3.532200 0.000000 
#    z 0.020310 0.000000 4.506180 
# 
# 
# High freq. dielectric constant tensor:
#      x y z
#    x 1.765340 0.000000 -0.003700 
#    y 0.000000 1.799940 0.000000 
#    z -0.003700 0.000000 1.844040 
# 
# From -- ./inp_files/2111.got.cif
#   From: 2010.06.25/outbox.cif.g09.slc.cpg/sg13_2_cif.got.tgz:2111.got - 2010.06.28 04:50:58.
