data_PCOD8117034
_publ_section_title
;
Structure prediction by ZEFSAII (Michael W. Deem and Ramdas Pophale) SiO2 
 PCOD8117034
Probable space group: P 2/C
;
_chemical_formula_sum "Si O2"
_cell_formula_units_Z 20
_cell_length_a 17.588025
_cell_length_b 5.192171
_cell_length_c 20.859366
_cell_angle_alpha 90.000000
_cell_angle_beta 137.627519
_cell_angle_gamma 90.000000
_cell_volume 1283.788016
_symmetry_space_group_name_H-M "P 2/C"
_symmetry_group_IT_number 13
_symmetry_cell_setting 'monoclinic'
loop_
_space_group_symop_operation_xyz
x,y,z
-x,y,1/2-z
-x,-y,-z
x,-y,1/2+z
loop_
_atom_site_type_symbol
_atom_site_label
_atom_site_fract_x
_atom_site_fract_y
_atom_site_fract_z
Si Si1 0.737631 0.643999 0.454399
Si Si2 0.967514 0.619583 0.656781
Si Si3 0.174438 0.046482 0.596201
Si Si4 0.977560 0.119955 0.885249
Si Si5 0.371376 0.863428 0.650320
O O1 0.830960 0.609764 0.567927
O O2 0.653701 0.402767 0.401389
O O3 0.806705 0.681695 0.429971
O O4 0.661369 0.900923 0.418158
O O5 0.024278 0.389814 0.652275
O O6 0.000000 0.584689 0.750000
O O7 0.015336 0.889655 0.661089
O O8 0.080899 0.881232 0.499475
O O9 0.292434 0.886704 0.665101
O O10 0.139013 0.095450 0.647211
O O11 0.500000 0.878848 0.750000
#
# Coordination Sequence:
#
# PCOD8117034 Si02
#       5
#     4   4   4   4   4
#     4   9  18  31  45  71  98 118 158 191 235 278
#     4  11  20  32  47  71  99 131 160 185 232 284
#     4   8  19  29  49  71 100 119 155 188 256 276
#     4  10  19  30  49  69 101 126 148 198 239 286
#     4  10  18  30  47  72  98 122 154 192 241 283
#
# _framework density 15.578897
#
# number of rings (size 3 to 8) (size 9 to 14) (size 15 to 20)
#    1.200    1.200    2.000    1.200    2.800    2.400 
#    0.000    0.000    0.000    0.000    0.000    8.400 
#    0.000    0.000    0.000    0.000    0.000    0.000 
#
# Total GULP energy -247797.707263 kJ/mol
# GULP energy per Si atom -12389.885363 kJ/mol
# Density = 1.554344 g / cm^3
# Si number density = 15.578897 Si / 1000 Ang^3
#
#
#
# Elastic Constant Matrix: (Units=GPa)
#
#
# Indices 1 2 3 4 5 6 
#
# 1 48.8292 6.7153 38.4561 0.0000 10.2703 0.0000
# 2 6.7153 92.5951 25.9343 0.0000 5.1972 0.0000
# 3 38.4561 25.9343 88.5347 0.0000 8.6873 0.0000
# 4 0.0000 0.0000 0.0000 18.3058 0.0000 0.3344
# 5 10.2703 5.1972 8.6873 0.0000 24.4850 0.0000
# 6 0.0000 0.0000 0.0000 0.3344 0.0000 17.4322
#
#
#
# Elastic Compliance Matrix: (Units=1/GPa)
#
#
# Indices 1 2 3 4 5 6 
#
# 1 0.033322 0.002077 -0.014160 0.000000 -0.009394 0.000000
# 2 0.002077 0.011936 -0.004211 0.000000 -0.001911 0.000000
# 3 -0.014160 -0.004211 0.018658 0.000000 0.000213 0.000000
# 4 0.000000 0.000000 0.000000 0.054647 0.000000 -0.001048
# 5 -0.009394 -0.001911 0.000213 0.000000 0.045111 0.000000
# 6 0.000000 0.000000 0.000000 -0.001048 0.000000 0.057385
#
#
# Mechanical properties :
#
#
# Convention : Reuss Voigt Hill
#
# Bulk Modulus (GPa) = 31.92153 41.35226 36.63689
# Shear Modulus (GPa) = 18.93290 22.63481 20.78385
#
# Velocity S-wave (km/s) = 3.48988 3.81585 3.65650
# Velocity P-wave (km/s) = 6.06414 6.78348 6.43387
#
# Compressibility (1/GPa) = 0.03132682
#
# Stress axis : x y z
#
# Youngs Moduli (GPa) = 30.01034 83.78202 53.59551
#
# Poissons Ratio (x) = -0.17399 0.75893
# Poissons Ratio (y) = -0.06232 0.22568
# Poissons Ratio (z) = 0.42496 0.35280
#
# Static dielectric constant tensor:
#      x y z
#    x 2.795220 0.000000 0.107270 
#    y 0.000000 3.045820 0.000000 
#    z 0.107270 0.000000 2.714730 
# 
# 
# High freq. dielectric constant tensor:
#      x y z
#    x 1.565270 0.000000 0.016050 
#    y 0.000000 1.615880 0.000000 
#    z 0.016050 0.000000 1.567780 
# 
# From -- ./inp_files/65074.got.cif
#   From: 2010.06.25/outbox.cif.g09.slc.cpg/sg13_33_cif.got.tgz:65074.got - 2010.06.28 04:50:58.
