data_PCOD8117511
_publ_section_title
;
Structure prediction by ZEFSAII (Michael W. Deem and Ramdas Pophale) SiO2 
 PCOD8117511
Probable space group: P 2/C
;
_chemical_formula_sum "Si O2"
_cell_formula_units_Z 28
_cell_length_a 8.675593
_cell_length_b 7.044256
_cell_length_c 26.520903
_cell_angle_alpha 90.000000
_cell_angle_beta 72.750622
_cell_angle_gamma 90.000000
_cell_volume 1547.877234
_symmetry_space_group_name_H-M "P 2/C"
_symmetry_group_IT_number 13
_symmetry_cell_setting 'monoclinic'
loop_
_space_group_symop_operation_xyz
x,y,z
-x,y,1/2-z
-x,-y,-z
x,-y,1/2+z
loop_
_atom_site_type_symbol
_atom_site_label
_atom_site_fract_x
_atom_site_fract_y
_atom_site_fract_z
Si Si1 0.651757 0.386137 0.766788
Si Si2 0.080119 0.469460 0.834005
Si Si3 0.196055 0.808144 0.162749
Si Si4 0.578399 0.495564 0.379127
Si Si5 0.793327 0.483086 0.567625
Si Si6 0.835394 0.211972 0.381443
Si Si7 0.037065 0.199721 0.020951
O O1 0.500000 0.306545 0.750000
O O2 0.772351 0.500284 0.718621
O O3 0.745333 0.209723 0.784413
O O4 0.589092 0.529427 0.816936
O O5 0.146641 0.426035 0.882981
O O6 0.978446 0.287036 0.826931
O O7 0.972466 0.658644 0.842316
O O8 0.327484 0.692318 0.115605
O O9 0.185745 0.025346 0.149465
O O10 0.397730 0.496865 0.416331
O O11 0.665375 0.320883 0.398179
O O12 0.839005 0.315012 0.525505
O O13 0.871665 0.681928 0.542867
O O14 0.880783 0.158645 0.433654
O O15 0.000000 0.000000 0.000000
#
# Coordination Sequence:
#
# PCOD8117511 Si02
#       7
#     4   4   4   4   4   4   4
#     4  10  19  38  59  81 114 153 184 231 284 332
#     4  10  18  37  60  82 115 152 187 235 277 338
#     4   9  20  35  56  83 118 146 188 229 281 336
#     4   9  21  37  58  81 119 146 189 236 281 340
#     4  10  20  38  61  85 112 149 193 234 289 334
#     4  10  21  38  58  85 115 152 191 234 285 336
#     4  10  22  38  61  85 112 149 196 237 284 341
#
# _framework density 18.089289999999998
#
# number of rings (size 3 to 8) (size 9 to 14) (size 15 to 20)
#    0.857    1.429    1.429    1.286    0.000    2.857 
#    5.143    3.571    0.000    0.000    0.000    0.000 
#    0.000    0.000    0.000    0.000    0.000    0.000 
#
# Total GULP energy -347082.975391 kJ/mol
# GULP energy per Si atom -12395.820550 kJ/mol
# Density = 1.804812 g / cm^3
# Si number density = 18.089290 Si / 1000 Ang^3
#
#
#
# Elastic Constant Matrix: (Units=GPa)
#
#
# Indices 1 2 3 4 5 6 
#
# 1 124.1399 56.5243 50.9939 0.0000 -11.2444 0.0000
# 2 56.5243 108.3575 43.3102 0.0000 3.9666 0.0000
# 3 50.9939 43.3102 103.0012 0.0000 -11.4770 0.0000
# 4 0.0000 0.0000 0.0000 21.2090 0.0000 8.2662
# 5 -11.2444 3.9666 -11.4770 0.0000 37.8688 0.0000
# 6 0.0000 0.0000 0.0000 8.2662 0.0000 16.2286
#
#
#
# Elastic Compliance Matrix: (Units=1/GPa)
#
#
# Indices 1 2 3 4 5 6 
#
# 1 0.012051 -0.004985 -0.003532 0.000000 0.003030 0.000000
# 2 -0.004985 0.013422 -0.003619 0.000000 -0.003983 0.000000
# 3 -0.003532 -0.003619 0.013356 0.000000 0.003378 0.000000
# 4 0.000000 0.000000 0.000000 0.058829 0.000000 -0.029965
# 5 0.003030 -0.003983 0.003378 0.000000 0.028748 0.000000
# 6 0.000000 0.000000 0.000000 -0.029965 0.000000 0.076883
#
#
# Mechanical properties :
#
#
# Convention : Reuss Voigt Hill
#
# Bulk Modulus (GPa) = 68.70774 70.79504 69.75139
# Shear Modulus (GPa) = 21.51348 27.37262 24.44305
#
# Velocity S-wave (km/s) = 3.45235 3.89420 3.67992
# Velocity P-wave (km/s) = 7.34552 7.70981 7.52987
#
# Compressibility (1/GPa) = 0.01455440
#
# Stress axis : x y z
#
# Youngs Moduli (GPa) = 82.98201 74.50613 74.87484
#
# Poissons Ratio (x) = 0.37144 0.26448
# Poissons Ratio (y) = 0.41369 0.27099
# Poissons Ratio (z) = 0.29311 0.26966
#
# Static dielectric constant tensor:
#      x y z
#    x 3.454220 0.000000 0.078930 
#    y 0.000000 3.103220 0.000000 
#    z 0.078930 0.000000 3.339310 
# 
# 
# High freq. dielectric constant tensor:
#      x y z
#    x 1.713500 0.000000 0.005350 
#    y 0.000000 1.677330 0.000000 
#    z 0.005350 0.000000 1.701130 
# 
# From -- ./inp_files/95449.got.cif
#   From: 2010.06.25/outbox.cif.g09.slc.cpg/sg13_48_cif.got.tgz:95449.got - 2010.06.28 04:50:58.
