data_PCOD8117001
_publ_section_title
;
Structure prediction by ZEFSAII (Michael W. Deem and Ramdas Pophale) SiO2 
 PCOD8117001
Probable space group: P 2/C
;
_chemical_formula_sum "Si O2"
_cell_formula_units_Z 32
_cell_length_a 12.212808
_cell_length_b 20.236192
_cell_length_c 7.703773
_cell_angle_alpha 90.000000
_cell_angle_beta 87.980711
_cell_angle_gamma 90.000000
_cell_volume 1902.733773
_symmetry_space_group_name_H-M "P 2/C"
_symmetry_group_IT_number 13
_symmetry_cell_setting 'monoclinic'
loop_
_space_group_symop_operation_xyz
x,y,z
-x,y,1/2-z
-x,-y,-z
x,-y,1/2+z
loop_
_atom_site_type_symbol
_atom_site_label
_atom_site_fract_x
_atom_site_fract_y
_atom_site_fract_z
Si Si1 0.130217 0.166689 0.740506
Si Si2 0.869958 0.928267 0.951719
Si Si3 0.739060 0.501464 0.027207
Si Si4 0.870227 0.929707 0.564827
Si Si5 0.149929 0.622605 0.599904
Si Si6 0.377579 0.586763 0.189816
Si Si7 0.906377 0.388483 0.028903
Si Si8 0.790423 0.310516 0.743723
O O1 0.167260 0.125042 0.570797
O O2 0.201415 0.232871 0.725223
O O3 0.000000 0.181873 0.750000
O O4 0.166907 0.128126 0.912004
O O5 0.827633 0.910762 0.760152
O O6 0.999802 0.934026 0.944656
O O7 0.821262 0.998993 0.013769
O O8 0.708326 0.541446 0.200595
O O9 0.849167 0.459443 0.037750
O O10 0.766003 0.560704 0.889103
O O11 0.635016 0.452366 0.991527
O O12 0.133913 0.651956 0.795177
O O13 0.193484 0.677806 0.463289
O O14 0.034759 0.597434 0.528943
O O15 0.500000 0.587419 0.250000
O O16 0.329640 0.661382 0.191349
O O17 0.880458 0.346978 0.857811
#
# Coordination Sequence:
#
# PCOD8117001 Si02
#       8
#     4   4   4   4   4   4   4   4
#     4  10  18  28  42  62  93 127 155 181 221 266
#     4   9  15  24  40  63  90 123 158 187 212 248
#     4  10  18  32  48  72  92 108 154 200 242 290
#     4   9  15  24  40  63  90 123 158 187 212 248
#     4  10  19  31  47  67  96 125 153 188 231 282
#     4  10  20  34  52  68  87 115 153 206 254 287
#     4  10  19  31  47  67  96 125 153 188 231 282
#     4  10  22  34  46  66  96 126 162 193 231 289
#
# _framework density 16.817907000000002
#
# number of rings (size 3 to 8) (size 9 to 14) (size 15 to 20)
#    0.000    2.250    2.500    1.875    0.000    1.000 
#    0.000    2.500    0.000    0.000    0.000    0.000 
#    0.000    1.000    0.000    0.000    0.000    0.250 
#
# Total GULP energy -396480.189858 kJ/mol
# GULP energy per Si atom -12390.005933 kJ/mol
# Density = 1.677963 g / cm^3
# Si number density = 16.817907 Si / 1000 Ang^3
#
#
#
# Elastic Constant Matrix: (Units=GPa)
#
#
# Indices 1 2 3 4 5 6 
#
# 1 45.0083 21.2806 -1.6615 0.0000 11.3124 0.0000
# 2 21.2806 117.5871 39.4835 0.0000 1.1759 0.0000
# 3 -1.6615 39.4835 94.6697 0.0000 0.7321 0.0000
# 4 0.0000 0.0000 0.0000 23.1493 0.0000 -0.0395
# 5 11.3124 1.1759 0.7321 0.0000 12.9953 0.0000
# 6 0.0000 0.0000 0.0000 -0.0395 0.0000 11.6942
#
#
#
# Elastic Compliance Matrix: (Units=1/GPa)
#
#
# Indices 1 2 3 4 5 6 
#
# 1 0.032625 -0.006848 0.003645 0.000000 -0.027985 0.000000
# 2 -0.006848 0.011333 -0.004887 0.000000 0.005211 0.000000
# 3 0.003645 -0.004887 0.012692 0.000000 -0.003446 0.000000
# 4 0.000000 0.000000 0.000000 0.043198 0.000000 0.000146
# 5 -0.027985 0.005211 -0.003446 0.000000 0.101035 0.000000
# 6 0.000000 0.000000 0.000000 0.000146 0.000000 0.085513
#
#
# Mechanical properties :
#
#
# Convention : Reuss Voigt Hill
#
# Bulk Modulus (GPa) = 24.71042 41.71891 33.21466
# Shear Modulus (GPa) = 15.81954 22.77859 19.29906
#
# Velocity S-wave (km/s) = 3.07031 3.68424 3.39120
# Velocity P-wave (km/s) = 5.22435 6.55426 5.92673
#
# Compressibility (1/GPa) = 0.04046876
#
# Stress axis : x y z
#
# Youngs Moduli (GPa) = 30.65170 88.24125 78.79080
#
# Poissons Ratio (x) = 0.60432 -0.28721
# Poissons Ratio (y) = 0.20992 0.38504
# Poissons Ratio (z) = -0.11173 0.43123
#
# Static dielectric constant tensor:
#      x y z
#    x 2.606280 0.000000 0.023450 
#    y 0.000000 3.046760 0.000000 
#    z 0.023450 0.000000 3.513680 
# 
# 
# High freq. dielectric constant tensor:
#      x y z
#    x 1.582480 0.000000 0.004290 
#    y 0.000000 1.632990 0.000000 
#    z 0.004290 0.000000 1.669750 
# 
# From -- ./inp_files/17069.got.cif
#   From: 2010.06.25/outbox.cif.g09.slc.cpg/sg13_9_cif.got.tgz:17069.got - 2010.06.28 04:50:58.
