data_PCOD8117929
_publ_section_title
;
Structure prediction by ZEFSAII (Michael W. Deem and Ramdas Pophale) SiO2 
 PCOD8117929
Probable space group: P 2/C
;
_chemical_formula_sum "Si O2"
_cell_formula_units_Z 22
_cell_length_a 20.514071
_cell_length_b 10.234936
_cell_length_c 12.360312
_cell_angle_alpha 90.000000
_cell_angle_beta 154.670475
_cell_angle_gamma 90.000000
_cell_volume 1110.276752
_symmetry_space_group_name_H-M "P 2/C"
_symmetry_group_IT_number 13
_symmetry_cell_setting 'monoclinic'
loop_
_space_group_symop_operation_xyz
x,y,z
-x,y,1/2-z
-x,-y,-z
x,-y,1/2+z
loop_
_atom_site_type_symbol
_atom_site_label
_atom_site_fract_x
_atom_site_fract_y
_atom_site_fract_z
Si Si1 0.340661 0.626506 0.956400
Si Si2 0.000000 0.250006 0.250000
Si Si3 0.253466 0.649713 0.278459
Si Si4 0.514207 0.750033 0.521299
Si Si5 0.659320 0.126456 0.434410
Si Si6 0.746635 0.850282 0.518245
O O1 0.244660 0.492970 0.819123
O O2 0.371611 0.662541 0.878223
O O3 0.249580 0.739982 0.882860
O O4 0.500000 0.596549 0.250000
O O5 0.894609 0.158733 0.165451
O O6 0.105456 0.341266 0.481698
O O7 0.408234 0.661432 0.439931
O O8 0.249707 0.760002 0.366043
O O9 0.628347 0.837549 0.763339
O O10 0.408173 0.838576 0.284640
O O11 0.500000 0.096393 0.250000
O O12 0.755417 0.992966 0.585303
#
# Coordination Sequence:
#
# PCOD8117929 Si02
#       6
#     4   2   4   4   4   4
#     4  10  19  34  58  86 108 136 177 226 273 314
#     4  10  24  40  52  72 108 154 184 216 268 316
#     4  10  21  36  56  79 112 144 178 220 264 323
#     4   9  18  33  58  87 112 135 172 222 276 317
#     4  10  19  34  58  86 108 136 177 226 273 314
#     4  10  21  36  56  79 112 144 178 220 264 323
#
# _framework density 19.814879999999999
#
# number of rings (size 3 to 8) (size 9 to 14) (size 15 to 20)
#    0.000    2.182    0.000    4.364    0.000    7.273 
#    0.000    0.000    0.000    2.182    0.000    0.000 
#    0.000    0.000    0.000    0.000    0.000    0.000 
#
# Total GULP energy -272834.118723 kJ/mol
# GULP energy per Si atom -12401.550851 kJ/mol
# Density = 1.976978 g / cm^3
# Si number density = 19.814880 Si / 1000 Ang^3
#
#
#
# Elastic Constant Matrix: (Units=GPa)
#
#
# Indices 1 2 3 4 5 6 
#
# 1 99.7074 73.9096 34.9497 0.0000 -12.9599 0.0000
# 2 73.9096 185.2031 54.9670 0.0000 -7.9558 0.0000
# 3 34.9497 54.9670 70.7507 0.0000 0.8216 0.0000
# 4 0.0000 0.0000 0.0000 8.9483 0.0000 -7.6946
# 5 -12.9599 -7.9558 0.8216 0.0000 22.8761 0.0000
# 6 0.0000 0.0000 0.0000 -7.6946 0.0000 27.1254
#
#
#
# Elastic Compliance Matrix: (Units=1/GPa)
#
#
# Indices 1 2 3 4 5 6 
#
# 1 0.016097 -0.004824 -0.004292 0.000000 0.007596 0.000000
# 2 -0.004824 0.008626 -0.004324 0.000000 0.000422 0.000000
# 3 -0.004292 -0.004324 0.019667 0.000000 -0.004642 0.000000
# 4 0.000000 0.000000 0.000000 0.147807 0.000000 0.041928
# 5 0.007596 0.000422 -0.004642 0.000000 0.048331 0.000000
# 6 0.000000 0.000000 0.000000 0.041928 0.000000 0.048759
#
#
# Mechanical properties :
#
#
# Convention : Reuss Voigt Hill
#
# Bulk Modulus (GPa) = 57.10676 75.92375 66.51526
# Shear Modulus (GPa) = 15.52782 24.57895 20.05339
#
# Velocity S-wave (km/s) = 2.80240 3.52579 3.18470
# Velocity P-wave (km/s) = 6.27327 7.41449 6.86763
#
# Compressibility (1/GPa) = 0.01751106
#
# Stress axis : x y z
#
# Youngs Moduli (GPa) = 62.12446 115.93118 50.84551
#
# Poissons Ratio (x) = 0.55920 0.21824
# Poissons Ratio (y) = 0.29966 0.21984
# Poissons Ratio (z) = 0.26665 0.50124
#
# Static dielectric constant tensor:
#      x y z
#    x 3.857850 0.000000 -0.202100 
#    y 0.000000 3.472880 0.000000 
#    z -0.202100 0.000000 3.378830 
# 
# 
# High freq. dielectric constant tensor:
#      x y z
#    x 1.779310 0.000000 -0.014680 
#    y 0.000000 1.770260 0.000000 
#    z -0.014680 0.000000 1.744600 
# 
# From -- ./inp_files/49520.got.cif
#   From: 2010.06.25/outbox.cif.g09.slc.cpg/sg13_25_cif.got.tgz:49520.got - 2010.06.28 04:50:58.
