data_PCOD8117854
_publ_section_title
;
Structure prediction by ZEFSAII (Michael W. Deem and Ramdas Pophale) SiO2 
 PCOD8117854
Probable space group: P 2/C
;
_chemical_formula_sum "Si O2"
_cell_formula_units_Z 30
_cell_length_a 16.871588
_cell_length_b 10.891591
_cell_length_c 12.794559
_cell_angle_alpha 90.000000
_cell_angle_beta 137.400303
_cell_angle_gamma 90.000000
_cell_volume 1591.399458
_symmetry_space_group_name_H-M "P 2/C"
_symmetry_group_IT_number 13
_symmetry_cell_setting 'monoclinic'
loop_
_space_group_symop_operation_xyz
x,y,z
-x,y,1/2-z
-x,-y,-z
x,-y,1/2+z
loop_
_atom_site_type_symbol
_atom_site_label
_atom_site_fract_x
_atom_site_fract_y
_atom_site_fract_z
Si Si1 0.249003 0.283857 0.831535
Si Si2 0.614889 0.044448 0.553089
Si Si3 0.823520 0.071529 0.367158
Si Si4 0.996256 0.592121 0.862190
Si Si5 0.500000 0.866664 0.750000
Si Si6 0.289046 0.273259 0.113177
Si Si7 0.804833 0.469362 0.322160
Si Si8 0.062084 0.829909 0.016296
O O1 0.346730 0.186175 0.886540
O O2 0.268151 0.411165 0.786534
O O3 0.120800 0.228224 0.678557
O O4 0.255137 0.310776 0.961759
O O5 0.583869 0.044247 0.399510
O O6 0.500000 0.000000 0.500000
O O7 0.717454 0.948911 0.681626
O O8 0.793366 0.161097 0.432508
O O9 0.931562 0.125605 0.409572
O O10 0.858900 0.940521 0.451532
O O11 0.862093 0.597139 0.775956
O O12 0.000000 0.541570 0.750000
O O13 0.078280 0.496278 0.000351
O O14 0.055414 0.726451 0.921492
O O15 0.577935 0.776711 0.752950
O O16 0.278483 0.383743 0.187183
#
# Coordination Sequence:
#
# PCOD8117854 Si02
#       8
#     4   4   4   4   2   4   4   4
#     4   9  21  36  58  87 116 153 200 243 284 358
#     4  10  19  38  61  80 114 149 195 245 296 342
#     4  10  19  35  58  83 118 149 185 243 290 351
#     4  10  19  34  53  79 116 159 191 228 289 360
#     4  10  22  38  62  90 108 154 208 240 288 356
#     4  11  20  37  61  86 111 161 204 238 300 349
#     4  10  20  36  56  80 117 157 194 245 289 341
#     4   9  19  37  51  87 123 147 190 236 296 346
#
# _framework density 18.851331999999999
#
# number of rings (size 3 to 8) (size 9 to 14) (size 15 to 20)
#    0.000    2.133    2.667    0.800    0.000    0.533 
#    9.600    2.667    0.000    0.000    0.000    0.000 
#    0.000    0.000    0.000    0.000    0.000    0.000 
#
# Total GULP energy -371693.624596 kJ/mol
# GULP energy per Si atom -12389.787487 kJ/mol
# Density = 1.880843 g / cm^3
# Si number density = 18.851332 Si / 1000 Ang^3
#
#
#
# Elastic Constant Matrix: (Units=GPa)
#
#
# Indices 1 2 3 4 5 6 
#
# 1 95.7713 48.7634 41.2014 0.0000 -1.4639 0.0000
# 2 48.7634 104.2173 33.6632 0.0000 -3.5075 0.0000
# 3 41.2014 33.6632 90.9827 0.0000 1.8534 0.0000
# 4 0.0000 0.0000 0.0000 17.5206 0.0000 3.1344
# 5 -1.4639 -3.5075 1.8534 0.0000 30.2370 0.0000
# 6 0.0000 0.0000 0.0000 3.1344 0.0000 32.6702
#
#
#
# Elastic Compliance Matrix: (Units=1/GPa)
#
#
# Indices 1 2 3 4 5 6 
#
# 1 0.015420 -0.005615 -0.004914 0.000000 0.000396 0.000000
# 2 -0.005615 0.013012 -0.002300 0.000000 0.001378 0.000000
# 3 -0.004914 -0.002300 0.014095 0.000000 -0.001369 0.000000
# 4 0.000000 0.000000 0.000000 0.058073 0.000000 -0.005571
# 5 0.000396 0.001378 -0.001369 0.000000 0.033335 0.000000
# 6 0.000000 0.000000 0.000000 -0.005571 0.000000 0.031143
#
#
# Mechanical properties :
#
#
# Convention : Reuss Voigt Hill
#
# Bulk Modulus (GPa) = 59.27421 59.80302 59.53861
# Shear Modulus (GPa) = 25.46369 27.24176 26.35272
#
# Velocity S-wave (km/s) = 3.67926 3.80555 3.74294
# Velocity P-wave (km/s) = 7.03992 7.14857 7.09445
#
# Compressibility (1/GPa) = 0.01687074
#
# Stress axis : x y z
#
# Youngs Moduli (GPa) = 64.84951 76.85400 70.94683
#
# Poissons Ratio (x) = 0.43151 0.34861
# Poissons Ratio (y) = 0.36411 0.16316
# Poissons Ratio (z) = 0.31865 0.17675
#
# Static dielectric constant tensor:
#      x y z
#    x 3.454510 0.000000 0.073740 
#    y 0.000000 3.637320 0.000000 
#    z 0.073740 0.000000 3.561540 
# 
# 
# High freq. dielectric constant tensor:
#      x y z
#    x 1.712430 0.000000 0.006450 
#    y 0.000000 1.735850 0.000000 
#    z 0.006450 0.000000 1.729580 
# 
# From -- ./inp_files/37206.got.cif
#   From: 2010.06.25/outbox.cif.g09.slc.cpg/sg13_19_cif.got.tgz:37206.got - 2010.06.28 04:50:58.
