data_PCOD8117783
_publ_section_title
;
Structure prediction by ZEFSAII (Michael W. Deem and Ramdas Pophale) SiO2 
 PCOD8117783
Probable space group: P 2/C
;
_chemical_formula_sum "Si O2"
_cell_formula_units_Z 28
_cell_length_a 13.524840
_cell_length_b 15.799448
_cell_length_c 20.118942
_cell_angle_alpha 90.000000
_cell_angle_beta 20.933694
_cell_angle_gamma 90.000000
_cell_volume 1536.019707
_symmetry_space_group_name_H-M "P 2/C"
_symmetry_group_IT_number 13
_symmetry_cell_setting 'monoclinic'
loop_
_space_group_symop_operation_xyz
x,y,z
-x,y,1/2-z
-x,-y,-z
x,-y,1/2+z
loop_
_atom_site_type_symbol
_atom_site_label
_atom_site_fract_x
_atom_site_fract_y
_atom_site_fract_z
Si Si1 0.536555 0.362178 0.852931
Si Si2 0.176625 0.193182 0.834725
Si Si3 0.324112 0.023018 0.792778
Si Si4 0.856077 0.256924 0.907557
Si Si5 0.377187 0.160346 0.254330
Si Si6 0.967170 0.435441 0.880623
Si Si7 0.500000 0.520558 0.250000
Si Si8 0.000000 0.427313 0.250000
O O1 0.604021 0.267127 0.787084
O O2 0.754354 0.396480 0.767878
O O3 0.555813 0.422330 0.778078
O O4 0.249643 0.365376 0.073398
O O5 0.347986 0.104365 0.728797
O O6 0.030611 0.211912 0.856418
O O7 0.947241 0.186836 0.038084
O O8 0.500000 0.042272 0.750000
O O9 0.441513 0.935445 0.688343
O O10 0.000000 0.000000 0.000000
O O11 0.821411 0.358528 0.932879
O O12 0.000000 0.228828 0.750000
O O13 0.540767 0.223178 0.102979
O O14 0.500000 0.171466 0.250000
O O15 0.054551 0.513062 0.779096
O O16 0.766587 0.462746 0.067007
#
# Coordination Sequence:
#
# PCOD8117783 Si02
#       8
#     4   4   4   4   4   4   2   2
#     4  10  21  35  53  75 108 140 181 222 272 324
#     4   9  19  33  56  80 108 142 180 227 271 330
#     4   9  17  33  60  86 113 143 183 225 282 331
#     4  10  19  33  54  81 110 141 181 227 274 328
#     4   8  16  32  55  83 105 134 177 227 268 315
#     4  10  20  35  55  76 103 139 185 225 277 317
#     4  10  22  34  52  80 104 132 176 238 280 314
#     4  10  20  38  52  72 104 150 178 216 270 334
#
# _framework density 18.228933000000001
#
# number of rings (size 3 to 8) (size 9 to 14) (size 15 to 20)
#    0.000    2.571    0.714    1.714    6.000    0.000 
#    0.000    3.571    1.571    0.000    0.000    0.000 
#    0.000    0.000    0.000    0.000    0.000    0.000 
#
# Total GULP energy -346879.769040 kJ/mol
# GULP energy per Si atom -12388.563180 kJ/mol
# Density = 1.818744 g / cm^3
# Si number density = 18.228933 Si / 1000 Ang^3
#
#
#
# Elastic Constant Matrix: (Units=GPa)
#
#
# Indices 1 2 3 4 5 6 
#
# 1 34.3958 24.8820 28.6309 0.0000 0.4356 0.0000
# 2 24.8820 133.8150 71.1760 0.0000 -0.2081 0.0000
# 3 28.6309 71.1760 123.6577 0.0000 10.7345 0.0000
# 4 0.0000 0.0000 0.0000 25.3033 0.0000 -11.5798
# 5 0.4356 -0.2081 10.7345 0.0000 26.6021 0.0000
# 6 0.0000 0.0000 0.0000 -11.5798 0.0000 25.0150
#
#
#
# Elastic Compliance Matrix: (Units=1/GPa)
#
#
# Indices 1 2 3 4 5 6 
#
# 1 0.037146 -0.003213 -0.006940 0.000000 0.002167 0.000000
# 2 -0.003213 0.011236 -0.005944 0.000000 0.002539 0.000000
# 3 -0.006940 -0.005944 0.013585 0.000000 -0.005415 0.000000
# 4 0.000000 0.000000 0.000000 0.050143 0.000000 0.023212
# 5 0.002167 0.002539 -0.005415 0.000000 0.039760 0.000000
# 6 0.000000 0.000000 0.000000 0.023212 0.000000 0.050721
#
#
# Mechanical properties :
#
#
# Convention : Reuss Voigt Hill
#
# Bulk Modulus (GPa) = 33.58516 60.13845 46.86181
# Shear Modulus (GPa) = 20.43247 26.52938 23.48092
#
# Velocity S-wave (km/s) = 3.35159 3.81904 3.59292
# Velocity P-wave (km/s) = 5.78287 7.24631 6.55556
#
# Compressibility (1/GPa) = 0.02977505
#
# Stress axis : x y z
#
# Youngs Moduli (GPa) = 26.92051 89.00124 73.61177
#
# Poissons Ratio (x) = 0.28593 0.51084
# Poissons Ratio (y) = 0.08648 0.43753
# Poissons Ratio (z) = 0.18682 0.52900
#
# Static dielectric constant tensor:
#      x y z
#    x 3.071650 0.000000 -0.175860 
#    y 0.000000 3.822370 0.000000 
#    z -0.175860 0.000000 3.528240 
# 
# 
# High freq. dielectric constant tensor:
#      x y z
#    x 1.682050 0.000000 -0.011710 
#    y 0.000000 1.719730 0.000000 
#    z -0.011710 0.000000 1.697950 
# 
# From -- ./inp_files/80263.got.cif
#   From: 2010.06.25/outbox.cif.g09.slc.cpg/sg13_41_cif.got.tgz:80263.got - 2010.06.28 04:50:58.
