data_PCOD8117139
_publ_section_title
;
Structure prediction by ZEFSAII (Michael W. Deem and Ramdas Pophale) SiO2 
 PCOD8117139
Probable space group: P 2/C
;
_chemical_formula_sum "Si O2"
_cell_formula_units_Z 28
_cell_length_a 15.310123
_cell_length_b 9.598181
_cell_length_c 19.150252
_cell_angle_alpha 90.000000
_cell_angle_beta 32.960649
_cell_angle_gamma 90.000000
_cell_volume 1531.056522
_symmetry_space_group_name_H-M "P 2/C"
_symmetry_group_IT_number 13
_symmetry_cell_setting 'monoclinic'
loop_
_space_group_symop_operation_xyz
x,y,z
-x,y,1/2-z
-x,-y,-z
x,-y,1/2+z
loop_
_atom_site_type_symbol
_atom_site_label
_atom_site_fract_x
_atom_site_fract_y
_atom_site_fract_z
Si Si1 0.178383 0.258024 0.115889
Si Si2 0.531882 0.816550 0.904061
Si Si3 0.147838 0.567756 0.503168
Si Si4 0.217426 0.405146 0.228289
Si Si5 0.499713 0.124748 0.919356
Si Si6 0.401216 0.375462 0.380520
Si Si7 0.364179 0.606195 0.229118
O O1 0.214309 0.385914 0.146464
O O2 0.000000 0.198351 0.250000
O O3 0.195497 0.313448 0.026409
O O4 0.305863 0.134397 0.041603
O O5 0.701011 0.733024 0.792086
O O6 0.403333 0.733821 0.942633
O O7 0.560719 0.972375 0.855120
O O8 0.452788 0.836862 0.033122
O O9 0.218877 0.417328 0.481249
O O10 0.215744 0.602926 0.381580
O O11 0.957358 0.566610 0.623170
O O12 0.320154 0.539518 0.182934
O O13 0.586561 0.234107 0.811255
O O14 0.500000 0.306406 0.250000
O O15 0.485205 0.522612 0.341710
#
# Coordination Sequence:
#
# PCOD8117139 Si02
#       7
#     4   4   4   4   4   4   4
#     4   9  18  31  52  77 101 133 173 213 260 301
#     4   9  20  35  53  74 104 139 175 210 250 306
#     4  10  18  32  52  79 108 129 170 219 259 296
#     4   9  19  33  54  75 102 141 171 212 258 300
#     4  10  19  34  55  76 100 139 180 208 246 310
#     4   9  18  32  51  77 104 132 168 215 261 301
#     4  10  19  31  54  79 101 135 176 212 247 307
#
# _framework density 18.288025000000001
#
# number of rings (size 3 to 8) (size 9 to 14) (size 15 to 20)
#    0.000    2.571    1.429    0.429    2.000    1.714 
#    2.571    0.714   12.571    0.000    0.000    0.000 
#    0.000    0.000    0.000    0.000    0.000    0.000 
#
# Total GULP energy -347048.862258 kJ/mol
# GULP energy per Si atom -12394.602223 kJ/mol
# Density = 1.824640 g / cm^3
# Si number density = 18.288025 Si / 1000 Ang^3
#
#
#
# Elastic Constant Matrix: (Units=GPa)
#
#
# Indices 1 2 3 4 5 6 
#
# 1 67.0478 31.2292 17.9918 0.0000 -4.5849 0.0000
# 2 31.2292 107.0428 32.5536 0.0000 -4.8347 0.0000
# 3 17.9918 32.5536 62.9924 0.0000 -15.0839 0.0000
# 4 0.0000 0.0000 0.0000 18.9129 0.0000 1.6845
# 5 -4.5849 -4.8347 -15.0839 0.0000 23.6246 0.0000
# 6 0.0000 0.0000 0.0000 1.6845 0.0000 22.7736
#
#
#
# Elastic Compliance Matrix: (Units=1/GPa)
#
#
# Indices 1 2 3 4 5 6 
#
# 1 0.017690 -0.004329 -0.002603 0.000000 0.000885 0.000000
# 2 -0.004329 0.012198 -0.005513 0.000000 -0.001864 0.000000
# 3 -0.002603 -0.005513 0.022520 0.000000 0.012745 0.000000
# 4 0.000000 0.000000 0.000000 0.053225 0.000000 -0.003937
# 5 0.000885 -0.001864 0.012745 0.000000 0.050256 0.000000
# 6 0.000000 0.000000 0.000000 -0.003937 0.000000 0.044202
#
#
# Mechanical properties :
#
#
# Convention : Reuss Voigt Hill
#
# Bulk Modulus (GPa) = 36.34357 44.51469 40.42913
# Shear Modulus (GPa) = 21.35343 23.41612 22.38478
#
# Velocity S-wave (km/s) = 3.42075 3.58216 3.50238
# Velocity P-wave (km/s) = 5.95970 6.44227 6.20568
#
# Compressibility (1/GPa) = 0.02751518
#
# Stress axis : x y z
#
# Youngs Moduli (GPa) = 56.52797 81.98301 44.40583
#
# Poissons Ratio (x) = 0.35493 0.11561
# Poissons Ratio (y) = 0.24473 0.24483
# Poissons Ratio (z) = 0.14717 0.45201
#
# Static dielectric constant tensor:
#      x y z
#    x 3.629910 0.000000 -0.047320 
#    y 0.000000 3.160020 0.000000 
#    z -0.047320 0.000000 3.271810 
# 
# 
# High freq. dielectric constant tensor:
#      x y z
#    x 1.723330 0.000000 -0.000080 
#    y 0.000000 1.676100 0.000000 
#    z -0.000080 0.000000 1.694780 
# 
# From -- ./inp_files/68240.got.cif
#   From: 2010.06.25/outbox.cif.g09.slc.cpg/sg13_35_cif.got.tgz:68240.got - 2010.06.28 04:50:58.
