data_PCOD8117890
_publ_section_title
;
Structure prediction by ZEFSAII (Michael W. Deem and Ramdas Pophale) SiO2 
 PCOD8117890
Probable space group: P 2/C
;
_chemical_formula_sum "Si O2"
_cell_formula_units_Z 28
_cell_length_a 9.323755
_cell_length_b 8.978367
_cell_length_c 30.152986
_cell_angle_alpha 90.000000
_cell_angle_beta 37.206829
_cell_angle_gamma 90.000000
_cell_volume 1526.350336
_symmetry_space_group_name_H-M "P 2/C"
_symmetry_group_IT_number 13
_symmetry_cell_setting 'monoclinic'
loop_
_space_group_symop_operation_xyz
x,y,z
-x,y,1/2-z
-x,-y,-z
x,-y,1/2+z
loop_
_atom_site_type_symbol
_atom_site_label
_atom_site_fract_x
_atom_site_fract_y
_atom_site_fract_z
Si Si1 0.448540 0.667639 0.368835
Si Si2 0.826946 0.823151 0.328840
Si Si3 0.194688 0.354590 0.091351
Si Si4 0.138892 0.598362 0.298786
Si Si5 0.041885 0.765702 0.409344
Si Si6 0.221502 0.014278 0.074580
Si Si7 0.365332 0.539995 0.968194
O O1 0.573674 0.787738 0.369809
O O2 0.619142 0.597030 0.288950
O O3 0.239389 0.766066 0.398941
O O4 0.354684 0.529944 0.421517
O O5 0.823303 0.945428 0.366875
O O6 0.000000 0.893404 0.250000
O O7 0.925086 0.665158 0.322223
O O8 0.381102 0.381949 0.085242
O O9 0.945218 0.434007 0.165209
O O10 0.134504 0.183173 0.097676
O O11 0.314323 0.412141 0.016689
O O12 0.170993 0.699825 0.334220
O O13 0.932118 0.928405 0.425278
O O14 0.830071 0.666008 0.479555
O O15 0.500000 0.000000 0.000000
#
# Coordination Sequence:
#
# PCOD8117890 Si02
#       7
#     4   4   4   4   4   4   4
#     4  11  19  34  60  83 110 142 194 242 282 331
#     4   9  19  35  54  79 107 143 188 232 276 331
#     4  10  19  35  58  82 110 145 194 235 278 332
#     4   9  19  36  59  80 103 148 193 231 277 338
#     4  10  21  35  56  82 114 151 186 222 294 343
#     4  11  20  36  57  79 112 155 188 226 276 353
#     4  10  19  34  56  84 110 143 188 246 276 328
#
# _framework density 18.344411999999998
#
# number of rings (size 3 to 8) (size 9 to 14) (size 15 to 20)
#    0.000    2.000    2.857    1.714    0.000    0.000 
#    2.571    2.857    3.143   10.286    0.000    0.000 
#    0.000    0.000    0.000    0.000    0.000    0.000 
#
# Total GULP energy -347124.004698 kJ/mol
# GULP energy per Si atom -12397.285882 kJ/mol
# Density = 1.830266 g / cm^3
# Si number density = 18.344412 Si / 1000 Ang^3
#
#
#
# Elastic Constant Matrix: (Units=GPa)
#
#
# Indices 1 2 3 4 5 6 
#
# 1 115.2096 45.7265 23.7407 0.0000 -7.5163 0.0000
# 2 45.7265 133.3525 40.8217 0.0000 -3.4445 0.0000
# 3 23.7407 40.8217 75.5930 0.0000 7.8704 0.0000
# 4 0.0000 0.0000 0.0000 5.9638 0.0000 -1.2806
# 5 -7.5163 -3.4445 7.8704 0.0000 22.0036 0.0000
# 6 0.0000 0.0000 0.0000 -1.2806 0.0000 24.3642
#
#
#
# Elastic Compliance Matrix: (Units=1/GPa)
#
#
# Indices 1 2 3 4 5 6 
#
# 1 0.010510 -0.002836 -0.002178 0.000000 0.003925 0.000000
# 2 -0.002836 0.009981 -0.004737 0.000000 0.002288 0.000000
# 3 -0.002178 -0.004737 0.017269 0.000000 -0.007662 0.000000
# 4 0.000000 0.000000 0.000000 0.169592 0.000000 0.008914
# 5 0.003925 0.002288 -0.007662 0.000000 0.049887 0.000000
# 6 0.000000 0.000000 0.000000 0.008914 0.000000 0.041512
#
#
# Mechanical properties :
#
#
# Convention : Reuss Voigt Hill
#
# Bulk Modulus (GPa) = 54.77312 60.52588 57.64950
# Shear Modulus (GPa) = 15.41593 24.72406 20.06999
#
# Velocity S-wave (km/s) = 2.90204 3.67518 3.31125
# Velocity P-wave (km/s) = 6.41500 7.14668 6.79070
#
# Compressibility (1/GPa) = 0.01825713
#
# Stress axis : x y z
#
# Youngs Moduli (GPa) = 95.14482 100.19423 57.90770
#
# Poissons Ratio (x) = 0.28413 0.12613
# Poissons Ratio (y) = 0.26981 0.27433
# Poissons Ratio (z) = 0.20724 0.47466
#
# Static dielectric constant tensor:
#      x y z
#    x 3.479790 0.000000 0.022850 
#    y 0.000000 3.411300 0.000000 
#    z 0.022850 0.000000 3.753700 
# 
# 
# High freq. dielectric constant tensor:
#      x y z
#    x 1.709780 0.000000 0.006310 
#    y 0.000000 1.689240 0.000000 
#    z 0.006310 0.000000 1.717190 
# 
# From -- ./inp_files/91210.got.cif
#   From: 2010.06.25/outbox.cif.g09.slc.cpg/sg13_46_cif.got.tgz:91210.got - 2010.06.28 04:50:58.
