data_PCOD8117146
_publ_section_title
;
Structure prediction by ZEFSAII (Michael W. Deem and Ramdas Pophale) SiO2 
 PCOD8117146
Probable space group: P 2/C
;
_chemical_formula_sum "Si O2"
_cell_formula_units_Z 32
_cell_length_a 14.253340
_cell_length_b 10.014775
_cell_length_c 18.688728
_cell_angle_alpha 90.000000
_cell_angle_beta 143.353518
_cell_angle_gamma 90.000000
_cell_volume 1592.288225
_symmetry_space_group_name_H-M "P 2/C"
_symmetry_group_IT_number 13
_symmetry_cell_setting 'monoclinic'
loop_
_space_group_symop_operation_xyz
x,y,z
-x,y,1/2-z
-x,-y,-z
x,-y,1/2+z
loop_
_atom_site_type_symbol
_atom_site_label
_atom_site_fract_x
_atom_site_fract_y
_atom_site_fract_z
Si Si1 0.873470 0.030780 0.107556
Si Si2 0.594557 0.625634 0.147394
Si Si3 0.617414 0.836555 0.632267
Si Si4 0.513884 0.905030 0.420366
Si Si5 0.920448 0.469880 0.876777
Si Si6 0.045820 0.270482 0.197007
Si Si7 0.916494 0.732808 0.122542
Si Si8 0.392415 0.617227 0.510616
O O1 0.893061 0.886522 0.083092
O O2 0.000000 0.041876 0.250000
O O3 0.923562 0.159476 0.089995
O O4 0.691348 0.049726 0.014030
O O5 0.547193 0.768337 0.154507
O O6 0.736038 0.556961 0.277762
O O7 0.437517 0.535537 0.055345
O O8 0.652533 0.632560 0.100344
O O9 0.498536 0.868417 0.494481
O O10 0.785962 0.801503 0.704410
O O11 0.541869 0.708829 0.625188
O O12 0.606578 0.972844 0.673426
O O13 0.955524 0.595315 0.848223
O O14 0.986759 0.336008 0.881156
O O15 0.000000 0.500000 0.000000
O O16 0.000000 0.311372 0.250000
O O17 0.000000 0.727364 0.250000
O O18 0.751550 0.657274 0.027584
#
# Coordination Sequence:
#
# PCOD8117146 Si02
#       8
#     4   4   4   4   4   4   4   4
#     4  10  20  33  57  99 127 151 191 255 318 362
#     4  10  22  34  59  89 120 154 203 245 306 356
#     4  10  18  32  53  90 131 152 183 252 319 360
#     4  10  19  30  55  92 128 151 191 248 316 364
#     4  12  27  44  59  86 125 169 208 250 306 366
#     4  11  22  37  63  92 123 157 203 253 308 359
#     4  11  22  37  63  94 124 154 206 253 307 363
#     4  10  19  34  58  91 119 154 196 253 301 361
#
# _framework density 20.096862999999999
#
# number of rings (size 3 to 8) (size 9 to 14) (size 15 to 20)
#    0.000    1.500    6.250    0.375    3.500    0.000 
#    0.000    1.250    0.000    0.000    0.000    0.000 
#    0.000    0.000    0.000    0.000    0.000    0.000 
#
# Total GULP energy -396473.833651 kJ/mol
# GULP energy per Si atom -12389.807302 kJ/mol
# Density = 2.005112 g / cm^3
# Si number density = 20.096863 Si / 1000 Ang^3
#
#
#
# Elastic Constant Matrix: (Units=GPa)
#
#
# Indices 1 2 3 4 5 6 
#
# 1 55.2342 39.6019 35.8857 0.0000 18.0083 0.0000
# 2 39.6019 164.2286 40.8051 0.0000 4.5040 0.0000
# 3 35.8857 40.8051 73.5204 0.0000 10.2270 0.0000
# 4 0.0000 0.0000 0.0000 21.1312 0.0000 17.8834
# 5 18.0083 4.5040 10.2270 0.0000 26.6549 0.0000
# 6 0.0000 0.0000 0.0000 17.8834 0.0000 22.8396
#
#
#
# Elastic Compliance Matrix: (Units=1/GPa)
#
#
# Indices 1 2 3 4 5 6 
#
# 1 0.035594 -0.005103 -0.011954 0.000000 -0.018599 0.000000
# 2 -0.005103 0.007797 -0.002254 0.000000 0.002995 0.000000
# 3 -0.011954 -0.002254 0.020611 0.000000 0.000549 0.000000
# 4 0.000000 0.000000 0.000000 0.140281 0.000000 -0.109840
# 5 -0.018599 0.002995 0.000549 0.000000 0.049365 0.000000
# 6 0.000000 0.000000 0.000000 -0.109840 0.000000 0.129788
#
#
# Mechanical properties :
#
#
# Convention : Reuss Voigt Hill
#
# Bulk Modulus (GPa) = 39.39945 58.39649 48.89797
# Shear Modulus (GPa) = 11.61394 25.90451 18.75922
#
# Velocity S-wave (km/s) = 2.40656 3.59414 3.05854
# Velocity P-wave (km/s) = 5.23157 6.80767 6.07098
#
# Compressibility (1/GPa) = 0.02538107
#
# Stress axis : x y z
#
# Youngs Moduli (GPa) = 28.09477 128.24873 48.51795
#
# Poissons Ratio (x) = 0.65442 0.57999
# Poissons Ratio (y) = 0.14336 0.10934
# Poissons Ratio (z) = 0.33585 0.28901
#
# Static dielectric constant tensor:
#      x y z
#    x 3.203020 0.000000 0.395880 
#    y 0.000000 4.413470 0.000000 
#    z 0.395880 0.000000 3.284810 
# 
# 
# High freq. dielectric constant tensor:
#      x y z
#    x 1.745370 0.000000 0.056160 
#    y 0.000000 1.823560 0.000000 
#    z 0.056160 0.000000 1.739190 
# 
# From -- ./inp_files/79841.got.cif
#   From: 2010.06.25/outbox.cif.g09.slc.cpg/sg13_40_cif.got.tgz:79841.got - 2010.06.28 04:50:58.
