data_PCOD8117905
_publ_section_title
;
Structure prediction by ZEFSAII (Michael W. Deem and Ramdas Pophale) SiO2 
 PCOD8117905
Probable space group: P 2/C
;
_chemical_formula_sum "Si O2"
_cell_formula_units_Z 30
_cell_length_a 11.423089
_cell_length_b 8.404835
_cell_length_c 19.066289
_cell_angle_alpha 90.000000
_cell_angle_beta 128.253414
_cell_angle_gamma 90.000000
_cell_volume 1437.485535
_symmetry_space_group_name_H-M "P 2/C"
_symmetry_group_IT_number 13
_symmetry_cell_setting 'monoclinic'
loop_
_space_group_symop_operation_xyz
x,y,z
-x,y,1/2-z
-x,-y,-z
x,-y,1/2+z
loop_
_atom_site_type_symbol
_atom_site_label
_atom_site_fract_x
_atom_site_fract_y
_atom_site_fract_z
Si Si1 0.458805 0.778550 0.524056
Si Si2 0.249285 0.990433 0.524033
Si Si3 0.480105 0.800308 0.367691
Si Si4 0.214936 0.742965 0.626754
Si Si5 0.715218 0.073951 0.211724
Si Si6 0.000000 0.201101 0.250000
Si Si7 0.632863 0.502883 0.914907
Si Si8 0.906708 0.299903 0.073507
O O1 0.309530 0.882791 0.481771
O O2 0.494414 0.768784 0.455930
O O3 0.598948 0.864060 0.611528
O O4 0.437476 0.603930 0.548109
O O5 0.176426 0.877364 0.555337
O O6 0.388304 0.083880 0.609927
O O7 0.125785 0.112950 0.451418
O O8 0.508529 0.626860 0.343600
O O9 0.324577 0.886209 0.288512
O O10 0.300139 0.822007 0.723787
O O11 0.325802 0.611358 0.636026
O O12 0.061602 0.657723 0.592582
O O13 0.881177 0.085541 0.243232
O O14 0.925212 0.317702 0.164515
O O15 0.779599 0.415406 0.998782
#
# Coordination Sequence:
#
# PCOD8117905 Si02
#       8
#     4   4   4   4   4   2   4   4
#     4  10  19  34  58  85 112 145 185 231 280 327
#     4   9  18  32  54  80 108 147 190 228 264 319
#     4  10  19  34  57  82 109 142 186 231 272 324
#     4  10  21  35  55  82 116 155 185 227 279 328
#     4  10  20  36  57  83 110 142 188 233 277 330
#     4  10  20  34  60  84 106 140 182 240 290 328
#     4  10  21  35  56  83 114 152 184 223 279 337
#     4  10  19  36  58  82 112 147 191 229 275 337
#
# _framework density 20.869774
#
# number of rings (size 3 to 8) (size 9 to 14) (size 15 to 20)
#    0.000    2.133    0.000    5.200    0.000    4.800 
#    0.000    5.333    0.000   25.600    0.000    0.000 
#    0.000    0.000    0.000    0.000    0.000    0.000 
#
# Total GULP energy -371936.533214 kJ/mol
# GULP energy per Si atom -12397.884440 kJ/mol
# Density = 2.082227 g / cm^3
# Si number density = 20.869774 Si / 1000 Ang^3
#
#
#
# Elastic Constant Matrix: (Units=GPa)
#
#
# Indices 1 2 3 4 5 6 
#
# 1 91.8643 43.5794 34.3103 0.0000 -8.5752 0.0000
# 2 43.5794 124.2792 23.9565 0.0000 -4.3899 0.0000
# 3 34.3103 23.9565 62.3653 0.0000 -9.2891 0.0000
# 4 0.0000 0.0000 0.0000 26.5540 0.0000 7.0839
# 5 -8.5752 -4.3899 -9.2891 0.0000 24.7066 0.0000
# 6 0.0000 0.0000 0.0000 7.0839 0.0000 27.4165
#
#
#
# Elastic Compliance Matrix: (Units=1/GPa)
#
#
# Indices 1 2 3 4 5 6 
#
# 1 0.015503 -0.004080 -0.006640 0.000000 0.002159 0.000000
# 2 -0.004080 0.009766 -0.001546 0.000000 -0.000262 0.000000
# 3 -0.006640 -0.001546 0.021077 0.000000 0.005345 0.000000
# 4 0.000000 0.000000 0.000000 0.040447 0.000000 -0.010451
# 5 0.002159 -0.000262 0.005345 0.000000 0.043188 0.000000
# 6 0.000000 0.000000 0.000000 -0.010451 0.000000 0.039175
#
#
# Mechanical properties :
#
#
# Convention : Reuss Voigt Hill
#
# Bulk Modulus (GPa) = 45.84093 53.57792 49.70943
# Shear Modulus (GPa) = 24.88081 27.51291 26.19686
#
# Velocity S-wave (km/s) = 3.45656 3.63480 3.54680
# Velocity P-wave (km/s) = 6.15982 6.58361 6.37524
#
# Compressibility (1/GPa) = 0.02181456
#
# Stress axis : x y z
#
# Youngs Moduli (GPa) = 64.50547 102.39860 47.44405
#
# Poissons Ratio (x) = 0.41777 0.31502
# Poissons Ratio (y) = 0.26317 0.07334
# Poissons Ratio (z) = 0.42831 0.15829
#
# Static dielectric constant tensor:
#      x y z
#    x 3.943200 0.000000 -0.083030 
#    y 0.000000 3.987590 0.000000 
#    z -0.083030 0.000000 3.541620 
# 
# 
# High freq. dielectric constant tensor:
#      x y z
#    x 1.830870 0.000000 -0.011150 
#    y 0.000000 1.811050 0.000000 
#    z -0.011150 0.000000 1.793260 
# 
# From -- ./inp_files/66322.got.cif
#   From: 2010.06.25/outbox.cif.g09.slc.cpg/sg13_34_cif.got.tgz:66322.got - 2010.06.28 04:50:58.
