data_PCOD8117243
_publ_section_title
;
Structure prediction by ZEFSAII (Michael W. Deem and Ramdas Pophale) SiO2 
 PCOD8117243
Probable space group: P 2/C
;
_chemical_formula_sum "Si O2"
_cell_formula_units_Z 28
_cell_length_a 18.854199
_cell_length_b 9.092148
_cell_length_c 12.199059
_cell_angle_alpha 90.000000
_cell_angle_beta 131.888908
_cell_angle_gamma 90.000000
_cell_volume 1556.793800
_symmetry_space_group_name_H-M "P 2/C"
_symmetry_group_IT_number 13
_symmetry_cell_setting 'monoclinic'
loop_
_space_group_symop_operation_xyz
x,y,z
-x,y,1/2-z
-x,-y,-z
x,-y,1/2+z
loop_
_atom_site_type_symbol
_atom_site_label
_atom_site_fract_x
_atom_site_fract_y
_atom_site_fract_z
Si Si1 0.500000 0.967318 0.250000
Si Si2 0.413400 0.787601 0.800165
Si Si3 0.822896 0.652470 0.753901
Si Si4 0.082192 0.627676 0.248195
Si Si5 0.204797 0.241376 0.048297
Si Si6 0.042070 0.849624 0.508130
Si Si7 0.616855 0.276096 0.979622
Si Si8 0.500000 0.530897 0.750000
O O1 0.522152 0.073749 0.169474
O O2 0.588501 0.860677 0.372119
O O3 0.308045 0.832449 0.648903
O O4 0.419103 0.765585 0.936077
O O5 0.442313 0.633931 0.774067
O O6 0.877920 0.509063 0.775481
O O7 0.792582 0.634638 0.851363
O O8 0.730526 0.698521 0.588258
O O9 0.902653 0.781342 0.829729
O O10 0.176872 0.689498 0.403890
O O11 0.000000 0.582606 0.250000
O O12 0.042000 0.743392 0.119670
O O13 0.120734 0.124899 0.992627
O O14 0.000000 0.000000 0.500000
O O15 0.570337 0.428685 0.892917
#
# Coordination Sequence:
#
# PCOD8117243 Si02
#       8
#     2   4   4   4   4   4   4   2
#     4  10  22  34  58  78 106 150 180 212 272 328
#     4  10  19  37  55  80 108 142 179 215 270 321
#     4   9  19  34  55  74 105 139 171 222 259 305
#     4  10  18  33  57  78 104 140 174 213 265 313
#     4   8  19  33  56  74 108 136 171 218 258 302
#     4   9  19  34  53  73 105 140 169 213 263 305
#     4  10  20  37  54  79 112 137 175 230 265 311
#     4  10  20  32  60  82 102 140 178 218 268 326
#
# _framework density 17.985683999999999
#
# number of rings (size 3 to 8) (size 9 to 14) (size 15 to 20)
#    0.857    1.714    0.000    2.143    0.000    1.143 
#    0.000    3.571   12.571    0.000    0.000    0.000 
#    0.000    0.000    0.000    0.000    0.000    0.000 
#
# Total GULP energy -346887.392441 kJ/mol
# GULP energy per Si atom -12388.835444 kJ/mol
# Density = 1.794475 g / cm^3
# Si number density = 17.985684 Si / 1000 Ang^3
#
#
#
# Elastic Constant Matrix: (Units=GPa)
#
#
# Indices 1 2 3 4 5 6 
#
# 1 48.9494 50.1254 25.2644 0.0000 5.4102 0.0000
# 2 50.1254 132.4037 53.7828 0.0000 11.7088 0.0000
# 3 25.2644 53.7828 112.1828 0.0000 22.7137 0.0000
# 4 0.0000 0.0000 0.0000 22.0551 0.0000 1.4371
# 5 5.4102 11.7088 22.7137 0.0000 27.4937 0.0000
# 6 0.0000 0.0000 0.0000 1.4371 0.0000 9.1572
#
#
#
# Elastic Compliance Matrix: (Units=1/GPa)
#
#
# Indices 1 2 3 4 5 6 
#
# 1 0.033662 -0.012002 -0.001826 0.000000 -0.000004 0.000000
# 2 -0.012002 0.013661 -0.003779 0.000000 -0.000334 0.000000
# 3 -0.001826 -0.003779 0.012895 0.000000 -0.008685 0.000000
# 4 0.000000 0.000000 0.000000 0.045809 0.000000 -0.007189
# 5 -0.000004 -0.000334 -0.008685 0.000000 0.043690 0.000000
# 6 0.000000 0.000000 0.000000 -0.007189 0.000000 0.110331
#
#
# Mechanical properties :
#
#
# Convention : Reuss Voigt Hill
#
# Bulk Modulus (GPa) = 39.99199 61.32013 50.65606
# Shear Modulus (GPa) = 16.46918 22.69877 19.58397
#
# Velocity S-wave (km/s) = 3.02931 3.55638 3.30337
# Velocity P-wave (km/s) = 5.87532 7.14365 6.54030
#
# Compressibility (1/GPa) = 0.02500501
#
# Stress axis : x y z
#
# Youngs Moduli (GPa) = 29.70675 73.20248 77.54759
#
# Poissons Ratio (x) = 0.87855 0.14163
# Poissons Ratio (y) = 0.35653 0.29303
# Poissons Ratio (z) = 0.05425 0.27661
#
# Static dielectric constant tensor:
#      x y z
#    x 3.230230 0.000000 0.108340 
#    y 0.000000 3.069480 0.000000 
#    z 0.108340 0.000000 3.492130 
# 
# 
# High freq. dielectric constant tensor:
#      x y z
#    x 1.684600 0.000000 0.013270 
#    y 0.000000 1.679490 0.000000 
#    z 0.013270 0.000000 1.709970 
# 
# From -- ./inp_files/40436.got.cif
#   From: 2010.06.25/outbox.cif.g09.slc.cpg/sg13_21_cif.got.tgz:40436.got - 2010.06.28 04:50:58.
