data_PCOD8117260
_publ_section_title
;
Structure prediction by ZEFSAII (Michael W. Deem and Ramdas Pophale) SiO2 
 PCOD8117260
Probable space group: P 2/C
;
_chemical_formula_sum "Si O2"
_cell_formula_units_Z 20
_cell_length_a 9.988884
_cell_length_b 6.342894
_cell_length_c 20.035507
_cell_angle_alpha 90.000000
_cell_angle_beta 52.865351
_cell_angle_gamma 90.000000
_cell_volume 1012.004400
_symmetry_space_group_name_H-M "P 2/C"
_symmetry_group_IT_number 13
_symmetry_cell_setting 'monoclinic'
loop_
_space_group_symop_operation_xyz
x,y,z
-x,y,1/2-z
-x,-y,-z
x,-y,1/2+z
loop_
_atom_site_type_symbol
_atom_site_label
_atom_site_fract_x
_atom_site_fract_y
_atom_site_fract_z
Si Si1 0.752549 0.532141 0.487587
Si Si2 0.864054 0.213810 0.340276
Si Si3 0.749131 0.848942 0.072834
Si Si4 0.007774 0.916015 0.092712
Si Si5 0.492440 0.115745 0.072560
O O1 0.785760 0.378550 0.415581
O O2 0.725691 0.398895 0.564038
O O3 0.909496 0.688639 0.443728
O O4 0.579908 0.660273 0.532670
O O5 0.701730 0.136219 0.347097
O O6 0.000000 0.322196 0.250000
O O7 0.961891 0.010897 0.342597
O O8 0.809940 0.889800 0.131388
O O9 0.585020 0.984895 0.103395
O O10 0.906747 0.912018 0.980075
O O11 0.500000 0.000000 0.000000
#
# Coordination Sequence:
#
# PCOD8117260 Si02
#       5
#     4   4   4   4   4
#     4  10  18  33  59  81 111 138 194 225 273 321
#     4  11  23  36  54  81 115 148 180 227 282 329
#     4   9  18  31  57  83 106 138 184 229 269 317
#     4   9  18  34  53  81 111 141 179 227 273 321
#     4  11  19  36  57  83 108 142 184 231 270 323
#
# _framework density 19.762761999999999
#
# number of rings (size 3 to 8) (size 9 to 14) (size 15 to 20)
#    0.000    2.000    6.000    1.200    0.000    2.400 
#    0.000    1.000    0.000    0.000    0.000    0.000 
#    0.000    0.000    0.000    0.000    0.000    0.000 
#
# Total GULP energy -247769.752889 kJ/mol
# GULP energy per Si atom -12388.487644 kJ/mol
# Density = 1.971778 g / cm^3
# Si number density = 19.762762 Si / 1000 Ang^3
#
#
#
# Elastic Constant Matrix: (Units=GPa)
#
#
# Indices 1 2 3 4 5 6 
#
# 1 182.4533 57.1758 36.6397 0.0000 -12.9289 0.0000
# 2 57.1758 118.2767 15.6170 0.0000 -2.1423 0.0000
# 3 36.6397 15.6170 47.0848 0.0000 -16.3199 0.0000
# 4 0.0000 0.0000 0.0000 8.3737 0.0000 -3.6223
# 5 -12.9289 -2.1423 -16.3199 0.0000 19.3334 0.0000
# 6 0.0000 0.0000 0.0000 -3.6223 0.0000 27.0531
#
#
#
# Elastic Compliance Matrix: (Units=1/GPa)
#
#
# Indices 1 2 3 4 5 6 
#
# 1 0.007361 -0.002954 -0.004461 0.000000 0.000830 0.000000
# 2 -0.002954 0.010089 -0.001901 0.000000 -0.002462 0.000000
# 3 -0.004461 -0.001901 0.034255 0.000000 0.025722 0.000000
# 4 0.000000 0.000000 0.000000 0.126763 0.000000 0.016973
# 5 0.000830 -0.002462 0.025722 0.000000 0.073719 0.000000
# 6 0.000000 0.000000 0.000000 0.016973 0.000000 0.039237
#
#
# Mechanical properties :
#
#
# Convention : Reuss Voigt Hill
#
# Bulk Modulus (GPa) = 30.23515 62.96443 46.59979
# Shear Modulus (GPa) = 15.57236 26.84421 21.20828
#
# Velocity S-wave (km/s) = 2.81012 3.68954 3.27944
# Velocity P-wave (km/s) = 5.08540 7.07669 6.16201
#
# Compressibility (1/GPa) = 0.03307409
#
# Stress axis : x y z
#
# Youngs Moduli (GPa) = 135.84549 99.11444 29.19252
#
# Poissons Ratio (x) = 0.29283 0.13022
# Poissons Ratio (y) = 0.40135 0.05549
# Poissons Ratio (z) = 0.60596 0.18839
#
# Static dielectric constant tensor:
#      x y z
#    x 4.502560 0.000000 0.067240 
#    y 0.000000 3.920730 0.000000 
#    z 0.067240 0.000000 3.132560 
# 
# 
# High freq. dielectric constant tensor:
#      x y z
#    x 1.794990 0.000000 -0.004250 
#    y 0.000000 1.777500 0.000000 
#    z -0.004250 0.000000 1.699590 
# 
# From -- ./inp_files/74409.got.cif
#   From: 2010.06.25/outbox.cif.g09.slc.cpg/sg13_38_cif.got.tgz:74409.got - 2010.06.28 04:50:58.
