data_PCOD8117251
_publ_section_title
;
Structure prediction by ZEFSAII (Michael W. Deem and Ramdas Pophale) SiO2 
 PCOD8117251
Probable space group: P 2/C
;
_chemical_formula_sum "Si O2"
_cell_formula_units_Z 28
_cell_length_a 15.542783
_cell_length_b 11.745087
_cell_length_c 8.934678
_cell_angle_alpha 90.000000
_cell_angle_beta 121.830740
_cell_angle_gamma 90.000000
_cell_volume 1385.745467
_symmetry_space_group_name_H-M "P 2/C"
_symmetry_group_IT_number 13
_symmetry_cell_setting 'monoclinic'
loop_
_space_group_symop_operation_xyz
x,y,z
-x,y,1/2-z
-x,-y,-z
x,-y,1/2+z
loop_
_atom_site_type_symbol
_atom_site_label
_atom_site_fract_x
_atom_site_fract_y
_atom_site_fract_z
Si Si1 0.870426 0.082167 0.508422
Si Si2 0.539792 0.326660 0.942707
Si Si3 0.111653 0.676990 0.918921
Si Si4 0.245625 0.749400 0.782046
Si Si5 0.766047 0.537906 0.921739
Si Si6 0.908249 0.139173 0.873018
Si Si7 0.369271 0.433543 0.938169
O O1 0.778297 0.136497 0.331180
O O2 0.851244 0.103652 0.667525
O O3 0.972455 0.142732 0.547622
O O4 0.878914 0.948591 0.478991
O O5 0.500000 0.273728 0.750000
O O6 0.449258 0.330637 0.984025
O O7 0.632765 0.253047 0.091407
O O8 0.574412 0.455930 0.945189
O O9 0.192733 0.746364 0.894320
O O10 0.000000 0.691300 0.750000
O O11 0.138664 0.542858 0.952190
O O12 0.119523 0.735263 0.090934
O O13 0.199609 0.638788 0.655595
O O14 0.680928 0.458964 0.768069
O O15 0.718337 0.598732 0.024350
#
# Coordination Sequence:
#
# PCOD8117251 Si02
#       7
#     4   4   4   4   4   4   4
#     4  10  21  41  60  95 110 153 202 259 300 353
#     4  10  18  33  58  83 114 157 200 255 295 348
#     4  12  23  39  55  83 123 171 200 246 299 356
#     4  11  23  37  57  88 126 156 205 248 304 363
#     4  11  22  38  54  85 124 163 202 244 294 370
#     4  10  22  38  68  81 119 153 205 252 300 349
#     4  10  19  34  55  79 114 154 206 246 295 344
#
# _framework density 20.205729999999999
#
# number of rings (size 3 to 8) (size 9 to 14) (size 15 to 20)
#    0.000    1.429    5.714    0.857    4.000    0.571 
#    2.571    0.000    0.000    0.000    0.000    9.000 
#    4.286    0.143    0.000    0.000    0.000    0.000 
#
# Total GULP energy -347153.013125 kJ/mol
# GULP energy per Si atom -12398.321897 kJ/mol
# Density = 2.015974 g / cm^3
# Si number density = 20.205730 Si / 1000 Ang^3
#
#
#
# Elastic Constant Matrix: (Units=GPa)
#
#
# Indices 1 2 3 4 5 6 
#
# 1 91.8373 33.5505 33.5633 0.0000 -11.6321 0.0000
# 2 33.5505 45.7698 25.6031 0.0000 -1.9974 0.0000
# 3 33.5633 25.6031 95.4717 0.0000 -8.9722 0.0000
# 4 0.0000 0.0000 0.0000 30.4604 0.0000 -0.4724
# 5 -11.6321 -1.9974 -8.9722 0.0000 33.0121 0.0000
# 6 0.0000 0.0000 0.0000 -0.4724 0.0000 22.8745
#
#
#
# Elastic Compliance Matrix: (Units=1/GPa)
#
#
# Indices 1 2 3 4 5 6 
#
# 1 0.016084 -0.010195 -0.002510 0.000000 0.004368 0.000000
# 2 -0.010195 0.032171 -0.005334 0.000000 -0.003096 0.000000
# 3 -0.002510 -0.005334 0.013006 0.000000 0.002328 0.000000
# 4 0.000000 0.000000 0.000000 0.032840 0.000000 0.000678
# 5 0.004368 -0.003096 0.002328 0.000000 0.032276 0.000000
# 6 0.000000 0.000000 0.000000 0.000678 0.000000 0.043731
#
#
# Mechanical properties :
#
#
# Convention : Reuss Voigt Hill
#
# Bulk Modulus (GPa) = 39.71072 46.50140 43.10606
# Shear Modulus (GPa) = 23.30128 26.62685 24.96406
#
# Velocity S-wave (km/s) = 3.39957 3.63407 3.51877
# Velocity P-wave (km/s) = 5.92497 6.37750 6.15540
#
# Compressibility (1/GPa) = 0.02518211
#
# Stress axis : x y z
#
# Youngs Moduli (GPa) = 62.17370 31.08411 76.88868
#
# Poissons Ratio (x) = 0.31692 0.19296
# Poissons Ratio (y) = 0.63389 0.41013
# Poissons Ratio (z) = 0.15603 0.16581
#
# Static dielectric constant tensor:
#      x y z
#    x 3.746890 0.000000 -0.096640 
#    y 0.000000 3.213290 0.000000 
#    z -0.096640 0.000000 3.713820 
# 
# 
# High freq. dielectric constant tensor:
#      x y z
#    x 1.785580 0.000000 -0.013230 
#    y 0.000000 1.738660 0.000000 
#    z -0.013230 0.000000 1.797530 
# 
# From -- ./inp_files/19124.got.cif
#   From: 2010.06.25/outbox.cif.g09.slc.cpg/sg13_10_cif.got.tgz:19124.got - 2010.06.28 04:50:58.
