data_PCOD8117809
_publ_section_title
;
Structure prediction by ZEFSAII (Michael W. Deem and Ramdas Pophale) SiO2 
 PCOD8117809
Probable space group: P 2/C
;
_chemical_formula_sum "Si O2"
_cell_formula_units_Z 24
_cell_length_a 16.231025
_cell_length_b 14.591005
_cell_length_c 9.463135
_cell_angle_alpha 90.000000
_cell_angle_beta 31.950549
_cell_angle_gamma 90.000000
_cell_volume 1185.974806
_symmetry_space_group_name_H-M "P 2/C"
_symmetry_group_IT_number 13
_symmetry_cell_setting 'monoclinic'
loop_
_space_group_symop_operation_xyz
x,y,z
-x,y,1/2-z
-x,-y,-z
x,-y,1/2+z
loop_
_atom_site_type_symbol
_atom_site_label
_atom_site_fract_x
_atom_site_fract_y
_atom_site_fract_z
Si Si1 0.822914 0.451776 0.042256
Si Si2 0.679264 0.420453 0.535436
Si Si3 0.325644 0.779405 0.485565
Si Si4 0.685856 0.104329 0.999685
Si Si5 0.667558 0.952874 0.227666
Si Si6 0.181147 0.759486 0.988716
O O1 0.790565 0.464569 0.254534
O O2 0.704036 0.519795 0.138333
O O3 0.781602 0.347769 0.059234
O O4 0.000000 0.477682 0.750000
O O5 0.500000 0.425372 0.750000
O O6 0.745552 0.316581 0.468271
O O7 0.500000 0.748897 0.250000
O O8 0.327488 0.862207 0.373816
O O9 0.252897 0.807106 0.743558
O O10 0.500000 0.106143 0.250000
O O11 0.743932 0.201218 0.975284
O O12 0.755146 0.030248 0.009879
O O13 0.754063 0.075889 0.746828
O O14 0.500000 0.000000 0.500000
O O15 0.000000 0.780591 0.250000
#
# Coordination Sequence:
#
# PCOD8117809 Si02
#       6
#     4   4   4   4   4   4
#     4  10  21  38  58  81 116 159 192 228 287 348
#     4  10  21  35  57  85 113 146 191 245 285 323
#     4  10  19  36  58  82 113 150 191 236 284 337
#     4  10  19  33  56  82 107 144 187 230 276 334
#     4  10  19  33  57  86 111 142 186 233 279 338
#     4  10  22  39  57  82 119 155 188 234 290 338
#
# _framework density 20.236518
#
# number of rings (size 3 to 8) (size 9 to 14) (size 15 to 20)
#    0.000    2.000    0.000    5.500    0.000    2.000 
#    0.000    4.167    0.000    0.000    0.000    0.000 
#    0.000    0.000    0.000    0.000    0.000    0.000 
#
# Total GULP energy -297357.044065 kJ/mol
# GULP energy per Si atom -12389.876836 kJ/mol
# Density = 2.019046 g / cm^3
# Si number density = 20.236518 Si / 1000 Ang^3
#
#
#
# Elastic Constant Matrix: (Units=GPa)
#
#
# Indices 1 2 3 4 5 6 
#
# 1 79.1908 47.9230 16.2991 0.0000 19.2705 0.0000
# 2 47.9230 93.7462 16.9848 0.0000 13.3937 0.0000
# 3 16.2991 16.9848 89.0910 0.0000 11.4667 0.0000
# 4 0.0000 0.0000 0.0000 27.3953 0.0000 11.7654
# 5 19.2705 13.3937 11.4667 0.0000 28.1258 0.0000
# 6 0.0000 0.0000 0.0000 11.7654 0.0000 36.0506
#
#
#
# Elastic Compliance Matrix: (Units=1/GPa)
#
#
# Indices 1 2 3 4 5 6 
#
# 1 0.020546 -0.009003 -0.000826 0.000000 -0.009453 0.000000
# 2 -0.009003 0.015601 -0.001229 0.000000 -0.000759 0.000000
# 3 -0.000826 -0.001229 0.012097 0.000000 -0.003780 0.000000
# 4 0.000000 0.000000 0.000000 0.042453 0.000000 -0.013855
# 5 -0.009453 -0.000759 -0.003780 0.000000 0.043935 0.000000
# 6 0.000000 0.000000 0.000000 -0.013855 0.000000 0.032260
#
#
# Mechanical properties :
#
#
# Convention : Reuss Voigt Hill
#
# Bulk Modulus (GPa) = 38.27436 47.16021 42.71728
# Shear Modulus (GPa) = 25.28868 30.36908 27.82888
#
# Velocity S-wave (km/s) = 3.53888 3.87810 3.71237
# Velocity P-wave (km/s) = 5.97100 6.58847 6.28732
#
# Compressibility (1/GPa) = 0.02612715
#
# Stress axis : x y z
#
# Youngs Moduli (GPa) = 48.67026 64.09967 82.66852
#
# Poissons Ratio (x) = 0.57709 0.06827
# Poissons Ratio (y) = 0.43818 0.10163
# Poissons Ratio (z) = 0.04019 0.07880
#
# Static dielectric constant tensor:
#      x y z
#    x 3.637870 0.000000 0.411710 
#    y 0.000000 3.828810 0.000000 
#    z 0.411710 0.000000 3.820980 
# 
# 
# High freq. dielectric constant tensor:
#      x y z
#    x 1.767020 0.000000 0.024950 
#    y 0.000000 1.803480 0.000000 
#    z 0.024950 0.000000 1.787150 
# 
# From -- ./inp_files/19496.got.cif
#   From: 2010.06.25/outbox.cif.g09.slc.cpg/sg13_10_cif.got.tgz:19496.got - 2010.06.28 04:50:58.
