data_PCOD8117078
_publ_section_title
;
Structure prediction by ZEFSAII (Michael W. Deem and Ramdas Pophale) SiO2 
 PCOD8117078
Probable space group: P 2/C
;
_chemical_formula_sum "Si O2"
_cell_formula_units_Z 28
_cell_length_a 8.230950
_cell_length_b 9.764398
_cell_length_c 22.592497
_cell_angle_alpha 90.000000
_cell_angle_beta 133.714032
_cell_angle_gamma 90.000000
_cell_volume 1312.431261
_symmetry_space_group_name_H-M "P 2/C"
_symmetry_group_IT_number 13
_symmetry_cell_setting 'monoclinic'
loop_
_space_group_symop_operation_xyz
x,y,z
-x,y,1/2-z
-x,-y,-z
x,-y,1/2+z
loop_
_atom_site_type_symbol
_atom_site_label
_atom_site_fract_x
_atom_site_fract_y
_atom_site_fract_z
Si Si1 0.467321 0.603292 0.344966
Si Si2 0.510168 0.709575 0.835588
Si Si3 0.864324 0.697978 0.010698
Si Si4 0.964284 0.902566 0.351925
Si Si5 0.155290 0.601787 0.972735
Si Si6 0.878059 0.792101 0.833042
Si Si7 0.000000 0.264886 0.750000
Si Si8 0.500000 0.792910 0.250000
O O1 0.500979 0.454066 0.325703
O O2 0.589199 0.623050 0.439482
O O3 0.586427 0.701412 0.326736
O O4 0.204921 0.637290 0.283983
O O5 0.682039 0.776857 0.832181
O O6 0.255472 0.768144 0.762907
O O7 0.609110 0.738842 0.926264
O O8 0.873820 0.558591 0.051703
O O9 0.955964 0.828439 0.068340
O O10 0.995911 0.659246 0.984202
O O11 0.079682 0.832437 0.324129
O O12 0.697215 0.889846 0.277253
O O13 0.009529 0.063706 0.367251
O O14 0.083004 0.684237 0.895497
#
# Coordination Sequence:
#
# PCOD8117078 Si02
#       8
#     4   4   4   4   4   4   2   2
#     4  10  19  38  60  91 116 158 205 265 299 359
#     4   9  19  34  60  93 121 148 199 262 313 351
#     4   9  18  34  60  92 123 150 203 262 314 352
#     4  11  22  39  57  88 124 167 203 252 305 378
#     4   9  18  33  59  94 118 149 206 266 308 355
#     4  10  20  34  59  92 126 153 195 257 315 364
#     4  10  26  40  60  84 132 168 212 242 312 378
#     4  10  18  30  62  82 108 158 210 252 302 348
#
# _framework density 21.33445
#
# number of rings (size 3 to 8) (size 9 to 14) (size 15 to 20)
#    0.000    2.286    1.429    2.571    4.000    2.286 
#    5.143    4.286    0.000    0.000    0.000    0.000 
#    0.000    0.000    0.000    0.000    0.000    0.000 
#
# Total GULP energy -346947.984572 kJ/mol
# GULP energy per Si atom -12390.999449 kJ/mol
# Density = 2.128589 g / cm^3
# Si number density = 21.334450 Si / 1000 Ang^3
#
#
#
# Elastic Constant Matrix: (Units=GPa)
#
#
# Indices 1 2 3 4 5 6 
#
# 1 30.1457 3.5652 -3.3558 0.0000 0.2964 0.0000
# 2 3.5652 115.8850 60.6088 0.0000 -3.3096 0.0000
# 3 -3.3558 60.6088 128.7438 0.0000 -2.2466 0.0000
# 4 0.0000 0.0000 0.0000 29.5459 0.0000 -4.9720
# 5 0.2964 -3.3096 -2.2466 0.0000 15.3733 0.0000
# 6 0.0000 0.0000 0.0000 -4.9720 0.0000 12.7619
#
#
#
# Elastic Compliance Matrix: (Units=1/GPa)
#
#
# Indices 1 2 3 4 5 6 
#
# 1 0.033618 -0.002001 0.001804 0.000000 -0.000815 0.000000
# 2 -0.002001 0.011611 -0.005488 0.000000 0.001736 0.000000
# 3 0.001804 -0.005488 0.010403 0.000000 0.000304 0.000000
# 4 0.000000 0.000000 0.000000 0.036220 0.000000 0.014111
# 5 -0.000815 0.001736 0.000304 0.000000 0.065482 0.000000
# 6 0.000000 0.000000 0.000000 0.014111 0.000000 0.083856
#
#
# Mechanical properties :
#
#
# Convention : Reuss Voigt Hill
#
# Bulk Modulus (GPa) = 22.59279 44.04567 33.31923
# Shear Modulus (GPa) = 18.70468 25.79998 22.25233
#
# Velocity S-wave (km/s) = 2.96419 3.48129 3.23309
# Velocity P-wave (km/s) = 4.72525 6.07036 5.43954
#
# Compressibility (1/GPa) = 0.04426190
#
# Stress axis : x y z
#
# Youngs Moduli (GPa) = 29.74622 86.12869 96.12449
#
# Poissons Ratio (x) = 0.17235 -0.17342
# Poissons Ratio (y) = 0.05952 0.52751
# Poissons Ratio (z) = -0.05366 0.47265
#
# Static dielectric constant tensor:
#      x y z
#    x 3.275740 0.000000 -0.015330 
#    y 0.000000 3.722930 0.000000 
#    z -0.015330 0.000000 4.539570 
# 
# 
# High freq. dielectric constant tensor:
#      x y z
#    x 1.778660 0.000000 0.002070 
#    y 0.000000 1.829750 0.000000 
#    z 0.002070 0.000000 1.858680 
# 
# From -- ./inp_files/91355.got.cif
#   From: 2010.06.25/outbox.cif.g09.slc.cpg/sg13_46_cif.got.tgz:91355.got - 2010.06.28 04:50:58.
