data_PCOD8117673
_publ_section_title
;
Structure prediction by ZEFSAII (Michael W. Deem and Ramdas Pophale) SiO2 
 PCOD8117673
Probable space group: P 2/C
;
_chemical_formula_sum "Si O2"
_cell_formula_units_Z 32
_cell_length_a 28.595224
_cell_length_b 9.330262
_cell_length_c 20.505964
_cell_angle_alpha 90.000000
_cell_angle_beta 162.076927
_cell_angle_gamma 90.000000
_cell_volume 1683.647615
_symmetry_space_group_name_H-M "P 2/C"
_symmetry_group_IT_number 13
_symmetry_cell_setting 'monoclinic'
loop_
_space_group_symop_operation_xyz
x,y,z
-x,y,1/2-z
-x,-y,-z
x,-y,1/2+z
loop_
_atom_site_type_symbol
_atom_site_label
_atom_site_fract_x
_atom_site_fract_y
_atom_site_fract_z
Si Si1 0.186315 0.657220 0.295896
Si Si2 0.755868 0.652234 0.597821
Si Si3 0.987568 0.855596 0.525508
Si Si4 0.480187 0.350523 0.828496
Si Si5 0.368322 0.159630 0.128620
Si Si6 0.308300 0.114592 0.786548
Si Si7 0.579632 0.052975 0.700689
Si Si8 0.450444 0.352342 0.044111
O O1 0.145204 0.495687 0.264758
O O2 0.218980 0.771339 0.397601
O O3 0.339670 0.643549 0.458936
O O4 0.052590 0.723730 0.075581
O O5 0.667075 0.635643 0.412401
O O6 0.635139 0.671651 0.494890
O O7 0.860208 0.796425 0.737328
O O8 0.863755 0.888211 0.416788
O O9 0.000000 0.000000 0.500000
O O10 0.456875 0.218796 0.844551
O O11 0.494359 0.486351 0.896130
O O12 0.500000 0.135015 0.250000
O O13 0.407125 0.262017 0.241016
O O14 0.335324 0.006862 0.121329
O O15 0.315777 0.041896 0.725285
O O16 0.371568 0.279326 0.876064
O O17 0.417204 0.026175 0.979679
#
# Coordination Sequence:
#
# PCOD8117673 Si02
#       8
#     4   4   4   4   4   4   4   4
#     4   9  17  32  52  76 105 140 177 217 275 320
#     4  10  20  33  52  81 113 133 176 225 270 322
#     4  11  22  34  55  80 109 144 178 224 273 326
#     4  10  19  31  54  84 105 133 180 225 267 309
#     4   9  16  28  51  78 107 139 174 219 272 315
#     4   9  20  38  51  77 113 145 179 212 280 327
#     4  10  20  32  55  80 109 142 177 228 261 316
#     4   8  15  31  52  76 106 138 170 222 266 321
#
# _framework density 19.006353000000001
#
# number of rings (size 3 to 8) (size 9 to 14) (size 15 to 20)
#    0.000    2.500    1.250    1.875    3.500    0.500 
#    0.000    0.625    0.000    0.000    3.250    0.000 
#    0.000    0.000    0.000    0.000    0.000    0.000 
#
# Total GULP energy -396477.527323 kJ/mol
# GULP energy per Si atom -12389.922729 kJ/mol
# Density = 1.896309 g / cm^3
# Si number density = 19.006353 Si / 1000 Ang^3
#
#
#
# Elastic Constant Matrix: (Units=GPa)
#
#
# Indices 1 2 3 4 5 6 
#
# 1 56.7812 29.8133 22.0176 0.0000 -2.2493 0.0000
# 2 29.8133 114.7459 21.4169 0.0000 3.8542 0.0000
# 3 22.0176 21.4169 58.2626 0.0000 10.5495 0.0000
# 4 0.0000 0.0000 0.0000 31.0716 0.0000 -1.6642
# 5 -2.2493 3.8542 10.5495 0.0000 14.2964 0.0000
# 6 0.0000 0.0000 0.0000 -1.6642 0.0000 20.9566
#
#
#
# Elastic Compliance Matrix: (Units=1/GPa)
#
#
# Indices 1 2 3 4 5 6 
#
# 1 0.024443 -0.004965 -0.009639 0.000000 0.012297 0.000000
# 2 -0.004965 0.010365 -0.001485 0.000000 -0.002480 0.000000
# 3 -0.009639 -0.001485 0.024878 0.000000 -0.019474 0.000000
# 4 0.000000 0.000000 0.000000 0.032321 0.000000 0.002567
# 5 0.012297 -0.002480 -0.019474 0.000000 0.086921 0.000000
# 6 0.000000 0.000000 0.000000 0.002567 0.000000 0.047921
#
#
# Mechanical properties :
#
#
# Convention : Reuss Voigt Hill
#
# Bulk Modulus (GPa) = 36.35088 41.80947 39.08018
# Shear Modulus (GPa) = 18.64304 23.70105 21.17204
#
# Velocity S-wave (km/s) = 3.13531 3.53513 3.34120
# Velocity P-wave (km/s) = 5.68102 6.22159 5.95744
#
# Compressibility (1/GPa) = 0.02750965
#
# Stress axis : x y z
#
# Youngs Moduli (GPa) = 40.91187 96.47554 40.19597
#
# Poissons Ratio (x) = 0.47898 0.38743
# Poissons Ratio (y) = 0.20312 0.05969
# Poissons Ratio (z) = 0.39433 0.14327
#
# Static dielectric constant tensor:
#      x y z
#    x 3.103720 0.000000 -0.160140 
#    y 0.000000 3.839540 0.000000 
#    z -0.160140 0.000000 3.258080 
# 
# 
# High freq. dielectric constant tensor:
#      x y z
#    x 1.700710 0.000000 -0.019370 
#    y 0.000000 1.757910 0.000000 
#    z -0.019370 0.000000 1.715870 
# 
# From -- ./inp_files/82783.got.cif
#   From: 2010.06.25/outbox.cif.g09.slc.cpg/sg13_42_cif.got.tgz:82783.got - 2010.06.28 04:50:58.
