data_PCOD8117354
_publ_section_title
;
Structure prediction by ZEFSAII (Michael W. Deem and Ramdas Pophale) SiO2 
 PCOD8117354
Probable space group: P 2/C
;
_chemical_formula_sum "Si O2"
_cell_formula_units_Z 22
_cell_length_a 8.862476
_cell_length_b 8.131818
_cell_length_c 26.391071
_cell_angle_alpha 90.000000
_cell_angle_beta 36.623083
_cell_angle_gamma 90.000000
_cell_volume 1134.606641
_symmetry_space_group_name_H-M "P 2/C"
_symmetry_group_IT_number 13
_symmetry_cell_setting 'monoclinic'
loop_
_space_group_symop_operation_xyz
x,y,z
-x,y,1/2-z
-x,-y,-z
x,-y,1/2+z
loop_
_atom_site_type_symbol
_atom_site_label
_atom_site_fract_x
_atom_site_fract_y
_atom_site_fract_z
Si Si1 0.922611 0.946032 0.575607
Si Si2 0.549078 0.896201 0.037501
Si Si3 0.000000 0.325769 0.250000
Si Si4 0.601489 0.923974 0.819726
Si Si5 0.237337 0.803264 0.301890
Si Si6 0.869047 0.361826 0.834787
O O1 0.648287 0.856525 0.643744
O O2 0.154086 0.842144 0.537894
O O3 0.898706 0.110833 0.614651
O O4 0.000000 0.000000 0.500000
O O5 0.394178 0.726130 0.080649
O O6 0.469389 0.012173 0.105526
O O7 0.500000 0.000000 0.000000
O O8 0.193900 0.220042 0.230905
O O9 0.164382 0.442908 0.167535
O O10 0.725622 0.067089 0.753341
O O11 0.500000 0.724836 0.250000
O O12 0.059681 0.656741 0.330636
O O13 0.000000 0.277488 0.750000
#
# Coordination Sequence:
#
# PCOD8117354 Si02
#       6
#     4   4   2   4   4   4
#     4   9  20  32  55  89 112 136 188 252 295 316
#     4  11  19  33  62  86 111 143 197 253 284 319
#     4  10  22  36  60  78 122 158 192 220 286 354
#     4  10  19  36  56  83 113 151 195 233 280 348
#     4  10  18  34  61  83 106 147 204 246 272 325
#     4  10  20  36  56  83 112 152 196 230 279 343
#
# _framework density 19.389979
#
# number of rings (size 3 to 8) (size 9 to 14) (size 15 to 20)
#    0.545    1.455    3.636    1.091    0.000    0.000 
#    0.000    4.545    0.000    0.000    0.000    0.000 
#    0.000    0.000    0.000    0.000    0.000    0.000 
#
# Total GULP energy -272539.523574 kJ/mol
# GULP energy per Si atom -12388.160162 kJ/mol
# Density = 1.934585 g / cm^3
# Si number density = 19.389979 Si / 1000 Ang^3
#
#
#
# Elastic Constant Matrix: (Units=GPa)
#
#
# Indices 1 2 3 4 5 6 
#
# 1 132.2772 30.9239 18.5325 0.0000 -23.3866 0.0000
# 2 30.9239 52.7939 -2.6754 0.0000 -14.0669 0.0000
# 3 18.5325 -2.6754 44.4159 0.0000 2.7301 0.0000
# 4 0.0000 0.0000 0.0000 18.6148 0.0000 -6.2593
# 5 -23.3866 -14.0669 2.7301 0.0000 53.3823 0.0000
# 6 0.0000 0.0000 0.0000 -6.2593 0.0000 18.0010
#
#
#
# Elastic Compliance Matrix: (Units=1/GPa)
#
#
# Indices 1 2 3 4 5 6 
#
# 1 0.010017 -0.005240 -0.004695 0.000000 0.003248 0.000000
# 2 -0.005240 0.023149 0.003357 0.000000 0.003633 0.000000
# 3 -0.004695 0.003357 0.024826 0.000000 -0.002442 0.000000
# 4 0.000000 0.000000 0.000000 0.060833 0.000000 0.021153
# 5 0.003248 0.003633 -0.002442 0.000000 0.021238 0.000000
# 6 0.000000 0.000000 0.000000 0.021153 0.000000 0.062908
#
#
# Mechanical properties :
#
#
# Convention : Reuss Voigt Hill
#
# Bulk Modulus (GPa) = 22.30301 35.89434 29.09868
# Shear Modulus (GPa) = 21.63840 30.18002 25.90921
#
# Velocity S-wave (km/s) = 3.34422 3.94950 3.65940
# Velocity P-wave (km/s) = 5.14189 6.27296 5.73538
#
# Compressibility (1/GPa) = 0.04483699
#
# Stress axis : x y z
#
# Youngs Moduli (GPa) = 99.83210 43.19853 40.28082
#
# Poissons Ratio (x) = 0.22636 0.18911
# Poissons Ratio (y) = 0.52311 -0.13524
# Poissons Ratio (z) = 0.46869 -0.14504
#
# Static dielectric constant tensor:
#      x y z
#    x 4.192290 0.000000 -0.376350 
#    y 0.000000 2.935510 0.000000 
#    z -0.376350 0.000000 3.441090 
# 
# 
# High freq. dielectric constant tensor:
#      x y z
#    x 1.785200 0.000000 -0.004330 
#    y 0.000000 1.694200 0.000000 
#    z -0.004330 0.000000 1.759880 
# 
# From -- ./inp_files/62949.got.cif
#   From: 2010.06.25/outbox.cif.g09.slc.cpg/sg13_32_cif.got.tgz:62949.got - 2010.06.28 04:50:58.
