data_PCOD8117925
_publ_section_title
;
Structure prediction by ZEFSAII (Michael W. Deem and Ramdas Pophale) SiO2 
 PCOD8117925
Probable space group: P 2/C
;
_chemical_formula_sum "Si O2"
_cell_formula_units_Z 28
_cell_length_a 9.392260
_cell_length_b 9.371382
_cell_length_c 28.158792
_cell_angle_alpha 90.000000
_cell_angle_beta 142.081247
_cell_angle_gamma 90.000000
_cell_volume 1523.141851
_symmetry_space_group_name_H-M "P 2/C"
_symmetry_group_IT_number 13
_symmetry_cell_setting 'monoclinic'
loop_
_space_group_symop_operation_xyz
x,y,z
-x,y,1/2-z
-x,-y,-z
x,-y,1/2+z
loop_
_atom_site_type_symbol
_atom_site_label
_atom_site_fract_x
_atom_site_fract_y
_atom_site_fract_z
Si Si1 0.967163 0.209089 0.390953
Si Si2 0.413904 0.606561 0.673854
Si Si3 0.602063 0.953039 0.478130
Si Si4 0.827525 0.779231 0.747987
Si Si5 0.429381 0.719505 0.177131
Si Si6 0.747382 0.905458 0.197254
Si Si7 0.965300 0.063002 0.939092
O O1 0.845173 0.326428 0.393061
O O2 0.952540 0.246391 0.331349
O O3 0.240333 0.191685 0.476242
O O4 0.846396 0.056170 0.372877
O O5 0.500000 0.625824 0.750000
O O6 0.590705 0.686635 0.684417
O O7 0.398838 0.443608 0.653472
O O8 0.768312 0.087117 0.507458
O O9 0.500000 0.000000 0.500000
O O10 0.396655 0.925170 0.388248
O O11 0.000000 0.735387 0.750000
O O12 0.761382 0.944714 0.727897
O O13 0.500000 0.732245 0.250000
O O14 0.634552 0.788186 0.201080
O O15 0.184810 0.794594 0.101742
O O16 0.000000 0.847735 0.250000
O O17 0.000000 0.000000 0.000000
#
# Coordination Sequence:
#
# PCOD8117925 Si02
#       7
#     4   4   4   4   4   4   4
#     4   9  19  36  56  81 111 148 187 231 275 334
#     4   9  20  35  55  82 114 150 188 231 270 333
#     4  10  21  36  57  83 116 142 181 237 286 321
#     4  10  19  34  58  84 111 150 192 230 277 333
#     4  11  21  36  58  87 116 147 187 229 284 327
#     4  11  22  35  57  87 113 143 188 233 282 336
#     4  10  20  37  58  84 113 146 183 236 275 333
#
# _framework density 18.383054000000001
#
# number of rings (size 3 to 8) (size 9 to 14) (size 15 to 20)
#    0.857    1.143    1.429    3.429    2.000    1.714 
#    0.000    2.857    0.000    0.857    0.000    0.000 
#    0.000    0.000    0.000    0.000    0.000    0.000 
#
# Total GULP energy -346893.362895 kJ/mol
# GULP energy per Si atom -12389.048675 kJ/mol
# Density = 1.834121 g / cm^3
# Si number density = 18.383054 Si / 1000 Ang^3
#
#
#
# Elastic Constant Matrix: (Units=GPa)
#
#
# Indices 1 2 3 4 5 6 
#
# 1 151.9552 56.3469 41.4239 0.0000 24.5511 0.0000
# 2 56.3469 93.9855 20.7467 0.0000 19.8733 0.0000
# 3 41.4239 20.7467 87.3557 0.0000 21.1467 0.0000
# 4 0.0000 0.0000 0.0000 15.0898 0.0000 -1.6163
# 5 24.5511 19.8733 21.1467 0.0000 34.1285 0.0000
# 6 0.0000 0.0000 0.0000 -1.6163 0.0000 20.9445
#
#
#
# Elastic Compliance Matrix: (Units=1/GPa)
#
#
# Indices 1 2 3 4 5 6 
#
# 1 0.009408 -0.004513 -0.002808 0.000000 -0.002400 0.000000
# 2 -0.004513 0.014441 -0.000047 0.000000 -0.005134 0.000000
# 3 -0.002808 -0.000047 0.014464 0.000000 -0.006915 0.000000
# 4 0.000000 0.000000 0.000000 0.066822 0.000000 0.005157
# 5 -0.002400 -0.005134 -0.006915 0.000000 0.038301 0.000000
# 6 0.000000 0.000000 0.000000 0.005157 0.000000 0.048143
#
#
# Mechanical properties :
#
#
# Convention : Reuss Voigt Hill
#
# Bulk Modulus (GPa) = 42.41463 63.37014 52.89239
# Shear Modulus (GPa) = 23.34534 28.35114 25.84824
#
# Velocity S-wave (km/s) = 3.56749 3.93140 3.75386
# Velocity P-wave (km/s) = 6.33183 7.42663 6.90097
#
# Compressibility (1/GPa) = 0.02357677
#
# Stress axis : x y z
#
# Youngs Moduli (GPa) = 106.29749 69.24528 69.13601
#
# Poissons Ratio (x) = 0.31249 0.19416
# Poissons Ratio (y) = 0.47970 0.00325
# Poissons Ratio (z) = 0.29853 0.00326
#
# Static dielectric constant tensor:
#      x y z
#    x 3.515010 0.000000 -0.034560 
#    y 0.000000 3.247770 0.000000 
#    z -0.034560 0.000000 2.812390 
# 
# 
# High freq. dielectric constant tensor:
#      x y z
#    x 1.731490 0.000000 0.002990 
#    y 0.000000 1.682020 0.000000 
#    z 0.002990 0.000000 1.708060 
# 
# From -- ./inp_files/95972.got.cif
#   From: 2010.06.25/outbox.cif.g09.slc.cpg/sg13_48_cif.got.tgz:95972.got - 2010.06.28 04:50:58.
