data_PCOD8117653
_publ_section_title
;
Structure prediction by ZEFSAII (Michael W. Deem and Ramdas Pophale) SiO2 
 PCOD8117653
Probable space group: P 2/C
;
_chemical_formula_sum "Si O2"
_cell_formula_units_Z 32
_cell_length_a 21.895366
_cell_length_b 13.397386
_cell_length_c 18.790895
_cell_angle_alpha 90.000000
_cell_angle_beta 19.673572
_cell_angle_gamma 90.000000
_cell_volume 1855.720254
_symmetry_space_group_name_H-M "P 2/C"
_symmetry_group_IT_number 13
_symmetry_cell_setting 'monoclinic'
loop_
_space_group_symop_operation_xyz
x,y,z
-x,y,1/2-z
-x,-y,-z
x,-y,1/2+z
loop_
_atom_site_type_symbol
_atom_site_label
_atom_site_fract_x
_atom_site_fract_y
_atom_site_fract_z
Si Si1 0.727860 0.950910 0.181420
Si Si2 0.691428 0.127647 0.569293
Si Si3 0.734414 0.548905 0.174281
Si Si4 0.119528 0.371988 0.279760
Si Si5 0.633187 0.136748 0.368258
Si Si6 0.791206 0.654827 0.970279
Si Si7 0.620511 0.365265 0.376985
Si Si8 0.095420 0.140121 0.304478
O O1 0.746968 0.938593 0.075865
O O2 0.572617 0.879185 0.382258
O O3 0.685125 0.066531 0.244982
O O4 0.910703 0.919088 0.021252
O O5 0.500000 0.089940 0.750000
O O6 0.674359 0.244606 0.609852
O O7 0.839551 0.111802 0.345815
O O8 0.676604 0.433472 0.248143
O O9 0.591012 0.619656 0.372442
O O10 0.730935 0.573004 0.094096
O O11 0.935653 0.563845 0.985461
O O12 0.232434 0.391256 0.082705
O O13 0.255134 0.401854 0.193730
O O14 0.058121 0.257375 0.350760
O O15 0.658832 0.250672 0.315398
O O16 0.757236 0.107495 0.299262
O O17 0.000000 0.686601 0.750000
#
# Coordination Sequence:
#
# PCOD8117653 Si02
#       8
#     4   4   4   4   4   4   4   4
#     4  11  20  33  51  74 104 133 162 206 250 295
#     4  11  19  30  51  78 101 125 161 207 255 297
#     4  10  19  31  49  74 100 129 160 197 247 294
#     4   9  18  31  50  74  99 124 154 206 249 288
#     4  10  21  34  50  75 100 135 169 201 244 294
#     4   9  18  30  48  75  98 125 155 202 257 290
#     4  10  20  32  49  73  98 131 164 197 239 291
#     4  10  19  33  52  77 102 125 163 205 255 297
#
# _framework density 17.243977999999998
#
# number of rings (size 3 to 8) (size 9 to 14) (size 15 to 20)
#    0.000    2.000    1.250    4.875    3.500    0.000 
#    0.000    0.000    0.000    4.500    6.500    0.000 
#    0.000    0.000    0.000    0.000    0.000    0.000 
#
# Total GULP energy -396835.424451 kJ/mol
# GULP energy per Si atom -12401.107014 kJ/mol
# Density = 1.720473 g / cm^3
# Si number density = 17.243978 Si / 1000 Ang^3
#
#
#
# Elastic Constant Matrix: (Units=GPa)
#
#
# Indices 1 2 3 4 5 6 
#
# 1 77.1777 46.9656 31.9946 0.0000 8.0075 0.0000
# 2 46.9656 83.2712 42.4323 0.0000 4.6159 0.0000
# 3 31.9946 42.4323 84.8693 0.0000 -0.7587 0.0000
# 4 0.0000 0.0000 0.0000 22.5861 0.0000 4.7923
# 5 8.0075 4.6159 -0.7587 0.0000 21.1958 0.0000
# 6 0.0000 0.0000 0.0000 4.7923 0.0000 22.6995
#
#
#
# Elastic Compliance Matrix: (Units=1/GPa)
#
#
# Indices 1 2 3 4 5 6 
#
# 1 0.020815 -0.009920 -0.002939 0.000000 -0.005808 0.000000
# 2 -0.009920 0.021154 -0.006847 0.000000 -0.001104 0.000000
# 3 -0.002939 -0.006847 0.016342 0.000000 0.003186 0.000000
# 4 0.000000 0.000000 0.000000 0.046351 0.000000 -0.009786
# 5 -0.005808 -0.001104 0.003186 0.000000 0.049728 0.000000
# 6 0.000000 0.000000 0.000000 -0.009786 0.000000 0.046120
#
#
# Mechanical properties :
#
#
# Convention : Reuss Voigt Hill
#
# Bulk Modulus (GPa) = 52.91058 54.23369 53.57213
# Shear Modulus (GPa) = 20.30688 21.55800 20.93244
#
# Velocity S-wave (km/s) = 3.43537 3.53962 3.48788
# Velocity P-wave (km/s) = 6.81805 6.94437 6.88150
#
# Compressibility (1/GPa) = 0.01889981
#
# Stress axis : x y z
#
# Youngs Moduli (GPa) = 48.04233 47.27244 61.19063
#
# Poissons Ratio (x) = 0.46895 0.17984
# Poissons Ratio (y) = 0.47659 0.41894
# Poissons Ratio (z) = 0.14120 0.32365
#
# Static dielectric constant tensor:
#      x y z
#    x 3.322440 0.000000 -0.062480 
#    y 0.000000 2.980060 0.000000 
#    z -0.062480 0.000000 3.264470 
# 
# 
# High freq. dielectric constant tensor:
#      x y z
#    x 1.663590 0.000000 -0.013300 
#    y 0.000000 1.635280 0.000000 
#    z -0.013300 0.000000 1.676270 
# 
# From -- ./inp_files/70768.got.cif
#   From: 2010.06.25/outbox.cif.g09.slc.cpg/sg13_36_cif.got.tgz:70768.got - 2010.06.28 04:50:58.
