data_PCOD8117184
_publ_section_title
;
Structure prediction by ZEFSAII (Michael W. Deem and Ramdas Pophale) SiO2 
 PCOD8117184
Probable space group: P 2/C
;
_chemical_formula_sum "Si O2"
_cell_formula_units_Z 18
_cell_length_a 9.285506
_cell_length_b 7.791197
_cell_length_c 17.320714
_cell_angle_alpha 90.000000
_cell_angle_beta 49.641846
_cell_angle_gamma 90.000000
_cell_volume 954.854180
_symmetry_space_group_name_H-M "P 2/C"
_symmetry_group_IT_number 13
_symmetry_cell_setting 'monoclinic'
loop_
_space_group_symop_operation_xyz
x,y,z
-x,y,1/2-z
-x,-y,-z
x,-y,1/2+z
loop_
_atom_site_type_symbol
_atom_site_label
_atom_site_fract_x
_atom_site_fract_y
_atom_site_fract_z
Si Si1 0.586119 0.366730 0.297942
Si Si2 0.000000 0.112555 0.750000
Si Si3 0.337144 0.877989 0.584929
Si Si4 0.041952 0.440232 0.818206
Si Si5 0.656635 0.553939 0.007418
O O1 0.500000 0.283677 0.250000
O O2 0.608521 0.219723 0.354635
O O3 0.782463 0.459110 0.206298
O O4 0.439481 0.515470 0.376896
O O5 0.912178 0.238165 0.713886
O O6 0.844515 0.992972 0.840738
O O7 0.294890 0.751419 0.527527
O O8 0.500000 0.000000 0.500000
O O9 0.000000 0.532763 0.750000
O O10 0.852850 0.448456 0.935503
O O11 0.500000 0.500000 0.000000
#
# Coordination Sequence:
#
# PCOD8117184 Si02
#       5
#     4   2   4   4   4
#     4  11  23  38  57  86 118 149 188 240 287 330
#     4  10  18  32  58  88 106 138 196 240 268 322
#     4  11  19  33  58  85 111 148 190 233 278 342
#     4  10  18  36  61  85 106 151 203 228 268 338
#     4  10  18  35  58  81 107 151 198 227 266 343
#
# _framework density 18.851046
#
# number of rings (size 3 to 8) (size 9 to 14) (size 15 to 20)
#    0.667    0.889    4.444    5.333    0.000    0.889 
#    0.000    4.444    0.000    5.333    0.000    0.000 
#    0.000    0.000    0.000    0.000    0.000    0.000 
#
# Total GULP energy -223021.073913 kJ/mol
# GULP energy per Si atom -12390.059662 kJ/mol
# Density = 1.880814 g / cm^3
# Si number density = 18.851046 Si / 1000 Ang^3
#
#
#
# Elastic Constant Matrix: (Units=GPa)
#
#
# Indices 1 2 3 4 5 6 
#
# 1 66.0439 22.4052 32.3777 0.0000 -1.9211 0.0000
# 2 22.4052 105.3284 30.6216 0.0000 -7.9982 0.0000
# 3 32.3777 30.6216 102.3370 0.0000 -31.8893 0.0000
# 4 0.0000 0.0000 0.0000 41.3970 0.0000 -11.4574
# 5 -1.9211 -7.9982 -31.8893 0.0000 37.4752 0.0000
# 6 0.0000 0.0000 0.0000 -11.4574 0.0000 16.7537
#
#
#
# Elastic Compliance Matrix: (Units=1/GPa)
#
#
# Indices 1 2 3 4 5 6 
#
# 1 0.019300 -0.002463 -0.007110 0.000000 -0.005587 0.000000
# 2 -0.002463 0.010722 -0.002389 0.000000 0.000129 0.000000
# 3 -0.007110 -0.002389 0.016961 0.000000 0.013559 0.000000
# 4 0.000000 0.000000 0.000000 0.029796 0.000000 0.020377
# 5 -0.005587 0.000129 0.013559 0.000000 0.037963 0.000000
# 6 0.000000 0.000000 0.000000 0.020377 0.000000 0.073624
#
#
# Mechanical properties :
#
#
# Convention : Reuss Voigt Hill
#
# Bulk Modulus (GPa) = 43.36527 49.39093 46.37810
# Shear Modulus (GPa) = 22.72973 31.67883 27.20428
#
# Velocity S-wave (km/s) = 3.47616 4.10381 3.80296
# Velocity P-wave (km/s) = 6.25825 6.97944 6.62866
#
# Compressibility (1/GPa) = 0.02305993
#
# Stress axis : x y z
#
# Youngs Moduli (GPa) = 51.81313 93.26356 58.95880
#
# Poissons Ratio (x) = 0.22967 0.41921
# Poissons Ratio (y) = 0.12759 0.14085
# Poissons Ratio (z) = 0.36840 0.22280
#
# Static dielectric constant tensor:
#      x y z
#    x 3.112060 0.000000 -0.104390 
#    y 0.000000 3.650760 0.000000 
#    z -0.104390 0.000000 3.730800 
# 
# 
# High freq. dielectric constant tensor:
#      x y z
#    x 1.694820 0.000000 -0.030570 
#    y 0.000000 1.727530 0.000000 
#    z -0.030570 0.000000 1.745560 
# 
# From -- ./inp_files/52535.got.cif
#   From: 2010.06.25/outbox.cif.g09.slc.cpg/sg13_27_cif.got.tgz:52535.got - 2010.06.28 04:50:58.
