data_PCOD8117931
_publ_section_title
;
Structure prediction by ZEFSAII (Michael W. Deem and Ramdas Pophale) SiO2 
 PCOD8117931
Probable space group: P 2/C
;
_chemical_formula_sum "Si O2"
_cell_formula_units_Z 32
_cell_length_a 17.838690
_cell_length_b 12.025906
_cell_length_c 15.603981
_cell_angle_alpha 90.000000
_cell_angle_beta 28.987298
_cell_angle_gamma 90.000000
_cell_volume 1622.234626
_symmetry_space_group_name_H-M "P 2/C"
_symmetry_group_IT_number 13
_symmetry_cell_setting 'monoclinic'
loop_
_space_group_symop_operation_xyz
x,y,z
-x,y,1/2-z
-x,-y,-z
x,-y,1/2+z
loop_
_atom_site_type_symbol
_atom_site_label
_atom_site_fract_x
_atom_site_fract_y
_atom_site_fract_z
Si Si1 0.683318 0.998445 0.470866
Si Si2 0.317899 0.762029 0.279167
Si Si3 0.316691 0.001555 0.337493
Si Si4 0.682105 0.762031 0.914961
Si Si5 0.180330 0.623826 0.569669
Si Si6 0.316672 0.764089 0.089789
Si Si7 0.316674 0.235912 0.276863
Si Si8 0.683397 0.381534 0.066604
O O1 0.750928 0.006076 0.499074
O O2 0.500003 0.989952 0.657269
O O3 0.751333 0.888091 0.357582
O O4 0.732346 0.108907 0.370860
O O5 0.224681 0.690384 0.440335
O O6 0.271732 0.721659 0.229793
O O7 0.267662 0.891094 0.335543
O O8 0.500001 0.747584 0.115759
O O9 0.248673 0.111908 0.360241
O O10 0.775319 0.690380 0.889697
O O11 0.728269 0.721659 0.773257
O O12 0.267763 0.508000 0.482237
O O13 0.000000 0.600528 0.750000
O O14 0.499999 0.769994 0.898599
O O15 0.250194 0.679637 0.084811
O O16 0.250193 0.320361 0.414802
O O17 0.500000 0.375032 0.250000
#
# Coordination Sequence:
#
# PCOD8117931 Si02
#       8
#     4   4   4   4   4   4   4   4
#     4   9  14  25  51  88 121 142 164 208 267 322
#     4  10  19  34  58  87 113 142 177 218 267 326
#     4   9  14  25  51  88 121 142 164 208 267 322
#     4  10  19  34  58  87 113 142 177 218 267 326
#     4  12  26  41  54  72 104 147 191 236 275 316
#     4   9  17  30  55  89 118 139 171 219 271 322
#     4   9  17  30  55  89 118 139 171 219 271 322
#     4  10  20  37  58  80 108 143 183 228 269 316
#
# _framework density 19.725876
#
# number of rings (size 3 to 8) (size 9 to 14) (size 15 to 20)
#    0.000    2.250    2.500    1.875    0.000    4.000 
#    0.000    6.250    0.000    6.000    0.000    0.000 
#    0.000    0.000    0.000    0.000    0.000    0.000 
#
# Total GULP energy -396686.939803 kJ/mol
# GULP energy per Si atom -12396.466869 kJ/mol
# Density = 1.968098 g / cm^3
# Si number density = 19.725876 Si / 1000 Ang^3
#
#
#
# Elastic Constant Matrix: (Units=GPa)
#
#
# Indices 1 2 3 4 5 6 
#
# 1 93.4879 37.2133 35.7204 0.0000 46.0655 0.0000
# 2 37.2133 110.0759 12.9686 0.0000 24.7356 0.0000
# 3 35.7204 12.9686 26.3368 0.0000 22.4545 0.0000
# 4 0.0000 0.0000 0.0000 -3.1076 0.0000 1.3604
# 5 46.0655 24.7356 22.4545 0.0000 30.4024 0.0000
# 6 0.0000 0.0000 0.0000 1.3604 0.0000 -1.7750
#
#
#
# Elastic Compliance Matrix: (Units=1/GPa)
#
#
# Indices 1 2 3 4 5 6 
#
# 1 0.042754 -0.000322 -0.007617 0.000000 -0.058893 0.000000
# 2 -0.000322 0.011487 0.006300 0.000000 -0.013511 0.000000
# 3 -0.007617 0.006300 0.107290 0.000000 -0.072826 0.000000
# 4 0.000000 0.000000 0.000000 -0.484258 0.000000 -0.371146
# 5 -0.058893 -0.013511 -0.072826 0.000000 0.186906 0.000000
# 6 0.000000 0.000000 0.000000 -0.371146 0.000000 -0.847841
#
#
# Mechanical properties :
#
#
# Convention : Reuss Voigt Hill
#
# Bulk Modulus (GPa) = 6.31905 44.63392 25.47648
# Shear Modulus (GPa) = -5.39007 14.70384 4.65688
#
# Velocity S-wave (km/s) = -1.65482 2.73318 1.53816
# Velocity P-wave (km/s) = 0.66396 5.71284 4.01221
#
# Compressibility (1/GPa) = 0.15825174
#
# Stress axis : x y z
#
# Youngs Moduli (GPa) = 23.38948 87.05130 9.32057
#
# Poissons Ratio (x) = 0.02807 0.07100
# Poissons Ratio (y) = 0.00754 -0.05872
# Poissons Ratio (z) = 0.17816 -0.54841
#
# Static dielectric constant tensor:
#      x y z
#    x 3.627370 0.000000 0.444110 
#    y 0.000000 3.679240 0.000000 
#    z 0.444110 0.000000 3.192080 
# 
# 
# High freq. dielectric constant tensor:
#      x y z
#    x 1.762670 0.000000 0.041580 
#    y 0.000000 1.772220 0.000000 
#    z 0.041580 0.000000 1.721920 
# 
# From -- ./inp_files/55799.got.cif
#   From: 2010.06.25/outbox.cif.g09.slc.cpg/sg13_28_cif.got.tgz:55799.got - 2010.06.28 04:50:58.
