data_PCOD8117543
_publ_section_title
;
Structure prediction by ZEFSAII (Michael W. Deem and Ramdas Pophale) SiO2 
 PCOD8117543
Probable space group: P 2/C
;
_chemical_formula_sum "Si O2"
_cell_formula_units_Z 32
_cell_length_a 13.130419
_cell_length_b 8.583440
_cell_length_c 15.383992
_cell_angle_alpha 90.000000
_cell_angle_beta 58.045084
_cell_angle_gamma 90.000000
_cell_volume 1471.102182
_symmetry_space_group_name_H-M "P 2/C"
_symmetry_group_IT_number 13
_symmetry_cell_setting 'monoclinic'
loop_
_space_group_symop_operation_xyz
x,y,z
-x,y,1/2-z
-x,-y,-z
x,-y,1/2+z
loop_
_atom_site_type_symbol
_atom_site_label
_atom_site_fract_x
_atom_site_fract_y
_atom_site_fract_z
Si Si1 0.868251 0.337529 0.272448
Si Si2 0.599974 0.295454 0.640864
Si Si3 0.016524 0.353102 0.050710
Si Si4 0.763224 0.016269 0.299154
Si Si5 0.499901 0.992473 0.601261
Si Si6 0.827592 0.102493 0.590477
Si Si7 0.761907 0.500110 0.961004
Si Si8 0.741968 0.855707 0.492180
O O1 0.815335 0.169704 0.320548
O O2 0.774272 0.471324 0.350199
O O3 0.000000 0.362834 0.250000
O O4 0.888862 0.340602 0.158933
O O5 0.500000 0.369448 0.750000
O O6 0.714584 0.221214 0.638208
O O7 0.638921 0.432688 0.556890
O O8 0.530421 0.162524 0.621146
O O9 0.131443 0.384573 0.059045
O O10 0.047640 0.193957 0.985204
O O11 0.000000 0.500000 0.000000
O O12 0.634731 0.053840 0.310274
O O13 0.844080 0.955084 0.182686
O O14 0.757026 0.898049 0.383284
O O15 0.601838 0.869427 0.584745
O O16 0.500000 0.000000 0.500000
O O17 0.817723 0.962757 0.524172
O O18 0.782723 0.323385 0.981846
#
# Coordination Sequence:
#
# PCOD8117543 Si02
#       8
#     4   4   4   4   4   4   4   4
#     4  10  22  43  61  84 122 170 207 260 328 366
#     4  10  18  38  62  88 128 165 200 251 321 382
#     4  10  23  42  62  87 123 163 208 265 317 373
#     4  11  21  39  66  91 121 163 215 256 313 379
#     4   9  18  36  61  89 120 159 203 251 307 374
#     4  10  22  40  66  92 124 163 211 260 315 376
#     4  10  22  41  62  86 128 169 202 258 324 378
#     4  10  22  39  61  95 127 158 211 259 308 384
#
# _framework density 21.752397999999999
#
# number of rings (size 3 to 8) (size 9 to 14) (size 15 to 20)
#    0.000    2.000    1.250    3.750    3.500    0.500 
#    4.500    5.625    0.000    0.000    0.000    0.000 
#    0.000    0.000    0.000    0.000    0.000    0.000 
#
# Total GULP energy -396467.288187 kJ/mol
# GULP energy per Si atom -12389.602756 kJ/mol
# Density = 2.170289 g / cm^3
# Si number density = 21.752398 Si / 1000 Ang^3
#
#
#
# Elastic Constant Matrix: (Units=GPa)
#
#
# Indices 1 2 3 4 5 6 
#
# 1 19.4992 3.3417 28.8307 0.0000 -6.3385 0.0000
# 2 3.3417 113.1067 66.4483 0.0000 -16.9850 0.0000
# 3 28.8307 66.4483 158.2316 0.0000 -15.9362 0.0000
# 4 0.0000 0.0000 0.0000 29.5500 0.0000 8.0914
# 5 -6.3385 -16.9850 -15.9362 0.0000 28.8183 0.0000
# 6 0.0000 0.0000 0.0000 8.0914 0.0000 20.2152
#
#
#
# Elastic Compliance Matrix: (Units=1/GPa)
#
#
# Indices 1 2 3 4 5 6 
#
# 1 0.079575 0.009850 -0.017249 0.000000 0.013769 0.000000
# 2 0.009850 0.013518 -0.006831 0.000000 0.006356 0.000000
# 3 -0.017249 -0.006831 0.012225 0.000000 -0.001060 0.000000
# 4 0.000000 0.000000 0.000000 0.038006 0.000000 -0.015213
# 5 0.013769 0.006356 -0.001060 0.000000 0.040889 0.000000
# 6 0.000000 0.000000 0.000000 -0.015213 0.000000 0.055557
#
#
# Mechanical properties :
#
#
# Convention : Reuss Voigt Hill
#
# Bulk Modulus (GPa) = 13.01102 54.23099 33.62101
# Shear Modulus (GPa) = 17.01550 28.53115 22.77333
#
# Velocity S-wave (km/s) = 2.79988 3.62558 3.23915
# Velocity P-wave (km/s) = 4.05547 6.52009 5.42948
#
# Compressibility (1/GPa) = 0.07685790
#
# Stress axis : x y z
#
# Youngs Moduli (GPa) = 12.56669 73.97561 81.80156
#
# Poissons Ratio (x) = -0.72866 1.41098
# Poissons Ratio (y) = -0.12378 0.55882
# Poissons Ratio (z) = 0.21676 0.50535
#
# Static dielectric constant tensor:
#      x y z
#    x 6.292630 0.000000 0.701580 
#    y 0.000000 3.637300 0.000000 
#    z 0.701580 0.000000 5.515270 
# 
# 
# High freq. dielectric constant tensor:
#      x y z
#    x 1.833180 0.000000 -0.008040 
#    y 0.000000 1.836230 0.000000 
#    z -0.008040 0.000000 1.878510 
# 
# From -- ./inp_files/53035.got.cif
#   From: 2010.06.25/outbox.cif.g09.slc.cpg/sg13_27_cif.got.tgz:53035.got - 2010.06.28 04:50:58.
