data_PCOD8117127
_publ_section_title
;
Structure prediction by ZEFSAII (Michael W. Deem and Ramdas Pophale) SiO2 
 PCOD8117127
Probable space group: P 2/C
;
_chemical_formula_sum "Si O2"
_cell_formula_units_Z 30
_cell_length_a 11.428620
_cell_length_b 14.769703
_cell_length_c 9.325997
_cell_angle_alpha 90.000000
_cell_angle_beta 104.894586
_cell_angle_gamma 90.000000
_cell_volume 1521.310683
_symmetry_space_group_name_H-M "P 2/C"
_symmetry_group_IT_number 13
_symmetry_cell_setting 'monoclinic'
loop_
_space_group_symop_operation_xyz
x,y,z
-x,y,1/2-z
-x,-y,-z
x,-y,1/2+z
loop_
_atom_site_type_symbol
_atom_site_label
_atom_site_fract_x
_atom_site_fract_y
_atom_site_fract_z
Si Si1 0.641345 0.602843 0.279498
Si Si2 0.500000 0.343946 0.250000
Si Si3 0.318710 0.804845 0.677116
Si Si4 0.138238 0.277407 0.329059
Si Si5 0.258944 0.210016 0.632671
Si Si6 0.319809 0.561409 0.892707
Si Si7 0.678852 0.916079 0.096355
Si Si8 0.403210 0.104044 0.463834
O O1 0.500000 0.617952 0.250000
O O2 0.702119 0.700273 0.270241
O O3 0.677162 0.552828 0.436679
O O4 0.695566 0.539882 0.171550
O O5 0.611630 0.285938 0.350278
O O6 0.553062 0.402882 0.135476
O O7 0.197692 0.791131 0.733155
O O8 0.276835 0.859798 0.525499
O O9 0.415762 0.859988 0.805515
O O10 0.144054 0.235640 0.494269
O O11 0.207676 0.372237 0.326130
O O12 0.000000 0.294407 0.250000
O O13 0.249505 0.125381 0.742358
O O14 0.360555 0.186913 0.548122
O O15 0.698676 0.023031 0.071529
O O16 0.533597 0.918259 0.072043
#
# Coordination Sequence:
#
# PCOD8117127 Si02
#       8
#     4   2   4   4   4   4   4   4
#     4  11  21  33  52  83 120 147 180 223 288 344
#     4  10  18  32  50  78 112 138 186 212 282 338
#     4  10  19  31  56  79 109 149 189 226 273 349
#     4   9  21  43  60  73 107 156 198 240 290 334
#     4  10  22  34  55  83 112 152 192 235 281 335
#     4  10  22  34  54  82 109 149 182 230 277 347
#     4  11  19  30  54  86 118 149 183 228 275 347
#     4  10  19  33  49  82 127 155 172 212 293 354
#
# _framework density 19.719836000000001
#
# number of rings (size 3 to 8) (size 9 to 14) (size 15 to 20)
#    0.000    1.867    2.000    3.200    1.867    3.200 
#    0.000    3.333    0.000   12.800    0.000    0.000 
#    0.000    0.000    0.000    0.000    0.000    0.000 
#
# Total GULP energy -371668.286510 kJ/mol
# GULP energy per Si atom -12388.942884 kJ/mol
# Density = 1.967495 g / cm^3
# Si number density = 19.719836 Si / 1000 Ang^3
#
#
#
# Elastic Constant Matrix: (Units=GPa)
#
#
# Indices 1 2 3 4 5 6 
#
# 1 53.2037 10.5460 16.3974 0.0000 13.3979 0.0000
# 2 10.5460 92.0309 21.8026 0.0000 0.8866 0.0000
# 3 16.3974 21.8026 76.2815 0.0000 2.7816 0.0000
# 4 0.0000 0.0000 0.0000 30.1489 0.0000 -3.0633
# 5 13.3979 0.8866 2.7816 0.0000 24.3916 0.0000
# 6 0.0000 0.0000 0.0000 -3.0633 0.0000 -18.1734
#
#
#
# Elastic Compliance Matrix: (Units=1/GPa)
#
#
# Indices 1 2 3 4 5 6 
#
# 1 0.023507 -0.001592 -0.004147 0.000000 -0.012381 0.000000
# 2 -0.001592 0.011763 -0.003049 0.000000 0.000795 0.000000
# 3 -0.004147 -0.003049 0.014847 0.000000 0.000695 0.000000
# 4 0.000000 0.000000 0.000000 0.032610 0.000000 -0.005497
# 5 -0.012381 0.000795 0.000695 0.000000 0.047690 0.000000
# 6 0.000000 0.000000 0.000000 -0.005497 0.000000 -0.054099
#
#
# Mechanical properties :
#
#
# Convention : Reuss Voigt Hill
#
# Bulk Modulus (GPa) = 30.72956 35.44534 33.08745
# Shear Modulus (GPa) = 47.73687 18.79142 33.26415
#
# Velocity S-wave (km/s) = 4.92545 3.09029 4.11157
# Velocity P-wave (km/s) = 6.92558 5.54497 6.27337
#
# Compressibility (1/GPa) = 0.03254196
#
# Stress axis : x y z
#
# Youngs Moduli (GPa) = 42.54025 85.01250 67.35493
#
# Poissons Ratio (x) = 0.13535 0.27929
# Poissons Ratio (y) = 0.06773 0.20535
# Poissons Ratio (z) = 0.17640 0.25919
#
# Static dielectric constant tensor:
#      x y z
#    x 3.018590 0.000000 -0.071610 
#    y 0.000000 3.882230 0.000000 
#    z -0.071610 0.000000 3.724040 
# 
# 
# High freq. dielectric constant tensor:
#      x y z
#    x 1.703720 0.000000 -0.017630 
#    y 0.000000 1.783710 0.000000 
#    z -0.017630 0.000000 1.772670 
# 
# From -- ./inp_files/16815.got.cif
#   From: 2010.06.25/outbox.cif.g09.slc.cpg/sg13_9_cif.got.tgz:16815.got - 2010.06.28 04:50:58.
