data_PCOD8117635
_publ_section_title
;
Structure prediction by ZEFSAII (Michael W. Deem and Ramdas Pophale) SiO2 
 PCOD8117635
Probable space group: P 2/C
;
_chemical_formula_sum "Si O2"
_cell_formula_units_Z 28
_cell_length_a 21.611160
_cell_length_b 11.373816
_cell_length_c 19.970695
_cell_angle_alpha 90.000000
_cell_angle_beta 160.919105
_cell_angle_gamma 90.000000
_cell_volume 1604.708252
_symmetry_space_group_name_H-M "P 2/C"
_symmetry_group_IT_number 13
_symmetry_cell_setting 'monoclinic'
loop_
_space_group_symop_operation_xyz
x,y,z
-x,y,1/2-z
-x,-y,-z
x,-y,1/2+z
loop_
_atom_site_type_symbol
_atom_site_label
_atom_site_fract_x
_atom_site_fract_y
_atom_site_fract_z
Si Si1 0.936028 0.509347 0.509674
Si Si2 0.238308 0.321005 0.344096
Si Si3 0.204772 0.264205 0.154178
Si Si4 0.567539 0.876676 0.040538
Si Si5 0.334511 0.281837 0.735995
Si Si6 0.017466 0.145045 0.344825
Si Si7 0.056069 0.056081 0.627998
O O1 0.841507 0.384731 0.433771
O O2 0.769944 0.602385 0.346579
O O3 0.000000 0.500000 0.500000
O O4 0.126270 0.554866 0.743784
O O5 0.193292 0.279887 0.222502
O O6 0.463255 0.325995 0.585501
O O7 0.158783 0.225231 0.313806
O O8 0.406446 0.204878 0.341802
O O9 0.045085 0.178727 0.964965
O O10 0.658105 0.804663 0.193758
O O11 0.721728 0.911496 0.142384
O O12 0.500000 0.000000 0.000000
O O13 0.215836 0.214046 0.557760
O O14 0.000000 0.110548 0.250000
O O15 0.007744 0.026054 0.376917
O O16 0.000000 0.000000 0.500000
#
# Coordination Sequence:
#
# PCOD8117635 Si02
#       7
#     4   4   4   4   4   4   4
#     4   9  18  30  47  78 110 135 167 216 266 320
#     4   9  18  33  52  76 106 138 173 217 273 331
#     4  10  19  30  51  80 108 134 173 220 268 320
#     4  11  18  28  50  76 102 138 177 215 266 322
#     4  10  19  33  52  74 108 141 173 218 276 328
#     4  11  22  35  52  78 106 138 182 230 274 325
#     4  12  18  33  53  72 105 144 178 220 271 325
#
# _framework density 17.448654999999999
#
# number of rings (size 3 to 8) (size 9 to 14) (size 15 to 20)
#    0.000    1.714    4.286    2.571    0.000    6.857 
#    0.000    0.000    0.000    3.429    0.000    4.000 
#    0.000    0.000    0.000    0.000    0.000    0.000 
#
# Total GULP energy -346971.197031 kJ/mol
# GULP energy per Si atom -12391.828465 kJ/mol
# Density = 1.740894 g / cm^3
# Si number density = 17.448655 Si / 1000 Ang^3
#
#
#
# Elastic Constant Matrix: (Units=GPa)
#
#
# Indices 1 2 3 4 5 6 
#
# 1 66.5356 42.2634 48.1799 0.0000 7.1885 0.0000
# 2 42.2634 151.8969 66.8525 0.0000 11.4915 0.0000
# 3 48.1799 66.8525 114.6029 0.0000 33.2452 0.0000
# 4 0.0000 0.0000 0.0000 27.3988 0.0000 8.3759
# 5 7.1885 11.4915 33.2452 0.0000 30.1235 0.0000
# 6 0.0000 0.0000 0.0000 8.3759 0.0000 20.9017
#
#
#
# Elastic Compliance Matrix: (Units=1/GPa)
#
#
# Indices 1 2 3 4 5 6 
#
# 1 0.023354 -0.002453 -0.010358 0.000000 0.006794 0.000000
# 2 -0.002453 0.009361 -0.005241 0.000000 0.002799 0.000000
# 3 -0.010358 -0.005241 0.021830 0.000000 -0.019621 0.000000
# 4 0.000000 0.000000 0.000000 0.041593 0.000000 -0.016668
# 5 0.006794 0.002799 -0.019621 0.000000 0.052161 0.000000
# 6 0.000000 0.000000 0.000000 -0.016668 0.000000 0.054522
#
#
# Mechanical properties :
#
#
# Convention : Reuss Voigt Hill
#
# Bulk Modulus (GPa) = 54.23096 71.95855 63.09475
# Shear Modulus (GPa) = 20.40201 27.40078 23.90139
#
# Velocity S-wave (km/s) = 3.42315 3.96708 3.70511
# Velocity P-wave (km/s) = 6.83899 7.89388 7.38529
#
# Compressibility (1/GPa) = 0.01843965
#
# Stress axis : x y z
#
# Youngs Moduli (GPa) = 42.81842 106.82626 45.80941
#
# Poissons Ratio (x) = 0.26207 0.47451
# Poissons Ratio (y) = 0.10504 0.24009
# Poissons Ratio (z) = 0.44353 0.55989
#
# Static dielectric constant tensor:
#      x y z
#    x 2.626370 0.000000 0.477700 
#    y 0.000000 3.476380 0.000000 
#    z 0.477700 0.000000 3.437640 
# 
# 
# High freq. dielectric constant tensor:
#      x y z
#    x 1.628630 0.000000 0.040160 
#    y 0.000000 1.688920 0.000000 
#    z 0.040160 0.000000 1.672630 
# 
# From -- ./inp_files/70674.got.cif
#   From: 2010.06.25/outbox.cif.g09.slc.cpg/sg13_36_cif.got.tgz:70674.got - 2010.06.28 04:50:58.
