data_PCOD8117729
_publ_section_title
;
Structure prediction by ZEFSAII (Michael W. Deem and Ramdas Pophale) SiO2 
 PCOD8117729
Probable space group: P 2/C
;
_chemical_formula_sum "Si O2"
_cell_formula_units_Z 28
_cell_length_a 19.645259
_cell_length_b 9.524001
_cell_length_c 24.945559
_cell_angle_alpha 90.000000
_cell_angle_beta 19.090035
_cell_angle_gamma 90.000000
_cell_volume 1526.473589
_symmetry_space_group_name_H-M "P 2/C"
_symmetry_group_IT_number 13
_symmetry_cell_setting 'monoclinic'
loop_
_space_group_symop_operation_xyz
x,y,z
-x,y,1/2-z
-x,-y,-z
x,-y,1/2+z
loop_
_atom_site_type_symbol
_atom_site_label
_atom_site_fract_x
_atom_site_fract_y
_atom_site_fract_z
Si Si1 0.695151 0.620935 0.828109
Si Si2 0.685966 0.309477 0.821800
Si Si3 0.573816 0.913035 0.042180
Si Si4 0.304294 0.917517 0.428691
Si Si5 0.940564 0.743483 0.734813
Si Si6 0.766793 0.123431 0.206471
Si Si7 0.062002 0.106253 0.533534
O O1 0.720485 0.471492 0.779548
O O2 0.824645 0.621323 0.787993
O O3 0.793509 0.727108 0.713387
O O4 0.458588 0.672077 0.017292
O O5 0.570016 0.225621 0.860076
O O6 0.904172 0.229170 0.670743
O O7 0.613949 0.949678 0.073423
O O8 0.451072 0.050216 0.112900
O O9 0.791621 0.883097 0.849862
O O10 0.500000 0.861610 0.250000
O O11 0.141501 0.789953 0.552172
O O12 0.204958 0.059124 0.477220
O O13 0.000000 0.687707 0.750000
O O14 0.788567 0.153272 0.126680
O O15 0.949813 0.030470 0.094168
#
# Coordination Sequence:
#
# PCOD8117729 Si02
#       7
#     4   4   4   4   4   4   4
#     4  10  19  36  58  80 108 148 178 226 273 323
#     4   9  21  35  56  82 110 138 186 225 272 322
#     4   9  19  34  54  83 108 137 181 233 264 325
#     4  11  19  33  54  77 110 143 180 221 276 313
#     4   9  19  32  54  80 107 141 185 223 272 323
#     4  10  19  32  55  83 107 135 184 222 275 314
#     4  10  20  33  52  82 109 141 176 230 266 323
#
# _framework density 18.342929999999999
#
# number of rings (size 3 to 8) (size 9 to 14) (size 15 to 20)
#    0.000    2.286    2.857    0.000    2.000    2.286 
#    0.000    0.000   12.571    0.857    0.000    0.000 
#    0.000    0.000    0.000    0.000    0.000    0.000 
#
# Total GULP energy -346916.903552 kJ/mol
# GULP energy per Si atom -12389.889413 kJ/mol
# Density = 1.830118 g / cm^3
# Si number density = 18.342930 Si / 1000 Ang^3
#
#
#
# Elastic Constant Matrix: (Units=GPa)
#
#
# Indices 1 2 3 4 5 6 
#
# 1 90.6399 46.5521 21.8685 0.0000 -6.5864 0.0000
# 2 46.5521 109.9466 35.6692 0.0000 3.2928 0.0000
# 3 21.8685 35.6692 96.0017 0.0000 -0.8707 0.0000
# 4 0.0000 0.0000 0.0000 18.6777 0.0000 -1.5311
# 5 -6.5864 3.2928 -0.8707 0.0000 19.8629 0.0000
# 6 0.0000 0.0000 0.0000 -1.5311 0.0000 20.3462
#
#
#
# Elastic Compliance Matrix: (Units=1/GPa)
#
#
# Indices 1 2 3 4 5 6 
#
# 1 0.014863 -0.006127 -0.001056 0.000000 0.005898 0.000000
# 2 -0.006127 0.012939 -0.003451 0.000000 -0.004328 0.000000
# 3 -0.001056 -0.003451 0.011946 0.000000 0.000746 0.000000
# 4 0.000000 0.000000 0.000000 0.053872 0.000000 0.004054
# 5 0.005898 -0.004328 0.000746 0.000000 0.053051 0.000000
# 6 0.000000 0.000000 0.000000 0.004054 0.000000 0.049454
#
#
# Mechanical properties :
#
#
# Convention : Reuss Voigt Hill
#
# Bulk Modulus (GPa) = 54.11228 56.08531 55.09880
# Shear Modulus (GPa) = 22.36614 24.61059 23.48837
#
# Velocity S-wave (km/s) = 3.49568 3.66689 3.58231
# Velocity P-wave (km/s) = 6.77181 6.96925 6.87124
#
# Compressibility (1/GPa) = 0.01848009
#
# Stress axis : x y z
#
# Youngs Moduli (GPa) = 67.28213 77.28711 83.71084
#
# Poissons Ratio (x) = 0.47355 0.08837
# Poissons Ratio (y) = 0.41225 0.28888
# Poissons Ratio (z) = 0.07102 0.26671
#
# Static dielectric constant tensor:
#      x y z
#    x 3.437980 0.000000 -0.038610 
#    y 0.000000 3.145540 0.000000 
#    z -0.038610 0.000000 3.763150 
# 
# 
# High freq. dielectric constant tensor:
#      x y z
#    x 1.704370 0.000000 -0.003210 
#    y 0.000000 1.677360 0.000000 
#    z -0.003210 0.000000 1.721270 
# 
# From -- ./inp_files/70500.got.cif
#   From: 2010.06.25/outbox.cif.g09.slc.cpg/sg13_36_cif.got.tgz:70500.got - 2010.06.28 04:50:58.
