data_PCOD8117219
_publ_section_title
;
Structure prediction by ZEFSAII (Michael W. Deem and Ramdas Pophale) SiO2 
 PCOD8117219
Probable space group: P 2/C
;
_chemical_formula_sum "Si O2"
_cell_formula_units_Z 32
_cell_length_a 13.048574
_cell_length_b 14.446854
_cell_length_c 15.735489
_cell_angle_alpha 90.000000
_cell_angle_beta 146.317891
_cell_angle_gamma 90.000000
_cell_volume 1645.070064
_symmetry_space_group_name_H-M "P 2/C"
_symmetry_group_IT_number 13
_symmetry_cell_setting 'monoclinic'
loop_
_space_group_symop_operation_xyz
x,y,z
-x,y,1/2-z
-x,-y,-z
x,-y,1/2+z
loop_
_atom_site_type_symbol
_atom_site_label
_atom_site_fract_x
_atom_site_fract_y
_atom_site_fract_z
Si Si1 0.509153 0.636612 0.159641
Si Si2 0.328520 0.989287 0.186961
Si Si3 0.543851 0.662597 0.681826
Si Si4 0.187338 0.499554 0.678063
Si Si5 0.670618 0.482224 0.554845
Si Si6 0.080828 0.109439 0.394377
Si Si7 0.288383 0.844768 0.785413
Si Si8 0.550771 0.165844 0.929086
O O1 0.500000 0.668363 0.250000
O O2 0.705424 0.590830 0.278070
O O3 0.505355 0.727419 0.098571
O O4 0.339573 0.565281 0.021373
O O5 0.500000 0.026280 0.250000
O O6 0.275788 0.067948 0.215985
O O7 0.387834 0.894497 0.275305
O O8 0.147051 0.972644 0.003212
O O9 0.500000 0.678047 0.750000
O O10 0.707474 0.590819 0.779820
O O11 0.357994 0.618878 0.508873
O O12 0.612384 0.758683 0.690305
O O13 0.155255 0.491459 0.759909
O O14 0.000000 0.500000 0.500000
O O15 0.500000 0.500000 0.500000
O O16 0.265178 0.168195 0.502469
O O17 0.000000 0.067264 0.250000
O O18 0.923851 0.174292 0.330350
O O19 0.409154 0.874623 0.950077
#
# Coordination Sequence:
#
# PCOD8117219 Si02
#       8
#     4   4   4   4   4   4   4   4
#     4  10  18  33  54  75 102 136 169 210 264 315
#     4  10  20  35  55  81 107 138 177 218 267 326
#     4  10  20  36  54  76 108 145 179 213 256 318
#     4  10  20  34  54  79 103 133 176 223 263 307
#     4   8  16  33  53  74 101 137 172 210 258 311
#     4   9  20  35  53  78 109 137 175 230 273 305
#     4  11  20  35  56  78 106 144 179 214 265 321
#     4  10  20  35  55  81 107 136 177 224 266 315
#
# _framework density 19.452058999999998
#
# number of rings (size 3 to 8) (size 9 to 14) (size 15 to 20)
#    0.000    2.500    0.000    6.000    0.000    2.000 
#    0.000    3.750    0.000    1.500    0.000    0.000 
#    0.000    0.000    0.000    0.000    0.000    0.000 
#
# Total GULP energy -396487.592881 kJ/mol
# GULP energy per Si atom -12390.237278 kJ/mol
# Density = 1.940779 g / cm^3
# Si number density = 19.452059 Si / 1000 Ang^3
#
#
#
# Elastic Constant Matrix: (Units=GPa)
#
#
# Indices 1 2 3 4 5 6 
#
# 1 72.7188 37.6462 36.5524 0.0000 -22.8166 0.0000
# 2 37.6462 119.0905 49.4189 0.0000 -7.2383 0.0000
# 3 36.5524 49.4189 145.1561 0.0000 -18.7214 0.0000
# 4 0.0000 0.0000 0.0000 16.6694 0.0000 -7.8650
# 5 -22.8166 -7.2383 -18.7214 0.0000 27.4655 0.0000
# 6 0.0000 0.0000 0.0000 -7.8650 0.0000 27.4593
#
#
#
# Elastic Compliance Matrix: (Units=1/GPa)
#
#
# Indices 1 2 3 4 5 6 
#
# 1 0.022459 -0.005399 -0.001748 0.000000 0.016043 0.000000
# 2 -0.005399 0.011079 -0.002866 0.000000 -0.003519 0.000000
# 3 -0.001748 -0.002866 0.008794 0.000000 0.003786 0.000000
# 4 0.000000 0.000000 0.000000 0.069364 0.000000 0.019867
# 5 0.016043 -0.003519 0.003786 0.000000 0.051391 0.000000
# 6 0.000000 0.000000 0.000000 0.019867 0.000000 0.042108
#
#
# Mechanical properties :
#
#
# Convention : Reuss Voigt Hill
#
# Bulk Modulus (GPa) = 44.83348 64.91114 54.87231
# Shear Modulus (GPa) = 21.49087 28.54202 25.01644
#
# Velocity S-wave (km/s) = 3.32748 3.83469 3.59005
# Velocity P-wave (km/s) = 6.15313 7.28346 6.74202
#
# Compressibility (1/GPa) = 0.02230476
#
# Stress axis : x y z
#
# Youngs Moduli (GPa) = 44.52501 90.25894 113.72000
#
# Poissons Ratio (x) = 0.48732 0.19881
# Poissons Ratio (y) = 0.24040 0.32595
# Poissons Ratio (z) = 0.07784 0.25871
#
# Static dielectric constant tensor:
#      x y z
#    x 3.620300 0.000000 -0.494610 
#    y 0.000000 3.380970 0.000000 
#    z -0.494610 0.000000 4.421970 
# 
# 
# High freq. dielectric constant tensor:
#      x y z
#    x 1.749680 0.000000 -0.029410 
#    y 0.000000 1.739830 0.000000 
#    z -0.029410 0.000000 1.764010 
# 
# From -- ./inp_files/51496.got.cif
#   From: 2010.06.25/outbox.cif.g09.slc.cpg/sg13_26_cif.got.tgz:51496.got - 2010.06.28 04:50:58.
