data_PCOD8117801
_publ_section_title
;
Structure prediction by ZEFSAII (Michael W. Deem and Ramdas Pophale) SiO2 
 PCOD8117801
Probable space group: P 2/C
;
_chemical_formula_sum "Si O2"
_cell_formula_units_Z 20
_cell_length_a 9.024541
_cell_length_b 5.000065
_cell_length_c 22.107808
_cell_angle_alpha 90.000000
_cell_angle_beta 119.620464
_cell_angle_gamma 90.000000
_cell_volume 867.212155
_symmetry_space_group_name_H-M "P 2/C"
_symmetry_group_IT_number 13
_symmetry_cell_setting 'monoclinic'
loop_
_space_group_symop_operation_xyz
x,y,z
-x,y,1/2-z
-x,-y,-z
x,-y,1/2+z
loop_
_atom_site_type_symbol
_atom_site_label
_atom_site_fract_x
_atom_site_fract_y
_atom_site_fract_z
Si Si1 0.352607 0.930713 0.923047
Si Si2 0.657228 0.854067 0.912757
Si Si3 0.800617 0.360716 0.005373
Si Si4 0.986894 0.830321 0.177400
Si Si5 0.117285 0.327303 0.138361
O O1 0.450734 0.852803 0.880370
O O2 0.213665 0.164411 0.881868
O O3 0.256791 0.685262 0.936004
O O4 0.500000 0.000000 0.000000
O O5 0.740056 0.657160 0.978746
O O6 0.697743 0.753931 0.852403
O O7 0.729810 0.151392 0.941400
O O8 0.005120 0.328073 0.053121
O O9 0.000000 0.761041 0.250000
O O10 0.101935 0.621136 0.163403
O O11 0.066521 0.119852 0.180103
#
# Coordination Sequence:
#
# PCOD8117801 Si02
#       5
#     4   4   4   4   4
#     4   9  20  37  60  87 117 154 196 242 296 359
#     4  11  20  33  57  90 121 149 191 251 300 349
#     4  10  19  33  55  89 123 155 187 236 303 368
#     4  11  24  42  61  82 117 164 206 245 302 376
#     4  11  21  37  59  86 116 156 200 246 299 360
#
# _framework density 23.062405999999999
#
# number of rings (size 3 to 8) (size 9 to 14) (size 15 to 20)
#    0.000    1.600    0.000    7.200    0.000    4.800 
#    0.000    1.000    0.000    2.400    0.000    0.000 
#    0.000    0.000    0.000    0.000    0.000    0.000 
#
# Total GULP energy -247798.590967 kJ/mol
# GULP energy per Si atom -12389.929548 kJ/mol
# Density = 2.300992 g / cm^3
# Si number density = 23.062406 Si / 1000 Ang^3
#
#
#
# Elastic Constant Matrix: (Units=GPa)
#
#
# Indices 1 2 3 4 5 6 
#
# 1 109.0447 10.1758 25.5089 0.0000 -19.2338 0.0000
# 2 10.1758 75.0600 8.9217 0.0000 0.1095 0.0000
# 3 25.5089 8.9217 72.0518 0.0000 -14.0372 0.0000
# 4 0.0000 0.0000 0.0000 22.1327 0.0000 -7.6977
# 5 -19.2338 0.1095 -14.0372 0.0000 24.8451 0.0000
# 6 0.0000 0.0000 0.0000 -7.6977 0.0000 21.5678
#
#
#
# Elastic Compliance Matrix: (Units=1/GPa)
#
#
# Indices 1 2 3 4 5 6 
#
# 1 0.011124 -0.001237 -0.002367 0.000000 0.007280 0.000000
# 2 -0.001237 0.013688 -0.001635 0.000000 -0.001942 0.000000
# 3 -0.002367 -0.001635 0.016365 0.000000 0.007421 0.000000
# 4 0.000000 0.000000 0.000000 0.051585 0.000000 0.018411
# 5 0.007280 -0.001942 0.007421 0.000000 0.050086 0.000000
# 6 0.000000 0.000000 0.000000 0.018411 0.000000 0.052937
#
#
# Mechanical properties :
#
#
# Convention : Reuss Voigt Hill
#
# Bulk Modulus (GPa) = 32.57547 38.37436 35.47491
# Shear Modulus (GPa) = 23.09516 27.81246 25.45381
#
# Velocity S-wave (km/s) = 3.16796 3.47647 3.32579
# Velocity P-wave (km/s) = 5.24756 5.72625 5.49212
#
# Compressibility (1/GPa) = 0.03069795
#
# Stress axis : x y z
#
# Youngs Moduli (GPa) = 89.89813 73.05885 61.10585
#
# Poissons Ratio (x) = 0.09040 0.14462
# Poissons Ratio (y) = 0.11123 0.09992
# Poissons Ratio (z) = 0.21277 0.11946
#
# Static dielectric constant tensor:
#      x y z
#    x 5.611080 0.000000 -0.152980 
#    y 0.000000 3.955540 0.000000 
#    z -0.152980 0.000000 3.587860 
# 
# 
# High freq. dielectric constant tensor:
#      x y z
#    x 1.932620 0.000000 -0.024350 
#    y 0.000000 1.911890 0.000000 
#    z -0.024350 0.000000 1.854780 
# 
# From -- ./inp_files/84048.got.cif
#   From: 2010.06.25/outbox.cif.g09.slc.cpg/sg13_43_cif.got.tgz:84048.got - 2010.06.28 04:50:58.
