data_PCOD8117946
_publ_section_title
;
Structure prediction by ZEFSAII (Michael W. Deem and Ramdas Pophale) SiO2 
 PCOD8117946
Probable space group: P 2/C
;
_chemical_formula_sum "Si O2"
_cell_formula_units_Z 28
_cell_length_a 9.266274
_cell_length_b 9.623145
_cell_length_c 24.207642
_cell_angle_alpha 90.000000
_cell_angle_beta 41.789169
_cell_angle_gamma 90.000000
_cell_volume 1438.480994
_symmetry_space_group_name_H-M "P 2/C"
_symmetry_group_IT_number 13
_symmetry_cell_setting 'monoclinic'
loop_
_space_group_symop_operation_xyz
x,y,z
-x,y,1/2-z
-x,-y,-z
x,-y,1/2+z
loop_
_atom_site_type_symbol
_atom_site_label
_atom_site_fract_x
_atom_site_fract_y
_atom_site_fract_z
Si Si1 0.439735 0.238348 0.103916
Si Si2 0.502617 0.086832 0.918347
Si Si3 0.671732 0.209422 0.243383
Si Si4 0.714727 0.553087 0.466939
Si Si5 0.156975 0.738203 0.578675
Si Si6 0.634211 0.113619 0.762412
Si Si7 0.923024 0.770092 0.333590
O O1 0.347685 0.278283 0.190504
O O2 0.249893 0.268723 0.114339
O O3 0.516245 0.078950 0.078032
O O4 0.649779 0.336384 0.033038
O O5 0.527774 0.158154 0.851031
O O6 0.713494 0.128659 0.894543
O O7 0.286398 0.147257 0.006959
O O8 0.500000 0.279184 0.250000
O O9 0.908549 0.220970 0.150582
O O10 0.613145 0.050070 0.266460
O O11 0.500000 0.500000 0.500000
O O12 0.831620 0.412920 0.454905
O O13 0.868243 0.624955 0.377929
O O14 0.500000 0.181833 0.750000
O O15 0.884906 0.156999 0.687104
O O16 0.000000 0.737726 0.250000
#
# Coordination Sequence:
#
# PCOD8117946 Si02
#       7
#     4   4   4   4   4   4   4
#     4  10  20  36  61  86 114 143 190 237 284 334
#     4  10  19  35  60  90 110 143 189 242 281 327
#     4  10  22  40  57  83 116 154 189 230 283 342
#     4  10  21  35  55  88 116 144 187 233 287 330
#     4  11  21  37  59  86 115 148 187 238 281 333
#     4   9  20  38  57  85 117 148 188 231 286 338
#     4  10  19  34  59  85 113 144 187 239 281 332
#
# _framework density 19.464977999999999
#
# number of rings (size 3 to 8) (size 9 to 14) (size 15 to 20)
#    0.000    2.000    2.857    1.714    2.000    4.571 
#    2.571    3.571    0.000    0.000    0.000    0.000 
#    0.000    0.000    0.000    0.000    0.000    0.000 
#
# Total GULP energy -347114.865627 kJ/mol
# GULP energy per Si atom -12396.959487 kJ/mol
# Density = 1.942068 g / cm^3
# Si number density = 19.464978 Si / 1000 Ang^3
#
#
#
# Elastic Constant Matrix: (Units=GPa)
#
#
# Indices 1 2 3 4 5 6 
#
# 1 111.8132 18.2159 52.9520 0.0000 -6.2607 0.0000
# 2 18.2159 73.6876 37.1929 0.0000 5.2633 0.0000
# 3 52.9520 37.1929 140.1877 0.0000 -7.7643 0.0000
# 4 0.0000 0.0000 0.0000 33.8136 0.0000 -4.7141
# 5 -6.2607 5.2633 -7.7643 0.0000 15.4850 0.0000
# 6 0.0000 0.0000 0.0000 -4.7141 0.0000 9.8407
#
#
#
# Elastic Compliance Matrix: (Units=1/GPa)
#
#
# Indices 1 2 3 4 5 6 
#
# 1 0.011047 -0.001061 -0.003727 0.000000 0.002958 0.000000
# 2 -0.001061 0.016697 -0.004492 0.000000 -0.008357 0.000000
# 3 -0.003727 -0.004492 0.010012 0.000000 0.005040 0.000000
# 4 0.000000 0.000000 0.000000 0.031690 0.000000 0.015181
# 5 0.002958 -0.008357 0.005040 0.000000 0.071142 0.000000
# 6 0.000000 0.000000 0.000000 0.015181 0.000000 0.108891
#
#
# Mechanical properties :
#
#
# Convention : Reuss Voigt Hill
#
# Bulk Modulus (GPa) = 52.09445 60.26779 56.18112
# Shear Modulus (GPa) = 18.21894 26.31637 22.26765
#
# Velocity S-wave (km/s) = 3.06271 3.68092 3.38595
# Velocity P-wave (km/s) = 6.27122 7.00678 6.64918
#
# Compressibility (1/GPa) = 0.01919590
#
# Stress axis : x y z
#
# Youngs Moduli (GPa) = 90.52082 59.89020 99.87858
#
# Poissons Ratio (x) = 0.06353 0.37230
# Poissons Ratio (y) = 0.09602 0.44866
# Poissons Ratio (z) = 0.33742 0.26903
#
# Static dielectric constant tensor:
#      x y z
#    x 3.674290 0.000000 0.165210 
#    y 0.000000 3.350510 0.000000 
#    z 0.165210 0.000000 3.742820 
# 
# 
# High freq. dielectric constant tensor:
#      x y z
#    x 1.731160 0.000000 0.004490 
#    y 0.000000 1.749210 0.000000 
#    z 0.004490 0.000000 1.770400 
# 
# From -- ./inp_files/91428.got.cif
#   From: 2010.06.25/outbox.cif.g09.slc.cpg/sg13_46_cif.got.tgz:91428.got - 2010.06.28 04:50:58.
