data_PCOD8117172
_publ_section_title
;
Structure prediction by ZEFSAII (Michael W. Deem and Ramdas Pophale) SiO2 
 PCOD8117172
Probable space group: P 2/C
;
_chemical_formula_sum "Si O2"
_cell_formula_units_Z 26
_cell_length_a 17.005271
_cell_length_b 10.778908
_cell_length_c 14.190125
_cell_angle_alpha 90.000000
_cell_angle_beta 149.969930
_cell_angle_gamma 90.000000
_cell_volume 1301.694559
_symmetry_space_group_name_H-M "P 2/C"
_symmetry_group_IT_number 13
_symmetry_cell_setting 'monoclinic'
loop_
_space_group_symop_operation_xyz
x,y,z
-x,y,1/2-z
-x,-y,-z
x,-y,1/2+z
loop_
_atom_site_type_symbol
_atom_site_label
_atom_site_fract_x
_atom_site_fract_y
_atom_site_fract_z
Si Si1 0.707480 0.182999 0.684864
Si Si2 0.029331 0.653934 0.945704
Si Si3 0.000000 0.833256 0.750000
Si Si4 0.577301 0.241048 0.232259
Si Si5 0.871596 0.388714 0.468686
Si Si6 0.035016 0.154057 0.681716
Si Si7 0.765612 0.000382 0.400863
O O1 0.545467 0.240755 0.481318
O O2 0.793807 0.123378 0.682094
O O3 0.670871 0.079518 0.725621
O O4 0.822948 0.285888 0.847158
O O5 0.956512 0.747115 0.793839
O O6 0.888203 0.621496 0.871900
O O7 0.094638 0.529175 0.963761
O O8 0.843256 0.912494 0.562164
O O9 0.500000 0.284960 0.250000
O O10 0.703735 0.343940 0.332852
O O11 0.650610 0.104124 0.326110
O O12 0.006475 0.301285 0.652476
O O13 0.000000 0.102231 0.750000
O O14 0.903429 0.076072 0.486794
#
# Coordination Sequence:
#
# PCOD8117172 Si02
#       7
#     4   4   2   4   4   4   4
#     4  10  20  35  57  82 116 155 191 236 294 346
#     4   9  20  39  62  86 112 150 198 248 287 337
#     4  10  20  36  62  88 114 148 196 246 288 340
#     4  11  23  39  56  88 119 155 194 232 291 355
#     4   9  20  38  58  87 112 151 199 242 292 335
#     4  10  18  32  56  85 111 151 201 241 283 332
#     4  10  20  36  54  83 118 154 193 240 284 342
#
# _framework density 19.973963999999999
#
# number of rings (size 3 to 8) (size 9 to 14) (size 15 to 20)
#    0.000    2.154    0.769    2.769    1.077    1.846 
#    5.538    0.000    0.000    0.000    0.000    0.000 
#    0.000    0.000    0.000    0.000    0.000    0.000 
#
# Total GULP energy -322152.193687 kJ/mol
# GULP energy per Si atom -12390.468988 kJ/mol
# Density = 1.992850 g / cm^3
# Si number density = 19.973964 Si / 1000 Ang^3
#
#
#
# Elastic Constant Matrix: (Units=GPa)
#
#
# Indices 1 2 3 4 5 6 
#
# 1 103.7319 44.5928 35.3642 0.0000 6.6653 0.0000
# 2 44.5928 111.2651 29.7727 0.0000 -1.9849 0.0000
# 3 35.3642 29.7727 83.9505 0.0000 -2.9569 0.0000
# 4 0.0000 0.0000 0.0000 19.1027 0.0000 0.6160
# 5 6.6653 -1.9849 -2.9569 0.0000 30.0335 0.0000
# 6 0.0000 0.0000 0.0000 0.6160 0.0000 24.6130
#
#
#
# Elastic Compliance Matrix: (Units=1/GPa)
#
#
# Indices 1 2 3 4 5 6 
#
# 1 0.013092 -0.004200 -0.004152 0.000000 -0.003592 0.000000
# 2 -0.004200 0.011280 -0.002180 0.000000 0.001463 0.000000
# 3 -0.004152 -0.002180 0.014512 0.000000 0.002206 0.000000
# 4 0.000000 0.000000 0.000000 0.052391 0.000000 -0.001311
# 5 -0.003592 0.001463 0.002206 0.000000 0.034407 0.000000
# 6 0.000000 0.000000 0.000000 -0.001311 0.000000 0.040662
#
#
# Mechanical properties :
#
#
# Convention : Reuss Voigt Hill
#
# Bulk Modulus (GPa) = 56.11584 57.60076 56.85830
# Shear Modulus (GPa) = 25.86021 27.36437 26.61229
#
# Velocity S-wave (km/s) = 3.60209 3.70537 3.65410
# Velocity P-wave (km/s) = 6.74208 6.87073 6.80670
#
# Compressibility (1/GPa) = 0.01782028
#
# Stress axis : x y z
#
# Youngs Moduli (GPa) = 76.38191 88.65091 68.91080
#
# Poissons Ratio (x) = 0.37234 0.28612
# Poissons Ratio (y) = 0.32081 0.15020
# Poissons Ratio (z) = 0.31714 0.19323
#
# Static dielectric constant tensor:
#      x y z
#    x 3.619050 0.000000 -0.106530 
#    y 0.000000 3.703130 0.000000 
#    z -0.106530 0.000000 3.570610 
# 
# 
# High freq. dielectric constant tensor:
#      x y z
#    x 1.769530 0.000000 -0.010370 
#    y 0.000000 1.783050 0.000000 
#    z -0.010370 0.000000 1.764380 
# 
# From -- ./inp_files/55552.got.cif
#   From: 2010.06.25/outbox.cif.g09.slc.cpg/sg13_28_cif.got.tgz:55552.got - 2010.06.28 04:50:58.
