data_PCOD8117112
_publ_section_title
;
Structure prediction by ZEFSAII (Michael W. Deem and Ramdas Pophale) SiO2 
 PCOD8117112
Probable space group: P 2/C
;
_chemical_formula_sum "Si O2"
_cell_formula_units_Z 28
_cell_length_a 16.969324
_cell_length_b 17.300518
_cell_length_c 9.467110
_cell_angle_alpha 90.000000
_cell_angle_beta 148.623988
_cell_angle_gamma 90.000000
_cell_volume 1447.067551
_symmetry_space_group_name_H-M "P 2/C"
_symmetry_group_IT_number 13
_symmetry_cell_setting 'monoclinic'
loop_
_space_group_symop_operation_xyz
x,y,z
-x,y,1/2-z
-x,-y,-z
x,-y,1/2+z
loop_
_atom_site_type_symbol
_atom_site_label
_atom_site_fract_x
_atom_site_fract_y
_atom_site_fract_z
Si Si1 0.168127 0.648833 0.515137
Si Si2 0.415653 0.897284 0.256371
Si Si3 0.395064 0.530698 0.716143
Si Si4 0.290107 0.223872 0.031833
Si Si5 0.368608 0.247919 0.844426
Si Si6 0.667806 0.365768 0.952927
Si Si7 0.623361 0.937773 0.820089
O O1 0.284418 0.595379 0.606532
O O2 0.164528 0.731753 0.431082
O O3 0.214272 0.662256 0.748368
O O4 0.000000 0.613102 0.250000
O O5 0.500000 0.861042 0.250000
O O6 0.319489 0.830337 0.185143
O O7 0.552003 0.931072 0.557043
O O8 0.313191 0.974165 0.062257
O O9 0.500000 0.565508 0.750000
O O10 0.299845 0.457092 0.516042
O O11 0.500000 0.500000 0.000000
O O12 0.451966 0.243334 0.352442
O O13 0.253699 0.131503 0.978099
O O14 0.280153 0.254114 0.855994
O O15 0.315665 0.320967 0.670132
O O16 0.500000 0.350278 0.750000
O O17 0.500000 0.917113 0.750000
#
# Coordination Sequence:
#
# PCOD8117112 Si02
#       7
#     4   4   4   4   4   4   4
#     4  12  27  42  60  90 125 155 194 245 300 352
#     4   9  16  23  42  78 124 146 179 251 312 324
#     4  11  22  41  67  90 115 155 198 242 285 352
#     4  10  19  33  54  79 114 159 195 238 294 351
#     4  10  18  31  56  86 113 151 201 246 289 344
#     4  11  21  38  60  89 115 150 202 241 285 351
#     4   9  15  27  42  76 120 150 188 241 304 344
#
# _framework density 19.349475999999999
#
# number of rings (size 3 to 8) (size 9 to 14) (size 15 to 20)
#    0.000    1.714    7.143    0.429    6.000    0.571 
#    0.000    0.714    0.000    0.000    0.000    4.000 
#    0.000    0.000    0.000    0.000    0.000    0.000 
#
# Total GULP energy -346982.640856 kJ/mol
# GULP energy per Si atom -12392.237173 kJ/mol
# Density = 1.930544 g / cm^3
# Si number density = 19.349476 Si / 1000 Ang^3
#
#
#
# Elastic Constant Matrix: (Units=GPa)
#
#
# Indices 1 2 3 4 5 6 
#
# 1 85.5663 35.2420 39.6114 0.0000 -23.3662 0.0000
# 2 35.2420 108.9456 16.1786 0.0000 -2.9521 0.0000
# 3 39.6114 16.1786 64.6958 0.0000 -11.0489 0.0000
# 4 0.0000 0.0000 0.0000 14.4759 0.0000 -13.0255
# 5 -23.3662 -2.9521 -11.0489 0.0000 29.6406 0.0000
# 6 0.0000 0.0000 0.0000 -13.0255 0.0000 27.5160
#
#
#
# Elastic Compliance Matrix: (Units=1/GPa)
#
#
# Indices 1 2 3 4 5 6 
#
# 1 0.022066 -0.005306 -0.009936 0.000000 0.013163 0.000000
# 2 -0.005306 0.010809 0.000016 0.000000 -0.003100 0.000000
# 3 -0.009936 0.000016 0.021572 0.000000 0.000210 0.000000
# 4 0.000000 0.000000 0.000000 0.120339 0.000000 0.056966
# 5 0.013163 -0.003100 0.000210 0.000000 0.043884 0.000000
# 6 0.000000 0.000000 0.000000 0.056966 0.000000 0.063309
#
#
# Mechanical properties :
#
#
# Convention : Reuss Voigt Hill
#
# Bulk Modulus (GPa) = 41.67263 49.03019 45.35141
# Shear Modulus (GPa) = 15.60409 25.53822 20.57116
#
# Velocity S-wave (km/s) = 2.84286 3.63690 3.26412
# Velocity P-wave (km/s) = 5.68853 6.55975 6.13962
#
# Compressibility (1/GPa) = 0.02399657
#
# Stress axis : x y z
#
# Youngs Moduli (GPa) = 45.31816 92.51688 46.35604
#
# Poissons Ratio (x) = 0.49088 0.46058
# Poissons Ratio (y) = 0.24045 -0.00075
# Poissons Ratio (z) = 0.45027 -0.00150
#
# Static dielectric constant tensor:
#      x y z
#    x 3.727520 0.000000 -0.533040 
#    y 0.000000 4.135040 0.000000 
#    z -0.533040 0.000000 3.119090 
# 
# 
# High freq. dielectric constant tensor:
#      x y z
#    x 1.745480 0.000000 -0.058230 
#    y 0.000000 1.775600 0.000000 
#    z -0.058230 0.000000 1.690070 
# 
# From -- ./inp_files/20110.got.cif
#   From: 2010.06.25/outbox.cif.g09.slc.cpg/sg13_11_cif.got.tgz:20110.got - 2010.06.28 04:50:58.
