data_PCOD8117821
_publ_section_title
;
Structure prediction by ZEFSAII (Michael W. Deem and Ramdas Pophale) SiO2 
 PCOD8117821
Probable space group: P 2/C
;
_chemical_formula_sum "Si O2"
_cell_formula_units_Z 20
_cell_length_a 6.171759
_cell_length_b 10.171626
_cell_length_c 19.116495
_cell_angle_alpha 90.000000
_cell_angle_beta 114.179782
_cell_angle_gamma 90.000000
_cell_volume 1094.784108
_symmetry_space_group_name_H-M "P 2/C"
_symmetry_group_IT_number 13
_symmetry_cell_setting 'monoclinic'
loop_
_space_group_symop_operation_xyz
x,y,z
-x,y,1/2-z
-x,-y,-z
x,-y,1/2+z
loop_
_atom_site_type_symbol
_atom_site_label
_atom_site_fract_x
_atom_site_fract_y
_atom_site_fract_z
Si Si1 0.087358 0.616889 0.961425
Si Si2 0.414629 0.288137 0.940603
Si Si3 0.058681 0.136279 0.971400
Si Si4 0.343731 0.225330 0.668821
Si Si5 0.973844 0.548227 0.329115
O O1 0.971983 0.592489 0.868996
O O2 0.374483 0.628790 0.995244
O O3 0.000000 0.500000 0.000000
O O4 0.995073 0.754240 0.978012
O O5 0.326220 0.165700 0.978463
O O6 0.495563 0.229689 0.878033
O O7 0.195078 0.383294 0.896950
O O8 0.890128 0.142237 0.880320
O O9 0.000000 0.000000 0.000000
O O10 0.500000 0.156331 0.750000
O O11 0.264750 0.369832 0.686285
O O12 0.000000 0.528224 0.250000
#
# Coordination Sequence:
#
# PCOD8117821 Si02
#       5
#     4   4   4   4   4
#     4  11  20  34  57  88 110 145 198 239 291 365
#     4  10  19  34  60  80 115 147 189 238 290 343
#     4  10  23  38  58  80 115 154 203 243 290 357
#     4  10  19  33  57  87 110 145 195 235 292 362
#     4  11  20  31  54  86 118 143 181 243 300 347
#
# _framework density 18.268442
#
# number of rings (size 3 to 8) (size 9 to 14) (size 15 to 20)
#    0.000    1.600    8.000    0.600    0.000    3.200 
#    0.000    0.000    8.800    0.000    0.000    0.000 
#    0.000    0.000    0.000    0.000    0.000    0.000 
#
# Total GULP energy -247779.559974 kJ/mol
# GULP energy per Si atom -12388.977999 kJ/mol
# Density = 1.822686 g / cm^3
# Si number density = 18.268442 Si / 1000 Ang^3
#
#
#
# Elastic Constant Matrix: (Units=GPa)
#
#
# Indices 1 2 3 4 5 6 
#
# 1 116.9250 43.5853 39.0094 0.0000 -9.4121 0.0000
# 2 43.5853 107.0363 50.5399 0.0000 -11.5170 0.0000
# 3 39.0094 50.5399 119.3592 0.0000 -11.5216 0.0000
# 4 0.0000 0.0000 0.0000 18.3236 0.0000 -6.2200
# 5 -9.4121 -11.5170 -11.5216 0.0000 31.3849 0.0000
# 6 0.0000 0.0000 0.0000 -6.2200 0.0000 27.3578
#
#
#
# Elastic Compliance Matrix: (Units=1/GPa)
#
#
# Indices 1 2 3 4 5 6 
#
# 1 0.010505 -0.003223 -0.001947 0.000000 0.001253 0.000000
# 2 -0.003223 0.012868 -0.004181 0.000000 0.002221 0.000000
# 3 -0.001947 -0.004181 0.010969 0.000000 0.001909 0.000000
# 4 0.000000 0.000000 0.000000 0.059139 0.000000 0.013446
# 5 0.001253 0.002221 0.001909 0.000000 0.033754 0.000000
# 6 0.000000 0.000000 0.000000 0.013446 0.000000 0.039610
#
#
# Mechanical properties :
#
#
# Convention : Reuss Voigt Hill
#
# Bulk Modulus (GPa) = 63.94408 67.73220 65.83814
# Shear Modulus (GPa) = 26.21100 29.42567 27.81834
#
# Velocity S-wave (km/s) = 3.79194 4.01775 3.90648
# Velocity P-wave (km/s) = 7.36548 7.66027 7.51432
#
# Compressibility (1/GPa) = 0.01563866
#
# Stress axis : x y z
#
# Youngs Moduli (GPa) = 95.19726 77.71099 91.16508
#
# Poissons Ratio (x) = 0.25047 0.17754
# Poissons Ratio (y) = 0.30683 0.38116
# Poissons Ratio (z) = 0.18539 0.32491
#
# Static dielectric constant tensor:
#      x y z
#    x 4.069340 0.000000 -0.176930 
#    y 0.000000 3.278450 0.000000 
#    z -0.176930 0.000000 3.664100 
# 
# 
# High freq. dielectric constant tensor:
#      x y z
#    x 1.729010 0.000000 -0.005450 
#    y 0.000000 1.664490 0.000000 
#    z -0.005450 0.000000 1.703570 
# 
# From -- ./inp_files/60588.got.cif
#   From: 2010.06.25/outbox.cif.g09.slc.cpg/sg13_31_cif.got.tgz:60588.got - 2010.06.28 04:50:58.
