data_PCOD8117189
_publ_section_title
;
Structure prediction by ZEFSAII (Michael W. Deem and Ramdas Pophale) SiO2 
 PCOD8117189
Probable space group: P 2/C
;
_chemical_formula_sum "Si O2"
_cell_formula_units_Z 30
_cell_length_a 21.202477
_cell_length_b 13.267304
_cell_length_c 14.512852
_cell_angle_alpha 90.000000
_cell_angle_beta 160.456883
_cell_angle_gamma 90.000000
_cell_volume 1365.649081
_symmetry_space_group_name_H-M "P 2/C"
_symmetry_group_IT_number 13
_symmetry_cell_setting 'monoclinic'
loop_
_space_group_symop_operation_xyz
x,y,z
-x,y,1/2-z
-x,-y,-z
x,-y,1/2+z
loop_
_atom_site_type_symbol
_atom_site_label
_atom_site_fract_x
_atom_site_fract_y
_atom_site_fract_z
Si Si1 0.904432 0.264732 0.836861
Si Si2 0.745287 0.004389 0.740067
Si Si3 0.143838 0.948961 0.301411
Si Si4 0.500000 0.345211 0.250000
Si Si5 0.109067 0.650666 0.989342
Si Si6 0.532844 0.359256 0.095483
Si Si7 0.591673 0.129613 0.176191
Si Si8 0.899584 0.576385 0.019170
O O1 0.956014 0.154191 0.872944
O O2 0.682874 0.275682 0.511062
O O3 0.035204 0.349725 0.971261
O O4 0.938096 0.274281 0.992425
O O5 0.646398 0.905719 0.648462
O O6 0.740198 0.997890 0.621529
O O7 0.627519 0.103676 0.607425
O O8 0.960315 0.016382 0.073521
O O9 0.275854 0.932399 0.570704
O O10 0.518246 0.408687 0.179342
O O11 0.041160 0.537645 0.923460
O O12 0.000000 0.690667 0.750000
O O13 0.330565 0.647474 0.269158
O O14 0.623314 0.247930 0.231467
O O15 0.672442 0.422603 0.222444
O O16 0.000000 0.614509 0.250000
#
# Coordination Sequence:
#
# PCOD8117189 Si02
#       8
#     4   4   4   2   4   4   4   4
#     4  11  21  38  65  92 117 159 208 253 298 352
#     4  10  23  35  54  92 116 153 181 248 307 361
#     4  11  21  39  62  86 121 148 202 250 300 343
#     4  10  18  32  58  98 106 144 194 258 292 342
#     4  10  24  40  57  84 133 168 197 240 305 370
#     4  11  21  38  65  92 117 159 208 253 298 352
#     4  11  21  39  62  86 121 148 202 250 300 343
#     4  11  20  37  62  96 127 150 203 257 313 338
#
# _framework density 21.967575
#
# number of rings (size 3 to 8) (size 9 to 14) (size 15 to 20)
#    0.000    1.333    2.667    4.000    0.000    0.000 
#    0.000   14.000    0.000    0.000    0.000    0.000 
#    0.000    0.000    0.000    0.000    0.000    0.000 
#
# Total GULP energy -371949.306550 kJ/mol
# GULP energy per Si atom -12398.310218 kJ/mol
# Density = 2.191758 g / cm^3
# Si number density = 21.967575 Si / 1000 Ang^3
#
#
#
# Elastic Constant Matrix: (Units=GPa)
#
#
# Indices 1 2 3 4 5 6 
#
# 1 83.6084 18.8228 36.2757 0.0000 1.6522 0.0000
# 2 18.8228 44.0532 2.3900 0.0000 -5.2720 0.0000
# 3 36.2757 2.3900 103.4467 0.0000 -6.6457 0.0000
# 4 0.0000 0.0000 0.0000 25.0115 0.0000 1.1803
# 5 1.6522 -5.2720 -6.6457 0.0000 41.8650 0.0000
# 6 0.0000 0.0000 0.0000 1.1803 0.0000 25.2035
#
#
#
# Elastic Compliance Matrix: (Units=1/GPa)
#
#
# Indices 1 2 3 4 5 6 
#
# 1 0.015966 -0.006803 -0.005594 0.000000 -0.002375 0.000000
# 2 -0.006803 0.025958 0.002034 0.000000 0.003860 0.000000
# 3 -0.005594 0.002034 0.011732 0.000000 0.002339 0.000000
# 4 0.000000 0.000000 0.000000 0.040070 0.000000 -0.001877
# 5 -0.002375 0.003860 0.002339 0.000000 0.024837 0.000000
# 6 0.000000 0.000000 0.000000 -0.001877 0.000000 0.039765
#
#
# Mechanical properties :
#
#
# Convention : Reuss Voigt Hill
#
# Bulk Modulus (GPa) = 30.36766 38.45390 34.41078
# Shear Modulus (GPa) = 26.31145 29.99066 28.15105
#
# Velocity S-wave (km/s) = 3.46459 3.69890 3.58366
# Velocity P-wave (km/s) = 5.46428 5.98209 5.72904
#
# Compressibility (1/GPa) = 0.03292977
#
# Stress axis : x y z
#
# Youngs Moduli (GPa) = 62.63255 38.52374 85.23814
#
# Poissons Ratio (x) = 0.26206 0.47684
# Poissons Ratio (y) = 0.42607 -0.17335
# Poissons Ratio (z) = 0.35038 -0.07835
#
# Static dielectric constant tensor:
#      x y z
#    x 4.148800 0.000000 0.148040 
#    y 0.000000 3.699110 0.000000 
#    z 0.148040 0.000000 3.955390 
# 
# 
# High freq. dielectric constant tensor:
#      x y z
#    x 1.868910 0.000000 0.012650 
#    y 0.000000 1.838680 0.000000 
#    z 0.012650 0.000000 1.863320 
# 
# From -- ./inp_files/57819.got.cif
#   From: 2010.06.25/outbox.cif.g09.slc.cpg/sg13_29_cif.got.tgz:57819.got - 2010.06.28 04:50:58.
