data_PCOD8117581
_publ_section_title
;
Structure prediction by ZEFSAII (Michael W. Deem and Ramdas Pophale) SiO2 
 PCOD8117581
Probable space group: P 2/C
;
_chemical_formula_sum "Si O2"
_cell_formula_units_Z 26
_cell_length_a 19.150943
_cell_length_b 5.477261
_cell_length_c 18.875517
_cell_angle_alpha 90.000000
_cell_angle_beta 35.460255
_cell_angle_gamma 90.000000
_cell_volume 1148.639716
_symmetry_space_group_name_H-M "P 2/C"
_symmetry_group_IT_number 13
_symmetry_cell_setting 'monoclinic'
loop_
_space_group_symop_operation_xyz
x,y,z
-x,y,1/2-z
-x,-y,-z
x,-y,1/2+z
loop_
_atom_site_type_symbol
_atom_site_label
_atom_site_fract_x
_atom_site_fract_y
_atom_site_fract_z
Si Si1 0.183650 0.035296 0.451323
Si Si2 0.000000 0.357607 0.250000
Si Si3 0.644206 0.084712 0.806852
Si Si4 0.392308 0.771897 0.533029
Si Si5 0.053780 0.525229 0.559568
Si Si6 0.197064 0.019703 0.607199
Si Si7 0.201109 0.617063 0.219951
O O1 0.119427 0.282527 0.474666
O O2 0.209575 0.061039 0.513236
O O3 0.311506 0.014498 0.305686
O O4 0.109929 0.787840 0.493242
O O5 0.936849 0.514408 0.363169
O O6 0.898722 0.191255 0.295392
O O7 0.758373 0.206151 0.750792
O O8 0.600341 0.861642 0.891797
O O9 0.529212 0.265774 0.891711
O O10 0.318086 0.524380 0.596056
O O11 0.327111 0.958983 0.533336
O O12 0.912492 0.530439 0.652930
O O13 0.149580 0.253127 0.691026
#
# Coordination Sequence:
#
# PCOD8117581 Si02
#       7
#     4   2   4   4   4   4   4
#     4  11  26  42  64 103 138 175 207 286 342 399
#     4  10  18  40  64 100 136 172 212 278 330 420
#     4  10  25  43  64  91 137 173 231 273 332 395
#     4  10  22  44  68  92 122 182 233 271 323 396
#     4  11  23  39  66  99 138 170 218 267 345 396
#     4  10  21  38  67  98 129 168 226 272 336 389
#     4  11  21  40  69  98 125 181 226 277 321 411
#
# _framework density 22.635469000000001
#
# number of rings (size 3 to 8) (size 9 to 14) (size 15 to 20)
#    0.000    1.538    1.538    3.231    6.462    2.462 
#    0.000    0.000    0.000    0.000    0.000    0.000 
#    0.000    0.000    0.000    0.000    0.000    0.000 
#
# Total GULP energy -322242.131360 kJ/mol
# GULP energy per Si atom -12393.928129 kJ/mol
# Density = 2.258395 g / cm^3
# Si number density = 22.635469 Si / 1000 Ang^3
#
#
#
# Elastic Constant Matrix: (Units=GPa)
#
#
# Indices 1 2 3 4 5 6 
#
# 1 71.4671 10.2234 36.2368 0.0000 -3.7108 0.0000
# 2 10.2234 107.1744 39.5424 0.0000 -0.7321 0.0000
# 3 36.2368 39.5424 140.0323 0.0000 -7.4740 0.0000
# 4 0.0000 0.0000 0.0000 30.5637 0.0000 -8.0080
# 5 -3.7108 -0.7321 -7.4740 0.0000 28.0292 0.0000
# 6 0.0000 0.0000 0.0000 -8.0080 0.0000 24.8252
#
#
#
# Elastic Compliance Matrix: (Units=1/GPa)
#
#
# Indices 1 2 3 4 5 6 
#
# 1 0.016135 -0.000013 -0.004116 0.000000 0.001038 0.000000
# 2 -0.000013 0.010423 -0.002968 0.000000 -0.000521 0.000000
# 3 -0.004116 -0.002968 0.009141 0.000000 0.001815 0.000000
# 4 0.000000 0.000000 0.000000 0.035739 0.000000 0.011529
# 5 0.001038 -0.000521 0.001815 0.000000 0.036285 0.000000
# 6 0.000000 0.000000 0.000000 0.011529 0.000000 0.044001
#
#
# Mechanical properties :
#
#
# Convention : Reuss Voigt Hill
#
# Bulk Modulus (GPa) = 46.50003 54.51989 50.50996
# Shear Modulus (GPa) = 28.88714 32.19504 30.54109
#
# Velocity S-wave (km/s) = 3.57625 3.77547 3.67721
# Velocity P-wave (km/s) = 6.13518 6.56840 6.35548
#
# Compressibility (1/GPa) = 0.02150536
#
# Stress axis : x y z
#
# Youngs Moduli (GPa) = 61.97559 95.93956 109.39395
#
# Poissons Ratio (x) = 0.00128 0.45029
# Poissons Ratio (y) = 0.00083 0.32464
# Poissons Ratio (z) = 0.25511 0.28472
#
# Static dielectric constant tensor:
#      x y z
#    x 4.059610 0.000000 -0.135810 
#    y 0.000000 4.030400 0.000000 
#    z -0.135810 0.000000 4.114050 
# 
# 
# High freq. dielectric constant tensor:
#      x y z
#    x 1.890690 0.000000 -0.003650 
#    y 0.000000 1.890520 0.000000 
#    z -0.003650 0.000000 1.887330 
# 
# From -- ./inp_files/81368.got.cif
#   From: 2010.06.25/outbox.cif.g09.slc.cpg/sg13_41_cif.got.tgz:81368.got - 2010.06.28 04:50:58.
