data_PCOD8117557
_publ_section_title
;
Structure prediction by ZEFSAII (Michael W. Deem and Ramdas Pophale) SiO2 
 PCOD8117557
Probable space group: P 2/C
;
_chemical_formula_sum "Si O2"
_cell_formula_units_Z 28
_cell_length_a 19.779761
_cell_length_b 8.442306
_cell_length_c 22.227857
_cell_angle_alpha 90.000000
_cell_angle_beta 158.882628
_cell_angle_gamma 90.000000
_cell_volume 1337.271133
_symmetry_space_group_name_H-M "P 2/C"
_symmetry_group_IT_number 13
_symmetry_cell_setting 'monoclinic'
loop_
_space_group_symop_operation_xyz
x,y,z
-x,y,1/2-z
-x,-y,-z
x,-y,1/2+z
loop_
_atom_site_type_symbol
_atom_site_label
_atom_site_fract_x
_atom_site_fract_y
_atom_site_fract_z
Si Si1 0.024905 0.835726 0.488496
Si Si2 0.609824 0.210126 0.636585
Si Si3 0.578468 0.842448 0.642772
Si Si4 0.500000 0.863142 0.250000
Si Si5 0.621294 0.653017 0.453205
Si Si6 0.617665 0.298951 0.408445
Si Si7 0.138556 0.075199 0.951181
Si Si8 0.000000 0.164461 0.250000
O O1 0.211764 0.761528 0.675670
O O2 0.057395 0.859992 0.445123
O O3 0.828915 0.736404 0.329180
O O4 0.000000 0.000000 0.500000
O O5 0.542272 0.234053 0.511474
O O6 0.470764 0.323675 0.557977
O O7 0.591047 0.029572 0.642257
O O8 0.476157 0.819424 0.621463
O O9 0.489616 0.746143 0.297935
O O10 0.671804 0.978476 0.383286
O O11 0.639424 0.468021 0.456897
O O12 0.825918 0.723373 0.615065
O O13 0.500000 0.315023 0.250000
O O14 0.819365 0.224031 0.558154
O O15 0.993708 0.950511 0.802688
#
# Coordination Sequence:
#
# PCOD8117557 Si02
#       8
#     4   4   4   2   4   4   4   2
#     4  10  20  36  63 100 125 164 217 279 328 387
#     4  10  23  40  66  95 132 178 222 281 328 409
#     4  10  21  41  67  96 132 172 235 275 332 394
#     4  10  18  38  66  88 126 172 218 282 312 396
#     4  11  24  43  61  97 137 173 215 270 357 396
#     4  12  23  42  68  98 135 179 218 285 338 403
#     4  11  21  38  68  96 125 167 231 273 328 385
#     4  10  26  40  66  98 124 174 222 284 322 404
#
# _framework density 20.938161999999998
#
# number of rings (size 3 to 8) (size 9 to 14) (size 15 to 20)
#    0.000    1.429    2.857    3.429    8.000    1.143 
#    0.000    0.714    0.000    0.000    0.000    0.000 
#    0.000    0.000    0.000    0.000    0.000    0.000 
#
# Total GULP energy -346989.685958 kJ/mol
# GULP energy per Si atom -12392.488784 kJ/mol
# Density = 2.089051 g / cm^3
# Si number density = 20.938162 Si / 1000 Ang^3
#
#
#
# Elastic Constant Matrix: (Units=GPa)
#
#
# Indices 1 2 3 4 5 6 
#
# 1 130.8414 28.2018 36.2128 0.0000 0.9913 0.0000
# 2 28.2018 66.4237 10.6588 0.0000 -1.8104 0.0000
# 3 36.2128 10.6588 80.4960 0.0000 -19.5477 0.0000
# 4 0.0000 0.0000 0.0000 21.7567 0.0000 -1.6375
# 5 0.9913 -1.8104 -19.5477 0.0000 27.3475 0.0000
# 6 0.0000 0.0000 0.0000 -1.6375 0.0000 28.5817
#
#
#
# Elastic Compliance Matrix: (Units=1/GPa)
#
#
# Indices 1 2 3 4 5 6 
#
# 1 0.009792 -0.003476 -0.004945 0.000000 -0.004120 0.000000
# 2 -0.003476 0.016622 -0.000411 0.000000 0.000933 0.000000
# 3 -0.004945 -0.000411 0.017835 0.000000 0.012900 0.000000
# 4 0.000000 0.000000 0.000000 0.046162 0.000000 0.002645
# 5 -0.004120 0.000933 0.012900 0.000000 0.045999 0.000000
# 6 0.000000 0.000000 0.000000 0.002645 0.000000 0.035139
#
#
# Mechanical properties :
#
#
# Convention : Reuss Voigt Hill
#
# Bulk Modulus (GPa) = 37.61572 47.54532 42.58052
# Shear Modulus (GPa) = 25.24308 29.04970 27.14639
#
# Velocity S-wave (km/s) = 3.47594 3.72883 3.60461
# Velocity P-wave (km/s) = 5.84070 6.42617 6.14042
#
# Compressibility (1/GPa) = 0.02658463
#
# Stress axis : x y z
#
# Youngs Moduli (GPa) = 102.12388 60.16097 56.07007
#
# Poissons Ratio (x) = 0.20913 0.27729
# Poissons Ratio (y) = 0.35500 0.02302
# Poissons Ratio (z) = 0.50504 0.02470
#
# Static dielectric constant tensor:
#      x y z
#    x 3.926010 0.000000 -0.112950 
#    y 0.000000 3.606540 0.000000 
#    z -0.112950 0.000000 4.249030 
# 
# 
# High freq. dielectric constant tensor:
#      x y z
#    x 1.832820 0.000000 -0.003470 
#    y 0.000000 1.791130 0.000000 
#    z -0.003470 0.000000 1.830020 
# 
# From -- ./inp_files/88553.got.cif
#   From: 2010.06.25/outbox.cif.g09.slc.cpg/sg13_45_cif.got.tgz:88553.got - 2010.06.28 04:50:58.
