data_PCOD8117035
_publ_section_title
;
Structure prediction by ZEFSAII (Michael W. Deem and Ramdas Pophale) SiO2 
 PCOD8117035
Probable space group: P 2/C
;
_chemical_formula_sum "Si O2"
_cell_formula_units_Z 28
_cell_length_a 15.438844
_cell_length_b 15.243316
_cell_length_c 8.882298
_cell_angle_alpha 90.000000
_cell_angle_beta 54.877802
_cell_angle_gamma 90.000000
_cell_volume 1709.755674
_symmetry_space_group_name_H-M "P 2/C"
_symmetry_group_IT_number 13
_symmetry_cell_setting 'monoclinic'
loop_
_space_group_symop_operation_xyz
x,y,z
-x,y,1/2-z
-x,-y,-z
x,-y,1/2+z
loop_
_atom_site_type_symbol
_atom_site_label
_atom_site_fract_x
_atom_site_fract_y
_atom_site_fract_z
Si Si1 0.873896 0.586130 0.045340
Si Si2 0.880275 0.761469 0.545516
Si Si3 0.119725 0.238531 0.806066
Si Si4 0.500000 0.096593 0.569643
Si Si5 0.710633 0.094536 0.861025
Si Si6 0.126104 0.413870 0.293132
Si Si7 0.710633 0.905464 0.717710
O O1 0.832242 0.674833 0.164456
O O2 0.826675 0.500001 0.173326
O O3 0.831764 0.585199 0.918236
O O4 0.000000 0.584166 0.928035
O O5 0.877827 0.742503 0.372173
O O6 0.832242 0.674832 0.671058
O O7 0.810254 0.845086 0.658886
O O8 1.000000 0.780903 0.481140
O O9 0.189745 0.154913 0.779394
O O10 0.500000 0.096447 0.750000
O O11 0.392865 0.140470 0.611588
O O12 0.607134 0.140471 0.397318
O O13 0.500000 0.000000 0.500000
O O14 0.733812 0.999999 0.766189
O O15 0.693134 0.084793 0.056866
#
# Coordination Sequence:
#
# PCOD8117035 Si02
#       7
#     4   4   4   4   4   4   4
#     4   9  16  26  42  63  87 116 149 185 222 260
#     4   9  18  31  45  64  92 123 152 182 219 265
#     4   9  18  31  45  64  92 123 152 182 219 265
#     4  10  18  30  48  66  85 110 147 192 230 264
#     4  10  19  31  47  66  90 119 151 187 225 264
#     4   9  16  26  42  63  87 116 149 185 222 260
#     4  10  19  31  47  66  90 119 151 187 225 264
#
# _framework density 16.376608000000001
#
# number of rings (size 3 to 8) (size 9 to 14) (size 15 to 20)
#    0.000    2.571    0.000    4.714    0.000    6.286 
#    0.000    0.000    0.000    0.000    0.000    1.000 
#    0.000    0.000    0.000    0.000    0.000    0.000 
#
# Total GULP energy -347090.240477 kJ/mol
# GULP energy per Si atom -12396.080017 kJ/mol
# Density = 1.633933 g / cm^3
# Si number density = 16.376608 Si / 1000 Ang^3
#
#
#
# Elastic Constant Matrix: (Units=GPa)
#
#
# Indices 1 2 3 4 5 6 
#
# 1 85.3501 57.6824 48.4853 0.0000 4.0104 0.0000
# 2 57.6824 115.0936 59.2811 0.0000 1.8523 0.0000
# 3 48.4853 59.2811 93.5987 0.0000 5.5471 0.0000
# 4 0.0000 0.0000 0.0000 22.0323 0.0000 13.3767
# 5 4.0104 1.8523 5.5471 0.0000 21.9434 0.0000
# 6 0.0000 0.0000 0.0000 13.3767 0.0000 10.4875
#
#
#
# Elastic Compliance Matrix: (Units=1/GPa)
#
#
# Indices 1 2 3 4 5 6 
#
# 1 0.019718 -0.006892 -0.005756 0.000000 -0.001567 0.000000
# 2 -0.006892 0.015326 -0.006228 0.000000 0.001540 0.000000
# 3 -0.005756 -0.006228 0.017783 0.000000 -0.002918 0.000000
# 4 0.000000 0.000000 0.000000 0.201183 0.000000 -0.256605
# 5 -0.001567 0.001540 -0.002918 0.000000 0.046466 0.000000
# 6 0.000000 0.000000 0.000000 -0.256605 0.000000 0.422647
#
#
# Mechanical properties :
#
#
# Convention : Reuss Voigt Hill
#
# Bulk Modulus (GPa) = 66.33652 69.43778 67.88715
# Shear Modulus (GPa) = 6.52828 19.46555 12.99692
#
# Velocity S-wave (km/s) = 1.99875 3.45138 2.82019
# Velocity P-wave (km/s) = 6.77654 7.64037 7.22138
#
# Compressibility (1/GPa) = 0.01507465
#
# Stress axis : x y z
#
# Youngs Moduli (GPa) = 50.71522 65.25006 56.23407
#
# Poissons Ratio (x) = 0.44972 0.32369
# Poissons Ratio (y) = 0.34954 0.35020
# Poissons Ratio (z) = 0.29192 0.40635
#
# Static dielectric constant tensor:
#      x y z
#    x 3.316210 0.000000 -0.067690 
#    y 0.000000 3.031820 0.000000 
#    z -0.067690 0.000000 3.257790 
# 
# 
# High freq. dielectric constant tensor:
#      x y z
#    x 1.612200 0.000000 0.021870 
#    y 0.000000 1.616680 0.000000 
#    z 0.021870 0.000000 1.631070 
# 
# From -- ./inp_files/19335.got.cif
#   From: 2010.06.25/outbox.cif.g09.slc.cpg/sg13_10_cif.got.tgz:19335.got - 2010.06.28 04:50:58.
