data_PCOD8117021
_publ_section_title
;
Structure prediction by ZEFSAII (Michael W. Deem and Ramdas Pophale) SiO2 
 PCOD8117021
Probable space group: P 2/C
;
_chemical_formula_sum "Si O2"
_cell_formula_units_Z 32
_cell_length_a 9.483800
_cell_length_b 14.051060
_cell_length_c 21.968932
_cell_angle_alpha 90.000000
_cell_angle_beta 148.139848
_cell_angle_gamma 90.000000
_cell_volume 1545.286842
_symmetry_space_group_name_H-M "P 2/C"
_symmetry_group_IT_number 13
_symmetry_cell_setting 'monoclinic'
loop_
_space_group_symop_operation_xyz
x,y,z
-x,y,1/2-z
-x,-y,-z
x,-y,1/2+z
loop_
_atom_site_type_symbol
_atom_site_label
_atom_site_fract_x
_atom_site_fract_y
_atom_site_fract_z
Si Si1 0.933017 0.301261 0.979036
Si Si2 0.407642 0.781769 0.502204
Si Si3 0.507772 0.354365 0.135457
Si Si4 0.694023 0.857121 0.158863
Si Si5 0.764497 0.797059 0.810446
Si Si6 0.739829 0.072723 0.194343
Si Si7 0.513520 0.445578 0.685427
Si Si8 0.192667 0.737490 0.194710
O O1 0.759508 0.392578 0.936055
O O2 0.761764 0.250097 0.861596
O O3 0.211452 0.337015 0.052958
O O4 0.988014 0.226931 0.053767
O O5 0.529991 0.682039 0.573028
O O6 0.487347 0.811803 0.462475
O O7 0.496694 0.863670 0.581323
O O8 0.093129 0.774485 0.390812
O O9 0.723417 0.296720 0.254092
O O10 0.570708 0.466279 0.161606
O O11 0.613574 0.799706 0.190740
O O12 0.000000 0.848479 0.250000
O O13 0.627794 0.966100 0.149892
O O14 0.500000 0.822112 0.750000
O O15 0.824685 0.891564 0.792868
O O16 0.000000 0.087650 0.250000
O O17 0.500000 0.483840 0.750000
O O18 0.762576 0.373138 0.771561
#
# Coordination Sequence:
#
# PCOD8117021 Si02
#       8
#     4   4   4   4   4   4   4   4
#     4   9  17  30  49  74 108 144 176 219 271 317
#     4   9  18  34  55  76 101 137 175 223 277 325
#     4   9  17  30  51  77 105 137 178 222 270 324
#     4   9  18  35  55  74 100 138 181 226 271 325
#     4   9  18  33  51  77 112 141 170 222 282 326
#     4  10  20  34  57  84 104 135 189 234 272 332
#     4  10  18  29  48  76 105 140 182 222 263 325
#     4   9  19  33  50  74 106 140 179 220 268 326
#
# _framework density 20.708130000000001
#
# number of rings (size 3 to 8) (size 9 to 14) (size 15 to 20)
#    0.000    2.750    0.000    2.625    0.000    3.000 
#    0.000    3.125    0.000    9.000    0.000    0.000 
#    0.000    0.000    0.000    0.000    0.000    0.000 
#
# Total GULP energy -396505.057170 kJ/mol
# GULP energy per Si atom -12390.783037 kJ/mol
# Density = 2.066100 g / cm^3
# Si number density = 20.708130 Si / 1000 Ang^3
#
#
#
# Elastic Constant Matrix: (Units=GPa)
#
#
# Indices 1 2 3 4 5 6 
#
# 1 48.7993 58.9580 33.1324 0.0000 -29.2778 0.0000
# 2 58.9580 158.8156 65.0180 0.0000 -40.8437 0.0000
# 3 33.1324 65.0180 116.8051 0.0000 -41.9960 0.0000
# 4 0.0000 0.0000 0.0000 26.7374 0.0000 -7.3954
# 5 -29.2778 -40.8437 -41.9960 0.0000 32.6488 0.0000
# 6 0.0000 0.0000 0.0000 -7.3954 0.0000 24.5762
#
#
#
# Elastic Compliance Matrix: (Units=1/GPa)
#
#
# Indices 1 2 3 4 5 6 
#
# 1 0.058515 -0.012917 0.006787 0.000000 0.045044 0.000000
# 2 -0.012917 0.012354 -0.003387 0.000000 -0.000486 0.000000
# 3 0.006787 -0.003387 0.017090 0.000000 0.023832 0.000000
# 4 0.000000 0.000000 0.000000 0.040796 0.000000 0.012276
# 5 0.045044 -0.000486 0.023832 0.000000 0.101069 0.000000
# 6 0.000000 0.000000 0.000000 0.012276 0.000000 0.044384
#
#
# Mechanical properties :
#
#
# Convention : Reuss Voigt Hill
#
# Bulk Modulus (GPa) = 14.50872 70.95965 42.73419
# Shear Modulus (GPa) = 15.81197 27.94659 21.87928
#
# Velocity S-wave (km/s) = 2.76626 3.67760 3.25400
# Velocity P-wave (km/s) = 4.15023 7.23699 5.89909
#
# Compressibility (1/GPa) = 0.06892405
#
# Stress axis : x y z
#
# Youngs Moduli (GPa) = 17.08971 80.94791 58.51411
#
# Poissons Ratio (x) = 1.04561 -0.39715
# Poissons Ratio (y) = 0.22075 0.19820
# Poissons Ratio (z) = -0.11599 0.27418
#
# Static dielectric constant tensor:
#      x y z
#    x 3.590840 0.000000 -0.377960 
#    y 0.000000 3.685020 0.000000 
#    z -0.377960 0.000000 4.155340 
# 
# 
# High freq. dielectric constant tensor:
#      x y z
#    x 1.779140 0.000000 -0.011990 
#    y 0.000000 1.794480 0.000000 
#    z -0.011990 0.000000 1.827890 
# 
# From -- ./inp_files/86603.got.cif
#   From: 2010.06.25/outbox.cif.g09.slc.cpg/sg13_44_cif.got.tgz:86603.got - 2010.06.28 04:50:58.
