data_PCOD8117758
_publ_section_title
;
Structure prediction by ZEFSAII (Michael W. Deem and Ramdas Pophale) SiO2 
 PCOD8117758
Probable space group: P 2/C
;
_chemical_formula_sum "Si O2"
_cell_formula_units_Z 32
_cell_length_a 17.734124
_cell_length_b 20.342248
_cell_length_c 17.025940
_cell_angle_alpha 90.000000
_cell_angle_beta 16.450206
_cell_angle_gamma 90.000000
_cell_volume 1739.343516
_symmetry_space_group_name_H-M "P 2/C"
_symmetry_group_IT_number 13
_symmetry_cell_setting 'monoclinic'
loop_
_space_group_symop_operation_xyz
x,y,z
-x,y,1/2-z
-x,-y,-z
x,-y,1/2+z
loop_
_atom_site_type_symbol
_atom_site_label
_atom_site_fract_x
_atom_site_fract_y
_atom_site_fract_z
Si Si1 0.954369 0.524245 0.886397
Si Si2 0.538640 0.558140 0.023090
Si Si3 0.375661 0.193110 0.541585
Si Si4 0.092577 0.036116 0.577524
Si Si5 0.416302 0.958153 0.010423
Si Si6 0.870595 0.812680 0.454231
Si Si7 0.989753 0.629497 0.168737
Si Si8 0.519023 0.329697 0.419253
O O1 0.000000 0.543031 0.750000
O O2 0.179045 0.554272 0.717062
O O3 0.938103 0.446464 0.914587
O O4 0.679477 0.555696 0.190271
O O5 0.500000 0.500000 0.000000
O O6 0.528879 0.626699 0.987137
O O7 0.444166 0.119850 0.505106
O O8 0.455417 0.255673 0.515863
O O9 0.064189 0.201591 0.834668
O O10 0.562816 0.205333 0.277291
O O11 0.386625 0.016746 0.255294
O O12 0.111587 0.111186 0.581918
O O13 0.000000 0.998202 0.750000
O O14 0.881447 0.024190 0.718472
O O15 0.500000 0.000000 0.000000
O O16 0.000000 0.774760 0.250000
O O17 0.699657 0.643789 0.423705
O O18 0.000000 0.648672 0.250000
O O19 0.203359 0.671907 0.906242
#
# Coordination Sequence:
#
# PCOD8117758 Si02
#       8
#     4   4   4   4   4   4   4   4
#     4  11  22  38  57  78 102 133 174 217 252 299
#     4  12  21  37  57  78 102 135 171 211 257 297
#     4  10  21  32  45  71 101 129 171 203 244 298
#     4   9  17  30  49  75 101 129 166 206 242 293
#     4  10  19  33  52  74 100 136 169 209 250 295
#     4   9  17  30  47  65  97 137 167 194 231 287
#     4  11  22  35  50  75 108 141 170 201 244 297
#     4  12  23  34  51  75 104 139 171 210 251 299
#
# _framework density 18.397746000000001
#
# number of rings (size 3 to 8) (size 9 to 14) (size 15 to 20)
#    0.000    1.500    2.500    3.750    0.000    8.000 
#    0.000    0.000    0.000    0.000    0.000    5.250 
#    0.000    0.000    0.000    0.000    0.000    0.000 
#
# Total GULP energy -396523.257110 kJ/mol
# GULP energy per Si atom -12391.351785 kJ/mol
# Density = 1.835587 g / cm^3
# Si number density = 18.397746 Si / 1000 Ang^3
#
#
#
# Elastic Constant Matrix: (Units=GPa)
#
#
# Indices 1 2 3 4 5 6 
#
# 1 128.4859 85.6484 -19.6701 0.0000 -83.9632 0.0000
# 2 85.6484 117.9204 -16.4762 0.0000 -68.5845 0.0000
# 3 -19.6701 -16.4762 74.8519 0.0000 20.3386 0.0000
# 4 0.0000 0.0000 0.0000 14.1083 0.0000 -5.6506
# 5 -83.9632 -68.5845 20.3386 0.0000 133.9853 0.0000
# 6 0.0000 0.0000 0.0000 -5.6506 0.0000 9.2009
#
#
#
# Elastic Compliance Matrix: (Units=1/GPa)
#
#
# Indices 1 2 3 4 5 6 
#
# 1 0.018628 -0.009525 0.000992 0.000000 0.006647 0.000000
# 2 -0.009525 0.017021 0.000519 0.000000 0.002665 0.000000
# 3 0.000992 0.000519 0.014074 0.000000 -0.001249 0.000000
# 4 0.000000 0.000000 0.000000 0.094003 0.000000 0.057731
# 5 0.006647 0.002665 -0.001249 0.000000 0.013183 0.000000
# 6 0.000000 0.000000 0.000000 0.057731 0.000000 0.144141
#
#
# Mechanical properties :
#
#
# Convention : Reuss Voigt Hill
#
# Bulk Modulus (GPa) = 29.67661 46.69581 38.18621
# Shear Modulus (GPa) = 15.22955 49.57597 32.40276
#
# Velocity S-wave (km/s) = 2.88026 5.19666 4.20126
# Velocity P-wave (km/s) = 5.21793 7.83858 6.65846
#
# Compressibility (1/GPa) = 0.03369658
#
# Stress axis : x y z
#
# Youngs Moduli (GPa) = 53.68202 58.74978 71.05238
#
# Poissons Ratio (x) = 0.55962 -0.07052
# Poissons Ratio (y) = 0.51134 -0.03691
# Poissons Ratio (z) = -0.05328 -0.03052
#
# Static dielectric constant tensor:
#      x y z
#    x 3.624170 0.000000 0.759840 
#    y 0.000000 3.332400 0.000000 
#    z 0.759840 0.000000 5.126930 
# 
# 
# High freq. dielectric constant tensor:
#      x y z
#    x 1.684630 0.000000 -0.009400 
#    y 0.000000 1.689840 0.000000 
#    z -0.009400 0.000000 1.739260 
# 
# From -- ./inp_files/53978.got.cif
#   From: 2010.06.25/outbox.cif.g09.slc.cpg/sg13_27_cif.got.tgz:53978.got - 2010.06.28 04:50:58.
