data_PCOD8117601
_publ_section_title
;
Structure prediction by ZEFSAII (Michael W. Deem and Ramdas Pophale) SiO2 
 PCOD8117601
Probable space group: P 2/C
;
_chemical_formula_sum "Si O2"
_cell_formula_units_Z 18
_cell_length_a 8.160137
_cell_length_b 21.340822
_cell_length_c 5.579068
_cell_angle_alpha 90.000000
_cell_angle_beta 57.175840
_cell_angle_gamma 90.000000
_cell_volume 816.440060
_symmetry_space_group_name_H-M "P 2/C"
_symmetry_group_IT_number 13
_symmetry_cell_setting 'monoclinic'
loop_
_space_group_symop_operation_xyz
x,y,z
-x,y,1/2-z
-x,-y,-z
x,-y,1/2+z
loop_
_atom_site_type_symbol
_atom_site_label
_atom_site_fract_x
_atom_site_fract_y
_atom_site_fract_z
Si Si1 0.794767 0.146678 0.034737
Si Si2 0.655783 0.251640 0.814133
Si Si3 0.500000 0.640295 0.750000
Si Si4 0.500000 0.038042 0.250000
Si Si5 0.284793 0.521238 0.883254
Si Si6 0.000000 0.781276 0.750000
O O1 0.662566 0.198566 0.010183
O O2 0.000000 0.135438 0.750000
O O3 0.691704 0.080123 0.117512
O O4 0.836210 0.173819 0.264877
O O5 0.500000 0.226016 0.750000
O O6 0.875720 0.261620 0.532658
O O7 0.576768 0.317645 0.972151
O O8 0.316759 0.596071 0.818159
O O9 0.500000 0.000000 0.500000
O O10 0.500000 0.488513 0.750000
O O11 0.177281 0.492871 0.728524
#
# Coordination Sequence:
#
# PCOD8117601 Si02
#       6
#     4   4   2   2   4   2
#     4  10  24  45  65  87 127 171 201 254 321 375
#     4  11  22  36  63  93 122 162 209 259 324 374
#     4  10  19  28  52  88 119 154 212 262 308 374
#     4  12  29  44  70 104 127 160 216 262 304 370
#     4   8  16  29  46  75 118 162 207 256 309 374
#     4  10  22  42  66  84 130 166 206 254 326 380
#
# _framework density 22.046935999999999
#
# number of rings (size 3 to 8) (size 9 to 14) (size 15 to 20)
#    0.667    1.333    0.000    3.333   10.889    0.889 
#    0.000    0.000    0.000    0.000    0.000    6.222 
#    0.000    0.000    0.000    0.000    0.000    0.000 
#
# Total GULP energy -223001.702259 kJ/mol
# GULP energy per Si atom -12388.983459 kJ/mol
# Density = 2.199676 g / cm^3
# Si number density = 22.046936 Si / 1000 Ang^3
#
#
#
# Elastic Constant Matrix: (Units=GPa)
#
#
# Indices 1 2 3 4 5 6 
#
# 1 113.7499 59.5202 45.8626 0.0000 32.5905 0.0000
# 2 59.5202 148.3547 68.4296 0.0000 14.4156 0.0000
# 3 45.8626 68.4296 139.4383 0.0000 24.0714 0.0000
# 4 0.0000 0.0000 0.0000 9.5043 0.0000 0.9134
# 5 32.5905 14.4156 24.0714 0.0000 42.4674 0.0000
# 6 0.0000 0.0000 0.0000 0.9134 0.0000 4.0951
#
#
#
# Elastic Compliance Matrix: (Units=1/GPa)
#
#
# Indices 1 2 3 4 5 6 
#
# 1 0.013912 -0.004290 -0.000974 0.000000 -0.008668 0.000000
# 2 -0.004290 0.010049 -0.003880 0.000000 0.002080 0.000000
# 3 -0.000974 -0.003880 0.010020 0.000000 -0.003615 0.000000
# 4 0.000000 0.000000 0.000000 0.107520 0.000000 -0.023982
# 5 -0.008668 0.002080 -0.003615 0.000000 0.031543 0.000000
# 6 0.000000 0.000000 0.000000 -0.023982 0.000000 0.249546
#
#
# Mechanical properties :
#
#
# Convention : Reuss Voigt Hill
#
# Bulk Modulus (GPa) = 63.71955 83.24086 73.48020
# Shear Modulus (GPa) = 11.20804 26.39539 18.80171
#
# Velocity S-wave (km/s) = 2.25716 3.46386 2.92345
# Velocity P-wave (km/s) = 5.97976 7.33730 6.69304
#
# Compressibility (1/GPa) = 0.01569377
#
# Stress axis : x y z
#
# Youngs Moduli (GPa) = 71.87892 99.51059 99.79953
#
# Poissons Ratio (x) = 0.42690 0.09722
# Poissons Ratio (y) = 0.30836 0.38719
# Poissons Ratio (z) = 0.07002 0.38607
#
# Static dielectric constant tensor:
#      x y z
#    x 4.052370 0.000000 0.062050 
#    y 0.000000 3.698460 0.000000 
#    z 0.062050 0.000000 7.921080 
# 
# 
# High freq. dielectric constant tensor:
#      x y z
#    x 1.859640 0.000000 0.006750 
#    y 0.000000 1.841330 0.000000 
#    z 0.006750 0.000000 1.888350 
# 
# From -- ./inp_files/1783.got.cif
#   From: 2010.06.25/outbox.cif.g09.slc.cpg/sg13_1_cif.got.tgz:1783.got - 2010.06.28 04:50:58.
