data_PCOD8117007
_publ_section_title
;
Structure prediction by ZEFSAII (Michael W. Deem and Ramdas Pophale) SiO2 
 PCOD8117007
Probable space group: P 2/C
;
_chemical_formula_sum "Si O2"
_cell_formula_units_Z 30
_cell_length_a 21.652864
_cell_length_b 11.216198
_cell_length_c 15.217363
_cell_angle_alpha 90.000000
_cell_angle_beta 28.105092
_cell_angle_gamma 90.000000
_cell_volume 1741.023190
_symmetry_space_group_name_H-M "P 2/C"
_symmetry_group_IT_number 13
_symmetry_cell_setting 'monoclinic'
loop_
_space_group_symop_operation_xyz
x,y,z
-x,y,1/2-z
-x,-y,-z
x,-y,1/2+z
loop_
_atom_site_type_symbol
_atom_site_label
_atom_site_fract_x
_atom_site_fract_y
_atom_site_fract_z
Si Si1 0.644968 0.343970 0.469443
Si Si2 0.147831 0.840553 0.579116
Si Si3 0.462777 0.836805 0.617017
Si Si4 0.375954 0.426010 0.181554
Si Si5 0.500000 0.051136 0.250000
Si Si6 0.253625 0.912202 0.623276
Si Si7 0.341124 0.378206 0.854936
Si Si8 0.712694 0.966639 0.250046
O O1 0.705288 0.411305 0.307996
O O2 0.720178 0.220347 0.376988
O O3 0.487713 0.328457 0.651698
O O4 0.670926 0.415510 0.527153
O O5 0.155561 0.909827 0.663052
O O6 0.241205 0.726626 0.458051
O O7 0.187551 0.930073 0.451278
O O8 0.000000 0.797581 0.750000
O O9 0.420412 0.700616 0.663135
O O10 0.444484 0.867127 0.742185
O O11 0.613481 0.857805 0.397344
O O12 0.369490 0.917588 0.674526
O O13 0.300634 0.504124 0.349877
O O14 0.500000 0.500000 0.000000
O O15 0.391312 0.962734 0.420653
O O16 0.203898 0.994172 0.767390
#
# Coordination Sequence:
#
# PCOD8117007 Si02
#       8
#     4   4   4   4   2   4   4   4
#     4   9  16  29  51  77  99 132 166 202 262 327
#     4  11  22  36  53  74 102 140 186 218 247 302
#     4  10  19  29  50  83 111 131 158 213 270 315
#     4  10  18  29  47  75 107 133 159 204 258 310
#     4  10  18  28  50  82 118 132 160 206 274 318
#     4  10  18  31  53  76 105 140 167 206 264 322
#     4   9  19  31  50  74 102 132 174 210 253 301
#     4  10  19  32  52  78 107 132 169 209 263 316
#
# _framework density 17.231248000000001
#
# number of rings (size 3 to 8) (size 9 to 14) (size 15 to 20)
#    0.000    2.133    2.667    3.200    1.867    2.667 
#    0.000    0.000    0.000    4.000    0.000    0.000 
#    0.000    0.000    0.000    0.000    0.000    0.000 
#
# Total GULP energy -371754.949814 kJ/mol
# GULP energy per Si atom -12391.831660 kJ/mol
# Density = 1.719203 g / cm^3
# Si number density = 17.231248 Si / 1000 Ang^3
#
#
#
# Elastic Constant Matrix: (Units=GPa)
#
#
# Indices 1 2 3 4 5 6 
#
# 1 132.4555 43.4976 42.5053 0.0000 29.9091 0.0000
# 2 43.4976 77.8947 22.0925 0.0000 10.7207 0.0000
# 3 42.5053 22.0925 42.3959 0.0000 5.5431 0.0000
# 4 0.0000 0.0000 0.0000 9.6642 0.0000 11.4339
# 5 29.9091 10.7207 5.5431 0.0000 22.4975 0.0000
# 6 0.0000 0.0000 0.0000 11.4339 0.0000 27.2386
#
#
#
# Elastic Compliance Matrix: (Units=1/GPa)
#
#
# Indices 1 2 3 4 5 6 
#
# 1 0.016636 -0.003295 -0.012684 0.000000 -0.017421 0.000000
# 2 -0.003295 0.016384 -0.004946 0.000000 -0.002209 0.000000
# 3 -0.012684 -0.004946 0.037579 0.000000 0.009961 0.000000
# 4 0.000000 0.000000 0.000000 0.205564 0.000000 -0.086289
# 5 -0.017421 -0.002209 0.009961 0.000000 0.066208 0.000000
# 6 0.000000 0.000000 0.000000 -0.086289 0.000000 0.072934
#
#
# Mechanical properties :
#
#
# Convention : Reuss Voigt Hill
#
# Bulk Modulus (GPa) = 34.78281 52.10410 43.44345
# Shear Modulus (GPa) = 10.71263 21.52346 16.11805
#
# Velocity S-wave (km/s) = 2.49609 3.53809 3.06174
# Velocity P-wave (km/s) = 5.34200 6.85526 6.14539
#
# Compressibility (1/GPa) = 0.02874983
#
# Stress axis : x y z
#
# Youngs Moduli (GPa) = 60.11150 61.03368 26.61052
#
# Poissons Ratio (x) = 0.20108 0.33753
# Poissons Ratio (y) = 0.19804 0.13162
# Poissons Ratio (z) = 0.76246 0.30188
#
# Static dielectric constant tensor:
#      x y z
#    x 3.877720 0.000000 0.569370 
#    y 0.000000 3.146910 0.000000 
#    z 0.569370 0.000000 3.003470 
# 
# 
# High freq. dielectric constant tensor:
#      x y z
#    x 1.683650 0.000000 0.035970 
#    y 0.000000 1.655960 0.000000 
#    z 0.035970 0.000000 1.617870 
# 
# From -- ./inp_files/57613.got.cif
#   From: 2010.06.25/outbox.cif.g09.slc.cpg/sg13_29_cif.got.tgz:57613.got - 2010.06.28 04:50:58.
