data_PCOD8117420
_publ_section_title
;
Structure prediction by ZEFSAII (Michael W. Deem and Ramdas Pophale) SiO2 
 PCOD8117420
Probable space group: P 2/C
;
_chemical_formula_sum "Si O2"
_cell_formula_units_Z 28
_cell_length_a 11.646767
_cell_length_b 9.935819
_cell_length_c 14.011610
_cell_angle_alpha 90.000000
_cell_angle_beta 64.276335
_cell_angle_gamma 90.000000
_cell_volume 1460.739051
_symmetry_space_group_name_H-M "P 2/C"
_symmetry_group_IT_number 13
_symmetry_cell_setting 'monoclinic'
loop_
_space_group_symop_operation_xyz
x,y,z
-x,y,1/2-z
-x,-y,-z
x,-y,1/2+z
loop_
_atom_site_type_symbol
_atom_site_label
_atom_site_fract_x
_atom_site_fract_y
_atom_site_fract_z
Si Si1 0.752018 0.664592 0.971199
Si Si2 0.708276 0.960286 0.934098
Si Si3 0.097520 0.809800 0.132164
Si Si4 0.070901 0.380209 0.921814
Si Si5 0.483082 0.634509 0.150122
Si Si6 0.527580 0.051647 0.845617
Si Si7 0.780520 0.562347 0.321010
O O1 0.821549 0.559844 0.875595
O O2 0.757601 0.808372 0.918399
O O3 0.820078 0.677668 0.048888
O O4 0.608383 0.613961 0.041415
O O5 0.824474 0.056857 0.923325
O O6 0.654254 0.986426 0.846684
O O7 0.596152 0.986228 0.049340
O O8 0.199033 0.701328 0.131670
O O9 0.000000 0.850792 0.250000
O O10 0.022529 0.744765 0.069256
O O11 0.131862 0.442302 0.804215
O O12 0.000000 0.500000 0.000000
O O13 0.500000 0.576658 0.250000
O O14 0.444657 0.790382 0.168920
O O15 0.368791 0.548316 0.146806
O O16 0.500000 0.993581 0.750000
#
# Coordination Sequence:
#
# PCOD8117420 Si02
#       7
#     4   4   4   4   4   4   4
#     4  11  23  38  62  92 122 154 198 255 303 353
#     4  10  21  40  59  93 122 155 201 245 299 351
#     4  10  22  39  63  85 118 166 202 237 287 363
#     4  11  23  42  62  85 120 164 207 240 299 360
#     4  10  18  35  65  92 115 155 201 244 294 361
#     4   9  19  36  63  87 124 161 189 242 303 360
#     4  11  21  40  64  87 119 158 199 248 302 352
#
# _framework density 19.168379999999999
#
# number of rings (size 3 to 8) (size 9 to 14) (size 15 to 20)
#    0.000    1.714    4.286    0.429    0.000    0.571 
#    5.143    0.714    0.000    0.000    0.000    0.000 
#    0.000    0.000    0.000    0.000    0.000    0.000 
#
# Total GULP energy -347247.851928 kJ/mol
# GULP energy per Si atom -12401.708997 kJ/mol
# Density = 1.912475 g / cm^3
# Si number density = 19.168380 Si / 1000 Ang^3
#
#
#
# Elastic Constant Matrix: (Units=GPa)
#
#
# Indices 1 2 3 4 5 6 
#
# 1 96.3581 22.6523 37.1246 0.0000 6.6631 0.0000
# 2 22.6523 71.4448 41.5101 0.0000 -4.1357 0.0000
# 3 37.1246 41.5101 78.1595 0.0000 14.4794 0.0000
# 4 0.0000 0.0000 0.0000 27.6056 0.0000 -2.2954
# 5 6.6631 -4.1357 14.4794 0.0000 32.4951 0.0000
# 6 0.0000 0.0000 0.0000 -2.2954 0.0000 34.3842
#
#
#
# Elastic Compliance Matrix: (Units=1/GPa)
#
#
# Indices 1 2 3 4 5 6 
#
# 1 0.012732 -0.000812 -0.005574 0.000000 -0.000230 0.000000
# 2 -0.000812 0.022419 -0.013167 0.000000 0.008887 0.000000
# 3 -0.005574 -0.013167 0.024561 0.000000 -0.011477 0.000000
# 4 0.000000 0.000000 0.000000 0.036427 0.000000 0.002432
# 5 -0.000230 0.008887 -0.011477 0.000000 0.037066 0.000000
# 6 0.000000 0.000000 0.000000 0.002432 0.000000 0.029245
#
#
# Mechanical properties :
#
#
# Convention : Reuss Voigt Hill
#
# Bulk Modulus (GPa) = 48.52857 49.83737 49.18297
# Shear Modulus (GPa) = 23.98938 28.54202 26.26570
#
# Velocity S-wave (km/s) = 3.54150 3.86296 3.70572
# Velocity P-wave (km/s) = 6.48806 6.77885 6.63505
#
# Compressibility (1/GPa) = 0.02060642
#
# Stress axis : x y z
#
# Youngs Moduli (GPa) = 78.54117 44.60488 40.71468
#
# Poissons Ratio (x) = 0.03621 0.22693
# Poissons Ratio (y) = 0.06376 0.53611
# Poissons Ratio (z) = 0.43777 0.58733
#
# Static dielectric constant tensor:
#      x y z
#    x 3.764140 0.000000 0.163370 
#    y 0.000000 3.240620 0.000000 
#    z 0.163370 0.000000 3.440490 
# 
# 
# High freq. dielectric constant tensor:
#      x y z
#    x 1.763050 0.000000 0.004340 
#    y 0.000000 1.725980 0.000000 
#    z 0.004340 0.000000 1.739550 
# 
# From -- ./inp_files/49879.got.cif
#   From: 2010.06.25/outbox.cif.g09.slc.cpg/sg13_25_cif.got.tgz:49879.got - 2010.06.28 04:50:58.
