data_PCOD8117212
_publ_section_title
;
Structure prediction by ZEFSAII (Michael W. Deem and Ramdas Pophale) SiO2 
 PCOD8117212
Probable space group: P 2/C
;
_chemical_formula_sum "Si O2"
_cell_formula_units_Z 22
_cell_length_a 16.759909
_cell_length_b 11.253267
_cell_length_c 15.949123
_cell_angle_alpha 90.000000
_cell_angle_beta 19.278761
_cell_angle_gamma 90.000000
_cell_volume 993.156016
_symmetry_space_group_name_H-M "P 2/C"
_symmetry_group_IT_number 13
_symmetry_cell_setting 'monoclinic'
loop_
_space_group_symop_operation_xyz
x,y,z
-x,y,1/2-z
-x,-y,-z
x,-y,1/2+z
loop_
_atom_site_type_symbol
_atom_site_label
_atom_site_fract_x
_atom_site_fract_y
_atom_site_fract_z
Si Si1 0.370746 0.775127 0.498852
Si Si2 0.511798 0.476049 0.889315
Si Si3 0.242527 0.040855 0.852817
Si Si4 0.000000 0.141890 0.250000
Si Si5 0.010897 0.433365 0.900751
Si Si6 0.933341 0.185220 0.042527
O O1 0.548844 0.662365 0.327053
O O2 0.500197 0.903104 0.378970
O O3 0.190504 0.754357 0.754743
O O4 0.227378 0.776121 0.552125
O O5 0.752075 0.538795 0.612038
O O6 0.500000 0.500000 0.000000
O O7 0.252190 0.523758 0.110485
O O8 0.253645 0.899498 0.823730
O O9 0.058459 0.060394 0.112129
O O10 0.156611 0.105185 0.852449
O O11 0.034053 0.290978 0.885395
O O12 0.000000 0.500000 0.000000
#
# Coordination Sequence:
#
# PCOD8117212 Si02
#       6
#     4   4   4   2   4   4
#     4  11  20  36  59  85 119 155 201 254 307 360
#     4  10  19  31  58  86 124 148 190 245 308 360
#     4  10  21  37  55  87 116 154 202 250 307 362
#     4  10  24  38  54  84 112 168 200 244 298 370
#     4  10  18  33  52  92 121 153 181 240 311 358
#     4  10  20  33  59  89 120 146 199 257 308 357
#
# _framework density 22.151606999999998
#
# number of rings (size 3 to 8) (size 9 to 14) (size 15 to 20)
#    0.000    1.818    3.636    3.273    2.545    0.000 
#    0.000    0.000    0.000    1.091    0.000    0.000 
#    0.000    0.000    0.000    0.000    0.000    0.000 
#
# Total GULP energy -272654.289559 kJ/mol
# GULP energy per Si atom -12393.376798 kJ/mol
# Density = 2.210119 g / cm^3
# Si number density = 22.151607 Si / 1000 Ang^3
#
#
#
# Elastic Constant Matrix: (Units=GPa)
#
#
# Indices 1 2 3 4 5 6 
#
# 1 69.3746 37.8013 16.6255 0.0000 -18.1655 0.0000
# 2 37.8013 138.4824 20.0168 0.0000 -20.2855 0.0000
# 3 16.6255 20.0168 113.9983 0.0000 -36.2199 0.0000
# 4 0.0000 0.0000 0.0000 31.1677 0.0000 -7.5909
# 5 -18.1655 -20.2855 -36.2199 0.0000 29.9510 0.0000
# 6 0.0000 0.0000 0.0000 -7.5909 0.0000 14.2043
#
#
#
# Elastic Compliance Matrix: (Units=1/GPa)
#
#
# Indices 1 2 3 4 5 6 
#
# 1 0.018916 -0.003823 0.001194 0.000000 0.010327 0.000000
# 2 -0.003823 0.008808 0.000276 0.000000 0.003980 0.000000
# 3 0.001194 0.000276 0.014354 0.000000 0.018269 0.000000
# 4 0.000000 0.000000 0.000000 0.036885 0.000000 0.019712
# 5 0.010327 0.003980 0.018269 0.000000 0.064440 0.000000
# 6 0.000000 0.000000 0.000000 0.019712 0.000000 0.080936
#
#
# Mechanical properties :
#
#
# Convention : Reuss Voigt Hill
#
# Bulk Modulus (GPa) = 26.75977 52.30472 39.53225
# Shear Modulus (GPa) = 20.70369 31.55870 26.13120
#
# Velocity S-wave (km/s) = 3.06050 3.77857 3.43833
# Velocity P-wave (km/s) = 4.95937 6.53454 5.80067
#
# Compressibility (1/GPa) = 0.03736952
#
# Stress axis : x y z
#
# Youngs Moduli (GPa) = 52.86636 113.53421 69.66637
#
# Poissons Ratio (x) = 0.43407 -0.08316
# Poissons Ratio (y) = 0.20212 -0.01919
# Poissons Ratio (z) = -0.06310 -0.03128
#
# Static dielectric constant tensor:
#      x y z
#    x 3.730670 0.000000 -0.667750 
#    y 0.000000 3.940810 0.000000 
#    z -0.667750 0.000000 6.169370 
# 
# 
# High freq. dielectric constant tensor:
#      x y z
#    x 1.824440 0.000000 -0.022750 
#    y 0.000000 1.864770 0.000000 
#    z -0.022750 0.000000 1.876780 
# 
# From -- ./inp_files/61027.got.cif
#   From: 2010.06.25/outbox.cif.g09.slc.cpg/sg13_31_cif.got.tgz:61027.got - 2010.06.28 04:50:58.
