data_PCOD8117300
_publ_section_title
;
Structure prediction by ZEFSAII (Michael W. Deem and Ramdas Pophale) SiO2 
 PCOD8117300
Probable space group: P 2/C
;
_chemical_formula_sum "Si O2"
_cell_formula_units_Z 28
_cell_length_a 14.426963
_cell_length_b 11.995414
_cell_length_c 9.942040
_cell_angle_alpha 90.000000
_cell_angle_beta 68.746718
_cell_angle_gamma 90.000000
_cell_volume 1603.524389
_symmetry_space_group_name_H-M "P 2/C"
_symmetry_group_IT_number 13
_symmetry_cell_setting 'monoclinic'
loop_
_space_group_symop_operation_xyz
x,y,z
-x,y,1/2-z
-x,-y,-z
x,-y,1/2+z
loop_
_atom_site_type_symbol
_atom_site_label
_atom_site_fract_x
_atom_site_fract_y
_atom_site_fract_z
Si Si1 0.401678 0.120720 0.587998
Si Si2 0.614960 0.867418 0.939966
Si Si3 0.248932 0.093890 0.886243
Si Si4 0.871571 0.306768 0.921374
Si Si5 0.091348 0.743613 0.396368
Si Si6 0.934130 0.455253 0.415445
Si Si7 0.294215 0.839938 0.873304
O O1 0.510455 0.177384 0.558454
O O2 0.318461 0.156568 0.739442
O O3 0.372066 0.152783 0.452873
O O4 0.411275 0.988907 0.603551
O O5 0.649658 0.798153 0.790803
O O6 0.705975 0.870198 0.994952
O O7 0.136059 0.140122 0.929779
O O8 0.241879 0.960302 0.877042
O O9 0.857408 0.273092 0.774528
O O10 0.861404 0.441322 0.922220
O O11 0.973049 0.259009 0.934488
O O12 0.785811 0.254930 0.056075
O O13 0.122287 0.652542 0.494646
O O14 0.000000 0.423757 0.250000
O O15 0.000000 0.500000 0.500000
#
# Coordination Sequence:
#
# PCOD8117300 Si02
#       7
#     4   4   4   4   4   4   4
#     4   9  16  31  50  67 104 139 169 207 255 291
#     4   9  18  29  46  77 101 131 174 218 241 284
#     4  10  19  31  49  78 106 137 166 205 250 309
#     4  10  19  35  54  74 102 140 167 209 259 302
#     4  10  20  34  54  74 104 137 169 210 257 299
#     4  10  18  34  56  76  93 127 178 222 252 288
#     4  10  19  31  51  75 107 137 170 199 250 316
#
# _framework density 17.461537
#
# number of rings (size 3 to 8) (size 9 to 14) (size 15 to 20)
#    0.000    2.286    4.286    0.857    0.000    6.286 
#    0.000    0.000    3.143    0.000    0.000    6.000 
#    0.000    0.000    0.000    0.000    0.000    0.000 
#
# Total GULP energy -346887.461094 kJ/mol
# GULP energy per Si atom -12388.837896 kJ/mol
# Density = 1.742179 g / cm^3
# Si number density = 17.461537 Si / 1000 Ang^3
#
#
#
# Elastic Constant Matrix: (Units=GPa)
#
#
# Indices 1 2 3 4 5 6 
#
# 1 55.8095 25.6641 19.8764 0.0000 -6.4924 0.0000
# 2 25.6641 53.5294 15.1586 0.0000 -6.3066 0.0000
# 3 19.8764 15.1586 104.4228 0.0000 -4.7600 0.0000
# 4 0.0000 0.0000 0.0000 24.2152 0.0000 0.9084
# 5 -6.4924 -6.3066 -4.7600 0.0000 27.5490 0.0000
# 6 0.0000 0.0000 0.0000 0.9084 0.0000 11.3877
#
#
#
# Elastic Compliance Matrix: (Units=1/GPa)
#
#
# Indices 1 2 3 4 5 6 
#
# 1 0.024062 -0.010373 -0.002947 0.000000 0.002787 0.000000
# 2 -0.010373 0.024402 -0.001436 0.000000 0.002893 0.000000
# 3 -0.002947 -0.001436 0.010381 0.000000 0.000770 0.000000
# 4 0.000000 0.000000 0.000000 0.041420 0.000000 -0.003304
# 5 0.002787 0.002893 0.000770 0.000000 0.037751 0.000000
# 6 0.000000 0.000000 0.000000 -0.003304 0.000000 0.088077
#
#
# Mechanical properties :
#
#
# Convention : Reuss Voigt Hill
#
# Bulk Modulus (GPa) = 34.09218 37.24001 35.66610
# Shear Modulus (GPa) = 18.84056 22.83456 20.83756
#
# Velocity S-wave (km/s) = 3.28834 3.62014 3.45822
# Velocity P-wave (km/s) = 5.82959 6.23275 6.03453
#
# Compressibility (1/GPa) = 0.02933224
#
# Stress axis : x y z
#
# Youngs Moduli (GPa) = 41.55902 40.97975 96.32968
#
# Poissons Ratio (x) = 0.42510 0.28391
# Poissons Ratio (y) = 0.43111 0.13832
# Poissons Ratio (z) = 0.12248 0.05884
#
# Static dielectric constant tensor:
#      x y z
#    x 3.138270 0.000000 0.038750 
#    y 0.000000 3.404790 0.000000 
#    z 0.038750 0.000000 3.603310 
# 
# 
# High freq. dielectric constant tensor:
#      x y z
#    x 1.661140 0.000000 0.009000 
#    y 0.000000 1.627810 0.000000 
#    z 0.009000 0.000000 1.693250 
# 
# From -- ./inp_files/18763.got.cif
#   From: 2010.06.25/outbox.cif.g09.slc.cpg/sg13_10_cif.got.tgz:18763.got - 2010.06.28 04:50:58.
