data_PCOD8117948
_publ_section_title
;
Structure prediction by ZEFSAII (Michael W. Deem and Ramdas Pophale) SiO2 
 PCOD8117948
Probable space group: P 2/C
;
_chemical_formula_sum "Si O2"
_cell_formula_units_Z 16
_cell_length_a 8.752127
_cell_length_b 17.109593
_cell_length_c 5.184974
_cell_angle_alpha 90.000000
_cell_angle_beta 93.276105
_cell_angle_gamma 90.000000
_cell_volume 775.156763
_symmetry_space_group_name_H-M "P 2/C"
_symmetry_group_IT_number 13
_symmetry_cell_setting 'monoclinic'
loop_
_space_group_symop_operation_xyz
x,y,z
-x,y,1/2-z
-x,-y,-z
x,-y,1/2+z
loop_
_atom_site_type_symbol
_atom_site_label
_atom_site_fract_x
_atom_site_fract_y
_atom_site_fract_z
Si Si1 0.819230 0.720559 0.229517
Si Si2 0.671264 0.787547 0.721339
Si Si3 0.329854 0.966973 0.934797
Si Si4 0.181661 0.542910 0.284752
O O1 0.752531 0.739766 0.503446
O O2 0.768313 0.632094 0.164416
O O3 0.000000 0.730024 0.250000
O O4 0.758444 0.777576 0.000325
O O5 0.500000 0.756517 0.750000
O O6 0.668846 0.877058 0.636823
O O7 0.244848 0.016058 0.698417
O O8 0.500000 0.000000 0.000000
O O9 0.249476 0.491627 0.525836
O O10 0.000000 0.536598 0.250000
#
# Coordination Sequence:
#
# PCOD8117948 Si02
#       4
#     4   4   4   4
#     4  11  24  40  61  93 131 158 193 257 318 358
#     4  12  23  38  65  93 120 160 208 254 297 363
#     4  10  19  34  59  89 109 147 205 265 275 329
#     4   9  17  33  59  85 111 156 211 245 277 349
#
# _framework density 20.640989000000001
#
# number of rings (size 3 to 8) (size 9 to 14) (size 15 to 20)
#    0.000    1.500    2.500    4.500    3.500    4.000 
#    0.000    0.000    0.000   30.000    0.000    0.000 
#    0.000    0.000    0.000    0.000    0.000    0.000 
#
# Total GULP energy -198330.344116 kJ/mol
# GULP energy per Si atom -12395.646507 kJ/mol
# Density = 2.059401 g / cm^3
# Si number density = 20.640989 Si / 1000 Ang^3
#
#
#
# Elastic Constant Matrix: (Units=GPa)
#
#
# Indices 1 2 3 4 5 6 
#
# 1 81.5374 28.7205 33.6247 0.0000 -11.0367 0.0000
# 2 28.7205 99.9295 29.8857 0.0000 5.6089 0.0000
# 3 33.6247 29.8857 155.2011 0.0000 -19.1309 0.0000
# 4 0.0000 0.0000 0.0000 40.2371 0.0000 1.4588
# 5 -11.0367 5.6089 -19.1309 0.0000 29.5967 0.0000
# 6 0.0000 0.0000 0.0000 1.4588 0.0000 21.9865
#
#
#
# Elastic Compliance Matrix: (Units=1/GPa)
#
#
# Indices 1 2 3 4 5 6 
#
# 1 0.015184 -0.004104 -0.001853 0.000000 0.005242 0.000000
# 2 -0.004104 0.012098 -0.002077 0.000000 -0.005166 0.000000
# 3 -0.001853 -0.002077 0.007832 0.000000 0.004765 0.000000
# 4 0.000000 0.000000 0.000000 0.024913 0.000000 -0.001653
# 5 0.005242 -0.005166 0.004765 0.000000 0.039801 0.000000
# 6 0.000000 0.000000 0.000000 -0.001653 0.000000 0.045592
#
#
# Mechanical properties :
#
#
# Convention : Reuss Voigt Hill
#
# Bulk Modulus (GPa) = 52.50734 57.90330 55.20532
# Shear Modulus (GPa) = 29.79096 34.65988 32.22542
#
# Velocity S-wave (km/s) = 3.80319 4.10222 3.95553
# Velocity P-wave (km/s) = 6.69173 7.10993 6.90400
#
# Compressibility (1/GPa) = 0.01904496
#
# Stress axis : x y z
#
# Youngs Moduli (GPa) = 65.86058 82.66037 127.67953
#
# Poissons Ratio (x) = 0.33923 0.23661
# Poissons Ratio (y) = 0.27028 0.26521
# Poissons Ratio (z) = 0.12205 0.17170
#
# Static dielectric constant tensor:
#      x y z
#    x 3.437030 0.000000 -0.090070 
#    y 0.000000 3.863910 0.000000 
#    z -0.090070 0.000000 3.097900 
# 
# 
# High freq. dielectric constant tensor:
#      x y z
#    x 1.759690 0.000000 -0.019570 
#    y 0.000000 1.817380 0.000000 
#    z -0.019570 0.000000 1.839540 
# 
# From -- ./inp_files/1139.got.cif
#   From: 2010.06.25/outbox.cif.g09.slc.cpg/sg13_1_cif.got.tgz:1139.got - 2010.06.28 04:50:58.
