data_PCOD8117197
_publ_section_title
;
Structure prediction by ZEFSAII (Michael W. Deem and Ramdas Pophale) SiO2 
 PCOD8117197
Probable space group: P 2/C
;
_chemical_formula_sum "Si O2"
_cell_formula_units_Z 30
_cell_length_a 8.374484
_cell_length_b 9.443796
_cell_length_c 26.714788
_cell_angle_alpha 90.000000
_cell_angle_beta 44.714941
_cell_angle_gamma 90.000000
_cell_volume 1486.517044
_symmetry_space_group_name_H-M "P 2/C"
_symmetry_group_IT_number 13
_symmetry_cell_setting 'monoclinic'
loop_
_space_group_symop_operation_xyz
x,y,z
-x,y,1/2-z
-x,-y,-z
x,-y,1/2+z
loop_
_atom_site_type_symbol
_atom_site_label
_atom_site_fract_x
_atom_site_fract_y
_atom_site_fract_z
Si Si1 0.195587 0.877114 0.608924
Si Si2 0.267480 0.501842 0.936591
Si Si3 0.488855 0.073822 0.642395
Si Si4 0.580818 0.268350 0.527077
Si Si5 0.000000 0.938592 0.750000
Si Si6 0.874796 0.814954 0.417458
Si Si7 0.348108 0.182687 0.436520
Si Si8 0.339234 0.308763 0.827775
O O1 0.208013 0.774366 0.557495
O O2 0.448706 0.875434 0.573837
O O3 0.025659 0.839664 0.693739
O O4 0.122903 0.033879 0.609139
O O5 0.367974 0.423523 0.962864
O O6 0.373939 0.658661 0.910411
O O7 0.337504 0.426504 0.870413
O O8 0.000000 0.500000 0.000000
O O9 0.561533 0.156227 0.576021
O O10 0.220377 0.039592 0.703580
O O11 0.551822 0.162660 0.676973
O O12 0.644131 0.929817 0.610826
O O13 0.342255 0.277465 0.551103
O O14 0.873398 0.828960 0.478735
O O15 0.097749 0.724294 0.355770
O O16 0.500000 0.374176 0.750000
#
# Coordination Sequence:
#
# PCOD8117197 Si02
#       8
#     4   4   4   4   2   4   4   4
#     4  10  19  34  60  96 118 150 201 261 295 358
#     4  11  24  43  59  88 124 166 204 255 304 371
#     4  10  20  38  64  89 123 156 202 256 305 368
#     4  10  20  37  65  89 114 162 212 249 300 365
#     4  10  18  32  60  90 130 148 192 252 318 358
#     4  11  18  36  64  90 119 149 206 260 304 351
#     4  10  19  37  63  87 117 153 202 256 295 357
#     4  11  25  40  61  93 127 160 204 256 316 372
#
# _framework density 20.181403
#
# number of rings (size 3 to 8) (size 9 to 14) (size 15 to 20)
#    0.000    1.600    5.333    1.600    0.000    3.733 
#    0.000    3.333    5.867    0.000    0.000    0.000 
#    0.000    0.000    0.000    0.000    0.000    0.000 
#
# Total GULP energy -371742.612232 kJ/mol
# GULP energy per Si atom -12391.420408 kJ/mol
# Density = 2.013547 g / cm^3
# Si number density = 20.181403 Si / 1000 Ang^3
#
#
#
# Elastic Constant Matrix: (Units=GPa)
#
#
# Indices 1 2 3 4 5 6 
#
# 1 62.2829 25.7314 35.5577 0.0000 2.6757 0.0000
# 2 25.7314 101.3158 38.1268 0.0000 7.4494 0.0000
# 3 35.5577 38.1268 147.5090 0.0000 17.4396 0.0000
# 4 0.0000 0.0000 0.0000 20.5605 0.0000 0.9163
# 5 2.6757 7.4494 17.4396 0.0000 30.9596 0.0000
# 6 0.0000 0.0000 0.0000 0.9163 0.0000 19.1752
#
#
#
# Elastic Compliance Matrix: (Units=1/GPa)
#
#
# Indices 1 2 3 4 5 6 
#
# 1 0.019773 -0.003622 -0.003998 0.000000 0.001414 0.000000
# 2 -0.003622 0.011633 -0.001971 0.000000 -0.001376 0.000000
# 3 -0.003998 -0.001971 0.008737 0.000000 -0.004102 0.000000
# 4 0.000000 0.000000 0.000000 0.048741 0.000000 -0.002329
# 5 0.001414 -0.001376 -0.004102 0.000000 0.034820 0.000000
# 6 0.000000 0.000000 0.000000 -0.002329 0.000000 0.052262
#
#
# Mechanical properties :
#
#
# Convention : Reuss Voigt Hill
#
# Bulk Modulus (GPa) = 47.70295 56.65996 52.18146
# Shear Modulus (GPa) = 24.73606 28.25185 26.49395
#
# Velocity S-wave (km/s) = 3.50478 3.74558 3.62718
# Velocity P-wave (km/s) = 6.32980 6.84413 6.59198
#
# Compressibility (1/GPa) = 0.02096306
#
# Stress axis : x y z
#
# Youngs Moduli (GPa) = 50.57276 85.96373 114.45134
#
# Poissons Ratio (x) = 0.31132 0.45754
# Poissons Ratio (y) = 0.18315 0.22560
# Poissons Ratio (z) = 0.20217 0.16944
#
# Static dielectric constant tensor:
#      x y z
#    x 3.709430 0.000000 0.225200 
#    y 0.000000 3.713740 0.000000 
#    z 0.225200 0.000000 4.006730 
# 
# 
# High freq. dielectric constant tensor:
#      x y z
#    x 1.778930 0.000000 0.009730 
#    y 0.000000 1.769150 0.000000 
#    z 0.009730 0.000000 1.793660 
# 
# From -- ./inp_files/95957.got.cif
#   From: 2010.06.25/outbox.cif.g09.slc.cpg/sg13_48_cif.got.tgz:95957.got - 2010.06.28 04:50:58.
