data_PCOD8117984
_publ_section_title
;
Structure prediction by ZEFSAII (Michael W. Deem and Ramdas Pophale) SiO2 
 PCOD8117984
Probable space group: P 2/C
;
_chemical_formula_sum "Si O2"
_cell_formula_units_Z 20
_cell_length_a 5.273719
_cell_length_b 11.360542
_cell_length_c 17.263259
_cell_angle_alpha 90.000000
_cell_angle_beta 82.367552
_cell_angle_gamma 90.000000
_cell_volume 1025.118421
_symmetry_space_group_name_H-M "P 2/C"
_symmetry_group_IT_number 13
_symmetry_cell_setting 'monoclinic'
loop_
_space_group_symop_operation_xyz
x,y,z
-x,y,1/2-z
-x,-y,-z
x,-y,1/2+z
loop_
_atom_site_type_symbol
_atom_site_label
_atom_site_fract_x
_atom_site_fract_y
_atom_site_fract_z
Si Si1 0.403366 0.715969 0.403836
Si Si2 0.902558 0.600337 0.405830
Si Si3 0.904600 0.657193 0.944928
Si Si4 0.039675 0.116327 0.158773
Si Si5 0.543015 0.972875 0.158598
O O1 0.671404 0.658621 0.367693
O O2 0.354195 0.690164 0.497321
O O3 0.171750 0.655571 0.363621
O O4 0.424238 0.854371 0.390725
O O5 0.879179 0.460399 0.394287
O O6 0.875878 0.632493 0.498961
O O7 0.973610 0.761166 0.884804
O O8 0.306070 0.047782 0.134356
O O9 0.000000 0.144995 0.250000
O O10 0.806740 0.040906 0.134840
O O11 0.500000 0.941940 0.250000
#
# Coordination Sequence:
#
# PCOD8117984 Si02
#       5
#     4   4   4   4   4
#     4  10  19  35  55  79 103 139 174 212 264 310
#     4   9  20  34  55  81 107 135 168 220 269 298
#     4   9  21  34  58  76 112 133 176 217 261 312
#     4  10  22  37  54  76 106 143 174 215 264 308
#     4  10  22  38  53  75 110 141 175 219 262 307
#
# _framework density 19.509938999999999
#
# number of rings (size 3 to 8) (size 9 to 14) (size 15 to 20)
#    1.200    1.200    0.000    1.800    2.800    1.600 
#    0.000    2.000    0.000    0.000    0.000    0.000 
#    0.000    0.000    0.000    0.000    0.000    0.000 
#
# Total GULP energy -247841.871257 kJ/mol
# GULP energy per Si atom -12392.093563 kJ/mol
# Density = 1.946553 g / cm^3
# Si number density = 19.509939 Si / 1000 Ang^3
#
#
#
# Elastic Constant Matrix: (Units=GPa)
#
#
# Indices 1 2 3 4 5 6 
#
# 1 163.1239 71.6490 20.1771 0.0000 -12.5136 0.0000
# 2 71.6490 177.4528 34.5950 0.0000 0.1027 0.0000
# 3 20.1771 34.5950 18.4624 0.0000 -2.9669 0.0000
# 4 0.0000 0.0000 0.0000 -4.2618 0.0000 -1.8462
# 5 -12.5136 0.1027 -2.9669 0.0000 7.9011 0.0000
# 6 0.0000 0.0000 0.0000 -1.8462 0.0000 18.1514
#
#
#
# Elastic Compliance Matrix: (Units=1/GPa)
#
#
# Indices 1 2 3 4 5 6 
#
# 1 0.008769 -0.003312 -0.001211 0.000000 0.013476 0.000000
# 2 -0.003312 0.010484 -0.017975 0.000000 -0.012132 0.000000
# 3 -0.001211 -0.017975 0.094607 0.000000 0.033841 0.000000
# 4 0.000000 0.000000 0.000000 -0.224742 0.000000 -0.022859
# 5 0.013476 -0.012132 0.033841 0.000000 0.160774 0.000000
# 6 0.000000 0.000000 0.000000 -0.022859 0.000000 0.052767
#
#
# Mechanical properties :
#
#
# Convention : Reuss Voigt Hill
#
# Bulk Modulus (GPa) = 14.52135 67.98682 41.25409
# Shear Modulus (GPa) = 29.30672 19.86599 24.58635
#
# Velocity S-wave (km/s) = 3.87995 3.19446 3.55378
# Velocity P-wave (km/s) = 5.24702 6.96628 6.16686
#
# Compressibility (1/GPa) = 0.06886411
#
# Stress axis : x y z
#
# Youngs Moduli (GPa) = 114.04209 95.38466 10.57000
#
# Poissons Ratio (x) = 0.31593 0.01280
# Poissons Ratio (y) = 0.37773 0.18999
# Poissons Ratio (z) = 0.13812 1.71450
#
# Static dielectric constant tensor:
#      x y z
#    x 3.741430 0.000000 -0.107620 
#    y 0.000000 3.476210 0.000000 
#    z -0.107620 0.000000 3.108440 
# 
# 
# High freq. dielectric constant tensor:
#      x y z
#    x 1.767020 0.000000 -0.008640 
#    y 0.000000 1.771170 0.000000 
#    z -0.008640 0.000000 1.716560 
# 
# From -- ./inp_files/72982.got.cif
#   From: 2010.06.25/outbox.cif.g09.slc.cpg/sg13_37_cif.got.tgz:72982.got - 2010.06.28 04:50:58.
