data_PCOD8117916
_publ_section_title
;
Structure prediction by ZEFSAII (Michael W. Deem and Ramdas Pophale) SiO2 
 PCOD8117916
Probable space group: P 2/C
;
_chemical_formula_sum "Si O2"
_cell_formula_units_Z 20
_cell_length_a 10.763742
_cell_length_b 19.584374
_cell_length_c 13.471189
_cell_angle_alpha 90.000000
_cell_angle_beta 20.022878
_cell_angle_gamma 90.000000
_cell_volume 972.314446
_symmetry_space_group_name_H-M "P 2/C"
_symmetry_group_IT_number 13
_symmetry_cell_setting 'monoclinic'
loop_
_space_group_symop_operation_xyz
x,y,z
-x,y,1/2-z
-x,-y,-z
x,-y,1/2+z
loop_
_atom_site_type_symbol
_atom_site_label
_atom_site_fract_x
_atom_site_fract_y
_atom_site_fract_z
Si Si1 0.719896 0.848810 0.872693
Si Si2 0.972453 0.614168 0.989636
Si Si3 0.926009 0.485450 0.693902
Si Si4 0.357082 0.698224 0.548245
Si Si5 0.781718 0.065087 0.627351
O O1 0.540461 0.774439 0.990860
O O2 0.000000 0.839325 0.750000
O O3 0.935010 0.875937 0.615855
O O4 0.423565 0.905540 0.122972
O O5 0.080288 0.576674 0.011262
O O6 0.661556 0.669019 0.246104
O O7 0.852831 0.554061 0.002655
O O8 0.308738 0.653446 0.684825
O O9 0.000000 0.464681 0.750000
O O10 0.500000 0.500000 0.000000
O O11 0.000000 0.696969 0.750000
O O12 0.500000 0.046439 0.750000
O O13 0.000000 0.000000 0.500000
#
# Coordination Sequence:
#
# PCOD8117916 Si02
#       5
#     4   4   4   4   4
#     4   9  19  34  54  86 120 149 189 241 287 331
#     4  11  23  37  59  86 114 154 194 241 302 354
#     4  11  25  42  61  89 119 151 196 252 298 351
#     4  11  21  35  59  88 120 152 194 247 296 349
#     4  10  19  34  57  87 118 153 190 233 284 335
#
# _framework density 20.569478
#
# number of rings (size 3 to 8) (size 9 to 14) (size 15 to 20)
#    0.000    1.600    2.000    3.000    2.800    5.600 
#    0.000    0.000    0.000    4.800    0.000    0.000 
#    0.000    0.000    0.000    0.000    0.000    0.000 
#
# Total GULP energy -247897.751298 kJ/mol
# GULP energy per Si atom -12394.887565 kJ/mol
# Density = 2.052266 g / cm^3
# Si number density = 20.569478 Si / 1000 Ang^3
#
#
#
# Elastic Constant Matrix: (Units=GPa)
#
#
# Indices 1 2 3 4 5 6 
#
# 1 81.0859 30.7087 21.0447 0.0000 15.4543 0.0000
# 2 30.7087 139.9992 30.5827 0.0000 0.0508 0.0000
# 3 21.0447 30.5827 88.7405 0.0000 14.8436 0.0000
# 4 0.0000 0.0000 0.0000 10.0477 0.0000 -11.8999
# 5 15.4543 0.0508 14.8436 0.0000 26.3990 0.0000
# 6 0.0000 0.0000 0.0000 -11.8999 0.0000 -0.8511
#
#
#
# Elastic Compliance Matrix: (Units=1/GPa)
#
#
# Indices 1 2 3 4 5 6 
#
# 1 0.015413 -0.003119 -0.001183 0.000000 -0.008352 0.000000
# 2 -0.003119 0.008420 -0.002721 0.000000 0.003340 0.000000
# 3 -0.001183 -0.002721 0.013655 0.000000 -0.006980 0.000000
# 4 0.000000 0.000000 0.000000 0.005668 0.000000 -0.079249
# 5 -0.008352 0.003340 -0.006980 0.000000 0.046687 0.000000
# 6 0.000000 0.000000 0.000000 -0.079249 0.000000 -0.066914
#
#
# Mechanical properties :
#
#
# Convention : Reuss Voigt Hill
#
# Bulk Modulus (GPa) = 42.66005 52.72200 47.69102
# Shear Modulus (GPa) = 111.63383 22.28510 66.95946
#
# Velocity S-wave (km/s) = 7.37492 3.29508 5.71170
# Velocity P-wave (km/s) = 9.65939 6.33748 8.16907
#
# Compressibility (1/GPa) = 0.02344113
#
# Stress axis : x y z
#
# Youngs Moduli (GPa) = 64.88143 118.76140 73.23557
#
# Poissons Ratio (x) = 0.37045 0.08665
# Poissons Ratio (y) = 0.20238 0.19926
# Poissons Ratio (z) = 0.07676 0.32312
#
# Static dielectric constant tensor:
#      x y z
#    x 3.313850 0.000000 0.083290 
#    y 0.000000 4.079470 0.000000 
#    z 0.083290 0.000000 3.725750 
# 
# 
# High freq. dielectric constant tensor:
#      x y z
#    x 1.763290 0.000000 0.037510 
#    y 0.000000 1.812680 0.000000 
#    z 0.037510 0.000000 1.815800 
# 
# From -- ./inp_files/51592.got.cif
#   From: 2010.06.25/outbox.cif.g09.slc.cpg/sg13_26_cif.got.tgz:51592.got - 2010.06.28 04:50:58.
