data_PCOD8117883
_publ_section_title
;
Structure prediction by ZEFSAII (Michael W. Deem and Ramdas Pophale) SiO2 
 PCOD8117883
Probable space group: P 2/C
;
_chemical_formula_sum "Si O2"
_cell_formula_units_Z 28
_cell_length_a 14.246879
_cell_length_b 19.908909
_cell_length_c 5.064067
_cell_angle_alpha 90.000000
_cell_angle_beta 75.601367
_cell_angle_gamma 90.000000
_cell_volume 1391.253325
_symmetry_space_group_name_H-M "P 2/C"
_symmetry_group_IT_number 13
_symmetry_cell_setting 'monoclinic'
loop_
_space_group_symop_operation_xyz
x,y,z
-x,y,1/2-z
-x,-y,-z
x,-y,1/2+z
loop_
_atom_site_type_symbol
_atom_site_label
_atom_site_fract_x
_atom_site_fract_y
_atom_site_fract_z
Si Si1 0.612101 0.042035 0.164107
Si Si2 0.559629 0.608305 0.968309
Si Si3 0.101766 0.759132 0.254921
Si Si4 0.350342 0.255979 0.041120
Si Si5 0.303033 0.177988 0.589539
Si Si6 0.768805 0.456028 0.368506
Si Si7 0.149361 0.317961 0.204512
O O1 0.500000 0.064349 0.250000
O O2 0.635893 0.018523 0.444424
O O3 0.678612 0.102914 0.021750
O O4 0.500000 0.591289 0.750000
O O5 0.500000 0.575638 0.250000
O O6 0.564794 0.688953 0.011698
O O7 0.664489 0.575544 0.880422
O O8 0.187011 0.814553 0.222237
O O9 0.078555 0.715659 0.536226
O O10 0.000000 0.795610 0.250000
O O11 0.130152 0.706236 0.011563
O O12 0.364111 0.196675 0.812438
O O13 0.341981 0.227186 0.338850
O O14 0.253467 0.294358 0.021902
O O15 0.782980 0.515401 0.150681
O O16 0.851774 0.398871 0.286654
#
# Coordination Sequence:
#
# PCOD8117883 Si02
#       7
#     4   4   4   4   4   4   4
#     4  10  21  36  53  76 109 149 187 218 249 291
#     4  11  22  34  48  72 105 133 170 227 277 318
#     4  10  19  34  59  85 107 131 165 217 277 330
#     4   9  19  33  50  74 101 134 172 215 270 317
#     4  10  19  34  56  80 106 138 179 219 261 314
#     4  11  22  36  54  71  96 141 184 215 259 321
#     4   9  19  35  53  76 104 133 168 212 264 319
#
# _framework density 20.125736
#
# number of rings (size 3 to 8) (size 9 to 14) (size 15 to 20)
#    0.000    2.000    0.000    3.857    0.000    8.000 
#    0.000    0.000    0.000    9.429    0.000    0.000 
#    0.000    0.000    0.000    0.000    0.000    0.000 
#
# Total GULP energy -347110.881201 kJ/mol
# GULP energy per Si atom -12396.817186 kJ/mol
# Density = 2.007993 g / cm^3
# Si number density = 20.125736 Si / 1000 Ang^3
#
#
#
# Elastic Constant Matrix: (Units=GPa)
#
#
# Indices 1 2 3 4 5 6 
#
# 1 48.6333 17.8451 15.5553 0.0000 6.6567 0.0000
# 2 17.8451 74.5924 10.6883 0.0000 -10.0867 0.0000
# 3 15.5553 10.6883 101.0741 0.0000 11.9751 0.0000
# 4 0.0000 0.0000 0.0000 34.4337 0.0000 1.2571
# 5 6.6567 -10.0867 11.9751 0.0000 24.2907 0.0000
# 6 0.0000 0.0000 0.0000 1.2571 0.0000 16.0142
#
#
#
# Elastic Compliance Matrix: (Units=1/GPa)
#
#
# Indices 1 2 3 4 5 6 
#
# 1 0.024918 -0.006829 -0.002090 0.000000 -0.008634 0.000000
# 2 -0.006829 0.016615 -0.001853 0.000000 0.009685 0.000000
# 3 -0.002090 -0.001853 0.011082 0.000000 -0.005660 0.000000
# 4 0.000000 0.000000 0.000000 0.029125 0.000000 -0.002286
# 5 -0.008634 0.009685 -0.005660 0.000000 0.050346 0.000000
# 6 0.000000 0.000000 0.000000 -0.002286 0.000000 0.062624
#
#
# Mechanical properties :
#
#
# Convention : Reuss Voigt Hill
#
# Bulk Modulus (GPa) = 32.18514 34.71968 33.45241
# Shear Modulus (GPa) = 22.06410 26.96178 24.51294
#
# Velocity S-wave (km/s) = 3.31465 3.66412 3.49376
# Velocity P-wave (km/s) = 5.53859 5.93210 5.73872
#
# Compressibility (1/GPa) = 0.03107024
#
# Stress axis : x y z
#
# Youngs Moduli (GPa) = 40.13134 60.18575 90.23688
#
# Poissons Ratio (x) = 0.41103 0.18857
# Poissons Ratio (y) = 0.27407 0.16725
# Poissons Ratio (z) = 0.08386 0.11155
#
# Static dielectric constant tensor:
#      x y z
#    x 3.645900 0.000000 0.089260 
#    y 0.000000 3.469510 0.000000 
#    z 0.089260 0.000000 3.752080 
# 
# 
# High freq. dielectric constant tensor:
#      x y z
#    x 1.768200 0.000000 0.011180 
#    y 0.000000 1.762130 0.000000 
#    z 0.011180 0.000000 1.806080 
# 
# From -- ./inp_files/5215.got.cif
#   From: 2010.06.25/outbox.cif.g09.slc.cpg/sg13_3_cif.got.tgz:5215.got - 2010.06.28 04:50:58.
