data_PCOD8117652
_publ_section_title
;
Structure prediction by ZEFSAII (Michael W. Deem and Ramdas Pophale) SiO2 
 PCOD8117652
Probable space group: P 2/C
;
_chemical_formula_sum "Si O2"
_cell_formula_units_Z 28
_cell_length_a 13.380487
_cell_length_b 25.238479
_cell_length_c 5.161604
_cell_angle_alpha 90.000000
_cell_angle_beta 66.698388
_cell_angle_gamma 90.000000
_cell_volume 1600.915193
_symmetry_space_group_name_H-M "P 2/C"
_symmetry_group_IT_number 13
_symmetry_cell_setting 'monoclinic'
loop_
_space_group_symop_operation_xyz
x,y,z
-x,y,1/2-z
-x,-y,-z
x,-y,1/2+z
loop_
_atom_site_type_symbol
_atom_site_label
_atom_site_fract_x
_atom_site_fract_y
_atom_site_fract_z
Si Si1 0.870958 0.799006 0.880505
Si Si2 0.193684 0.383443 0.534247
Si Si3 0.372982 0.533843 0.882481
Si Si4 0.000000 0.464323 0.750000
Si Si5 0.129463 0.139405 0.618914
Si Si6 0.264870 0.036189 0.467286
Si Si7 0.870100 0.678299 0.900510
Si Si8 0.500000 0.035479 0.250000
O O1 0.825495 0.830775 0.680588
O O2 0.831006 0.738637 0.909133
O O3 0.000000 0.799690 0.750000
O O4 0.826003 0.827615 0.182477
O O5 0.311946 0.409841 0.442818
O O6 0.186895 0.355610 0.263555
O O7 0.106842 0.429552 0.646059
O O8 0.172258 0.340389 0.777812
O O9 0.500000 0.547540 0.750000
O O10 0.338910 0.499147 0.670099
O O11 0.000000 0.500000 0.500000
O O12 0.172473 0.079909 0.586426
O O13 0.000000 0.136213 0.750000
O O14 0.250590 0.993478 0.709359
O O15 0.383880 0.066238 0.364107
O O16 0.000000 0.671903 0.750000
O O17 0.500000 0.000000 0.500000
#
# Coordination Sequence:
#
# PCOD8117652 Si02
#       8
#     4   4   4   2   4   4   4   2
#     4   9  19  33  51  70  99 133 168 211 244 291
#     4  12  21  34  53  79 103 134 172 205 254 308
#     4  10  21  38  56  75 101 136 176 209 242 295
#     4  12  22  32  46  72 114 138 150 190 252 312
#     4  10  19  32  48  74 101 132 168 200 252 297
#     4  10  19  31  49  73 102 133 166 202 241 294
#     4  11  20  35  52  78 105 131 172 213 255 305
#     4   8  16  30  46  68  94 126 166 200 232 276
#
# _framework density 17.489995
#
# number of rings (size 3 to 8) (size 9 to 14) (size 15 to 20)
#    0.000    1.714    1.429    4.286    0.000    2.857 
#    0.000    0.000    0.000    0.000   11.143    0.000 
#    0.000    0.000    0.000    0.000    0.000    0.000 
#
# Total GULP energy -347171.868702 kJ/mol
# GULP energy per Si atom -12398.995311 kJ/mol
# Density = 1.745019 g / cm^3
# Si number density = 17.489995 Si / 1000 Ang^3
#
#
#
# Elastic Constant Matrix: (Units=GPa)
#
#
# Indices 1 2 3 4 5 6 
#
# 1 57.0786 36.0637 31.1504 0.0000 5.4960 0.0000
# 2 36.0637 92.5506 26.3419 0.0000 1.7905 0.0000
# 3 31.1504 26.3419 87.0860 0.0000 24.8730 0.0000
# 4 0.0000 0.0000 0.0000 -43.0987 0.0000 36.0997
# 5 5.4960 1.7905 24.8730 0.0000 26.4809 0.0000
# 6 0.0000 0.0000 0.0000 36.0997 0.0000 6.7060
#
#
#
# Elastic Compliance Matrix: (Units=1/GPa)
#
#
# Indices 1 2 3 4 5 6 
#
# 1 0.026730 -0.008267 -0.007702 0.000000 0.002246 0.000000
# 2 -0.008267 0.014622 -0.002287 0.000000 0.002875 0.000000
# 3 -0.007702 -0.002287 0.019719 0.000000 -0.016768 0.000000
# 4 0.000000 0.000000 0.000000 -0.004212 0.000000 0.022673
# 5 0.002246 0.002875 -0.016768 0.000000 0.052853 0.000000
# 6 0.000000 0.000000 0.000000 0.022673 0.000000 0.027069
#
#
# Mechanical properties :
#
#
# Convention : Reuss Voigt Hill
#
# Bulk Modulus (GPa) = 40.71868 47.09192 43.90530
# Shear Modulus (GPa) = 27.55149 7.56160 17.55654
#
# Velocity S-wave (km/s) = 3.97327 2.08153 3.17173
# Velocity P-wave (km/s) = 6.66190 5.72368 6.21053
#
# Compressibility (1/GPa) = 0.02455875
#
# Stress axis : x y z
#
# Youngs Moduli (GPa) = 37.41088 68.39224 50.71270
#
# Poissons Ratio (x) = 0.56541 0.39059
# Poissons Ratio (y) = 0.30928 0.11597
# Poissons Ratio (z) = 0.28814 0.15640
#
# Static dielectric constant tensor:
#      x y z
#    x 3.331130 0.000000 0.124430 
#    y 0.000000 3.169340 0.000000 
#    z 0.124430 0.000000 3.528040 
# 
# 
# High freq. dielectric constant tensor:
#      x y z
#    x 1.661920 0.000000 0.020540 
#    y 0.000000 1.664550 0.000000 
#    z 0.020540 0.000000 1.695290 
# 
# From -- ./inp_files/4113.got.cif
#   From: 2010.06.25/outbox.cif.g09.slc.cpg/sg13_3_cif.got.tgz:4113.got - 2010.06.28 04:50:58.
