data_PCOD8117052
_publ_section_title
;
Structure prediction by ZEFSAII (Michael W. Deem and Ramdas Pophale) SiO2 
 PCOD8117052
Probable space group: P 2/C
;
_chemical_formula_sum "Si O2"
_cell_formula_units_Z 24
_cell_length_a 11.653853
_cell_length_b 7.304456
_cell_length_c 18.552171
_cell_angle_alpha 90.000000
_cell_angle_beta 54.005390
_cell_angle_gamma 90.000000
_cell_volume 1277.731132
_symmetry_space_group_name_H-M "P 2/C"
_symmetry_group_IT_number 13
_symmetry_cell_setting 'monoclinic'
loop_
_space_group_symop_operation_xyz
x,y,z
-x,y,1/2-z
-x,-y,-z
x,-y,1/2+z
loop_
_atom_site_type_symbol
_atom_site_label
_atom_site_fract_x
_atom_site_fract_y
_atom_site_fract_z
Si Si1 0.164207 0.104030 0.489440
Si Si2 0.583055 0.160445 0.792704
Si Si3 0.542688 0.885468 0.553248
Si Si4 0.543852 0.548170 0.844587
Si Si5 0.265328 0.411721 0.355143
Si Si6 0.857992 0.199348 0.611438
O O1 0.286993 0.126315 0.503947
O O2 0.180298 0.235525 0.413733
O O3 0.015543 0.153696 0.582826
O O4 0.164661 0.898513 0.457769
O O5 0.500000 0.214044 0.750000
O O6 0.573482 0.333988 0.851656
O O7 0.746420 0.124566 0.711910
O O8 0.514586 0.982581 0.853125
O O9 0.470839 0.682149 0.580000
O O10 0.500000 0.000000 0.500000
O O11 0.672109 0.623059 0.747612
O O12 0.393420 0.553953 0.861687
O O13 0.160087 0.584564 0.393944
#
# Coordination Sequence:
#
# PCOD8117052 Si02
#       6
#     4   4   4   4   4   4
#     4  10  19  30  49  76 111 134 169 220 272 315
#     4  11  18  34  57  78 103 138 184 230 265 320
#     4  11  23  35  51  78 112 147 180 217 267 328
#     4   9  17  30  53  77 104 135 181 219 264 314
#     4   9  15  28  49  79 103 129 169 224 266 308
#     4  10  18  30  51  81 101 132 172 228 275 305
#
# _framework density 18.783294999999999
#
# number of rings (size 3 to 8) (size 9 to 14) (size 15 to 20)
#    0.000    2.000    5.000    1.500    2.333    0.667 
#    0.000    0.833    0.000    0.000    0.000    7.000 
#    0.000    0.000    0.000    0.000    0.000    0.000 
#
# Total GULP energy -297468.157424 kJ/mol
# GULP energy per Si atom -12394.506559 kJ/mol
# Density = 1.874054 g / cm^3
# Si number density = 18.783295 Si / 1000 Ang^3
#
#
#
# Elastic Constant Matrix: (Units=GPa)
#
#
# Indices 1 2 3 4 5 6 
#
# 1 69.7009 37.0781 41.9199 0.0000 -22.2267 0.0000
# 2 37.0781 79.3864 30.6975 0.0000 -7.9139 0.0000
# 3 41.9199 30.6975 65.1782 0.0000 -27.3698 0.0000
# 4 0.0000 0.0000 0.0000 32.8848 0.0000 -2.9137
# 5 -22.2267 -7.9139 -27.3698 0.0000 30.8976 0.0000
# 6 0.0000 0.0000 0.0000 -2.9137 0.0000 18.6566
#
#
#
# Elastic Compliance Matrix: (Units=1/GPa)
#
#
# Indices 1 2 3 4 5 6 
#
# 1 0.027587 -0.008027 -0.010337 0.000000 0.008632 0.000000
# 2 -0.008027 0.018046 -0.006083 0.000000 -0.006541 0.000000
# 3 -0.010337 -0.006083 0.033565 0.000000 0.020738 0.000000
# 4 0.000000 0.000000 0.000000 0.030836 0.000000 0.004816
# 5 0.008632 -0.006541 0.020738 0.000000 0.055269 0.000000
# 6 0.000000 0.000000 0.000000 0.004816 0.000000 0.054352
#
#
# Mechanical properties :
#
#
# Convention : Reuss Voigt Hill
#
# Bulk Modulus (GPa) = 33.00125 48.18408 40.59266
# Shear Modulus (GPa) = 17.94362 23.45914 20.70138
#
# Velocity S-wave (km/s) = 3.09414 3.53786 3.32342
# Velocity P-wave (km/s) = 5.51113 6.51129 6.03198
#
# Compressibility (1/GPa) = 0.03030188
#
# Stress axis : x y z
#
# Youngs Moduli (GPa) = 36.24921 55.41421 29.79335
#
# Poissons Ratio (x) = 0.44480 0.30799
# Poissons Ratio (y) = 0.29097 0.18124
# Poissons Ratio (z) = 0.37473 0.33711
#
# Static dielectric constant tensor:
#      x y z
#    x 3.040430 0.000000 -0.381530 
#    y 0.000000 3.866570 0.000000 
#    z -0.381530 0.000000 3.483280 
# 
# 
# High freq. dielectric constant tensor:
#      x y z
#    x 1.681180 0.000000 -0.038710 
#    y 0.000000 1.751420 0.000000 
#    z -0.038710 0.000000 1.714470 
# 
# From -- ./inp_files/65918.got.cif
#   From: 2010.06.25/outbox.cif.g09.slc.cpg/sg13_33_cif.got.tgz:65918.got - 2010.06.28 04:50:58.
