data_PCOD8117234
_publ_section_title
;
Structure prediction by ZEFSAII (Michael W. Deem and Ramdas Pophale) SiO2 
 PCOD8117234
Probable space group: P 2/C
;
_chemical_formula_sum "Si O2"
_cell_formula_units_Z 32
_cell_length_a 25.016580
_cell_length_b 9.474337
_cell_length_c 19.467126
_cell_angle_alpha 90.000000
_cell_angle_beta 157.223881
_cell_angle_gamma 90.000000
_cell_volume 1786.228079
_symmetry_space_group_name_H-M "P 2/C"
_symmetry_group_IT_number 13
_symmetry_cell_setting 'monoclinic'
loop_
_space_group_symop_operation_xyz
x,y,z
-x,y,1/2-z
-x,-y,-z
x,-y,1/2+z
loop_
_atom_site_type_symbol
_atom_site_label
_atom_site_fract_x
_atom_site_fract_y
_atom_site_fract_z
Si Si1 0.672167 0.483071 0.769515
Si Si2 0.934821 0.309370 0.098357
Si Si3 0.628069 0.501475 0.059391
Si Si4 0.161043 0.207925 0.824023
Si Si5 0.724465 0.788601 0.893822
Si Si6 0.059581 0.993626 0.396636
Si Si7 0.096271 0.493835 0.180339
Si Si8 0.555101 0.764458 0.886581
O O1 0.521991 0.424333 0.617588
O O2 0.684044 0.480622 0.702012
O O3 0.703723 0.641838 0.830267
O O4 0.785569 0.377630 0.932735
O O5 0.914789 0.151079 0.044952
O O6 0.000000 0.307322 0.250000
O O7 0.032010 0.393366 0.161339
O O8 0.751154 0.431992 0.159747
O O9 0.599001 0.654159 0.995193
O O10 0.109829 0.348629 0.725862
O O11 0.180515 0.244105 0.927497
O O12 0.306008 0.146905 0.965151
O O13 0.048508 0.085049 0.681300
O O14 0.574001 0.853964 0.736382
O O15 0.798172 0.904374 0.933313
O O16 0.000000 0.003454 0.250000
O O17 0.000000 0.500000 0.000000
O O18 0.500000 0.691700 0.750000
#
# Coordination Sequence:
#
# PCOD8117234 Si02
#       8
#     4   4   4   4   4   4   4   4
#     4  10  18  33  56  78 107 142 176 221 272 315
#     4  11  22  36  54  80 112 144 179 220 269 316
#     4   9  19  32  52  80 110 136 173 221 276 318
#     4   9  17  31  51  75 102 132 175 221 261 312
#     4   9  16  30  53  77  96 134 181 215 256 316
#     4   9  19  33  50  75 107 140 178 221 259 309
#     4  11  20  34  55  81 107 138 178 222 273 316
#     4   8  15  28  50  75  99 128 173 222 263 310
#
# _framework density 17.914847000000002
#
# number of rings (size 3 to 8) (size 9 to 14) (size 15 to 20)
#    0.000    2.500    1.250    1.500    0.000    2.000 
#    0.000    1.875    0.000    9.750    0.000    0.000 
#    0.000    0.000    0.000    0.000    0.000    0.000 
#
# Total GULP energy -396438.422653 kJ/mol
# GULP energy per Si atom -12388.700708 kJ/mol
# Density = 1.787407 g / cm^3
# Si number density = 17.914847 Si / 1000 Ang^3
#
#
#
# Elastic Constant Matrix: (Units=GPa)
#
#
# Indices 1 2 3 4 5 6 
#
# 1 91.0770 44.6181 54.1160 0.0000 27.3364 0.0000
# 2 44.6181 99.4459 55.9774 0.0000 22.9311 0.0000
# 3 54.1160 55.9774 109.2694 0.0000 32.3368 0.0000
# 4 0.0000 0.0000 0.0000 -1.4646 0.0000 2.5666
# 5 27.3364 22.9311 32.3368 0.0000 41.3514 0.0000
# 6 0.0000 0.0000 0.0000 2.5666 0.0000 6.7794
#
#
#
# Elastic Compliance Matrix: (Units=1/GPa)
#
#
# Indices 1 2 3 4 5 6 
#
# 1 0.017494 -0.003682 -0.005151 0.000000 -0.005494 0.000000
# 2 -0.003682 0.015165 -0.005434 0.000000 -0.001726 0.000000
# 3 -0.005151 -0.005434 0.016377 0.000000 -0.006388 0.000000
# 4 0.000000 0.000000 0.000000 -0.410461 0.000000 0.155395
# 5 -0.005494 -0.001726 -0.006388 0.000000 0.033767 0.000000
# 6 0.000000 0.000000 0.000000 0.155395 0.000000 0.088675
#
#
# Mechanical properties :
#
#
# Convention : Reuss Voigt Hill
#
# Bulk Modulus (GPa) = 48.78163 67.69060 58.23611
# Shear Modulus (GPa) = -24.55630 19.00529 -2.77550
#
# Velocity S-wave (km/s) = -3.70634 3.26063 -1.24605
# Velocity P-wave (km/s) = 2.99547 7.21403 5.52337
#
# Compressibility (1/GPa) = 0.02049952
#
# Stress axis : x y z
#
# Youngs Moduli (GPa) = 57.16396 65.94273 61.05967
#
# Poissons Ratio (x) = 0.24281 0.31455
# Poissons Ratio (y) = 0.21049 0.33182
# Poissons Ratio (z) = 0.29448 0.35836
#
# Static dielectric constant tensor:
#      x y z
#    x 3.666760 0.000000 0.348450 
#    y 0.000000 3.089640 0.000000 
#    z 0.348450 0.000000 3.729400 
# 
# 
# High freq. dielectric constant tensor:
#      x y z
#    x 1.702210 0.000000 0.019250 
#    y 0.000000 1.646350 0.000000 
#    z 0.019250 0.000000 1.710470 
# 
# From -- ./inp_files/82562.got.cif
#   From: 2010.06.25/outbox.cif.g09.slc.cpg/sg13_42_cif.got.tgz:82562.got - 2010.06.28 04:50:58.
