data_PCOD8117924
_publ_section_title
;
Structure prediction by ZEFSAII (Michael W. Deem and Ramdas Pophale) SiO2 
 PCOD8117924
Probable space group: P 2/C
;
_chemical_formula_sum "Si O2"
_cell_formula_units_Z 30
_cell_length_a 24.984259
_cell_length_b 9.775311
_cell_length_c 18.220359
_cell_angle_alpha 90.000000
_cell_angle_beta 158.454691
_cell_angle_gamma 90.000000
_cell_volume 1634.181438
_symmetry_space_group_name_H-M "P 2/C"
_symmetry_group_IT_number 13
_symmetry_cell_setting 'monoclinic'
loop_
_space_group_symop_operation_xyz
x,y,z
-x,y,1/2-z
-x,-y,-z
x,-y,1/2+z
loop_
_atom_site_type_symbol
_atom_site_label
_atom_site_fract_x
_atom_site_fract_y
_atom_site_fract_z
Si Si1 0.102637 0.120705 0.032314
Si Si2 0.368798 0.741250 0.536085
Si Si3 0.128250 0.836720 0.135401
Si Si4 0.944338 0.547314 0.507677
Si Si5 0.677553 0.646166 0.699000
Si Si6 0.000000 0.234332 0.750000
Si Si7 0.464418 0.522881 0.842860
Si Si8 0.808250 0.567486 0.082281
O O1 0.258017 0.201226 0.230909
O O2 0.126069 0.960196 0.074835
O O3 0.001500 0.169640 0.970476
O O4 0.026507 0.142034 0.856018
O O5 0.500000 0.813495 0.750000
O O6 0.286638 0.846576 0.377279
O O7 0.431406 0.612662 0.573662
O O8 0.241107 0.680121 0.422404
O O9 0.112704 0.701824 0.066349
O O10 0.812363 0.456237 0.367001
O O11 0.000000 0.500000 0.500000
O O12 0.072524 0.533312 0.730987
O O13 0.589833 0.623556 0.662029
O O14 0.556230 0.610943 0.482477
O O15 0.864791 0.337616 0.587623
O O16 0.324414 0.474316 0.616902
#
# Coordination Sequence:
#
# PCOD8117924 Si02
#       8
#     4   4   4   4   4   2   4   4
#     4  11  23  37  64  83 120 158 198 244 296 363
#     4  10  19  34  58  83 112 148 194 237 289 360
#     4  11  22  39  59  91 116 157 200 242 302 358
#     4  12  18  34  62  89 111 144 197 257 291 338
#     4  11  19  35  58  86 113 152 191 244 292 350
#     4  12  18  38  60  92 110 154 200 252 296 356
#     4  10  21  32  56  87 119 145 195 242 295 352
#     4  11  19  32  59  91 111 147 196 248 299 338
#
# _framework density 18.357814000000001
#
# number of rings (size 3 to 8) (size 9 to 14) (size 15 to 20)
#    0.000    1.067    8.000    0.000    0.000    0.000 
#    0.000    2.667    5.867    0.000    0.000    0.000 
#    0.000    0.000    0.000    0.000    0.000    0.000 
#
# Total GULP energy -371802.814515 kJ/mol
# GULP energy per Si atom -12393.427151 kJ/mol
# Density = 1.831603 g / cm^3
# Si number density = 18.357814 Si / 1000 Ang^3
#
#
#
# Elastic Constant Matrix: (Units=GPa)
#
#
# Indices 1 2 3 4 5 6 
#
# 1 66.9465 20.1356 13.9242 0.0000 2.1904 0.0000
# 2 20.1356 74.7199 30.4359 0.0000 -2.7440 0.0000
# 3 13.9242 30.4359 115.7944 0.0000 -16.8756 0.0000
# 4 0.0000 0.0000 0.0000 27.5375 0.0000 -5.5209
# 5 2.1904 -2.7440 -16.8756 0.0000 34.0900 0.0000
# 6 0.0000 0.0000 0.0000 -5.5209 0.0000 20.1956
#
#
#
# Elastic Compliance Matrix: (Units=1/GPa)
#
#
# Indices 1 2 3 4 5 6 
#
# 1 0.016462 -0.004015 -0.001213 0.000000 -0.001981 0.000000
# 2 -0.004015 0.015988 -0.003766 0.000000 -0.000319 0.000000
# 3 -0.001213 -0.003766 0.010496 0.000000 0.004971 0.000000
# 4 0.000000 0.000000 0.000000 0.038420 0.000000 0.010503
# 5 -0.001981 -0.000319 0.004971 0.000000 0.031896 0.000000
# 6 0.000000 0.000000 0.000000 0.010503 0.000000 0.052387
#
#
# Mechanical properties :
#
#
# Convention : Reuss Voigt Hill
#
# Bulk Modulus (GPa) = 40.06746 42.93914 41.50330
# Shear Modulus (GPa) = 26.04765 29.22895 27.63830
#
# Velocity S-wave (km/s) = 3.77090 3.99454 3.88433
# Velocity P-wave (km/s) = 6.39005 6.68701 6.54021
#
# Compressibility (1/GPa) = 0.02495791
#
# Stress axis : x y z
#
# Youngs Moduli (GPa) = 60.74601 62.54874 95.27293
#
# Poissons Ratio (x) = 0.25112 0.11557
# Poissons Ratio (y) = 0.24389 0.35880
# Poissons Ratio (z) = 0.07369 0.23556
#
# Static dielectric constant tensor:
#      x y z
#    x 4.888320 0.000000 0.620950 
#    y 0.000000 3.187880 0.000000 
#    z 0.620950 0.000000 4.085780 
# 
# 
# High freq. dielectric constant tensor:
#      x y z
#    x 1.725360 0.000000 0.002500 
#    y 0.000000 1.665290 0.000000 
#    z 0.002500 0.000000 1.730700 
# 
# From -- ./inp_files/82474.got.cif
#   From: 2010.06.25/outbox.cif.g09.slc.cpg/sg13_42_cif.got.tgz:82474.got - 2010.06.28 04:50:58.
