data_PCOD8117947
_publ_section_title
;
Structure prediction by ZEFSAII (Michael W. Deem and Ramdas Pophale) SiO2 
 PCOD8117947
Probable space group: P 2/C
;
_chemical_formula_sum "Si O2"
_cell_formula_units_Z 28
_cell_length_a 8.394997
_cell_length_b 15.081933
_cell_length_c 19.172371
_cell_angle_alpha 90.000000
_cell_angle_beta 31.375112
_cell_angle_gamma 90.000000
_cell_volume 1263.833676
_symmetry_space_group_name_H-M "P 2/C"
_symmetry_group_IT_number 13
_symmetry_cell_setting 'monoclinic'
loop_
_space_group_symop_operation_xyz
x,y,z
-x,y,1/2-z
-x,-y,-z
x,-y,1/2+z
loop_
_atom_site_type_symbol
_atom_site_label
_atom_site_fract_x
_atom_site_fract_y
_atom_site_fract_z
Si Si1 0.178139 0.588515 0.005877
Si Si2 0.616278 0.784192 0.527445
Si Si3 0.152059 0.345845 0.370950
Si Si4 0.805928 0.489341 0.253963
Si Si5 0.844547 0.111151 0.733598
Si Si6 0.699930 0.801482 0.001268
Si Si7 0.837998 0.083588 0.237974
O O1 0.305521 0.687073 0.973808
O O2 0.065452 0.588593 0.967563
O O3 0.448055 0.513580 0.910281
O O4 0.899856 0.565841 0.162895
O O5 0.440008 0.769619 0.520251
O O6 0.413337 0.838273 0.659949
O O7 0.918073 0.844633 0.408257
O O8 0.500000 0.310967 0.250000
O O9 0.118677 0.395796 0.309929
O O10 0.905804 0.269701 0.462702
O O11 0.000000 0.505861 0.250000
O O12 0.557450 0.176350 0.846133
O O13 0.000000 0.102650 0.750000
O O14 0.724787 0.013404 0.754388
O O15 0.907183 0.887798 0.912682
O O16 0.000000 0.067963 0.250000
#
# Coordination Sequence:
#
# PCOD8117947 Si02
#       7
#     4   4   4   4   4   4   4
#     4  11  24  41  61  87 122 158 196 246 302 359
#     4  10  20  35  57  88 120 151 196 247 295 349
#     4  10  22  40  61  86 119 157 202 247 299 359
#     4  11  23  41  64  89 115 151 200 249 299 354
#     4   9  18  31  53  88 121 150 194 249 297 341
#     4  10  19  34  59  85 114 156 200 243 294 352
#     4   9  16  30  55  85 118 154 194 243 293 346
#
# _framework density 22.154813999999998
#
# number of rings (size 3 to 8) (size 9 to 14) (size 15 to 20)
#    0.000    2.000    0.000    4.286    0.000    7.429 
#    0.000    2.143    0.000    9.429    0.000    0.000 
#    0.000    0.000    0.000    0.000    0.000    0.000 
#
# Total GULP energy -347032.961629 kJ/mol
# GULP energy per Si atom -12394.034344 kJ/mol
# Density = 2.210439 g / cm^3
# Si number density = 22.154814 Si / 1000 Ang^3
#
#
#
# Elastic Constant Matrix: (Units=GPa)
#
#
# Indices 1 2 3 4 5 6 
#
# 1 41.1808 0.5214 13.2003 0.0000 6.0344 0.0000
# 2 0.5214 81.4639 39.1303 0.0000 -14.2194 0.0000
# 3 13.2003 39.1303 116.3405 0.0000 -6.8562 0.0000
# 4 0.0000 0.0000 0.0000 50.2692 0.0000 10.2536
# 5 6.0344 -14.2194 -6.8562 0.0000 22.2966 0.0000
# 6 0.0000 0.0000 0.0000 10.2536 0.0000 17.0879
#
#
#
# Elastic Compliance Matrix: (Units=1/GPa)
#
#
# Indices 1 2 3 4 5 6 
#
# 1 0.026622 0.000091 -0.003537 0.000000 -0.008235 0.000000
# 2 0.000091 0.016176 -0.004934 0.000000 0.008774 0.000000
# 3 -0.003537 -0.004934 0.010722 0.000000 0.001107 0.000000
# 4 0.000000 0.000000 0.000000 0.022667 0.000000 -0.013602
# 5 -0.008235 0.008774 0.001107 0.000000 0.053015 0.000000
# 6 0.000000 0.000000 0.000000 -0.013602 0.000000 0.066683
#
#
# Mechanical properties :
#
#
# Convention : Reuss Voigt Hill
#
# Bulk Modulus (GPa) = 27.20273 38.29880 32.75076
# Shear Modulus (GPa) = 22.23232 30.33962 26.28597
#
# Velocity S-wave (km/s) = 3.17124 3.70460 3.44825
# Velocity P-wave (km/s) = 5.07091 5.96852 5.53793
#
# Compressibility (1/GPa) = 0.03676102
#
# Stress axis : x y z
#
# Youngs Moduli (GPa) = 37.56257 61.81853 93.27042
#
# Poissons Ratio (x) = -0.00562 0.32985
# Poissons Ratio (y) = -0.00342 0.46020
# Poissons Ratio (z) = 0.13284 0.30501
#
# Static dielectric constant tensor:
#      x y z
#    x 3.682210 0.000000 -0.017560 
#    y 0.000000 3.997570 0.000000 
#    z -0.017560 0.000000 4.274210 
# 
# 
# High freq. dielectric constant tensor:
#      x y z
#    x 1.841340 0.000000 0.002690 
#    y 0.000000 1.872580 0.000000 
#    z 0.002690 0.000000 1.883550 
# 
# From -- ./inp_files/76677.got.cif
#   From: 2010.06.25/outbox.cif.g09.slc.cpg/sg13_39_cif.got.tgz:76677.got - 2010.06.28 04:50:58.
