data_PCOD8117002
_publ_section_title
;
Structure prediction by ZEFSAII (Michael W. Deem and Ramdas Pophale) SiO2 
 PCOD8117002
Probable space group: P 2/C
;
_chemical_formula_sum "Si O2"
_cell_formula_units_Z 28
_cell_length_a 28.449306
_cell_length_b 10.620763
_cell_length_c 28.155280
_cell_angle_alpha 90.000000
_cell_angle_beta 169.823608
_cell_angle_gamma 90.000000
_cell_volume 1503.047374
_symmetry_space_group_name_H-M "P 2/C"
_symmetry_group_IT_number 13
_symmetry_cell_setting 'monoclinic'
loop_
_space_group_symop_operation_xyz
x,y,z
-x,y,1/2-z
-x,-y,-z
x,-y,1/2+z
loop_
_atom_site_type_symbol
_atom_site_label
_atom_site_fract_x
_atom_site_fract_y
_atom_site_fract_z
Si Si1 0.016520 0.023225 0.943434
Si Si2 0.759449 0.936991 0.538136
Si Si3 0.482568 0.034683 0.609643
Si Si4 0.051226 0.665217 0.748340
Si Si5 0.456203 0.667158 0.320197
Si Si6 0.998220 0.789579 0.991023
Si Si7 0.489674 0.372202 0.960814
O O1 0.067691 0.150881 0.023375
O O2 0.709686 0.014273 0.623154
O O3 0.223641 0.023000 0.105468
O O4 0.086146 0.900411 0.043210
O O5 0.643159 0.017909 0.466224
O O6 0.910169 0.814329 0.707644
O O7 0.000000 0.011656 0.750000
O O8 0.500000 0.896530 0.250000
O O9 0.495579 0.185174 0.623782
O O10 0.000000 0.605312 0.750000
O O11 0.810029 0.638908 0.473211
O O12 0.309494 0.607377 0.979175
O O13 0.440462 0.600260 0.355918
O O14 0.249533 0.700798 0.246257
O O15 0.754851 0.709635 0.729173
O O16 0.500000 0.500000 0.000000
#
# Coordination Sequence:
#
# PCOD8117002 Si02
#       7
#     4   4   4   4   4   4   4
#     4  11  20  33  55  77 104 135 182 225 254 306
#     4  10  18  28  42  69 107 144 172 201 254 325
#     4  11  18  30  50  75 106 141 178 210 263 319
#     4  10  18  29  46  70 101 137 168 211 257 315
#     4  11  19  31  49  72 105 138 176 205 257 328
#     4  11  22  38  53  77 104 138 182 226 264 298
#     4  12  24  39  55  76 109 148 185 220 269 326
#
# _framework density 18.628820000000001
#
# number of rings (size 3 to 8) (size 9 to 14) (size 15 to 20)
#    0.000    1.143    2.857    8.571    0.000    2.286 
#    0.000    0.000    0.000    0.000    0.000    0.000 
#    0.000   40.000    0.000    0.000    0.000    0.000 
#
# Total GULP energy -347107.872183 kJ/mol
# GULP energy per Si atom -12396.709721 kJ/mol
# Density = 1.858642 g / cm^3
# Si number density = 18.628820 Si / 1000 Ang^3
#
#
#
# Elastic Constant Matrix: (Units=GPa)
#
#
# Indices 1 2 3 4 5 6 
#
# 1 135.1713 36.7995 48.5713 0.0000 10.5974 0.0000
# 2 36.7995 48.2404 27.6934 0.0000 0.6897 0.0000
# 3 48.5713 27.6934 143.3982 0.0000 1.8932 0.0000
# 4 0.0000 0.0000 0.0000 10.6881 0.0000 -0.0516
# 5 10.5974 0.6897 1.8932 0.0000 48.4750 0.0000
# 6 0.0000 0.0000 0.0000 -0.0516 0.0000 14.6509
#
#
#
# Elastic Compliance Matrix: (Units=1/GPa)
#
#
# Indices 1 2 3 4 5 6 
#
# 1 0.010078 -0.006427 -0.002146 0.000000 -0.002028 0.000000
# 2 -0.006427 0.027414 -0.003132 0.000000 0.001137 0.000000
# 3 -0.002146 -0.003132 0.008303 0.000000 0.000189 0.000000
# 4 0.000000 0.000000 0.000000 0.093564 0.000000 0.000329
# 5 -0.002028 0.001137 0.000189 0.000000 0.021049 0.000000
# 6 0.000000 0.000000 0.000000 0.000329 0.000000 0.068257
#
#
# Mechanical properties :
#
#
# Convention : Reuss Voigt Hill
#
# Bulk Modulus (GPa) = 44.67299 61.43757 53.05528
# Shear Modulus (GPa) = 19.26524 29.01251 24.13887
#
# Velocity S-wave (km/s) = 3.21933 3.95067 3.60360
# Velocity P-wave (km/s) = 6.15235 7.33906 6.77175
#
# Compressibility (1/GPa) = 0.02238489
#
# Stress axis : x y z
#
# Youngs Moduli (GPa) = 99.22962 36.47752 120.44216
#
# Poissons Ratio (x) = 0.23444 0.25841
# Poissons Ratio (y) = 0.63774 0.37727
# Poissons Ratio (z) = 0.21290 0.11426
#
# Static dielectric constant tensor:
#      x y z
#    x 4.078730 0.000000 0.302400 
#    y 0.000000 2.793310 0.000000 
#    z 0.302400 0.000000 3.691480 
# 
# 
# High freq. dielectric constant tensor:
#      x y z
#    x 1.743580 0.000000 0.008680 
#    y 0.000000 1.634520 0.000000 
#    z 0.008680 0.000000 1.751710 
# 
# From -- ./inp_files/98090.got.cif
#   From: 2010.06.25/outbox.cif.g09.slc.cpg/sg13_50_cif.got.tgz:98090.got - 2010.06.28 04:50:58.
