data_PCOD8117961
_publ_section_title
;
Structure prediction by ZEFSAII (Michael W. Deem and Ramdas Pophale) SiO2 
 PCOD8117961
Probable space group: P 2/C
;
_chemical_formula_sum "Si O2"
_cell_formula_units_Z 28
_cell_length_a 14.624811
_cell_length_b 19.794543
_cell_length_c 5.189568
_cell_angle_alpha 90.000000
_cell_angle_beta 120.740137
_cell_angle_gamma 90.000000
_cell_volume 1291.249027
_symmetry_space_group_name_H-M "P 2/C"
_symmetry_group_IT_number 13
_symmetry_cell_setting 'monoclinic'
loop_
_space_group_symop_operation_xyz
x,y,z
-x,y,1/2-z
-x,-y,-z
x,-y,1/2+z
loop_
_atom_site_type_symbol
_atom_site_label
_atom_site_fract_x
_atom_site_fract_y
_atom_site_fract_z
Si Si1 0.857234 0.811384 0.963000
Si Si2 0.380983 0.470347 0.830701
Si Si3 0.377367 0.236073 0.363449
Si Si4 0.106939 0.734374 0.993736
Si Si5 0.199071 0.042670 0.055081
Si Si6 0.440444 0.909627 0.916681
Si Si7 0.341189 0.684825 0.323760
O O1 0.737906 0.792684 0.863013
O O2 0.878854 0.792668 0.699159
O O3 0.875382 0.891417 0.021945
O O4 0.923118 0.770527 0.277764
O O5 0.320445 0.500199 0.493777
O O6 0.379497 0.390176 0.822798
O O7 0.500000 0.500000 0.000000
O O8 0.454055 0.171858 0.448692
O O9 0.388219 0.268978 0.662369
O O10 0.397324 0.291805 0.169570
O O11 0.000000 0.692866 0.750000
O O12 0.211718 0.687168 0.152265
O O13 0.320987 0.064733 0.248107
O O14 0.172373 0.990529 0.243351
O O15 0.500000 0.936632 0.750000
O O16 0.500000 0.940766 0.250000
#
# Coordination Sequence:
#
# PCOD8117961 Si02
#       7
#     4   4   4   4   4   4   4
#     4   9  19  35  55  78 113 136 176 227 277 333
#     4  10  21  38  53  77 112 152 191 222 252 311
#     4   9  19  35  52  77 101 144 180 225 285 320
#     4  10  19  34  61  89 107 135 174 230 294 335
#     4  11  22  36  56  74  99 151 195 218 268 348
#     4  11  22  36  48  75 111 133 179 247 286 320
#     4  10  19  36  58  78 110 143 186 227 264 335
#
# _framework density 21.684431
#
# number of rings (size 3 to 8) (size 9 to 14) (size 15 to 20)
#    0.000    2.000    0.000    3.857    0.000    6.286 
#   15.429    0.000    0.000    9.429    0.000    0.000 
#    0.000    0.000    0.000    0.000    0.000    0.000 
#
# Total GULP energy -347079.331104 kJ/mol
# GULP energy per Si atom -12395.690397 kJ/mol
# Density = 2.163508 g / cm^3
# Si number density = 21.684431 Si / 1000 Ang^3
#
#
#
# Elastic Constant Matrix: (Units=GPa)
#
#
# Indices 1 2 3 4 5 6 
#
# 1 58.5632 16.1156 27.5365 0.0000 -18.4984 0.0000
# 2 16.1156 110.5927 12.0214 0.0000 -11.7748 0.0000
# 3 27.5365 12.0214 96.9916 0.0000 -42.1404 0.0000
# 4 0.0000 0.0000 0.0000 35.9461 0.0000 -18.4982
# 5 -18.4984 -11.7748 -42.1404 0.0000 41.1800 0.0000
# 6 0.0000 0.0000 0.0000 -18.4982 0.0000 22.0980
#
#
#
# Elastic Compliance Matrix: (Units=1/GPa)
#
#
# Indices 1 2 3 4 5 6 
#
# 1 0.020927 -0.002114 -0.003345 0.000000 0.005374 0.000000
# 2 -0.002114 0.009540 0.000343 0.000000 0.002129 0.000000
# 3 -0.003345 0.000343 0.019098 0.000000 0.018139 0.000000
# 4 0.000000 0.000000 0.000000 0.048872 0.000000 0.040911
# 5 0.005374 0.002129 0.018139 0.000000 0.045869 0.000000
# 6 0.000000 0.000000 0.000000 0.040911 0.000000 0.079499
#
#
# Mechanical properties :
#
#
# Convention : Reuss Voigt Hill
#
# Bulk Modulus (GPa) = 25.42358 41.94383 33.68371
# Shear Modulus (GPa) = 20.23074 33.87641 27.05358
#
# Velocity S-wave (km/s) = 3.05776 3.95681 3.53598
# Velocity P-wave (km/s) = 4.92101 6.34508 5.67786
#
# Compressibility (1/GPa) = 0.03933356
#
# Stress axis : x y z
#
# Youngs Moduli (GPa) = 47.78443 104.82591 52.36060
#
# Poissons Ratio (x) = 0.22158 0.17513
# Poissons Ratio (y) = 0.10101 -0.01794
# Poissons Ratio (z) = 0.15982 -0.03592
#
# Static dielectric constant tensor:
#      x y z
#    x 4.146460 0.000000 -0.582120 
#    y 0.000000 3.714350 0.000000 
#    z -0.582120 0.000000 5.394610 
# 
# 
# High freq. dielectric constant tensor:
#      x y z
#    x 1.847490 0.000000 -0.018880 
#    y 0.000000 1.829670 0.000000 
#    z -0.018880 0.000000 1.870050 
# 
# From -- ./inp_files/5391.got.cif
#   From: 2010.06.25/outbox.cif.g09.slc.cpg/sg13_3_cif.got.tgz:5391.got - 2010.06.28 04:50:58.
