data_PCOD8117767
_publ_section_title
;
Structure prediction by ZEFSAII (Michael W. Deem and Ramdas Pophale) SiO2 
 PCOD8117767
Probable space group: P 2/C
;
_chemical_formula_sum "Si O2"
_cell_formula_units_Z 32
_cell_length_a 13.742018
_cell_length_b 9.735317
_cell_length_c 19.234440
_cell_angle_alpha 90.000000
_cell_angle_beta 45.585789
_cell_angle_gamma 90.000000
_cell_volume 1838.062492
_symmetry_space_group_name_H-M "P 2/C"
_symmetry_group_IT_number 13
_symmetry_cell_setting 'monoclinic'
loop_
_space_group_symop_operation_xyz
x,y,z
-x,y,1/2-z
-x,-y,-z
x,-y,1/2+z
loop_
_atom_site_type_symbol
_atom_site_label
_atom_site_fract_x
_atom_site_fract_y
_atom_site_fract_z
Si Si1 0.138326 0.668620 0.761112
Si Si2 0.170813 0.361988 0.743987
Si Si3 0.138327 0.331381 0.600562
Si Si4 0.861577 0.074689 0.148737
Si Si5 0.655352 0.832659 0.093734
Si Si6 0.655352 0.832658 0.250913
Si Si7 0.829188 0.361986 0.414800
Si Si8 0.861576 0.925310 0.489687
O O1 0.210623 0.521435 0.736818
O O2 0.191845 0.795423 0.779883
O O3 0.166030 0.694933 0.666201
O O4 0.982167 0.659514 0.864338
O O5 0.166036 0.305067 0.667766
O O6 0.282716 0.280499 0.730030
O O7 0.017832 0.340488 0.846503
O O8 0.210623 0.478566 0.552559
O O9 0.191844 0.204579 0.528271
O O10 0.887121 0.121305 0.056440
O O11 0.735745 0.973320 0.218498
O O12 0.000001 0.000000 0.107904
O O13 0.665945 0.776994 0.167027
O O14 0.499999 0.860022 0.149600
O O15 0.735743 0.973322 0.045758
O O16 0.717283 0.719503 0.012745
#
# Coordination Sequence:
#
# PCOD8117767 Si02
#       8
#     4   4   4   4   4   4   4   4
#     4   9  18  33  54  79 108 136 177 230 266 303
#     4   9  18  34  53  78 108 140 177 220 269 317
#     4   9  18  33  54  79 108 136 177 230 266 303
#     4  10  19  33  53  79 106 137 181 226 265 310
#     4  10  21  37  54  76 111 146 176 218 272 326
#     4  10  21  37  54  76 111 146 176 218 272 326
#     4   9  18  34  53  78 108 140 177 220 269 317
#     4  10  19  33  53  79 106 137 181 226 265 310
#
# _framework density 17.409637
#
# number of rings (size 3 to 8) (size 9 to 14) (size 15 to 20)
#    0.000    2.500    2.500    1.500    0.000    2.000 
#    0.000    8.750    0.000    3.000    0.000    0.000 
#    0.000    0.000    0.000    0.000    0.000    0.000 
#
# Total GULP energy -396500.868560 kJ/mol
# GULP energy per Si atom -12390.652142 kJ/mol
# Density = 1.737001 g / cm^3
# Si number density = 17.409637 Si / 1000 Ang^3
#
#
#
# Elastic Constant Matrix: (Units=GPa)
#
#
# Indices 1 2 3 4 5 6 
#
# 1 89.9029 57.8033 44.8653 0.0000 -8.9580 0.0000
# 2 57.8033 111.8029 55.8870 0.0000 12.3752 0.0000
# 3 44.8653 55.8870 92.6071 0.0000 -8.4930 0.0000
# 4 0.0000 0.0000 0.0000 10.4067 0.0000 -12.0602
# 5 -8.9580 12.3752 -8.4930 0.0000 20.2102 0.0000
# 6 0.0000 0.0000 0.0000 -12.0602 0.0000 8.5432
#
#
#
# Elastic Compliance Matrix: (Units=1/GPa)
#
#
# Indices 1 2 3 4 5 6 
#
# 1 0.021186 -0.011930 -0.001595 0.000000 0.016026 0.000000
# 2 -0.011930 0.022766 -0.010112 0.000000 -0.023478 0.000000
# 3 -0.001595 -0.010112 0.018905 0.000000 0.013430 0.000000
# 4 0.000000 0.000000 0.000000 -0.151097 0.000000 -0.213298
# 5 0.016026 -0.023478 0.013430 0.000000 0.076603 0.000000
# 6 0.000000 0.000000 0.000000 -0.213298 0.000000 -0.184055
#
#
# Mechanical properties :
#
#
# Convention : Reuss Voigt Hill
#
# Bulk Modulus (GPa) = 64.17222 67.93602 66.05412
# Shear Modulus (GPa) = -34.91073 16.88250 -9.01411
#
# Velocity S-wave (km/s) = -4.48286 3.11741 -2.27792
# Velocity P-wave (km/s) = 3.18519 7.21557 5.57718
#
# Compressibility (1/GPa) = 0.01558307
#
# Stress axis : x y z
#
# Youngs Moduli (GPa) = 47.20011 43.92527 52.89591
#
# Poissons Ratio (x) = 0.52404 0.08435
# Poissons Ratio (y) = 0.56311 0.53489
# Poissons Ratio (z) = 0.07527 0.44418
#
# Static dielectric constant tensor:
#      x y z
#    x 3.135380 0.000000 0.086200 
#    y 0.000000 3.298830 0.000000 
#    z 0.086200 0.000000 3.122030 
# 
# 
# High freq. dielectric constant tensor:
#      x y z
#    x 1.659390 0.000000 0.009590 
#    y 0.000000 1.677650 0.000000 
#    z 0.009590 0.000000 1.657900 
# 
# From -- ./inp_files/79804.got.cif
#   From: 2010.06.25/outbox.cif.g09.slc.cpg/sg13_40_cif.got.tgz:79804.got - 2010.06.28 04:50:58.
