data_PCOD8117333
_publ_section_title
;
Structure prediction by ZEFSAII (Michael W. Deem and Ramdas Pophale) SiO2 
 PCOD8117333
Probable space group: P 2/C
;
_chemical_formula_sum "Si O2"
_cell_formula_units_Z 30
_cell_length_a 8.455925
_cell_length_b 9.003308
_cell_length_c 25.754880
_cell_angle_alpha 90.000000
_cell_angle_beta 129.109829
_cell_angle_gamma 90.000000
_cell_volume 1521.422714
_symmetry_space_group_name_H-M "P 2/C"
_symmetry_group_IT_number 13
_symmetry_cell_setting 'monoclinic'
loop_
_space_group_symop_operation_xyz
x,y,z
-x,y,1/2-z
-x,-y,-z
x,-y,1/2+z
loop_
_atom_site_type_symbol
_atom_site_label
_atom_site_fract_x
_atom_site_fract_y
_atom_site_fract_z
Si Si1 0.979350 0.842917 0.434511
Si Si2 0.029794 0.508658 0.444723
Si Si3 0.300258 0.736106 0.957767
Si Si4 0.651996 0.662358 0.824724
Si Si5 0.000000 0.138821 0.250000
Si Si6 0.669772 0.049115 0.949529
Si Si7 0.911506 0.920790 0.841510
Si Si8 0.420991 0.221547 0.373035
O O1 0.052596 0.679671 0.434230
O O2 0.787877 0.842313 0.434301
O O3 0.898225 0.921076 0.365981
O O4 0.171796 0.924410 0.499108
O O5 0.840798 0.446136 0.372487
O O6 0.000000 0.500000 0.500000
O O7 0.233628 0.420393 0.469399
O O8 0.440494 0.712006 0.935757
O O9 0.102803 0.829449 0.901536
O O10 0.417635 0.842140 0.023593
O O11 0.500000 0.591482 0.750000
O O12 0.714275 0.822474 0.814236
O O13 0.556673 0.683000 0.862106
O O14 0.074248 0.041343 0.216608
O O15 0.187923 0.241746 0.306489
O O16 0.483849 0.954294 0.886302
#
# Coordination Sequence:
#
# PCOD8117333 Si02
#       8
#     4   4   4   4   2   4   4   4
#     4  10  19  34  61  86 116 149 193 246 298 357
#     4  11  21  38  61  86 121 158 198 243 303 364
#     4   9  20  34  57  87 117 149 187 238 301 351
#     4  11  21  37  60  87 112 157 204 241 288 368
#     4  10  20  34  56  86 110 146 194 252 290 342
#     4  10  18  34  58  90 114 148 192 245 299 352
#     4   9  18  35  58  84 109 147 192 239 295 347
#     4  11  20  34  60  88 115 149 199 248 292 356
#
# _framework density 19.718385999999999
#
# number of rings (size 3 to 8) (size 9 to 14) (size 15 to 20)
#    0.000    1.867    4.000    1.200    0.000    0.000 
#    0.000    4.667    8.800    0.000    0.000    0.000 
#    0.000    0.000    0.000    0.000    0.000    0.000 
#
# Total GULP energy -371869.025229 kJ/mol
# GULP energy per Si atom -12395.634174 kJ/mol
# Density = 1.967351 g / cm^3
# Si number density = 19.718386 Si / 1000 Ang^3
#
#
#
# Elastic Constant Matrix: (Units=GPa)
#
#
# Indices 1 2 3 4 5 6 
#
# 1 92.1678 25.0866 16.4975 0.0000 -27.6575 0.0000
# 2 25.0866 104.9709 21.4755 0.0000 -12.4798 0.0000
# 3 16.4975 21.4755 61.3530 0.0000 -15.1220 0.0000
# 4 0.0000 0.0000 0.0000 21.3859 0.0000 -2.5659
# 5 -27.6575 -12.4798 -15.1220 0.0000 40.7127 0.0000
# 6 0.0000 0.0000 0.0000 -2.5659 0.0000 25.0617
#
#
#
# Elastic Compliance Matrix: (Units=1/GPa)
#
#
# Indices 1 2 3 4 5 6 
#
# 1 0.014199 -0.002177 -0.000928 0.000000 0.008634 0.000000
# 2 -0.002177 0.010744 -0.003003 0.000000 0.000699 0.000000
# 3 -0.000928 -0.003003 0.018953 0.000000 0.005489 0.000000
# 4 0.000000 0.000000 0.000000 0.047341 0.000000 0.004847
# 5 0.008634 0.000699 0.005489 0.000000 0.032681 0.000000
# 6 0.000000 0.000000 0.000000 0.004847 0.000000 0.040398
#
#
# Mechanical properties :
#
#
# Convention : Reuss Voigt Hill
#
# Bulk Modulus (GPa) = 31.56587 42.73457 37.15022
# Shear Modulus (GPa) = 26.72477 30.46088 28.59282
#
# Velocity S-wave (km/s) = 3.68546 3.93465 3.81210
# Velocity P-wave (km/s) = 5.84408 6.50857 6.18526
#
# Compressibility (1/GPa) = 0.03167979
#
# Stress axis : x y z
#
# Youngs Moduli (GPa) = 70.42581 93.07301 52.76307
#
# Poissons Ratio (x) = 0.20263 0.04896
# Poissons Ratio (y) = 0.15332 0.15845
# Poissons Ratio (z) = 0.06535 0.27951
#
# Static dielectric constant tensor:
#      x y z
#    x 3.812930 0.000000 -0.219330 
#    y 0.000000 3.368320 0.000000 
#    z -0.219330 0.000000 3.709310 
# 
# 
# High freq. dielectric constant tensor:
#      x y z
#    x 1.778320 0.000000 -0.012390 
#    y 0.000000 1.732480 0.000000 
#    z -0.012390 0.000000 1.762560 
# 
# From -- ./inp_files/75312.got.cif
#   From: 2010.06.25/outbox.cif.g09.slc.cpg/sg13_38_cif.got.tgz:75312.got - 2010.06.28 04:50:58.
