data_PCOD8117413
_publ_section_title
;
Structure prediction by ZEFSAII (Michael W. Deem and Ramdas Pophale) SiO2 
 PCOD8117413
Probable space group: P 2/C
;
_chemical_formula_sum "Si O2"
_cell_formula_units_Z 28
_cell_length_a 20.099872
_cell_length_b 11.847378
_cell_length_c 10.694039
_cell_angle_alpha 90.000000
_cell_angle_beta 149.242249
_cell_angle_gamma 90.000000
_cell_volume 1302.344733
_symmetry_space_group_name_H-M "P 2/C"
_symmetry_group_IT_number 13
_symmetry_cell_setting 'monoclinic'
loop_
_space_group_symop_operation_xyz
x,y,z
-x,y,1/2-z
-x,-y,-z
x,-y,1/2+z
loop_
_atom_site_type_symbol
_atom_site_label
_atom_site_fract_x
_atom_site_fract_y
_atom_site_fract_z
Si Si1 0.660193 0.231708 0.220685
Si Si2 0.761550 0.429171 0.114391
Si Si3 0.232957 0.978675 0.745232
Si Si4 0.149051 0.429370 0.972568
Si Si5 0.500000 0.357348 0.750000
Si Si6 0.000000 0.891921 0.750000
Si Si7 0.439357 0.111679 0.960655
Si Si8 0.212463 0.814259 0.924615
O O1 0.736260 0.119956 0.303083
O O2 0.764872 0.323536 0.434284
O O3 0.574924 0.277377 0.967624
O O4 0.561181 0.198446 0.175726
O O5 0.805381 0.480488 0.319527
O O6 0.792545 0.295094 0.171825
O O7 0.834894 0.480353 0.113184
O O8 0.604508 0.439679 0.849557
O O9 0.214578 0.931622 0.853249
O O10 0.352638 0.071026 0.939682
O O11 0.097164 0.031976 0.486750
O O12 0.000000 0.393120 0.750000
O O13 0.081511 0.809390 0.793262
O O14 0.342684 0.182811 0.715815
O O15 0.500000 0.000000 0.000000
#
# Coordination Sequence:
#
# PCOD8117413 Si02
#       8
#     4   4   4   4   2   2   4   4
#     4  10  18  35  62  93 126 163 214 268 329 391
#     4  11  24  42  73  93 131 176 226 287 335 409
#     4  10  19  35  61  89 124 170 211 261 323 403
#     4  11  25  44  67 100 130 181 226 280 340 400
#     4  10  18  38  66  92 116 174 216 266 342 398
#     4  10  24  34  58  94 130 166 222 270 318 402
#     4   9  19  34  61  90 123 159 213 261 314 399
#     4  11  20  40  61  90 126 177 213 269 339 396
#
# _framework density 21.499683000000001
#
# number of rings (size 3 to 8) (size 9 to 14) (size 15 to 20)
#    0.000    1.714    4.286    0.857    2.000    4.000 
#    0.000    0.000   12.571    0.000    0.000    0.000 
#    0.000    0.000    0.000    0.000    0.000    0.000 
#
# Total GULP energy -346906.772838 kJ/mol
# GULP energy per Si atom -12389.527601 kJ/mol
# Density = 2.145075 g / cm^3
# Si number density = 21.499683 Si / 1000 Ang^3
#
#
#
# Elastic Constant Matrix: (Units=GPa)
#
#
# Indices 1 2 3 4 5 6 
#
# 1 122.1456 36.0410 49.5232 0.0000 21.3095 0.0000
# 2 36.0410 60.5592 35.1960 0.0000 10.4608 0.0000
# 3 49.5232 35.1960 98.5427 0.0000 36.8086 0.0000
# 4 0.0000 0.0000 0.0000 24.6114 0.0000 5.8181
# 5 21.3095 10.4608 36.8086 0.0000 43.5626 0.0000
# 6 0.0000 0.0000 0.0000 5.8181 0.0000 35.5445
#
#
#
# Elastic Compliance Matrix: (Units=1/GPa)
#
#
# Indices 1 2 3 4 5 6 
#
# 1 0.011143 -0.004342 -0.003510 0.000000 -0.001442 0.000000
# 2 -0.004342 0.022636 -0.006817 0.000000 0.002449 0.000000
# 3 -0.003510 -0.006817 0.019133 0.000000 -0.012812 0.000000
# 4 0.000000 0.000000 0.000000 0.042267 0.000000 -0.006919
# 5 -0.001442 0.002449 -0.012812 0.000000 0.033898 0.000000
# 6 0.000000 0.000000 0.000000 -0.006919 0.000000 0.029266
#
#
# Mechanical properties :
#
#
# Convention : Reuss Voigt Hill
#
# Bulk Modulus (GPa) = 42.42375 58.08532 50.25454
# Shear Modulus (GPa) = 25.57006 31.44284 28.50645
#
# Velocity S-wave (km/s) = 3.45240 3.82839 3.64524
# Velocity P-wave (km/s) = 5.97220 6.82770 6.41423
#
# Compressibility (1/GPa) = 0.02357170
#
# Stress axis : x y z
#
# Youngs Moduli (GPa) = 89.74173 44.17711 52.26660
#
# Poissons Ratio (x) = 0.19183 0.18348
# Poissons Ratio (y) = 0.38969 0.35632
# Poissons Ratio (z) = 0.31504 0.30117
#
# Static dielectric constant tensor:
#      x y z
#    x 4.248850 0.000000 0.500950 
#    y 0.000000 3.274260 0.000000 
#    z 0.500950 0.000000 3.924600 
# 
# 
# High freq. dielectric constant tensor:
#      x y z
#    x 1.848780 0.000000 0.033110 
#    y 0.000000 1.821470 0.000000 
#    z 0.033110 0.000000 1.842220 
# 
# From -- ./inp_files/40807.got.cif
#   From: 2010.06.25/outbox.cif.g09.slc.cpg/sg13_21_cif.got.tgz:40807.got - 2010.06.28 04:50:58.
