data_PCOD8117991
_publ_section_title
;
Structure prediction by ZEFSAII (Michael W. Deem and Ramdas Pophale) SiO2 
 PCOD8117991
Probable space group: P 2/C
;
_chemical_formula_sum "Si O2"
_cell_formula_units_Z 30
_cell_length_a 18.849756
_cell_length_b 8.594557
_cell_length_c 9.500775
_cell_angle_alpha 90.000000
_cell_angle_beta 101.208893
_cell_angle_gamma 90.000000
_cell_volume 1509.816140
_symmetry_space_group_name_H-M "P 2/C"
_symmetry_group_IT_number 13
_symmetry_cell_setting 'monoclinic'
loop_
_space_group_symop_operation_xyz
x,y,z
-x,y,1/2-z
-x,-y,-z
x,-y,1/2+z
loop_
_atom_site_type_symbol
_atom_site_label
_atom_site_fract_x
_atom_site_fract_y
_atom_site_fract_z
Si Si1 0.907385 0.392741 0.964262
Si Si2 0.213158 0.607207 0.486142
Si Si3 0.305215 0.325846 0.529245
Si Si4 0.794228 0.788368 0.287158
Si Si5 0.000000 0.519507 0.750000
Si Si6 0.447192 0.493191 0.107029
Si Si7 0.692908 0.969923 0.658895
Si Si8 0.653191 0.800662 0.906416
O O1 0.861038 0.233318 0.922469
O O2 0.960101 0.412618 0.850899
O O3 0.853173 0.542888 0.945098
O O4 0.946773 0.375244 0.131804
O O5 0.259220 0.463727 0.440239
O O6 0.179937 0.702230 0.344002
O O7 0.269379 0.716445 0.593325
O O8 0.277260 0.296376 0.677301
O O9 0.388857 0.370340 0.567066
O O10 0.290546 0.172770 0.434766
O O11 0.770658 0.966067 0.247136
O O12 0.500000 0.539647 0.250000
O O13 0.411109 0.324026 0.115153
O O14 0.500000 0.500000 0.000000
O O15 0.642227 0.918384 0.770537
O O16 0.653625 0.106480 0.554432
#
# Coordination Sequence:
#
# PCOD8117991 Si02
#       8
#     4   4   4   4   2   4   4   4
#     4  10  19  35  55  93 124 168 196 254 289 354
#     4   9  20  34  61  88 121 147 208 262 300 347
#     4  10  22  36  63  86 117 152 203 258 307 353
#     4  10  20  36  58  91 120 153 202 254 310 350
#     4  10  20  32  56  90 140 158 206 246 296 340
#     4  11  25  42  63  87 117 163 206 247 305 375
#     4  11  21  39  60  90 121 156 187 263 311 363
#     4  10  23  39  62  89 123 154 202 255 313 357
#
# _framework density 19.869969000000001
#
# number of rings (size 3 to 8) (size 9 to 14) (size 15 to 20)
#    0.000    1.867    2.667    0.800   11.200    0.000 
#    0.000    3.333    0.000    0.000    0.000   31.733 
#    0.000    0.000    0.000    0.000    0.000    0.000 
#
# Total GULP energy -371749.021920 kJ/mol
# GULP energy per Si atom -12391.634064 kJ/mol
# Density = 1.982474 g / cm^3
# Si number density = 19.869969 Si / 1000 Ang^3
#
#
#
# Elastic Constant Matrix: (Units=GPa)
#
#
# Indices 1 2 3 4 5 6 
#
# 1 107.1344 34.8409 46.4220 0.0000 0.5268 0.0000
# 2 34.8409 98.2050 33.3315 0.0000 7.9583 0.0000
# 3 46.4220 33.3315 102.2051 0.0000 -2.9609 0.0000
# 4 0.0000 0.0000 0.0000 29.9603 0.0000 0.2785
# 5 0.5268 7.9583 -2.9609 0.0000 34.3889 0.0000
# 6 0.0000 0.0000 0.0000 0.2785 0.0000 23.6814
#
#
#
# Elastic Compliance Matrix: (Units=1/GPa)
#
#
# Indices 1 2 3 4 5 6 
#
# 1 0.012254 -0.002770 -0.004661 0.000000 0.000052 0.000000
# 2 -0.002770 0.012389 -0.002871 0.000000 -0.003072 0.000000
# 3 -0.004661 -0.002871 0.012891 0.000000 0.001846 0.000000
# 4 0.000000 0.000000 0.000000 0.033381 0.000000 -0.000393
# 5 0.000052 -0.003072 0.001846 0.000000 0.029948 0.000000
# 6 0.000000 0.000000 0.000000 -0.000393 0.000000 0.042232
#
#
# Mechanical properties :
#
#
# Convention : Reuss Voigt Hill
#
# Bulk Modulus (GPa) = 59.06655 59.63704 59.35179
# Shear Modulus (GPa) = 29.52585 30.46947 29.99766
#
# Velocity S-wave (km/s) = 3.85899 3.92017 3.88970
# Velocity P-wave (km/s) = 7.04605 7.11120 7.07870
#
# Compressibility (1/GPa) = 0.01693006
#
# Stress axis : x y z
#
# Youngs Moduli (GPa) = 81.60434 80.71754 77.57206
#
# Poissons Ratio (x) = 0.22356 0.36158
# Poissons Ratio (y) = 0.22602 0.22273
# Poissons Ratio (z) = 0.38037 0.23176
#
# Static dielectric constant tensor:
#      x y z
#    x 3.626500 0.000000 0.083330 
#    y 0.000000 3.696830 0.000000 
#    z 0.083330 0.000000 3.773860 
# 
# 
# High freq. dielectric constant tensor:
#      x y z
#    x 1.760570 0.000000 -0.002420 
#    y 0.000000 1.755480 0.000000 
#    z -0.002420 0.000000 1.789280 
# 
# From -- ./inp_files/22790.got.cif
#   From: 2010.06.25/outbox.cif.g09.slc.cpg/sg13_12_cif.got.tgz:22790.got - 2010.06.28 04:50:58.
