data_PCOD8117526
_publ_section_title
;
Structure prediction by ZEFSAII (Michael W. Deem and Ramdas Pophale) SiO2 
 PCOD8117526
Probable space group: P 2/C
;
_chemical_formula_sum "Si O2"
_cell_formula_units_Z 32
_cell_length_a 11.586679
_cell_length_b 9.037474
_cell_length_c 20.846790
_cell_angle_alpha 90.000000
_cell_angle_beta 130.772088
_cell_angle_gamma 90.000000
_cell_volume 1653.182512
_symmetry_space_group_name_H-M "P 2/C"
_symmetry_group_IT_number 13
_symmetry_cell_setting 'monoclinic'
loop_
_space_group_symop_operation_xyz
x,y,z
-x,y,1/2-z
-x,-y,-z
x,-y,1/2+z
loop_
_atom_site_type_symbol
_atom_site_label
_atom_site_fract_x
_atom_site_fract_y
_atom_site_fract_z
Si Si1 0.701627 0.236319 0.202500
Si Si2 0.840704 0.212757 0.449505
Si Si3 0.677209 0.998613 0.801353
Si Si4 0.420496 0.158948 0.469980
Si Si5 0.840570 0.723438 0.388138
Si Si6 0.084020 0.414085 0.139087
Si Si7 0.598902 0.650539 0.948492
Si Si8 0.739745 0.655107 0.489912
O O1 0.718032 0.096340 0.254455
O O2 0.710243 0.171834 0.133059
O O3 0.835014 0.354467 0.266764
O O4 0.538865 0.320178 0.152512
O O5 0.765715 0.062674 0.396047
O O6 0.837253 0.338810 0.393775
O O7 0.750049 0.270891 0.477854
O O8 0.012614 0.184549 0.534618
O O9 0.500000 0.997233 0.750000
O O10 0.733999 0.165703 0.809216
O O11 0.553621 0.277414 0.500748
O O12 0.337012 0.197936 0.506739
O O13 0.500000 0.000000 0.500000
O O14 0.890535 0.589283 0.360213
O O15 0.746190 0.668415 0.415753
O O16 0.906410 0.375099 0.079597
O O17 0.627737 0.477684 0.968568
#
# Coordination Sequence:
#
# PCOD8117526 Si02
#       8
#     4   4   4   4   4   4   4   4
#     4   9  23  39  57  85 122 163 198 249 313 354
#     4  10  18  38  59  84 124 157 199 245 310 364
#     4  11  21  34  54  90 130 160 194 250 315 365
#     4  10  24  42  63  85 116 161 214 248 290 360
#     4  11  22  34  61  99 121 153 202 257 308 369
#     4  10  20  39  60  91 124 155 192 262 308 370
#     4  10  19  39  64  81 115 158 207 243 296 363
#     4  11  21  39  66  88 119 159 210 247 301 371
#
# _framework density 19.356604000000001
#
# number of rings (size 3 to 8) (size 9 to 14) (size 15 to 20)
#    0.750    1.000    3.750    1.500    3.500    1.500 
#    0.000    0.000    0.000    0.000    0.000    0.000 
#    0.000    0.000    0.000    0.000    0.000    0.000 
#
# Total GULP energy -396675.166478 kJ/mol
# GULP energy per Si atom -12396.098952 kJ/mol
# Density = 1.931255 g / cm^3
# Si number density = 19.356604 Si / 1000 Ang^3
#
#
#
# Elastic Constant Matrix: (Units=GPa)
#
#
# Indices 1 2 3 4 5 6 
#
# 1 72.1345 39.7725 18.0488 0.0000 3.0961 0.0000
# 2 39.7725 118.8963 44.8777 0.0000 14.5702 0.0000
# 3 18.0488 44.8777 74.4040 0.0000 1.5467 0.0000
# 4 0.0000 0.0000 0.0000 34.3582 0.0000 5.8456
# 5 3.0961 14.5702 1.5467 0.0000 19.5269 0.0000
# 6 0.0000 0.0000 0.0000 5.8456 0.0000 29.3007
#
#
#
# Elastic Compliance Matrix: (Units=1/GPa)
#
#
# Indices 1 2 3 4 5 6 
#
# 1 0.017086 -0.005603 -0.000797 0.000000 0.001535 0.000000
# 2 -0.005603 0.013990 -0.006892 0.000000 -0.009004 0.000000
# 3 -0.000797 -0.006892 0.017710 0.000000 0.003866 0.000000
# 4 0.000000 0.000000 0.000000 0.030128 0.000000 -0.006011
# 5 0.001535 -0.009004 0.003866 0.000000 0.057381 0.000000
# 6 0.000000 0.000000 0.000000 -0.006011 0.000000 0.035328
#
#
# Mechanical properties :
#
#
# Convention : Reuss Voigt Hill
#
# Bulk Modulus (GPa) = 45.04070 52.31475 48.67773
# Shear Modulus (GPa) = 24.31844 27.48621 25.90232
#
# Velocity S-wave (km/s) = 3.54833 3.77237 3.66206
# Velocity P-wave (km/s) = 6.33301 6.78674 6.56379
#
# Compressibility (1/GPa) = 0.02220214
#
# Stress axis : x y z
#
# Youngs Moduli (GPa) = 58.52869 71.48196 56.46519
#
# Poissons Ratio (x) = 0.40048 0.04502
# Poissons Ratio (y) = 0.32791 0.38914
# Poissons Ratio (z) = 0.04666 0.49264
#
# Static dielectric constant tensor:
#      x y z
#    x 3.306720 0.000000 0.138880 
#    y 0.000000 3.521180 0.000000 
#    z 0.138880 0.000000 3.454860 
# 
# 
# High freq. dielectric constant tensor:
#      x y z
#    x 1.741870 0.000000 0.015210 
#    y 0.000000 1.754810 0.000000 
#    z 0.015210 0.000000 1.737200 
# 
# From -- ./inp_files/86227.got.cif
#   From: 2010.06.25/outbox.cif.g09.slc.cpg/sg13_44_cif.got.tgz:86227.got - 2010.06.28 04:50:58.
