data_PCOD8117296
_publ_section_title
;
Structure prediction by ZEFSAII (Michael W. Deem and Ramdas Pophale) SiO2 
 PCOD8117296
Probable space group: P 2/C
;
_chemical_formula_sum "Si O2"
_cell_formula_units_Z 20
_cell_length_a 24.118822
_cell_length_b 10.142289
_cell_length_c 8.983897
_cell_angle_alpha 90.000000
_cell_angle_beta 31.577273
_cell_angle_gamma 90.000000
_cell_volume 1150.790590
_symmetry_space_group_name_H-M "P 2/C"
_symmetry_group_IT_number 13
_symmetry_cell_setting 'monoclinic'
loop_
_space_group_symop_operation_xyz
x,y,z
-x,y,1/2-z
-x,-y,-z
x,-y,1/2+z
loop_
_atom_site_type_symbol
_atom_site_label
_atom_site_fract_x
_atom_site_fract_y
_atom_site_fract_z
Si Si1 0.610114 0.643499 0.190581
Si Si2 0.077533 0.036151 0.451280
Si Si3 0.290246 0.881494 0.370553
Si Si4 0.635692 0.380212 0.288734
Si Si5 0.735396 0.135693 0.912742
O O1 0.643655 0.779569 0.185836
O O2 0.660527 0.527132 0.174607
O O3 0.483880 0.649950 0.484657
O O4 0.653179 0.627427 0.925117
O O5 0.139533 0.905037 0.372169
O O6 0.000000 0.000000 0.500000
O O7 0.000000 0.101068 0.750000
O O8 0.165353 0.140921 0.194680
O O9 0.325765 0.027848 0.344190
O O10 0.311128 0.867078 0.147626
O O11 0.716423 0.279389 0.025375
#
# Coordination Sequence:
#
# PCOD8117296 Si02
#       5
#     4   4   4   4   4
#     4  10  21  37  56  78 109 146 179 217 266 322
#     4  10  18  34  55  80 107 140 176 219 271 318
#     4  10  20  33  55  84 107 141 179 223 265 314
#     4  10  21  37  56  78 109 146 179 216 268 321
#     4  10  20  33  55  84 107 141 179 224 263 316
#
# _framework density 17.379356999999999
#
# number of rings (size 3 to 8) (size 9 to 14) (size 15 to 20)
#    1.200    0.800    2.000    2.400    2.800    3.200 
#    0.000    0.000    0.000    2.400    0.000    0.000 
#    0.000    0.000    0.000    0.000    0.000    0.000 
#
# Total GULP energy -247831.801360 kJ/mol
# GULP energy per Si atom -12391.590068 kJ/mol
# Density = 1.733980 g / cm^3
# Si number density = 17.379357 Si / 1000 Ang^3
#
#
#
# Elastic Constant Matrix: (Units=GPa)
#
#
# Indices 1 2 3 4 5 6 
#
# 1 91.1621 12.5846 3.2443 0.0000 17.1332 0.0000
# 2 12.5846 58.9040 1.0185 0.0000 -4.7240 0.0000
# 3 3.2443 1.0185 51.1021 0.0000 13.3179 0.0000
# 4 0.0000 0.0000 0.0000 21.4622 0.0000 12.9933
# 5 17.1332 -4.7240 13.3179 0.0000 26.8783 0.0000
# 6 0.0000 0.0000 0.0000 12.9933 0.0000 19.7083
#
#
#
# Elastic Compliance Matrix: (Units=1/GPa)
#
#
# Indices 1 2 3 4 5 6 
#
# 1 0.013298 -0.003678 0.001845 0.000000 -0.010037 0.000000
# 2 -0.003678 0.018312 -0.001816 0.000000 0.006463 0.000000
# 3 0.001845 -0.001816 0.022825 0.000000 -0.012804 0.000000
# 4 0.000000 0.000000 0.000000 0.077544 0.000000 -0.051123
# 5 -0.010037 0.006463 -0.012804 0.000000 0.051083 0.000000
# 6 0.000000 0.000000 0.000000 -0.051123 0.000000 0.084444
#
#
# Mechanical properties :
#
#
# Convention : Reuss Voigt Hill
#
# Bulk Modulus (GPa) = 21.21456 26.09589 23.65522
# Shear Modulus (GPa) = 17.21077 25.89782 21.55430
#
# Velocity S-wave (km/s) = 3.15032 3.86443 3.52550
# Velocity P-wave (km/s) = 5.04638 5.91268 5.49662
#
# Compressibility (1/GPa) = 0.04713744
#
# Stress axis : x y z
#
# Youngs Moduli (GPa) = 75.19960 54.60836 43.81205
#
# Poissons Ratio (x) = 0.20084 -0.08083
# Poissons Ratio (y) = 0.27658 0.07955
# Poissons Ratio (z) = -0.13873 0.09915
#
# Static dielectric constant tensor:
#      x y z
#    x 3.159550 0.000000 -0.077470 
#    y 0.000000 3.066360 0.000000 
#    z -0.077470 0.000000 2.645510 
# 
# 
# High freq. dielectric constant tensor:
#      x y z
#    x 1.682650 0.000000 0.020140 
#    y 0.000000 1.651060 0.000000 
#    z 0.020140 0.000000 1.663480 
# 
# From -- ./inp_files/17877.got.cif
#   From: 2010.06.25/outbox.cif.g09.slc.cpg/sg13_9_cif.got.tgz:17877.got - 2010.06.28 04:50:58.
