data_PCOD8117275
_publ_section_title
;
Structure prediction by ZEFSAII (Michael W. Deem and Ramdas Pophale) SiO2 
 PCOD8117275
Probable space group: P 2/C
;
_chemical_formula_sum "Si O2"
_cell_formula_units_Z 24
_cell_length_a 26.600424
_cell_length_b 11.463823
_cell_length_c 9.489621
_cell_angle_alpha 90.000000
_cell_angle_beta 26.859899
_cell_angle_gamma 90.000000
_cell_volume 1307.444178
_symmetry_space_group_name_H-M "P 2/C"
_symmetry_group_IT_number 13
_symmetry_cell_setting 'monoclinic'
loop_
_space_group_symop_operation_xyz
x,y,z
-x,y,1/2-z
-x,-y,-z
x,-y,1/2+z
loop_
_atom_site_type_symbol
_atom_site_label
_atom_site_fract_x
_atom_site_fract_y
_atom_site_fract_z
Si Si1 0.142410 0.424636 0.643733
Si Si2 0.377016 0.953633 0.781680
Si Si3 0.330225 0.295006 0.305268
Si Si4 0.000000 0.489027 0.750000
Si Si5 0.694865 0.620992 0.330264
Si Si6 0.366619 0.863013 0.097305
Si Si7 0.500000 0.458671 0.750000
O O1 0.234202 0.321476 0.428924
O O2 0.201817 0.550999 0.491175
O O3 0.078081 0.407357 0.655147
O O4 0.064673 0.427533 0.977068
O O5 0.371875 0.838550 0.694956
O O6 0.500000 0.000000 0.500000
O O7 0.317687 0.060202 0.848057
O O8 0.317702 0.921736 0.076789
O O9 0.275980 0.328638 0.589972
O O10 0.437845 0.376075 0.016524
O O11 0.672889 0.730491 0.281461
O O12 0.587044 0.539313 0.614791
O O13 0.500000 0.864115 0.750000
#
# Coordination Sequence:
#
# PCOD8117275 Si02
#       7
#     4   4   4   2   4   4   2
#     4  10  20  36  58  82 109 135 186 222 293 332
#     4   9  19  32  49  69 106 147 189 212 249 301
#     4  10  20  33  50  80 112 147 184 220 264 328
#     4  10  20  38  58  80 108 138 174 246 286 342
#     4  10  18  34  49  78 109 148 176 217 271 334
#     4   9  17  32  48  70 103 148 184 213 249 304
#     4  10  20  28  48  74 118 146 176 214 266 322
#
# _framework density 18.356424000000001
#
# number of rings (size 3 to 8) (size 9 to 14) (size 15 to 20)
#    0.000    2.333    2.500    0.500    3.500    0.000 
#    3.000    0.000    0.000    0.000    0.000    7.000 
#    0.000    0.000    0.000    0.000    0.000    0.000 
#
# Total GULP energy -297362.448470 kJ/mol
# GULP energy per Si atom -12390.102020 kJ/mol
# Density = 1.831464 g / cm^3
# Si number density = 18.356424 Si / 1000 Ang^3
#
#
#
# Elastic Constant Matrix: (Units=GPa)
#
#
# Indices 1 2 3 4 5 6 
#
# 1 108.4843 52.0069 27.8366 0.0000 -8.6081 0.0000
# 2 52.0069 121.9701 28.7669 0.0000 -11.2340 0.0000
# 3 27.8366 28.7669 58.2177 0.0000 -2.1995 0.0000
# 4 0.0000 0.0000 0.0000 14.4398 0.0000 0.4751
# 5 -8.6081 -11.2340 -2.1995 0.0000 24.6064 0.0000
# 6 0.0000 0.0000 0.0000 0.4751 0.0000 33.0848
#
#
#
# Elastic Compliance Matrix: (Units=1/GPa)
#
#
# Indices 1 2 3 4 5 6 
#
# 1 0.012356 -0.004191 -0.003759 0.000000 0.002073 0.000000
# 2 -0.004191 0.011078 -0.003346 0.000000 0.003292 0.000000
# 3 -0.003759 -0.003346 0.020589 0.000000 -0.001002 0.000000
# 4 0.000000 0.000000 0.000000 0.069286 0.000000 -0.000995
# 5 0.002073 0.003292 -0.001002 0.000000 0.042779 0.000000
# 6 0.000000 0.000000 0.000000 -0.000995 0.000000 0.030240
#
#
# Mechanical properties :
#
#
# Convention : Reuss Voigt Hill
#
# Bulk Modulus (GPa) = 46.65773 56.21033 51.43403
# Shear Modulus (GPa) = 23.14138 26.43030 24.78584
#
# Velocity S-wave (km/s) = 3.55444 3.79864 3.67857
# Velocity P-wave (km/s) = 6.50525 7.06595 6.79139
#
# Compressibility (1/GPa) = 0.02143267
#
# Stress axis : x y z
#
# Youngs Moduli (GPa) = 80.93174 90.26830 48.56854
#
# Poissons Ratio (x) = 0.37832 0.18256
# Poissons Ratio (y) = 0.33919 0.16249
# Poissons Ratio (z) = 0.30420 0.30201
#
# Static dielectric constant tensor:
#      x y z
#    x 3.788730 0.000000 0.021090 
#    y 0.000000 3.481120 0.000000 
#    z 0.021090 0.000000 3.103500 
# 
# 
# High freq. dielectric constant tensor:
#      x y z
#    x 1.719490 0.000000 0.009170 
#    y 0.000000 1.699560 0.000000 
#    z 0.009170 0.000000 1.672770 
# 
# From -- ./inp_files/24113.got.cif
#   From: 2010.06.25/outbox.cif.g09.slc.cpg/sg13_13_cif.got.tgz:24113.got - 2010.06.28 04:50:58.
