data_PCOD8117135
_publ_section_title
;
Structure prediction by ZEFSAII (Michael W. Deem and Ramdas Pophale) SiO2 
 PCOD8117135
Probable space group: P 2/C
;
_chemical_formula_sum "Si O2"
_cell_formula_units_Z 24
_cell_length_a 26.872604
_cell_length_b 11.700742
_cell_length_c 9.969864
_cell_angle_alpha 90.000000
_cell_angle_beta 26.005295
_cell_angle_gamma 90.000000
_cell_volume 1374.474324
_symmetry_space_group_name_H-M "P 2/C"
_symmetry_group_IT_number 13
_symmetry_cell_setting 'monoclinic'
loop_
_space_group_symop_operation_xyz
x,y,z
-x,y,1/2-z
-x,-y,-z
x,-y,1/2+z
loop_
_atom_site_type_symbol
_atom_site_label
_atom_site_fract_x
_atom_site_fract_y
_atom_site_fract_z
Si Si1 0.439328 0.922694 0.036343
Si Si2 0.693315 0.274819 0.549051
Si Si3 0.420055 0.484445 0.568109
Si Si4 0.129540 0.910549 0.919628
Si Si5 0.369204 0.278764 0.091731
Si Si6 0.771478 0.936465 0.524142
O O1 0.420597 0.799855 0.149319
O O2 0.317385 0.965019 0.288127
O O3 0.500000 0.909565 0.750000
O O4 0.500000 0.000000 0.000000
O O5 0.679197 0.389110 0.673165
O O6 0.807680 0.200601 0.298171
O O7 0.691120 0.311255 0.400505
O O8 0.500000 0.500000 0.500000
O O9 0.359489 0.606531 0.700687
O O10 0.500000 0.452327 0.250000
O O11 0.184769 0.940513 0.929680
O O12 0.132781 0.025457 0.816950
O O13 0.000000 0.873901 0.250000
O O14 0.293690 0.182332 0.349246
O O15 0.500000 0.237929 0.750000
#
# Coordination Sequence:
#
# PCOD8117135 Si02
#       6
#     4   4   4   4   4   4
#     4  11  20  31  51  79 116 142 172 216 267 337
#     4  10  20  34  50  78 104 141 181 213 268 322
#     4  11  20  34  53  78 111 146 174 210 262 331
#     4  10  21  38  58  76 104 140 185 236 275 312
#     4  10  18  32  52  75 111 143 167 208 267 324
#     4  10  20  34  54  79 105 141 180 216 276 330
#
# _framework density 17.461220999999998
#
# number of rings (size 3 to 8) (size 9 to 14) (size 15 to 20)
#    0.000    1.667    3.333    5.500    0.000    0.000 
#    6.000    0.000    0.000    5.000    0.000    0.000 
#    0.000    0.000    0.000    0.000    0.000    0.000 
#
# Total GULP energy -297321.632194 kJ/mol
# GULP energy per Si atom -12388.401341 kJ/mol
# Density = 1.742148 g / cm^3
# Si number density = 17.461221 Si / 1000 Ang^3
#
#
#
# Elastic Constant Matrix: (Units=GPa)
#
#
# Indices 1 2 3 4 5 6 
#
# 1 75.9008 35.3883 26.0510 0.0000 13.7794 0.0000
# 2 35.3883 122.7802 50.1375 0.0000 15.5588 0.0000
# 3 26.0510 50.1375 88.2602 0.0000 10.1078 0.0000
# 4 0.0000 0.0000 0.0000 31.5504 0.0000 7.4751
# 5 13.7794 15.5588 10.1078 0.0000 18.6277 0.0000
# 6 0.0000 0.0000 0.0000 7.4751 0.0000 28.5788
#
#
#
# Elastic Compliance Matrix: (Units=1/GPa)
#
#
# Indices 1 2 3 4 5 6 
#
# 1 0.016902 -0.002765 -0.002400 0.000000 -0.008891 0.000000
# 2 -0.002765 0.011716 -0.005281 0.000000 -0.004875 0.000000
# 3 -0.002400 -0.005281 0.015279 0.000000 -0.002105 0.000000
# 4 0.000000 0.000000 0.000000 0.033789 0.000000 -0.008838
# 5 -0.008891 -0.004875 -0.002105 0.000000 0.065474 0.000000
# 6 0.000000 0.000000 0.000000 -0.008838 0.000000 0.037303
#
#
# Mechanical properties :
#
#
# Convention : Reuss Voigt Hill
#
# Bulk Modulus (GPa) = 43.46741 56.67721 50.07231
# Shear Modulus (GPa) = 23.92075 27.44234 25.68155
#
# Velocity S-wave (km/s) = 3.70528 3.96866 3.83923
# Velocity P-wave (km/s) = 6.57672 7.31640 6.95640
#
# Compressibility (1/GPa) = 0.02300574
#
# Stress axis : x y z
#
# Youngs Moduli (GPa) = 59.16432 85.35504 65.44719
#
# Poissons Ratio (x) = 0.23599 0.15707
# Poissons Ratio (y) = 0.16358 0.34562
# Poissons Ratio (z) = 0.14199 0.45076
#
# Static dielectric constant tensor:
#      x y z
#    x 3.585290 0.000000 0.363250 
#    y 0.000000 3.475880 0.000000 
#    z 0.363250 0.000000 3.292640 
# 
# 
# High freq. dielectric constant tensor:
#      x y z
#    x 1.675790 0.000000 0.017770 
#    y 0.000000 1.674600 0.000000 
#    z 0.017770 0.000000 1.653900 
# 
# From -- ./inp_files/18616.got.cif
#   From: 2010.06.25/outbox.cif.g09.slc.cpg/sg13_10_cif.got.tgz:18616.got - 2010.06.28 04:50:58.
