data_PCOD8117829
_publ_section_title
;
Structure prediction by ZEFSAII (Michael W. Deem and Ramdas Pophale) SiO2 
 PCOD8117829
Probable space group: P 2/C
;
_chemical_formula_sum "Si O2"
_cell_formula_units_Z 24
_cell_length_a 12.732900
_cell_length_b 9.506631
_cell_length_c 14.265271
_cell_angle_alpha 90.000000
_cell_angle_beta 48.804447
_cell_angle_gamma 90.000000
_cell_volume 1299.334263
_symmetry_space_group_name_H-M "P 2/C"
_symmetry_group_IT_number 13
_symmetry_cell_setting 'monoclinic'
loop_
_space_group_symop_operation_xyz
x,y,z
-x,y,1/2-z
-x,-y,-z
x,-y,1/2+z
loop_
_atom_site_type_symbol
_atom_site_label
_atom_site_fract_x
_atom_site_fract_y
_atom_site_fract_z
Si Si1 0.653981 0.888832 0.323201
Si Si2 0.048895 0.778522 0.965072
Si Si3 0.134664 0.634992 0.731187
Si Si4 0.107774 0.314110 0.764978
Si Si5 0.343253 0.860070 0.543398
Si Si6 0.800106 0.035498 0.553483
O O1 0.761268 0.789518 0.314997
O O2 0.500747 0.822210 0.421765
O O3 0.693708 0.899289 0.191211
O O4 0.659515 0.045590 0.361841
O O5 0.118117 0.674351 0.849811
O O6 0.168950 0.871492 0.944330
O O7 0.967844 0.686467 0.089719
O O8 0.945962 0.881370 0.968831
O O9 0.162838 0.469252 0.708464
O O10 0.266446 0.713461 0.608186
O O11 0.000000 0.677812 0.750000
O O12 0.000000 0.260245 0.750000
O O13 0.269150 0.950960 0.506667
#
# Coordination Sequence:
#
# PCOD8117829 Si02
#       6
#     4   4   4   4   4   4
#     4  10  22  37  55  84 110 152 187 228 287 326
#     4  10  19  34  57  86 109 142 180 231 285 320
#     4  11  21  36  57  85 113 147 188 230 278 334
#     4  10  22  37  57  82 113 147 184 233 280 336
#     4  11  21  36  58  80 115 148 189 233 273 337
#     4  10  19  33  58  85 110 139 187 235 270 330
#
# _framework density 18.470996
#
# number of rings (size 3 to 8) (size 9 to 14) (size 15 to 20)
#    0.000    1.667    3.333    2.000    0.000    1.333 
#    0.000    0.000    0.000    0.000    4.333    0.000 
#    0.000    0.000    0.000    0.000    0.000    0.000 
#
# Total GULP energy -297707.316157 kJ/mol
# GULP energy per Si atom -12404.471507 kJ/mol
# Density = 1.842896 g / cm^3
# Si number density = 18.470996 Si / 1000 Ang^3
#
#
#
# Elastic Constant Matrix: (Units=GPa)
#
#
# Indices 1 2 3 4 5 6 
#
# 1 73.9528 19.0666 24.8001 0.0000 -7.5865 0.0000
# 2 19.0666 70.8357 24.1113 0.0000 -16.5568 0.0000
# 3 24.8001 24.1113 75.1208 0.0000 -14.8828 0.0000
# 4 0.0000 0.0000 0.0000 26.8409 0.0000 2.3906
# 5 -7.5865 -16.5568 -14.8828 0.0000 33.5731 0.0000
# 6 0.0000 0.0000 0.0000 2.3906 0.0000 27.7235
#
#
#
# Elastic Compliance Matrix: (Units=1/GPa)
#
#
# Indices 1 2 3 4 5 6 
#
# 1 0.015675 -0.002697 -0.004243 0.000000 0.000331 0.000000
# 2 -0.002697 0.017539 -0.003449 0.000000 0.006511 0.000000
# 3 -0.004243 -0.003449 0.016765 0.000000 0.004772 0.000000
# 4 0.000000 0.000000 0.000000 0.037545 0.000000 -0.003238
# 5 0.000331 0.006511 0.004772 0.000000 0.035187 0.000000
# 6 0.000000 0.000000 0.000000 -0.003238 0.000000 0.036350
#
#
# Mechanical properties :
#
#
# Convention : Reuss Voigt Hill
#
# Bulk Modulus (GPa) = 34.24750 39.54059 36.89404
# Shear Modulus (GPa) = 26.37502 27.75623 27.06562
#
# Velocity S-wave (km/s) = 3.78288 3.88066 3.83208
# Velocity P-wave (km/s) = 6.13691 6.44459 6.29263
#
# Compressibility (1/GPa) = 0.02919921
#
# Stress axis : x y z
#
# Youngs Moduli (GPa) = 63.79768 57.01561 59.64699
#
# Poissons Ratio (x) = 0.15379 0.25311
# Poissons Ratio (y) = 0.17209 0.20572
# Poissons Ratio (z) = 0.27072 0.19665
#
# Static dielectric constant tensor:
#      x y z
#    x 3.395040 0.000000 0.008380 
#    y 0.000000 3.197390 0.000000 
#    z 0.008380 0.000000 3.365610 
# 
# 
# High freq. dielectric constant tensor:
#      x y z
#    x 1.714740 0.000000 0.008030 
#    y 0.000000 1.705210 0.000000 
#    z 0.008030 0.000000 1.721720 
# 
# From -- ./inp_files/52873.got.cif
#   From: 2010.06.25/outbox.cif.g09.slc.cpg/sg13_27_cif.got.tgz:52873.got - 2010.06.28 04:50:58.
