data_PCOD8117467
_publ_section_title
;
Structure prediction by ZEFSAII (Michael W. Deem and Ramdas Pophale) SiO2 
 PCOD8117467
Probable space group: P 2/C
;
_chemical_formula_sum "Si O2"
_cell_formula_units_Z 32
_cell_length_a 14.408280
_cell_length_b 14.166459
_cell_length_c 9.708111
_cell_angle_alpha 90.000000
_cell_angle_beta 55.259770
_cell_angle_gamma 90.000000
_cell_volume 1628.338861
_symmetry_space_group_name_H-M "P 2/C"
_symmetry_group_IT_number 13
_symmetry_cell_setting 'monoclinic'
loop_
_space_group_symop_operation_xyz
x,y,z
-x,y,1/2-z
-x,-y,-z
x,-y,1/2+z
loop_
_atom_site_type_symbol
_atom_site_label
_atom_site_fract_x
_atom_site_fract_y
_atom_site_fract_z
Si Si1 0.344931 0.340829 0.989748
Si Si2 0.249288 0.819415 0.739350
Si Si3 0.576363 0.043270 0.319874
Si Si4 0.119515 0.102046 0.104589
Si Si5 0.578374 0.538203 0.551591
Si Si6 0.733573 0.118527 0.756475
Si Si7 0.880726 0.888420 0.398880
Si Si8 0.600222 0.703821 0.351820
O O1 0.329451 0.454814 0.005417
O O2 0.324933 0.314337 0.847883
O O3 0.469361 0.308328 0.929703
O O4 0.258669 0.286088 0.165099
O O5 0.373765 0.854241 0.682410
O O6 0.204658 0.891610 0.661238
O O7 0.164846 0.820822 0.940843
O O8 0.500000 0.050731 0.250000
O O9 0.500000 0.000000 0.500000
O O10 0.685107 0.974019 0.217428
O O11 0.000000 0.148560 0.250000
O O12 0.096635 0.995273 0.070861
O O13 0.170917 0.157858 0.929553
O O14 0.500000 0.558114 0.750000
O O15 0.500000 0.500000 0.500000
O O16 0.636773 0.634217 0.447196
O O17 0.787735 0.101909 0.858458
O O18 0.629760 0.190070 0.871559
O O19 0.000000 0.843442 0.250000
#
# Coordination Sequence:
#
# PCOD8117467 Si02
#       8
#     4   4   4   4   4   4   4   4
#     4  10  20  36  58  86 121 156 190 234 281 350
#     4  12  22  38  58  85 114 159 200 237 295 352
#     4  12  24  36  53  80 123 163 193 226 275 350
#     4  11  21  38  61  80 108 154 204 253 293 335
#     4  10  18  36  60  84 117 154 196 239 283 330
#     4  12  22  37  57  84 115 155 197 239 289 345
#     4  11  23  40  57  83 116 150 202 264 298 328
#     4  10  21  35  58  87 120 156 192 233 281 348
#
# _framework density 19.651928999999999
#
# number of rings (size 3 to 8) (size 9 to 14) (size 15 to 20)
#    0.000    1.000    6.250    3.000    1.750    4.000 
#    0.000    1.250    0.000    0.000    0.000    5.250 
#    0.000    0.000    0.000    0.000    0.000    0.000 
#
# Total GULP energy -396592.011513 kJ/mol
# GULP energy per Si atom -12393.500360 kJ/mol
# Density = 1.960720 g / cm^3
# Si number density = 19.651929 Si / 1000 Ang^3
#
#
#
# Elastic Constant Matrix: (Units=GPa)
#
#
# Indices 1 2 3 4 5 6 
#
# 1 51.4167 13.3204 21.7675 0.0000 9.8158 0.0000
# 2 13.3204 73.7136 33.7796 0.0000 3.4121 0.0000
# 3 21.7675 33.7796 137.2329 0.0000 2.2371 0.0000
# 4 0.0000 0.0000 0.0000 31.6984 0.0000 2.9694
# 5 9.8158 3.4121 2.2371 0.0000 35.0357 0.0000
# 6 0.0000 0.0000 0.0000 2.9694 0.0000 14.7731
#
#
#
# Elastic Compliance Matrix: (Units=1/GPa)
#
#
# Indices 1 2 3 4 5 6 
#
# 1 0.022415 -0.002473 -0.002851 0.000000 -0.005857 0.000000
# 2 -0.002473 0.015618 -0.003442 0.000000 -0.000608 0.000000
# 3 -0.002851 -0.003442 0.008577 0.000000 0.000586 0.000000
# 4 0.000000 0.000000 0.000000 0.032153 0.000000 -0.006463
# 5 -0.005857 -0.000608 0.000586 0.000000 0.030205 0.000000
# 6 0.000000 0.000000 0.000000 -0.006463 0.000000 0.068990
#
#
# Mechanical properties :
#
#
# Convention : Reuss Voigt Hill
#
# Bulk Modulus (GPa) = 34.39083 44.45537 39.42310
# Shear Modulus (GPa) = 24.36855 29.20116 26.78485
#
# Velocity S-wave (km/s) = 3.52519 3.85894 3.69584
# Velocity P-wave (km/s) = 5.84015 6.52118 6.19003
#
# Compressibility (1/GPa) = 0.02907752
#
# Stress axis : x y z
#
# Youngs Moduli (GPa) = 44.61348 64.02674 116.59237
#
# Poissons Ratio (x) = 0.15832 0.33243
# Poissons Ratio (y) = 0.11032 0.40135
# Poissons Ratio (z) = 0.12720 0.22040
#
# Static dielectric constant tensor:
#      x y z
#    x 3.526890 0.000000 0.041140 
#    y 0.000000 4.223590 0.000000 
#    z 0.041140 0.000000 3.894300 
# 
# 
# High freq. dielectric constant tensor:
#      x y z
#    x 1.741660 0.000000 0.014860 
#    y 0.000000 1.734200 0.000000 
#    z 0.014860 0.000000 1.782900 
# 
# From -- ./inp_files/19632.got.cif
#   From: 2010.06.25/outbox.cif.g09.slc.cpg/sg13_10_cif.got.tgz:19632.got - 2010.06.28 04:50:58.
