data_PCOD8117434
_publ_section_title
;
Structure prediction by ZEFSAII (Michael W. Deem and Ramdas Pophale) SiO2 
 PCOD8117434
Probable space group: P 2/C
;
_chemical_formula_sum "Si O2"
_cell_formula_units_Z 30
_cell_length_a 8.745003
_cell_length_b 8.767266
_cell_length_c 19.444016
_cell_angle_alpha 90.000000
_cell_angle_beta 93.057679
_cell_angle_gamma 90.000000
_cell_volume 1488.645842
_symmetry_space_group_name_H-M "P 2/C"
_symmetry_group_IT_number 13
_symmetry_cell_setting 'monoclinic'
loop_
_space_group_symop_operation_xyz
x,y,z
-x,y,1/2-z
-x,-y,-z
x,-y,1/2+z
loop_
_atom_site_type_symbol
_atom_site_label
_atom_site_fract_x
_atom_site_fract_y
_atom_site_fract_z
Si Si1 0.977796 0.745691 0.982285
Si Si2 0.545430 0.808826 0.674527
Si Si3 0.855844 0.899914 0.711951
Si Si4 0.500000 0.664219 0.250000
Si Si5 0.251478 0.523651 0.005395
Si Si6 0.027986 0.037804 0.602594
Si Si7 0.326996 0.927761 0.178042
Si Si8 0.479742 0.495016 0.389989
O O1 0.143728 0.668674 0.991183
O O2 0.973016 0.858226 0.917174
O O3 0.846011 0.621075 0.971866
O O4 0.944183 0.852040 0.047393
O O5 0.500000 0.756441 0.750000
O O6 0.731548 0.801549 0.666597
O O7 0.482118 0.684257 0.619410
O O8 0.476724 0.977918 0.654948
O O9 0.929475 0.040046 0.670375
O O10 0.000000 0.807322 0.750000
O O11 0.748739 0.963926 0.768450
O O12 0.366448 0.768571 0.214970
O O13 0.441419 0.565914 0.313869
O O14 0.334279 0.480637 0.935963
O O15 0.372428 0.567357 0.068444
O O16 0.202431 0.098172 0.615154
#
# Coordination Sequence:
#
# PCOD8117434 Si02
#       8
#     4   4   4   2   4   4   4   4
#     4  10  21  39  60  79 117 152 195 238 287 336
#     4  10  18  36  56  83 112 155 185 233 277 351
#     4   9  18  32  55  81 112 143 183 233 282 336
#     4  12  22  36  60  88 118 150 184 254 290 346
#     4  10  23  41  58  84 118 160 193 243 283 346
#     4  10  20  35  59  87 107 150 195 237 283 348
#     4  10  20  35  57  84 118 145 185 239 297 335
#     4  11  23  38  61  85 118 155 201 232 291 346
#
# _framework density 20.152543000000001
#
# number of rings (size 3 to 8) (size 9 to 14) (size 15 to 20)
#    0.000    1.867    2.667    2.400    1.867    0.000 
#    0.000    0.000    0.000    8.800    0.000    0.000 
#    0.000    0.000    0.000    0.000    0.000    0.000 
#
# Total GULP energy -371755.566387 kJ/mol
# GULP energy per Si atom -12391.852213 kJ/mol
# Density = 2.010667 g / cm^3
# Si number density = 20.152543 Si / 1000 Ang^3
#
#
#
# Elastic Constant Matrix: (Units=GPa)
#
#
# Indices 1 2 3 4 5 6 
#
# 1 113.5941 24.6938 25.4985 0.0000 8.3902 0.0000
# 2 24.6938 71.5569 19.7821 0.0000 3.9527 0.0000
# 3 25.4985 19.7821 68.9803 0.0000 5.5446 0.0000
# 4 0.0000 0.0000 0.0000 30.2829 0.0000 9.3703
# 5 8.3902 3.9527 5.5446 0.0000 22.7366 0.0000
# 6 0.0000 0.0000 0.0000 9.3703 0.0000 18.1670
#
#
#
# Elastic Compliance Matrix: (Units=1/GPa)
#
#
# Indices 1 2 3 4 5 6 
#
# 1 0.010193 -0.002595 -0.002813 0.000000 -0.002624 0.000000
# 2 -0.002595 0.015897 -0.003524 0.000000 -0.000947 0.000000
# 3 -0.002813 -0.003524 0.016743 0.000000 -0.002432 0.000000
# 4 0.000000 0.000000 0.000000 0.039293 0.000000 -0.020267
# 5 -0.002624 -0.000947 -0.002432 0.000000 0.045708 0.000000
# 6 0.000000 0.000000 0.000000 -0.020267 0.000000 0.065498
#
#
# Mechanical properties :
#
#
# Convention : Reuss Voigt Hill
#
# Bulk Modulus (GPa) = 40.04831 43.78667 41.91749
# Shear Modulus (GPa) = 22.77735 26.51443 24.64589
#
# Velocity S-wave (km/s) = 3.36556 3.63117 3.50089
# Velocity P-wave (km/s) = 5.91763 6.27338 6.09810
#
# Compressibility (1/GPa) = 0.02496984
#
# Stress axis : x y z
#
# Youngs Moduli (GPa) = 98.11107 62.90587 59.72805
#
# Poissons Ratio (x) = 0.16323 0.16799
# Poissons Ratio (y) = 0.25459 0.21046
# Poissons Ratio (z) = 0.27594 0.22165
#
# Static dielectric constant tensor:
#      x y z
#    x 4.102030 0.000000 0.267030 
#    y 0.000000 3.477620 0.000000 
#    z 0.267030 0.000000 3.717950 
# 
# 
# High freq. dielectric constant tensor:
#      x y z
#    x 1.792120 0.000000 0.009220 
#    y 0.000000 1.767330 0.000000 
#    z 0.009220 0.000000 1.788260 
# 
# From -- ./inp_files/75729.got.cif
#   From: 2010.06.25/outbox.cif.g09.slc.cpg/sg13_38_cif.got.tgz:75729.got - 2010.06.28 04:50:58.
