data_PCOD8117992
_publ_section_title
;
Structure prediction by ZEFSAII (Michael W. Deem and Ramdas Pophale) SiO2 
 PCOD8117992
Probable space group: P 2/C
;
_chemical_formula_sum "Si O2"
_cell_formula_units_Z 24
_cell_length_a 15.843652
_cell_length_b 14.812506
_cell_length_c 10.294612
_cell_angle_alpha 90.000000
_cell_angle_beta 144.337815
_cell_angle_gamma 90.000000
_cell_volume 1408.530255
_symmetry_space_group_name_H-M "P 2/C"
_symmetry_group_IT_number 13
_symmetry_cell_setting 'monoclinic'
loop_
_space_group_symop_operation_xyz
x,y,z
-x,y,1/2-z
-x,-y,-z
x,-y,1/2+z
loop_
_atom_site_type_symbol
_atom_site_label
_atom_site_fract_x
_atom_site_fract_y
_atom_site_fract_z
Si Si1 0.586929 0.892343 0.985757
Si Si2 0.828205 0.569586 0.681148
Si Si3 0.831440 0.771320 0.389079
Si Si4 0.597600 0.898045 0.493569
Si Si5 0.827218 0.432318 0.892386
Si Si6 0.836855 0.226473 0.198399
O O1 0.734099 0.835954 0.179304
O O2 0.634444 0.996354 0.037993
O O3 0.500000 0.862436 0.750000
O O4 0.484812 0.870856 0.979356
O O5 0.761235 0.501964 0.704746
O O6 0.770641 0.541567 0.465933
O O7 0.781248 0.671724 0.655951
O O8 0.000403 0.564113 0.894456
O O9 0.777971 0.669093 0.297176
O O10 0.817176 0.797136 0.522381
O O11 0.996744 0.783820 0.550669
O O12 0.746474 0.842586 0.673319
O O13 0.500000 0.869709 0.250000
#
# Coordination Sequence:
#
# PCOD8117992 Si02
#       6
#     4   4   4   4   4   4
#     4  10  21  35  52  74 101 131 165 206 255 299
#     4   8  14  26  45  71  97 126 160 197 240 291
#     4   9  17  32  53  77 102 130 165 210 248 285
#     4  10  19  35  56  73  94 135 175 199 240 310
#     4   8  14  26  46  69  97 128 160 196 241 289
#     4   9  17  31  55  78  97 130 174 205 239 293
#
# _framework density 17.039037
#
# number of rings (size 3 to 8) (size 9 to 14) (size 15 to 20)
#    0.000    3.000    1.667    2.000    0.000    0.667 
#    3.000    0.833    0.000    2.000    0.000    0.000 
#    0.000    0.000    0.000    0.000    0.000    0.000 
#
# Total GULP energy -297547.075206 kJ/mol
# GULP energy per Si atom -12397.794800 kJ/mol
# Density = 1.700026 g / cm^3
# Si number density = 17.039037 Si / 1000 Ang^3
#
#
#
# Elastic Constant Matrix: (Units=GPa)
#
#
# Indices 1 2 3 4 5 6 
#
# 1 86.4564 58.7855 47.3730 0.0000 -12.1024 0.0000
# 2 58.7855 94.8809 56.3381 0.0000 -4.3266 0.0000
# 3 47.3730 56.3381 88.9744 0.0000 -12.4816 0.0000
# 4 0.0000 0.0000 0.0000 13.4318 0.0000 -7.5697
# 5 -12.1024 -4.3266 -12.4816 0.0000 21.5501 0.0000
# 6 0.0000 0.0000 0.0000 -7.5697 0.0000 15.5092
#
#
#
# Elastic Compliance Matrix: (Units=1/GPa)
#
#
# Indices 1 2 3 4 5 6 
#
# 1 0.022426 -0.011402 -0.003565 0.000000 0.008241 0.000000
# 2 -0.011402 0.022873 -0.009433 0.000000 -0.007275 0.000000
# 3 -0.003565 -0.009433 0.020205 0.000000 0.007807 0.000000
# 4 0.000000 0.000000 0.000000 0.102699 0.000000 0.050125
# 5 0.008241 -0.007275 0.007807 0.000000 0.054093 0.000000
# 6 0.000000 0.000000 0.000000 0.050125 0.000000 0.088943
#
#
# Mechanical properties :
#
#
# Convention : Reuss Voigt Hill
#
# Bulk Modulus (GPa) = 59.86142 66.14499 63.00321
# Shear Modulus (GPa) = 13.67592 17.28588 15.48090
#
# Velocity S-wave (km/s) = 2.83613 3.18856 3.01749
# Velocity P-wave (km/s) = 6.77739 7.24291 7.01402
#
# Compressibility (1/GPa) = 0.01670525
#
# Stress axis : x y z
#
# Youngs Moduli (GPa) = 44.59082 43.71913 49.49251
#
# Poissons Ratio (x) = 0.49850 0.17642
# Poissons Ratio (y) = 0.50844 0.46685
# Poissons Ratio (z) = 0.15895 0.41239
#
# Static dielectric constant tensor:
#      x y z
#    x 3.129570 0.000000 -0.261990 
#    y 0.000000 3.236390 0.000000 
#    z -0.261990 0.000000 3.045950 
# 
# 
# High freq. dielectric constant tensor:
#      x y z
#    x 1.641340 0.000000 -0.014170 
#    y 0.000000 1.658420 0.000000 
#    z -0.014170 0.000000 1.634890 
# 
# From -- ./inp_files/19727.got.cif
#   From: 2010.06.25/outbox.cif.g09.slc.cpg/sg13_10_cif.got.tgz:19727.got - 2010.06.28 04:50:58.
