data_PCOD8117336
_publ_section_title
;
Structure prediction by ZEFSAII (Michael W. Deem and Ramdas Pophale) SiO2 
 PCOD8117336
Probable space group: P 2/C
;
_chemical_formula_sum "Si O2"
_cell_formula_units_Z 22
_cell_length_a 25.174059
_cell_length_b 8.672295
_cell_length_c 14.264292
_cell_angle_alpha 90.000000
_cell_angle_beta 22.900979
_cell_angle_gamma 90.000000
_cell_volume 1211.833733
_symmetry_space_group_name_H-M "P 2/C"
_symmetry_group_IT_number 13
_symmetry_cell_setting 'monoclinic'
loop_
_space_group_symop_operation_xyz
x,y,z
-x,y,1/2-z
-x,-y,-z
x,-y,1/2+z
loop_
_atom_site_type_symbol
_atom_site_label
_atom_site_fract_x
_atom_site_fract_y
_atom_site_fract_z
Si Si1 0.296566 0.449307 0.402359
Si Si2 0.276665 0.579918 0.628290
Si Si3 0.404683 0.348193 0.566584
Si Si4 0.609116 0.002649 0.904242
Si Si5 0.500000 0.819974 0.250000
Si Si6 0.153616 0.240672 0.491290
O O1 0.223481 0.497446 0.619583
O O2 0.345857 0.596960 0.262306
O O3 0.184551 0.354257 0.527215
O O4 0.430542 0.344070 0.201126
O O5 0.358808 0.458535 0.557477
O O6 0.373538 0.712234 0.430940
O O7 0.163927 0.663677 0.876542
O O8 0.347096 0.177049 0.642695
O O9 0.746238 0.905128 0.663825
O O10 0.524834 0.929997 0.124029
O O11 0.500000 0.000000 0.000000
O O12 0.000000 0.178678 0.750000
#
# Coordination Sequence:
#
# PCOD8117336 Si02
#       6
#     4   4   4   4   2   4
#     4  10  18  34  59  81 114 145 186 237 277 329
#     4  10  19  35  57  84 112 143 190 235 278 331
#     4  10  19  31  57  90 108 139 188 241 279 325
#     4  11  21  34  55  84 111 147 187 235 285 329
#     4  10  20  30  54  86 118 136 180 242 290 324
#     4  10  23  39  54  80 119 156 186 227 286 340
#
# _framework density 18.154305000000001
#
# number of rings (size 3 to 8) (size 9 to 14) (size 15 to 20)
#    0.000    1.818    3.636    1.091    2.545    0.727 
#    0.000    3.636    0.000   15.273    0.000    0.000 
#    0.000    0.000    0.000    0.000    0.000    0.000 
#
# Total GULP energy -272707.702293 kJ/mol
# GULP energy per Si atom -12395.804650 kJ/mol
# Density = 1.811298 g / cm^3
# Si number density = 18.154305 Si / 1000 Ang^3
#
#
#
# Elastic Constant Matrix: (Units=GPa)
#
#
# Indices 1 2 3 4 5 6 
#
# 1 111.8129 45.7691 52.4423 0.0000 18.9408 0.0000
# 2 45.7691 118.7550 47.5374 0.0000 4.3218 0.0000
# 3 52.4423 47.5374 110.4147 0.0000 -0.2033 0.0000
# 4 0.0000 0.0000 0.0000 -120.5247 0.0000 51.4966
# 5 18.9408 4.3218 -0.2033 0.0000 17.3024 0.0000
# 6 0.0000 0.0000 0.0000 51.4966 0.0000 2.3246
#
#
#
# Elastic Compliance Matrix: (Units=1/GPa)
#
#
# Indices 1 2 3 4 5 6 
#
# 1 0.016001 -0.003020 -0.006330 0.000000 -0.016836 0.000000
# 2 -0.003020 0.010862 -0.003241 0.000000 0.000555 0.000000
# 3 -0.006330 -0.003241 0.013473 0.000000 0.007898 0.000000
# 4 0.000000 0.000000 0.000000 -0.000793 0.000000 0.017563
# 5 -0.016836 0.000555 0.007898 0.000000 0.076180 0.000000
# 6 0.000000 0.000000 0.000000 0.017563 0.000000 0.041106
#
#
# Mechanical properties :
#
#
# Convention : Reuss Voigt Hill
#
# Bulk Modulus (GPa) = 65.99353 70.27557 68.13455
# Shear Modulus (GPa) = 26.72900 -7.16395 9.78252
#
# Velocity S-wave (km/s) = 3.84125 -1.98865 2.32384
# Velocity P-wave (km/s) = 7.49026 5.78975 6.69422
#
# Compressibility (1/GPa) = 0.01515300
#
# Stress axis : x y z
#
# Youngs Moduli (GPa) = 62.49690 92.06568 74.22046
#
# Poissons Ratio (x) = 0.27804 0.46985
# Poissons Ratio (y) = 0.18874 0.24055
# Poissons Ratio (z) = 0.39563 0.29838
#
# Static dielectric constant tensor:
#      x y z
#    x 2.325120 0.000000 -0.232950 
#    y 0.000000 3.801740 0.000000 
#    z -0.232950 0.000000 2.840110 
# 
# 
# High freq. dielectric constant tensor:
#      x y z
#    x 1.713010 0.000000 0.019000 
#    y 0.000000 1.708150 0.000000 
#    z 0.019000 0.000000 1.669470 
# 
# From -- ./inp_files/45962.got.cif
#   From: 2010.06.25/outbox.cif.g09.slc.cpg/sg13_23_cif.got.tgz:45962.got - 2010.06.28 04:50:58.
