data_PCOD8117404
_publ_section_title
;
Structure prediction by ZEFSAII (Michael W. Deem and Ramdas Pophale) SiO2 
 PCOD8117404
Probable space group: P 2/C
;
_chemical_formula_sum "Si O2"
_cell_formula_units_Z 28
_cell_length_a 21.383044
_cell_length_b 9.379623
_cell_length_c 24.409743
_cell_angle_alpha 90.000000
_cell_angle_beta 161.967532
_cell_angle_gamma 90.000000
_cell_volume 1515.504331
_symmetry_space_group_name_H-M "P 2/C"
_symmetry_group_IT_number 13
_symmetry_cell_setting 'monoclinic'
loop_
_space_group_symop_operation_xyz
x,y,z
-x,y,1/2-z
-x,-y,-z
x,-y,1/2+z
loop_
_atom_site_type_symbol
_atom_site_label
_atom_site_fract_x
_atom_site_fract_y
_atom_site_fract_z
Si Si1 0.064016 0.702969 0.197818
Si Si2 0.400835 0.791920 0.990972
Si Si3 0.196185 0.134577 0.208963
Si Si4 0.665771 0.707666 0.931446
Si Si5 0.583705 0.110791 0.461662
Si Si6 0.856800 0.192599 0.847759
Si Si7 0.812644 0.541345 0.628949
O O1 0.244077 0.810901 0.360864
O O2 0.031737 0.711645 0.105629
O O3 0.114128 0.539749 0.255125
O O4 0.870999 0.752567 0.071995
O O5 0.264639 0.792985 0.822653
O O6 0.323933 0.673979 0.968944
O O7 0.631396 0.750124 0.169856
O O8 0.387309 0.941828 0.010638
O O9 0.368684 0.155478 0.307290
O O10 0.154937 0.968269 0.184689
O O11 0.989957 0.205389 0.014137
O O12 0.500000 0.662440 0.750000
O O13 0.592283 0.843959 0.905217
O O14 0.689364 0.572453 0.990520
O O15 0.000000 0.600804 0.750000
#
# Coordination Sequence:
#
# PCOD8117404 Si02
#       7
#     4   4   4   4   4   4   4
#     4  10  18  37  58  79 108 149 193 224 271 334
#     4  11  20  38  57  84 120 145 177 233 285 332
#     4  10  19  34  57  86 119 144 177 233 289 318
#     4  10  21  38  58  80 108 148 193 236 270 325
#     4  10  18  35  60  83 109 147 188 226 278 329
#     4  10  19  34  58  87 113 149 184 228 278 334
#     4   9  22  39  56  76 112 155 183 226 288 328
#
# _framework density 18.475697
#
# number of rings (size 3 to 8) (size 9 to 14) (size 15 to 20)
#    0.000    2.000    2.857    3.000    0.000    1.714 
#    5.143    1.429    0.000    0.000    0.000    0.000 
#    0.000    0.000    0.000    0.000    0.000    0.000 
#
# Total GULP energy -347201.874766 kJ/mol
# GULP energy per Si atom -12400.066956 kJ/mol
# Density = 1.843365 g / cm^3
# Si number density = 18.475697 Si / 1000 Ang^3
#
#
#
# Elastic Constant Matrix: (Units=GPa)
#
#
# Indices 1 2 3 4 5 6 
#
# 1 115.7518 62.0891 51.7796 0.0000 0.3471 0.0000
# 2 62.0891 73.4893 30.7316 0.0000 10.3634 0.0000
# 3 51.7796 30.7316 109.4717 0.0000 -9.3105 0.0000
# 4 0.0000 0.0000 0.0000 15.4825 0.0000 10.2374
# 5 0.3471 10.3634 -9.3105 0.0000 25.3983 0.0000
# 6 0.0000 0.0000 0.0000 10.2374 0.0000 24.5332
#
#
#
# Elastic Compliance Matrix: (Units=1/GPa)
#
#
# Indices 1 2 3 4 5 6 
#
# 1 0.018062 -0.014024 -0.004274 0.000000 0.003909 0.000000
# 2 -0.014024 0.028124 -0.002293 0.000000 -0.012125 0.000000
# 3 -0.004274 -0.002293 0.012267 0.000000 0.005491 0.000000
# 4 0.000000 0.000000 0.000000 0.089201 0.000000 -0.037222
# 5 0.003909 -0.012125 0.005491 0.000000 0.046279 0.000000
# 6 0.000000 0.000000 0.000000 -0.037222 0.000000 0.056293
#
#
# Mechanical properties :
#
#
# Convention : Reuss Voigt Hill
#
# Bulk Modulus (GPa) = 57.89898 65.32371 61.61135
# Shear Modulus (GPa) = 16.82563 23.35699 20.09131
#
# Velocity S-wave (km/s) = 3.02104 3.55942 3.30122
# Velocity P-wave (km/s) = 6.60112 7.23367 6.92462
#
# Compressibility (1/GPa) = 0.01727146
#
# Stress axis : x y z
#
# Youngs Moduli (GPa) = 55.36632 35.55624 81.51904
#
# Poissons Ratio (x) = 0.49863 0.34839
# Poissons Ratio (y) = 0.77644 0.18695
# Poissons Ratio (z) = 0.23662 0.08154
#
# Static dielectric constant tensor:
#      x y z
#    x 3.491500 0.000000 0.062470 
#    y 0.000000 3.127900 0.000000 
#    z 0.062470 0.000000 3.605230 
# 
# 
# High freq. dielectric constant tensor:
#      x y z
#    x 1.719920 0.000000 0.002910 
#    y 0.000000 1.692380 0.000000 
#    z 0.002910 0.000000 1.723920 
# 
# From -- ./inp_files/75296.got.cif
#   From: 2010.06.25/outbox.cif.g09.slc.cpg/sg13_38_cif.got.tgz:75296.got - 2010.06.28 04:50:58.
