data_PCOD8117414
_publ_section_title
;
Structure prediction by ZEFSAII (Michael W. Deem and Ramdas Pophale) SiO2 
 PCOD8117414
Probable space group: P 2/C
;
_chemical_formula_sum "Si O2"
_cell_formula_units_Z 28
_cell_length_a 9.615428
_cell_length_b 8.584490
_cell_length_c 26.903092
_cell_angle_alpha 90.000000
_cell_angle_beta 37.651233
_cell_angle_gamma 90.000000
_cell_volume 1356.507791
_symmetry_space_group_name_H-M "P 2/C"
_symmetry_group_IT_number 13
_symmetry_cell_setting 'monoclinic'
loop_
_space_group_symop_operation_xyz
x,y,z
-x,y,1/2-z
-x,-y,-z
x,-y,1/2+z
loop_
_atom_site_type_symbol
_atom_site_label
_atom_site_fract_x
_atom_site_fract_y
_atom_site_fract_z
Si Si1 0.343357 0.652058 0.251004
Si Si2 0.767395 0.627497 0.787627
Si Si3 0.663542 0.865204 0.102753
Si Si4 0.025320 0.338781 0.462801
Si Si5 0.764904 0.199217 0.188470
Si Si6 0.970439 0.119875 0.607329
Si Si7 0.377143 0.821651 0.933093
O O1 0.500000 0.573017 0.250000
O O2 0.305373 0.534937 0.216573
O O3 0.468430 0.799529 0.192801
O O4 0.118390 0.725051 0.339590
O O5 0.788272 0.750431 0.738174
O O6 0.586128 0.699332 0.878621
O O7 0.000000 0.597727 0.750000
O O8 0.869795 0.910949 0.080881
O O9 0.547259 0.006488 0.106032
O O10 0.774983 0.740506 0.033056
O O11 0.121244 0.336001 0.378671
O O12 0.214501 0.239627 0.436343
O O13 0.000000 0.500000 0.500000
O O14 0.500000 0.165318 0.250000
O O15 0.916529 0.042780 0.148812
O O16 0.240025 0.157651 0.523927
#
# Coordination Sequence:
#
# PCOD8117414 Si02
#       7
#     4   4   4   4   4   4   4
#     4  10  22  38  65  92 120 160 209 261 315 375
#     4  12  27  43  58  86 128 172 214 261 320 378
#     4  10  18  35  62  97 129 153 195 258 315 371
#     4  11  21  32  61 103 134 155 196 255 318 373
#     4  12  21  39  68  96 126 165 207 258 314 380
#     4  10  19  36  63  99 123 152 205 264 316 373
#     4  11  20  39  62  91 132 161 200 260 318 374
#
# _framework density 20.641238000000001
#
# number of rings (size 3 to 8) (size 9 to 14) (size 15 to 20)
#    0.000    1.143    4.286    4.286    6.000    0.000 
#    0.000    4.286    0.000    0.000    0.000    0.000 
#    0.000    0.000    0.000    0.000    0.000    0.000 
#
# Total GULP energy -346901.825215 kJ/mol
# GULP energy per Si atom -12389.350901 kJ/mol
# Density = 2.059426 g / cm^3
# Si number density = 20.641238 Si / 1000 Ang^3
#
#
#
# Elastic Constant Matrix: (Units=GPa)
#
#
# Indices 1 2 3 4 5 6 
#
# 1 57.1361 21.0510 16.2544 0.0000 -10.9627 0.0000
# 2 21.0510 104.8994 29.2345 0.0000 -6.8378 0.0000
# 3 16.2544 29.2345 102.5360 0.0000 -3.9575 0.0000
# 4 0.0000 0.0000 0.0000 27.1357 0.0000 -1.8454
# 5 -10.9627 -6.8378 -3.9575 0.0000 15.9389 0.0000
# 6 0.0000 0.0000 0.0000 -1.8454 0.0000 -3.4546
#
#
#
# Elastic Compliance Matrix: (Units=1/GPa)
#
#
# Indices 1 2 3 4 5 6 
#
# 1 0.021696 -0.002911 -0.002102 0.000000 0.013152 0.000000
# 2 -0.002911 0.010973 -0.002587 0.000000 0.002063 0.000000
# 3 -0.002102 -0.002587 0.010829 0.000000 0.000133 0.000000
# 4 0.000000 0.000000 0.000000 0.035560 0.000000 -0.018996
# 5 0.013152 0.002063 0.000133 0.000000 0.072703 0.000000
# 6 0.000000 0.000000 0.000000 -0.018996 0.000000 -0.279324
#
#
# Mechanical properties :
#
#
# Convention : Reuss Voigt Hill
#
# Bulk Modulus (GPa) = 35.33924 44.18348 39.76136
# Shear Modulus (GPa) = -48.57602 21.12611 -13.72495
#
# Velocity S-wave (km/s) = -4.85639 3.20267 -2.58142
# Velocity P-wave (km/s) = 3.77998 5.92689 3.22799
#
# Compressibility (1/GPa) = 0.02829715
#
# Stress axis : x y z
#
# Youngs Moduli (GPa) = 46.09163 91.13590 92.34726
#
# Poissons Ratio (x) = 0.26528 0.19409
# Poissons Ratio (y) = 0.13417 0.23894
# Poissons Ratio (z) = 0.09687 0.23580
#
# Static dielectric constant tensor:
#      x y z
#    x 3.168620 0.000000 0.058790 
#    y 0.000000 4.039300 0.000000 
#    z 0.058790 0.000000 4.468330 
# 
# 
# High freq. dielectric constant tensor:
#      x y z
#    x 1.722960 0.000000 0.012320 
#    y 0.000000 1.820780 0.000000 
#    z 0.012320 0.000000 1.838560 
# 
# From -- ./inp_files/91394.got.cif
#   From: 2010.06.25/outbox.cif.g09.slc.cpg/sg13_46_cif.got.tgz:91394.got - 2010.06.28 04:50:58.
