data_PCOD8117977
_publ_section_title
;
Structure prediction by ZEFSAII (Michael W. Deem and Ramdas Pophale) SiO2 
 PCOD8117977
Probable space group: P 2/C
;
_chemical_formula_sum "Si O2"
_cell_formula_units_Z 32
_cell_length_a 19.431740
_cell_length_b 18.614816
_cell_length_c 21.722501
_cell_angle_alpha 90.000000
_cell_angle_beta 167.405363
_cell_angle_gamma 90.000000
_cell_volume 1713.326473
_symmetry_space_group_name_H-M "P 2/C"
_symmetry_group_IT_number 13
_symmetry_cell_setting 'monoclinic'
loop_
_space_group_symop_operation_xyz
x,y,z
-x,y,1/2-z
-x,-y,-z
x,-y,1/2+z
loop_
_atom_site_type_symbol
_atom_site_label
_atom_site_fract_x
_atom_site_fract_y
_atom_site_fract_z
Si Si1 0.864937 0.379868 0.563284
Si Si2 0.817716 0.044406 0.290402
Si Si3 0.183833 0.105386 0.850340
Si Si4 0.689486 0.015928 0.355437
Si Si5 0.032838 0.486053 0.131246
Si Si6 0.652023 0.420263 0.699022
Si Si7 0.173890 0.288455 0.723800
Si Si8 0.663983 0.197619 0.210601
O O1 0.000000 0.373385 0.750000
O O2 0.906340 0.460717 0.573754
O O3 0.035239 0.325967 0.664141
O O4 0.500000 0.359366 0.250000
O O5 0.760903 0.126578 0.257941
O O6 0.000000 0.000000 0.500000
O O7 0.073341 0.047660 0.457704
O O8 0.500000 0.000000 0.000000
O O9 0.000000 0.126600 0.750000
O O10 0.924015 0.083007 0.573234
O O11 0.441710 0.041301 0.086590
O O12 0.358669 0.177888 0.984675
O O13 0.500000 0.989832 0.250000
O O14 0.274550 0.428309 0.370608
O O15 0.202843 0.527590 0.224915
O O16 0.750653 0.440798 0.854536
O O17 0.772882 0.341342 0.787112
O O18 0.942753 0.226128 0.497273
O O19 0.525215 0.258232 0.044171
#
# Coordination Sequence:
#
# PCOD8117977 Si02
#       8
#     4   4   4   4   4   4   4   4
#     4  11  22  37  55  82 119 154 189 220 261 326
#     4  12  21  36  58  81 107 140 187 255 305 329
#     4  10  20  33  51  73 105 141 181 224 272 341
#     4  10  19  35  54  78 102 132 174 233 301 345
#     4   9  17  31  56  78  99 137 181 230 266 297
#     4   9  17  33  52  76 103 134 183 230 270 300
#     4  11  24  36  52  78 115 156 188 223 270 349
#     4  12  22  35  53  78 112 150 198 228 286 351
#
# _framework density 18.677118
#
# number of rings (size 3 to 8) (size 9 to 14) (size 15 to 20)
#    0.000    1.500    2.500    3.750    0.000    5.500 
#    0.000    0.000    0.000    0.000    0.000    8.750 
#    0.000    0.000    0.000    0.000    0.000    0.000 
#
# Total GULP energy -396574.833311 kJ/mol
# GULP energy per Si atom -12392.963541 kJ/mol
# Density = 1.863461 g / cm^3
# Si number density = 18.677118 Si / 1000 Ang^3
#
#
#
# Elastic Constant Matrix: (Units=GPa)
#
#
# Indices 1 2 3 4 5 6 
#
# 1 66.8051 46.5703 40.5727 0.0000 -9.8480 0.0000
# 2 46.5703 90.9789 33.5256 0.0000 0.9281 0.0000
# 3 40.5727 33.5256 112.6489 0.0000 -13.8679 0.0000
# 4 0.0000 0.0000 0.0000 25.0289 0.0000 24.1955
# 5 -9.8480 0.9281 -13.8679 0.0000 33.2320 0.0000
# 6 0.0000 0.0000 0.0000 24.1955 0.0000 -19.1295
#
#
#
# Elastic Compliance Matrix: (Units=1/GPa)
#
#
# Indices 1 2 3 4 5 6 
#
# 1 0.027833 -0.012243 -0.005612 0.000000 0.006248 0.000000
# 2 -0.012243 0.017856 -0.001489 0.000000 -0.004748 0.000000
# 3 -0.005612 -0.001489 0.011745 0.000000 0.003280 0.000000
# 4 0.000000 0.000000 0.000000 0.017975 0.000000 0.022736
# 5 0.006248 -0.004748 0.003280 0.000000 0.033444 0.000000
# 6 0.000000 0.000000 0.000000 0.022736 0.000000 -0.023519
#
#
# Mechanical properties :
#
#
# Convention : Reuss Voigt Hill
#
# Bulk Modulus (GPa) = 53.34373 56.86333 55.10353
# Shear Modulus (GPa) = 38.38173 17.81057 28.09615
#
# Velocity S-wave (km/s) = 4.53814 3.09140 3.88275
# Velocity P-wave (km/s) = 7.48884 6.57677 7.04757
#
# Compressibility (1/GPa) = 0.01874634
#
# Stress axis : x y z
#
# Youngs Moduli (GPa) = 35.92902 56.00496 85.14080
#
# Poissons Ratio (x) = 0.68566 0.47778
# Poissons Ratio (y) = 0.43987 0.12678
# Poissons Ratio (z) = 0.20162 0.08339
#
# Static dielectric constant tensor:
#      x y z
#    x 4.121610 0.000000 0.246590 
#    y 0.000000 3.353560 0.000000 
#    z 0.246590 0.000000 4.002520 
# 
# 
# High freq. dielectric constant tensor:
#      x y z
#    x 1.713300 0.000000 -0.012590 
#    y 0.000000 1.697410 0.000000 
#    z -0.012590 0.000000 1.748550 
# 
# From -- ./inp_files/93904.got.cif
#   From: 2010.06.25/outbox.cif.g09.slc.cpg/sg13_47_cif.got.tgz:93904.got - 2010.06.28 04:50:58.
