data_PCOD8117810
_publ_section_title
;
Structure prediction by ZEFSAII (Michael W. Deem and Ramdas Pophale) SiO2 
 PCOD8117810
Probable space group: P 2/C
;
_chemical_formula_sum "Si O2"
_cell_formula_units_Z 24
_cell_length_a 12.482050
_cell_length_b 18.568112
_cell_length_c 5.211409
_cell_angle_alpha 90.000000
_cell_angle_beta 84.059770
_cell_angle_gamma 90.000000
_cell_volume 1201.352762
_symmetry_space_group_name_H-M "P 2/C"
_symmetry_group_IT_number 13
_symmetry_cell_setting 'monoclinic'
loop_
_space_group_symop_operation_xyz
x,y,z
-x,y,1/2-z
-x,-y,-z
x,-y,1/2+z
loop_
_atom_site_type_symbol
_atom_site_label
_atom_site_fract_x
_atom_site_fract_y
_atom_site_fract_z
Si Si1 0.119720 0.659699 0.735599
Si Si2 0.252916 0.338588 0.690660
Si Si3 0.117788 0.827837 0.711364
Si Si4 0.373598 0.038106 0.762414
Si Si5 0.378631 0.530458 0.058028
Si Si6 0.753595 0.171251 0.827122
O O1 0.192961 0.642569 0.470347
O O2 0.104712 0.744238 0.771120
O O3 0.000000 0.624348 0.750000
O O4 0.176275 0.633149 0.981722
O O5 0.364267 0.384856 0.635117
O O6 0.284190 0.254549 0.658263
O O7 0.160518 0.842438 0.417238
O O8 0.000000 0.864957 0.750000
O O9 0.196249 0.856479 0.916781
O O10 0.500000 0.028695 0.750000
O O11 0.348867 0.121809 0.712082
O O12 0.324246 0.989012 0.544877
O O13 0.320695 0.514267 0.801401
O O14 0.500000 0.500000 0.000000
#
# Coordination Sequence:
#
# PCOD8117810 Si02
#       6
#     4   4   4   4   4   4
#     4   9  17  30  52  82 111 141 177 225 275 315
#     4  10  19  33  56  82 109 139 184 230 262 319
#     4   9  17  30  52  82 115 144 176 222 276 323
#     4  10  21  38  58  77 107 148 185 223 282 333
#     4  10  21  38  57  75 105 148 181 209 271 341
#     4  10  19  33  56  84 109 139 188 231 265 313
#
# _framework density 19.97748
#
# number of rings (size 3 to 8) (size 9 to 14) (size 15 to 20)
#    0.000    2.333    0.000    3.000    0.000    4.000 
#    3.000    0.000    7.333   20.000    0.000    0.000 
#    0.000    0.000    0.000    0.000    0.000    0.000 
#
# Total GULP energy -297336.945487 kJ/mol
# GULP energy per Si atom -12389.039395 kJ/mol
# Density = 1.993201 g / cm^3
# Si number density = 19.977480 Si / 1000 Ang^3
#
#
#
# Elastic Constant Matrix: (Units=GPa)
#
#
# Indices 1 2 3 4 5 6 
#
# 1 51.2717 40.4234 26.6106 0.0000 4.9285 0.0000
# 2 40.4234 93.2355 42.5022 0.0000 -0.6837 0.0000
# 3 26.6106 42.5022 151.7371 0.0000 10.4956 0.0000
# 4 0.0000 0.0000 0.0000 20.8679 0.0000 0.1427
# 5 4.9285 -0.6837 10.4956 0.0000 16.4985 0.0000
# 6 0.0000 0.0000 0.0000 0.1427 0.0000 14.5691
#
#
#
# Elastic Compliance Matrix: (Units=1/GPa)
#
#
# Indices 1 2 3 4 5 6 
#
# 1 0.031339 -0.013112 -0.001191 0.000000 -0.009147 0.000000
# 2 -0.013112 0.017908 -0.003179 0.000000 0.006681 0.000000
# 3 -0.001191 -0.003179 0.008027 0.000000 -0.004883 0.000000
# 4 0.000000 0.000000 0.000000 0.047924 0.000000 -0.000469
# 5 -0.009147 0.006681 -0.004883 0.000000 0.066727 0.000000
# 6 0.000000 0.000000 0.000000 -0.000469 0.000000 0.068643
#
#
# Mechanical properties :
#
#
# Convention : Reuss Voigt Hill
#
# Bulk Modulus (GPa) = 44.81886 57.25743 51.03814
# Shear Modulus (GPa) = 17.66990 22.83432 20.25211
#
# Velocity S-wave (km/s) = 2.97727 3.38450 3.18739
# Velocity P-wave (km/s) = 5.85681 6.63297 6.25694
#
# Compressibility (1/GPa) = 0.02231204
#
# Stress axis : x y z
#
# Youngs Moduli (GPa) = 31.90956 55.83994 124.57480
#
# Poissons Ratio (x) = 0.73215 0.14832
# Poissons Ratio (y) = 0.41838 0.39601
# Poissons Ratio (z) = 0.03799 0.17751
#
# Static dielectric constant tensor:
#      x y z
#    x 3.848380 0.000000 1.944530 
#    y 0.000000 3.444140 0.000000 
#    z 1.944530 0.000000 12.806640 
# 
# 
# High freq. dielectric constant tensor:
#      x y z
#    x 1.752420 0.000000 0.006010 
#    y 0.000000 1.748510 0.000000 
#    z 0.006010 0.000000 1.813200 
# 
# From -- ./inp_files/3643.got.cif
#   From: 2010.06.25/outbox.cif.g09.slc.cpg/sg13_2_cif.got.tgz:3643.got - 2010.06.28 04:50:58.
