data_PCOD8117117
_publ_section_title
;
Structure prediction by ZEFSAII (Michael W. Deem and Ramdas Pophale) SiO2 
 PCOD8117117
Probable space group: P 2/C
;
_chemical_formula_sum "Si O2"
_cell_formula_units_Z 30
_cell_length_a 16.697356
_cell_length_b 13.200805
_cell_length_c 18.019468
_cell_angle_alpha 90.000000
_cell_angle_beta 24.524548
_cell_angle_gamma 90.000000
_cell_volume 1648.637253
_symmetry_space_group_name_H-M "P 2/C"
_symmetry_group_IT_number 13
_symmetry_cell_setting 'monoclinic'
loop_
_space_group_symop_operation_xyz
x,y,z
-x,y,1/2-z
-x,-y,-z
x,-y,1/2+z
loop_
_atom_site_type_symbol
_atom_site_label
_atom_site_fract_x
_atom_site_fract_y
_atom_site_fract_z
Si Si1 0.380116 0.337098 0.281512
Si Si2 0.944075 0.875462 0.160155
Si Si3 0.541085 0.177582 0.942837
Si Si4 0.645340 0.883360 0.750999
Si Si5 0.977780 0.348221 0.683006
Si Si6 0.419594 0.083243 0.894519
Si Si7 0.000000 0.018293 0.250000
Si Si8 0.423378 0.601214 0.029620
O O1 0.500000 0.375268 0.250000
O O2 0.412435 0.216796 0.245668
O O3 0.162548 0.373815 0.477715
O O4 0.453091 0.392886 0.148310
O O5 0.749086 0.877712 0.275607
O O6 0.941343 0.770850 0.207110
O O7 0.941441 0.957161 0.226526
O O8 0.124584 0.897664 0.953582
O O9 0.464127 0.156155 0.925738
O O10 0.548974 0.299148 0.943057
O O11 0.397123 0.130132 0.125709
O O12 0.515690 0.972909 0.826611
O O13 0.801844 0.412423 0.798487
O O14 0.000000 0.377253 0.750000
O O15 0.500000 0.129633 0.750000
O O16 0.190182 0.083227 0.074052
O O17 0.500000 0.500000 0.000000
#
# Coordination Sequence:
#
# PCOD8117117 Si02
#       8
#     4   4   4   4   4   4   2   4
#     4  10  19  31  56  89 116 140 177 233 291 338
#     4  10  20  32  56  88 116 148 183 237 282 333
#     4  10  23  40  57  81 117 151 189 240 290 337
#     4  10  20  33  55  86 117 146 184 230 285 333
#     4  10  18  31  57  89 116 135 178 235 295 336
#     4  12  24  37  54  81 118 164 194 222 270 342
#     4  12  22  32  54  86 116 156 196 230 264 330
#     4  10  22  40  60  82 113 146 186 244 295 340
#
# _framework density 18.196847000000002
#
# number of rings (size 3 to 8) (size 9 to 14) (size 15 to 20)
#    0.000    1.600    4.667    0.800    1.867    2.133 
#    0.000    0.667    1.467    0.000    0.000    0.000 
#    0.000    0.000    0.000    0.000    0.000    0.000 
#
# Total GULP energy -371939.189665 kJ/mol
# GULP energy per Si atom -12397.972989 kJ/mol
# Density = 1.815543 g / cm^3
# Si number density = 18.196847 Si / 1000 Ang^3
#
#
#
# Elastic Constant Matrix: (Units=GPa)
#
#
# Indices 1 2 3 4 5 6 
#
# 1 118.8512 45.4073 63.5352 0.0000 2.5865 0.0000
# 2 45.4073 59.6996 36.9559 0.0000 -0.0382 0.0000
# 3 63.5352 36.9559 154.6912 0.0000 -4.8609 0.0000
# 4 0.0000 0.0000 0.0000 16.7388 0.0000 -1.1722
# 5 2.5865 -0.0382 -4.8609 0.0000 32.8671 0.0000
# 6 0.0000 0.0000 0.0000 -1.1722 0.0000 24.1573
#
#
#
# Elastic Compliance Matrix: (Units=1/GPa)
#
#
# Indices 1 2 3 4 5 6 
#
# 1 0.013455 -0.007959 -0.003675 0.000000 -0.001612 0.000000
# 2 -0.007959 0.024381 -0.002547 0.000000 0.000278 0.000000
# 3 -0.003675 -0.002547 0.008632 0.000000 0.001563 0.000000
# 4 0.000000 0.000000 0.000000 0.059945 0.000000 0.002909
# 5 -0.001612 0.000278 0.001563 0.000000 0.030784 0.000000
# 6 0.000000 0.000000 0.000000 0.002909 0.000000 0.041537
#
#
# Mechanical properties :
#
#
# Convention : Reuss Voigt Hill
#
# Bulk Modulus (GPa) = 55.23547 69.44875 62.34211
# Shear Modulus (GPa) = 23.45976 27.24219 25.35098
#
# Velocity S-wave (km/s) = 3.59447 3.87341 3.73654
# Velocity P-wave (km/s) = 6.90270 7.63234 7.27667
#
# Compressibility (1/GPa) = 0.01810431
#
# Stress axis : x y z
#
# Youngs Moduli (GPa) = 74.32415 41.01517 115.85431
#
# Poissons Ratio (x) = 0.32646 0.42579
# Poissons Ratio (y) = 0.59158 0.29506
# Poissons Ratio (z) = 0.27316 0.10446
#
# Static dielectric constant tensor:
#      x y z
#    x 3.261410 0.000000 -0.100030 
#    y 0.000000 2.941020 0.000000 
#    z -0.100030 0.000000 3.813970 
# 
# 
# High freq. dielectric constant tensor:
#      x y z
#    x 1.702770 0.000000 -0.001450 
#    y 0.000000 1.658430 0.000000 
#    z -0.001450 0.000000 1.731510 
# 
# From -- ./inp_files/53865.got.cif
#   From: 2010.06.25/outbox.cif.g09.slc.cpg/sg13_27_cif.got.tgz:53865.got - 2010.06.28 04:50:58.
