data_PCOD8117851
_publ_section_title
;
Structure prediction by ZEFSAII (Michael W. Deem and Ramdas Pophale) SiO2 
 PCOD8117851
Probable space group: P 2/C
;
_chemical_formula_sum "Si O2"
_cell_formula_units_Z 20
_cell_length_a 26.724825
_cell_length_b 7.785188
_cell_length_c 5.000554
_cell_angle_alpha 90.000000
_cell_angle_beta 79.723770
_cell_angle_gamma 90.000000
_cell_volume 1023.715212
_symmetry_space_group_name_H-M "P 2/C"
_symmetry_group_IT_number 13
_symmetry_cell_setting 'monoclinic'
loop_
_space_group_symop_operation_xyz
x,y,z
-x,y,1/2-z
-x,-y,-z
x,-y,1/2+z
loop_
_atom_site_type_symbol
_atom_site_label
_atom_site_fract_x
_atom_site_fract_y
_atom_site_fract_z
Si Si1 0.731630 0.620820 0.522387
Si Si2 0.643176 0.886251 0.637442
Si Si3 0.157274 0.388460 0.524898
Si Si4 0.557921 0.613040 0.720227
Si Si5 0.052734 0.384645 0.765152
O O1 0.721825 0.487297 0.296557
O O2 0.693740 0.778382 0.535859
O O3 0.788846 0.703600 0.463866
O O4 0.593387 0.774167 0.628445
O O5 0.642712 0.048397 0.441224
O O6 0.155537 0.441533 0.216129
O O7 0.105559 0.280121 0.648682
O O8 0.500000 0.677647 0.750000
O O9 0.569341 0.459675 0.502911
O O10 0.052776 0.553100 0.570840
O O11 0.000000 0.280292 0.750000
#
# Coordination Sequence:
#
# PCOD8117851 Si02
#       5
#     4   4   4   4   4
#     4  10  19  34  53  70  95 132 171 204 239 292
#     4  12  24  36  53  79 108 133 163 206 252 290
#     4   8  14  23  38  59  81 113 154 191 230 280
#     4  10  21  39  61  81 103 135 171 201 237 292
#     4   8  12  18  29  49  79 109 137 178 234 284
#
# _framework density 19.536681999999999
#
# number of rings (size 3 to 8) (size 9 to 14) (size 15 to 20)
#    0.000    2.400    0.000    3.600    0.000    0.800 
#    0.000    0.000    0.000    0.000    0.000    0.000 
#    0.000    1.600    0.000    0.000    0.000   12.800 
#
# Total GULP energy -247786.463570 kJ/mol
# GULP energy per Si atom -12389.323178 kJ/mol
# Density = 1.949222 g / cm^3
# Si number density = 19.536682 Si / 1000 Ang^3
#
#
#
# Elastic Constant Matrix: (Units=GPa)
#
#
# Indices 1 2 3 4 5 6 
#
# 1 174.1409 52.5137 25.3755 0.0000 -23.6038 0.0000
# 2 52.5137 45.4578 12.1314 0.0000 -9.8207 0.0000
# 3 25.3755 12.1314 95.4243 0.0000 0.7751 0.0000
# 4 0.0000 0.0000 0.0000 18.2325 0.0000 1.9397
# 5 -23.6038 -9.8207 0.7751 0.0000 33.8728 0.0000
# 6 0.0000 0.0000 0.0000 1.9397 0.0000 -1.1689
#
#
#
# Elastic Compliance Matrix: (Units=1/GPa)
#
#
# Indices 1 2 3 4 5 6 
#
# 1 0.009346 -0.009643 -0.001290 0.000000 0.003746 0.000000
# 2 -0.009643 0.034334 -0.001827 0.000000 0.003276 0.000000
# 3 -0.001290 -0.001827 0.011068 0.000000 -0.001682 0.000000
# 4 0.000000 0.000000 0.000000 0.046617 0.000000 0.077360
# 5 0.003746 0.003276 -0.001682 0.000000 0.033121 0.000000
# 6 0.000000 0.000000 0.000000 0.077360 0.000000 -0.727147
#
#
# Mechanical properties :
#
#
# Convention : Reuss Voigt Hill
#
# Bulk Modulus (GPa) = 34.21371 55.00714 44.61042
# Shear Modulus (GPa) = -8.97027 25.18746 8.10859
#
# Velocity S-wave (km/s) = -2.14510 3.59449 2.03947
# Velocity P-wave (km/s) = 3.37865 6.74123 5.33195
#
# Compressibility (1/GPa) = 0.02922805
#
# Stress axis : x y z
#
# Youngs Moduli (GPa) = 106.99435 29.12562 90.34678
#
# Poissons Ratio (x) = 0.28087 0.11653
# Poissons Ratio (y) = 1.03179 0.16508
# Poissons Ratio (z) = 0.13801 0.05322
#
# Static dielectric constant tensor:
#      x y z
#    x 4.282840 0.000000 -0.164040 
#    y 0.000000 2.738240 0.000000 
#    z -0.164040 0.000000 3.752940 
# 
# 
# High freq. dielectric constant tensor:
#      x y z
#    x 1.802870 0.000000 -0.003170 
#    y 0.000000 1.662990 0.000000 
#    z -0.003170 0.000000 1.789260 
# 
# From -- ./inp_files/7629.got.cif
#   From: 2010.06.25/outbox.cif.g09.slc.cpg/sg13_4_cif.got.tgz:7629.got - 2010.06.28 04:50:58.
