data_PCOD8117383
_publ_section_title
;
Structure prediction by ZEFSAII (Michael W. Deem and Ramdas Pophale) SiO2 
 PCOD8117383
Probable space group: P 2/C
;
_chemical_formula_sum "Si O2"
_cell_formula_units_Z 32
_cell_length_a 25.500694
_cell_length_b 9.275541
_cell_length_c 18.195969
_cell_angle_alpha 90.000000
_cell_angle_beta 21.463100
_cell_angle_gamma 90.000000
_cell_volume 1574.820815
_symmetry_space_group_name_H-M "P 2/C"
_symmetry_group_IT_number 13
_symmetry_cell_setting 'monoclinic'
loop_
_space_group_symop_operation_xyz
x,y,z
-x,y,1/2-z
-x,-y,-z
x,-y,1/2+z
loop_
_atom_site_type_symbol
_atom_site_label
_atom_site_fract_x
_atom_site_fract_y
_atom_site_fract_z
Si Si1 0.869957 0.779307 0.175459
Si Si2 0.679903 0.045383 0.436009
Si Si3 0.167127 0.214565 0.038380
Si Si4 0.361405 0.013130 0.341310
Si Si5 0.821760 0.321164 0.201522
Si Si6 0.826263 0.570041 0.854334
Si Si7 0.341349 0.689865 0.926250
Si Si8 0.141481 0.425078 0.946252
O O1 0.760837 0.700847 0.370794
O O2 0.871484 0.703332 0.095145
O O3 0.814489 0.943934 0.237718
O O4 0.028261 0.764685 0.004397
O O5 0.699810 0.201988 0.373111
O O6 0.667526 0.052405 0.540221
O O7 0.528482 0.990912 0.601217
O O8 0.201381 0.272936 0.075360
O O9 0.000000 0.170572 0.250000
O O10 0.214074 0.343631 0.921028
O O11 0.266214 0.071187 0.904106
O O12 0.316334 0.181908 0.400455
O O13 0.826034 0.425034 0.266561
O O14 0.781438 0.429971 0.186203
O O15 0.983728 0.519382 0.675226
O O16 0.704882 0.463645 0.047083
O O17 0.500000 0.692326 0.750000
#
# Coordination Sequence:
#
# PCOD8117383 Si02
#       8
#     4   4   4   4   4   4   4   4
#     4  10  18  35  56  89 116 150 192 248 300 339
#     4  10  20  34  60  90 115 148 198 256 291 339
#     4  10  22  40  58  80 121 165 190 229 301 359
#     4  10  20  38  56  85 119 149 198 244 285 354
#     4  11  18  33  60  89 118 146 200 251 294 339
#     4  10  19  35  57  84 111 151 196 241 288 343
#     4  11  19  34  62  88 115 143 195 255 293 336
#     4  10  20  36  56  82 119 152 189 243 294 349
#
# _framework density 20.319770999999999
#
# number of rings (size 3 to 8) (size 9 to 14) (size 15 to 20)
#    0.000    1.750    6.250    1.125    0.000    1.000 
#    0.000    4.375    0.000    0.000    0.000    0.000 
#    0.000    0.000    0.000    0.000    0.000    0.000 
#
# Total GULP energy -396437.107770 kJ/mol
# GULP energy per Si atom -12388.659618 kJ/mol
# Density = 2.027352 g / cm^3
# Si number density = 20.319771 Si / 1000 Ang^3
#
#
#
# Elastic Constant Matrix: (Units=GPa)
#
#
# Indices 1 2 3 4 5 6 
#
# 1 45.0666 27.7897 22.3922 0.0000 -9.6635 0.0000
# 2 27.7897 119.6000 48.0191 0.0000 -20.3613 0.0000
# 3 22.3922 48.0191 81.9088 0.0000 -7.9069 0.0000
# 4 0.0000 0.0000 0.0000 37.3197 0.0000 2.1189
# 5 -9.6635 -20.3613 -7.9069 0.0000 17.2683 0.0000
# 6 0.0000 0.0000 0.0000 2.1189 0.0000 29.0124
#
#
#
# Elastic Compliance Matrix: (Units=1/GPa)
#
#
# Indices 1 2 3 4 5 6 
#
# 1 0.028738 -0.002824 -0.005200 0.000000 0.010371 0.000000
# 2 -0.002824 0.013355 -0.005953 0.000000 0.011441 0.000000
# 3 -0.005200 -0.005953 0.016909 0.000000 -0.002187 0.000000
# 4 0.000000 0.000000 0.000000 0.026907 0.000000 -0.001965
# 5 0.010371 0.011441 -0.002187 0.000000 0.076203 0.000000
# 6 0.000000 0.000000 0.000000 -0.001965 0.000000 0.034612
#
#
# Mechanical properties :
#
#
# Convention : Reuss Voigt Hill
#
# Bulk Modulus (GPa) = 32.20708 49.21972 40.71340
# Shear Modulus (GPa) = 21.27407 26.61169 23.94288
#
# Velocity S-wave (km/s) = 3.23919 3.62283 3.43637
# Velocity P-wave (km/s) = 5.46574 6.46336 5.98537
#
# Compressibility (1/GPa) = 0.03104908
#
# Stress axis : x y z
#
# Youngs Moduli (GPa) = 34.79670 74.87626 59.13987
#
# Poissons Ratio (x) = 0.21146 0.30751
# Poissons Ratio (y) = 0.09827 0.35206
# Poissons Ratio (z) = 0.18093 0.44574
#
# Static dielectric constant tensor:
#      x y z
#    x 3.336940 0.000000 -0.087780 
#    y 0.000000 3.878200 0.000000 
#    z -0.087780 0.000000 4.239650 
# 
# 
# High freq. dielectric constant tensor:
#      x y z
#    x 1.745700 0.000000 0.004280 
#    y 0.000000 1.804620 0.000000 
#    z 0.004280 0.000000 1.788050 
# 
# From -- ./inp_files/82780.got.cif
#   From: 2010.06.25/outbox.cif.g09.slc.cpg/sg13_42_cif.got.tgz:82780.got - 2010.06.28 04:50:58.
