data_PCOD8117812
_publ_section_title
;
Structure prediction by ZEFSAII (Michael W. Deem and Ramdas Pophale) SiO2 
 PCOD8117812
Probable space group: P 2/C
;
_chemical_formula_sum "Si O2"
_cell_formula_units_Z 24
_cell_length_a 28.358499
_cell_length_b 9.559988
_cell_length_c 10.018639
_cell_angle_alpha 90.000000
_cell_angle_beta 151.102286
_cell_angle_gamma 90.000000
_cell_volume 1312.559167
_symmetry_space_group_name_H-M "P 2/C"
_symmetry_group_IT_number 13
_symmetry_cell_setting 'monoclinic'
loop_
_space_group_symop_operation_xyz
x,y,z
-x,y,1/2-z
-x,-y,-z
x,-y,1/2+z
loop_
_atom_site_type_symbol
_atom_site_label
_atom_site_fract_x
_atom_site_fract_y
_atom_site_fract_z
Si Si1 0.222616 0.827107 0.315324
Si Si2 0.609345 0.366530 0.861430
Si Si3 0.904614 0.155942 0.745690
Si Si4 0.236312 0.151519 0.329564
Si Si5 0.881706 0.831544 0.700064
Si Si6 0.383061 0.379881 0.310806
O O1 0.140391 0.813077 0.222864
O O2 0.319571 0.748391 0.600161
O O3 0.253947 0.986070 0.362130
O O4 0.172277 0.759988 0.059408
O O5 0.494796 0.337856 0.564581
O O6 0.644341 0.485797 0.845597
O O7 0.660048 0.223788 0.939474
O O8 0.637205 0.408942 0.082586
O O9 0.837700 0.217081 0.462415
O O10 0.907220 0.990625 0.725259
O O11 0.010926 0.230964 0.001390
O O12 0.192674 0.189472 0.364266
#
# Coordination Sequence:
#
# PCOD8117812 Si02
#       6
#     4   4   4   4   4   4
#     4  10  19  33  56  84 111 140 178 225 271 314
#     4  10  22  40  59  78 105 144 185 224 272 329
#     4   9  16  32  50  79 114 146 177 217 262 317
#     4  10  19  33  56  84 111 140 178 225 271 314
#     4   9  18  28  52  83 112 142 179 215 264 323
#     4  10  22  40  59  78 105 144 185 224 272 329
#
# _framework density 18.284890000000001
#
# number of rings (size 3 to 8) (size 9 to 14) (size 15 to 20)
#    0.000    2.333    1.667    1.000    2.333    4.667 
#    0.000    0.000    0.000    6.000    0.000    0.000 
#    0.000    0.000    0.000    0.000    0.000    0.000 
#
# Total GULP energy -297524.642048 kJ/mol
# GULP energy per Si atom -12396.860085 kJ/mol
# Density = 1.824327 g / cm^3
# Si number density = 18.284890 Si / 1000 Ang^3
#
#
#
# Elastic Constant Matrix: (Units=GPa)
#
#
# Indices 1 2 3 4 5 6 
#
# 1 54.7062 25.9560 33.3652 0.0000 -8.5030 0.0000
# 2 25.9560 49.1065 40.1876 0.0000 3.5640 0.0000
# 3 33.3652 40.1876 118.2038 0.0000 -12.2495 0.0000
# 4 0.0000 0.0000 0.0000 15.1349 0.0000 -5.3657
# 5 -8.5030 3.5640 -12.2495 0.0000 33.6704 0.0000
# 6 0.0000 0.0000 0.0000 -5.3657 0.0000 17.1314
#
#
#
# Elastic Compliance Matrix: (Units=1/GPa)
#
#
# Indices 1 2 3 4 5 6 
#
# 1 0.026985 -0.012702 -0.002549 0.000000 0.007232 0.000000
# 2 -0.012702 0.035741 -0.009655 0.000000 -0.010503 0.000000
# 3 -0.002549 -0.009655 0.012991 0.000000 0.005104 0.000000
# 4 0.000000 0.000000 0.000000 0.074326 0.000000 0.023280
# 5 0.007232 -0.010503 0.005104 0.000000 0.034495 0.000000
# 6 0.000000 0.000000 0.000000 0.023280 0.000000 0.065664
#
#
# Mechanical properties :
#
#
# Convention : Reuss Voigt Hill
#
# Bulk Modulus (GPa) = 38.60177 46.78157 42.69167
# Shear Modulus (GPa) = 16.19970 21.35451 18.77710
#
# Velocity S-wave (km/s) = 2.97974 3.42113 3.20803
# Velocity P-wave (km/s) = 5.74418 6.42229 6.09268
#
# Compressibility (1/GPa) = 0.02590555
#
# Stress axis : x y z
#
# Youngs Moduli (GPa) = 37.05789 27.97890 76.97721
#
# Poissons Ratio (x) = 0.35539 0.19621
# Poissons Ratio (y) = 0.47071 0.74318
# Poissons Ratio (z) = 0.09446 0.27012
#
# Static dielectric constant tensor:
#      x y z
#    x 3.438160 0.000000 -0.149620 
#    y 0.000000 2.980880 0.000000 
#    z -0.149620 0.000000 3.648380 
# 
# 
# High freq. dielectric constant tensor:
#      x y z
#    x 1.722880 0.000000 -0.008770 
#    y 0.000000 1.658860 0.000000 
#    z -0.008770 0.000000 1.725490 
# 
# From -- ./inp_files/24699.got.cif
#   From: 2010.06.25/outbox.cif.g09.slc.cpg/sg13_13_cif.got.tgz:24699.got - 2010.06.28 04:50:58.
