data_PCOD8117131
_publ_section_title
;
Structure prediction by ZEFSAII (Michael W. Deem and Ramdas Pophale) SiO2 
 PCOD8117131
Probable space group: P 2/C
;
_chemical_formula_sum "Si O2"
_cell_formula_units_Z 28
_cell_length_a 13.473567
_cell_length_b 13.498685
_cell_length_c 7.823382
_cell_angle_alpha 90.000000
_cell_angle_beta 106.003024
_cell_angle_gamma 90.000000
_cell_volume 1367.740319
_symmetry_space_group_name_H-M "P 2/C"
_symmetry_group_IT_number 13
_symmetry_cell_setting 'monoclinic'
loop_
_space_group_symop_operation_xyz
x,y,z
-x,y,1/2-z
-x,-y,-z
x,-y,1/2+z
loop_
_atom_site_type_symbol
_atom_site_label
_atom_site_fract_x
_atom_site_fract_y
_atom_site_fract_z
Si Si1 0.614674 0.893830 0.863235
Si Si2 0.258597 0.000591 0.845025
Si Si3 0.749734 0.281594 0.383819
Si Si4 0.609190 0.650396 0.356198
Si Si5 0.784689 0.207027 0.035739
Si Si6 0.118465 0.186614 0.759643
Si Si7 0.612125 0.449342 0.221614
O O1 0.500000 0.917758 0.750000
O O2 0.710611 0.950180 0.817174
O O3 0.641194 0.778948 0.849131
O O4 0.636132 0.936517 0.061542
O O5 0.232378 0.910699 0.962189
O O6 0.161948 0.074859 0.790825
O O7 0.809533 0.254848 0.233301
O O8 0.823471 0.259826 0.579589
O O9 0.707840 0.393566 0.361861
O O10 0.500000 0.697398 0.250000
O O11 0.682923 0.744001 0.405504
O O12 0.642245 0.566397 0.233582
O O13 0.602514 0.588557 0.526163
O O14 0.871991 0.226152 0.932007
O O15 0.000000 0.183979 0.750000
O O16 0.500000 0.432592 0.250000
#
# Coordination Sequence:
#
# PCOD8117131 Si02
#       7
#     4   4   4   4   4   4   4
#     4  10  18  32  51  78 115 152 182 224 281 348
#     4  10  20  38  52  83 113 149 199 235 288 352
#     4   9  22  38  57  87 120 151 197 243 294 350
#     4  10  21  34  58  93 124 163 196 233 289 349
#     4  10  22  41  56  87 123 149 198 246 295 357
#     4  11  24  41  65  84 108 156 202 258 309 348
#     4  10  19  34  58  91 126 162 194 235 284 352
#
# _framework density 20.471720999999999
#
# number of rings (size 3 to 8) (size 9 to 14) (size 15 to 20)
#    0.000    2.000    1.429    2.571    4.000    1.714 
#    5.143    0.000    0.000    0.857    0.000    0.000 
#    0.000    0.000    0.000    0.000    0.000    0.000 
#
# Total GULP energy -346879.103638 kJ/mol
# GULP energy per Si atom -12388.539416 kJ/mol
# Density = 2.042513 g / cm^3
# Si number density = 20.471721 Si / 1000 Ang^3
#
#
#
# Elastic Constant Matrix: (Units=GPa)
#
#
# Indices 1 2 3 4 5 6 
#
# 1 81.2170 13.2012 20.3986 0.0000 1.2742 0.0000
# 2 13.2012 49.2500 9.2746 0.0000 3.1050 0.0000
# 3 20.3986 9.2746 57.6601 0.0000 -3.8542 0.0000
# 4 0.0000 0.0000 0.0000 14.1844 0.0000 2.1842
# 5 1.2742 3.1050 -3.8542 0.0000 28.3250 0.0000
# 6 0.0000 0.0000 0.0000 2.1842 0.0000 9.0502
#
#
#
# Elastic Compliance Matrix: (Units=1/GPa)
#
#
# Indices 1 2 3 4 5 6 
#
# 1 0.013925 -0.002819 -0.004535 0.000000 -0.000934 0.000000
# 2 -0.002819 0.021729 -0.002673 0.000000 -0.002619 0.000000
# 3 -0.004535 -0.002673 0.019589 0.000000 0.003162 0.000000
# 4 0.000000 0.000000 0.000000 0.073221 0.000000 -0.017671
# 5 -0.000934 -0.002619 0.003162 0.000000 0.036064 0.000000
# 6 0.000000 0.000000 0.000000 -0.017671 0.000000 0.114759
#
#
# Mechanical properties :
#
#
# Convention : Reuss Voigt Hill
#
# Bulk Modulus (GPa) = 28.41910 30.43065 29.42487
# Shear Modulus (GPa) = 16.07356 19.99545 18.03450
#
# Velocity S-wave (km/s) = 2.80511 3.12867 2.97130
# Velocity P-wave (km/s) = 4.94002 5.28662 5.11626
#
# Compressibility (1/GPa) = 0.03518761
#
# Stress axis : x y z
#
# Youngs Moduli (GPa) = 71.81485 46.02209 51.04988
#
# Poissons Ratio (x) = 0.12976 0.23152
# Poissons Ratio (y) = 0.20248 0.13644
# Poissons Ratio (z) = 0.32569 0.12300
#
# Static dielectric constant tensor:
#      x y z
#    x 3.349770 0.000000 -0.281030 
#    y 0.000000 3.921730 0.000000 
#    z -0.281030 0.000000 3.971840 
# 
# 
# High freq. dielectric constant tensor:
#      x y z
#    x 1.761770 0.000000 -0.020620 
#    y 0.000000 1.799760 0.000000 
#    z -0.020620 0.000000 1.816030 
# 
# From -- ./inp_files/16532.got.cif
#   From: 2010.06.25/outbox.cif.g09.slc.cpg/sg13_9_cif.got.tgz:16532.got - 2010.06.28 04:50:58.
