data_PCOD8117169
_publ_section_title
;
Structure prediction by ZEFSAII (Michael W. Deem and Ramdas Pophale) SiO2 
 PCOD8117169
Probable space group: P 2/C
;
_chemical_formula_sum "Si O2"
_cell_formula_units_Z 26
_cell_length_a 8.182730
_cell_length_b 10.247484
_cell_length_c 19.048487
_cell_angle_alpha 90.000000
_cell_angle_beta 62.526740
_cell_angle_gamma 90.000000
_cell_volume 1417.132087
_symmetry_space_group_name_H-M "P 2/C"
_symmetry_group_IT_number 13
_symmetry_cell_setting 'monoclinic'
loop_
_space_group_symop_operation_xyz
x,y,z
-x,y,1/2-z
-x,-y,-z
x,-y,1/2+z
loop_
_atom_site_type_symbol
_atom_site_label
_atom_site_fract_x
_atom_site_fract_y
_atom_site_fract_z
Si Si1 0.033158 0.758897 0.132284
Si Si2 0.287602 0.223922 0.706392
Si Si3 0.875404 0.153173 0.526414
Si Si4 0.500000 0.008738 0.750000
Si Si5 0.259866 0.108762 0.411488
Si Si6 0.659431 0.350174 0.013438
Si Si7 0.587137 0.372390 0.568374
O O1 0.176271 0.824192 0.159194
O O2 0.146205 0.645427 0.068307
O O3 0.853448 0.707755 0.210432
O O4 0.962426 0.861343 0.088140
O O5 0.384747 0.097446 0.719201
O O6 0.439216 0.332969 0.657137
O O7 0.770424 0.288039 0.540156
O O8 0.047194 0.150627 0.438456
O O9 0.741439 0.028339 0.544222
O O10 0.635707 0.912136 0.682039
O O11 0.361073 0.219998 0.436290
O O12 0.488175 0.348255 0.994552
O O13 0.645268 0.476805 0.066213
#
# Coordination Sequence:
#
# PCOD8117169 Si02
#       7
#     4   4   4   2   4   4   4
#     4   9  18  33  52  84 108 139 183 234 270 323
#     4  10  18  32  56  82 108 144 187 227 270 331
#     4  10  19  36  56  81 110 141 185 222 271 332
#     4  12  20  38  54  82 114 146 180 234 276 328
#     4  10  21  35  53  81 115 137 182 227 273 325
#     4   9  21  37  55  83 113 143 185 232 273 325
#     4  10  19  37  59  80 110 150 188 222 272 332
#
# _framework density 18.346914999999999
#
# number of rings (size 3 to 8) (size 9 to 14) (size 15 to 20)
#    0.000    2.154    3.077    0.000    0.000    3.077 
#    5.538    3.846    0.000    1.846    0.000    0.000 
#    0.000    0.000    0.000    0.000    0.000    0.000 
#
# Total GULP energy -322188.496148 kJ/mol
# GULP energy per Si atom -12391.865236 kJ/mol
# Density = 1.830516 g / cm^3
# Si number density = 18.346915 Si / 1000 Ang^3
#
#
#
# Elastic Constant Matrix: (Units=GPa)
#
#
# Indices 1 2 3 4 5 6 
#
# 1 81.3324 52.6673 47.9708 0.0000 -6.9859 0.0000
# 2 52.6673 112.1633 59.2147 0.0000 7.1295 0.0000
# 3 47.9708 59.2147 142.1859 0.0000 -24.5468 0.0000
# 4 0.0000 0.0000 0.0000 28.4877 0.0000 2.2731
# 5 -6.9859 7.1295 -24.5468 0.0000 24.0158 0.0000
# 6 0.0000 0.0000 0.0000 2.2731 0.0000 23.4619
#
#
#
# Elastic Compliance Matrix: (Units=1/GPa)
#
#
# Indices 1 2 3 4 5 6 
#
# 1 0.019497 -0.008511 -0.001965 0.000000 0.006190 0.000000
# 2 -0.008511 0.017551 -0.007000 0.000000 -0.014841 0.000000
# 3 -0.001965 -0.007000 0.013200 0.000000 0.014999 0.000000
# 4 0.000000 0.000000 0.000000 0.035376 0.000000 -0.003427
# 5 0.006190 -0.014841 0.014999 0.000000 0.063176 0.000000
# 6 0.000000 0.000000 0.000000 -0.003427 0.000000 0.042954
#
#
# Mechanical properties :
#
#
# Convention : Reuss Voigt Hill
#
# Bulk Modulus (GPa) = 65.37261 72.82081 69.09671
# Shear Modulus (GPa) = 21.56978 26.91500 24.24239
#
# Velocity S-wave (km/s) = 3.43251 3.83430 3.63896
# Velocity P-wave (km/s) = 7.17065 7.70582 7.44305
#
# Compressibility (1/GPa) = 0.01529693
#
# Stress axis : x y z
#
# Youngs Moduli (GPa) = 51.28908 56.97729 75.75545
#
# Poissons Ratio (x) = 0.48495 0.14884
# Poissons Ratio (y) = 0.43654 0.53027
# Poissons Ratio (z) = 0.10077 0.39882
#
# Static dielectric constant tensor:
#      x y z
#    x 3.520270 0.000000 -0.160940 
#    y 0.000000 3.175290 0.000000 
#    z -0.160940 0.000000 3.598890 
# 
# 
# High freq. dielectric constant tensor:
#      x y z
#    x 1.715260 0.000000 -0.016060 
#    y 0.000000 1.681940 0.000000 
#    z -0.016060 0.000000 1.713960 
# 
# From -- ./inp_files/75215.got.cif
#   From: 2010.06.25/outbox.cif.g09.slc.cpg/sg13_38_cif.got.tgz:75215.got - 2010.06.28 04:50:58.
