data_PCOD8117238
_publ_section_title
;
Structure prediction by ZEFSAII (Michael W. Deem and Ramdas Pophale) SiO2 
 PCOD8117238
Probable space group: P 2/C
;
_chemical_formula_sum "Si O2"
_cell_formula_units_Z 30
_cell_length_a 11.414523
_cell_length_b 13.935647
_cell_length_c 8.213187
_cell_angle_alpha 90.000000
_cell_angle_beta 78.007662
_cell_angle_gamma 90.000000
_cell_volume 1277.948492
_symmetry_space_group_name_H-M "P 2/C"
_symmetry_group_IT_number 13
_symmetry_cell_setting 'monoclinic'
loop_
_space_group_symop_operation_xyz
x,y,z
-x,y,1/2-z
-x,-y,-z
x,-y,1/2+z
loop_
_atom_site_type_symbol
_atom_site_label
_atom_site_fract_x
_atom_site_fract_y
_atom_site_fract_z
Si Si1 0.724890 0.047641 0.032649
Si Si2 0.344256 0.139322 0.130493
Si Si3 0.094534 0.219834 0.091170
Si Si4 0.500000 0.441891 0.250000
Si Si5 0.880919 0.078390 0.700422
Si Si6 0.664855 0.607222 0.203571
Si Si7 0.058462 0.595362 0.406924
Si Si8 0.498204 0.304419 0.517669
O O1 0.647019 0.113495 0.178278
O O2 0.835665 0.011019 0.108948
O O3 0.780747 0.107367 0.865666
O O4 0.652278 0.956232 0.982370
O O5 0.227151 0.204943 0.127322
O O6 0.463723 0.198103 0.049940
O O7 0.000000 0.179969 0.250000
O O8 0.088533 0.168356 0.919056
O O9 0.052877 0.326783 0.053816
O O10 0.604179 0.510319 0.290032
O O11 0.440351 0.369473 0.394709
O O12 0.000000 0.039151 0.750000
O O13 0.802932 0.585761 0.177111
O O14 0.610804 0.699282 0.320407
O O15 0.617748 0.635545 0.037848
O O16 0.000000 0.623829 0.250000
O O17 0.000000 0.500000 0.500000
#
# Coordination Sequence:
#
# PCOD8117238 Si02
#       8
#     4   4   4   2   4   4   4   4
#     4   9  20  34  59  99 134 185 227 308 364 426
#     4  10  20  40  66  98 145 186 242 299 368 426
#     4  11  23  41  60  95 139 188 238 292 349 436
#     4  10  22  38  74 102 130 174 250 296 338 410
#     4  10  18  33  56  87 132 184 238 283 347 423
#     4  10  22  45  70  99 140 184 237 289 357 431
#     4  12  28  44  68 104 147 190 224 287 374 431
#     4  10  21  42  72 101 133 185 242 300 345 419
#
# _framework density 23.475121999999999
#
# number of rings (size 3 to 8) (size 9 to 14) (size 15 to 20)
#    0.000    1.867    1.333    3.600    3.733    4.800 
#    2.400    1.333    0.000    5.600    0.000    0.000 
#    0.000    0.000    0.000    0.000    0.000    0.000 
#
# Total GULP energy -371663.606222 kJ/mol
# GULP energy per Si atom -12388.786874 kJ/mol
# Density = 2.342169 g / cm^3
# Si number density = 23.475122 Si / 1000 Ang^3
#
#
#
# Elastic Constant Matrix: (Units=GPa)
#
#
# Indices 1 2 3 4 5 6 
#
# 1 91.0948 30.1589 42.5641 0.0000 -27.1351 0.0000
# 2 30.1589 117.5571 70.7213 0.0000 -15.6763 0.0000
# 3 42.5641 70.7213 155.1416 0.0000 -10.3008 0.0000
# 4 0.0000 0.0000 0.0000 48.7267 0.0000 -4.9344
# 5 -27.1351 -15.6763 -10.3008 0.0000 33.1919 0.0000
# 6 0.0000 0.0000 0.0000 -4.9344 0.0000 2.5031
#
#
#
# Elastic Compliance Matrix: (Units=1/GPa)
#
#
# Indices 1 2 3 4 5 6 
#
# 1 0.016351 -0.000510 -0.003453 0.000000 0.012055 0.000000
# 2 -0.000510 0.012269 -0.005203 0.000000 0.003763 0.000000
# 3 -0.003453 -0.005203 0.009612 0.000000 -0.002297 0.000000
# 4 0.000000 0.000000 0.000000 0.025641 0.000000 0.050546
# 5 0.012055 0.003763 -0.002297 0.000000 0.041047 0.000000
# 6 0.000000 0.000000 0.000000 0.050546 0.000000 0.499136
#
#
# Mechanical properties :
#
#
# Convention : Reuss Voigt Hill
#
# Bulk Modulus (GPa) = 50.25116 72.29798 61.27457
# Shear Modulus (GPa) = 7.94884 31.57429 19.76157
#
# Velocity S-wave (km/s) = 1.84212 3.67142 2.90454
# Velocity P-wave (km/s) = 5.09678 6.98835 6.11613
#
# Compressibility (1/GPa) = 0.01990004
#
# Stress axis : x y z
#
# Youngs Moduli (GPa) = 61.15970 81.50393 104.03153
#
# Poissons Ratio (x) = 0.04156 0.35923
# Poissons Ratio (y) = 0.03118 0.54130
# Poissons Ratio (z) = 0.21119 0.42408
#
# Static dielectric constant tensor:
#      x y z
#    x 4.072300 0.000000 0.225740 
#    y 0.000000 4.129000 0.000000 
#    z 0.225740 0.000000 4.749910 
# 
# 
# High freq. dielectric constant tensor:
#      x y z
#    x 1.911890 0.000000 0.007350 
#    y 0.000000 1.918280 0.000000 
#    z 0.007350 0.000000 1.946100 
# 
# From -- ./inp_files/16729.got.cif
#   From: 2010.06.25/outbox.cif.g09.slc.cpg/sg13_9_cif.got.tgz:16729.got - 2010.06.28 04:50:58.
