data_PCOD8117283
_publ_section_title
;
Structure prediction by ZEFSAII (Michael W. Deem and Ramdas Pophale) SiO2 
 PCOD8117283
Probable space group: P 2/C
;
_chemical_formula_sum "Si O2"
_cell_formula_units_Z 30
_cell_length_a 7.602271
_cell_length_b 12.621612
_cell_length_c 21.182927
_cell_angle_alpha 90.000000
_cell_angle_beta 137.475316
_cell_angle_gamma 90.000000
_cell_volume 1373.825538
_symmetry_space_group_name_H-M "P 2/C"
_symmetry_group_IT_number 13
_symmetry_cell_setting 'monoclinic'
loop_
_space_group_symop_operation_xyz
x,y,z
-x,y,1/2-z
-x,-y,-z
x,-y,1/2+z
loop_
_atom_site_type_symbol
_atom_site_label
_atom_site_fract_x
_atom_site_fract_y
_atom_site_fract_z
Si Si1 0.756145 0.108182 0.552741
Si Si2 0.434870 0.000732 0.875736
Si Si3 0.353000 0.715612 0.922379
Si Si4 0.000000 0.153105 0.250000
Si Si5 0.334908 0.423409 0.082966
Si Si6 0.195440 0.175357 0.747036
Si Si7 0.969163 0.547209 0.594005
Si Si8 0.332137 0.412096 0.766784
O O1 0.700301 0.023907 0.592625
O O2 0.560430 0.207729 0.510944
O O3 0.056064 0.149432 0.642463
O O4 0.711629 0.053190 0.471195
O O5 0.451444 0.101796 0.831499
O O6 0.249095 0.914858 0.792563
O O7 0.089487 0.775875 0.833087
O O8 0.482158 0.671339 0.891929
O O9 0.266414 0.623472 0.947720
O O10 0.498238 0.531243 0.135142
O O11 0.186569 0.391096 0.108910
O O12 0.131308 0.448483 0.973818
O O13 0.247735 0.298591 0.770239
O O14 0.000000 0.138594 0.750000
O O15 0.094763 0.492047 0.688724
O O16 0.500000 0.388136 0.750000
#
# Coordination Sequence:
#
# PCOD8117283 Si02
#       8
#     4   4   4   2   4   4   4   4
#     4   9  18  31  54  83 105 140 180 234 277 328
#     4   9  17  33  51  81 111 133 179 236 280 322
#     4  11  21  32  60  84 108 149 195 220 272 345
#     4  10  18  34  52  86 108 144 184 234 278 328
#     4  10  22  38  54  81 119 149 183 232 276 324
#     4  10  19  31  56  82  99 141 186 223 269 332
#     4  10  22  38  54  81 119 150 180 233 279 321
#     4  10  22  37  54  77 113 150 181 224 279 330
#
# _framework density 21.836832999999999
#
# number of rings (size 3 to 8) (size 9 to 14) (size 15 to 20)
#    0.000    2.133    2.000    2.000    5.600    0.000 
#    0.000    0.000    0.000    4.000    0.000    0.000 
#    0.000    0.000    0.000    0.000    0.000    0.000 
#
# Total GULP energy -371700.277523 kJ/mol
# GULP energy per Si atom -12390.009251 kJ/mol
# Density = 2.178713 g / cm^3
# Si number density = 21.836833 Si / 1000 Ang^3
#
#
#
# Elastic Constant Matrix: (Units=GPa)
#
#
# Indices 1 2 3 4 5 6 
#
# 1 45.4312 27.8924 13.1628 0.0000 0.9896 0.0000
# 2 27.8924 95.2302 32.0409 0.0000 1.2265 0.0000
# 3 13.1628 32.0409 111.2196 0.0000 2.1665 0.0000
# 4 0.0000 0.0000 0.0000 37.1560 0.0000 -2.0193
# 5 0.9896 1.2265 2.1665 0.0000 12.2653 0.0000
# 6 0.0000 0.0000 0.0000 -2.0193 0.0000 4.0046
#
#
#
# Elastic Compliance Matrix: (Units=1/GPa)
#
#
# Indices 1 2 3 4 5 6 
#
# 1 0.026959 -0.007546 -0.000992 0.000000 -0.001245 0.000000
# 2 -0.007546 0.013744 -0.003062 0.000000 -0.000225 0.000000
# 3 -0.000992 -0.003062 0.010018 0.000000 -0.001383 0.000000
# 4 0.000000 0.000000 0.000000 0.027672 0.000000 0.013954
# 5 -0.001245 -0.000225 -0.001383 0.000000 0.081898 0.000000
# 6 0.000000 0.000000 0.000000 0.013954 0.000000 0.256751
#
#
# Mechanical properties :
#
#
# Convention : Reuss Voigt Hill
#
# Bulk Modulus (GPa) = 36.33765 44.23035 40.28400
# Shear Modulus (GPa) = 11.12553 22.60415 16.86484
#
# Velocity S-wave (km/s) = 2.25963 3.22085 2.78206
# Velocity P-wave (km/s) = 4.84608 5.84215 5.36727
#
# Compressibility (1/GPa) = 0.02751966
#
# Stress axis : x y z
#
# Youngs Moduli (GPa) = 37.09345 72.75760 99.82277
#
# Poissons Ratio (x) = 0.54904 0.09906
# Poissons Ratio (y) = 0.27992 0.30566
# Poissons Ratio (z) = 0.03681 0.22279
#
# Static dielectric constant tensor:
#      x y z
#    x 3.380700 0.000000 0.087000 
#    y 0.000000 3.951350 0.000000 
#    z 0.087000 0.000000 4.465320 
# 
# 
# High freq. dielectric constant tensor:
#      x y z
#    x 1.790920 0.000000 0.001720 
#    y 0.000000 1.863010 0.000000 
#    z 0.001720 0.000000 1.883230 
# 
# From -- ./inp_files/85221.got.cif
#   From: 2010.06.25/outbox.cif.g09.slc.cpg/sg13_43_cif.got.tgz:85221.got - 2010.06.28 04:50:58.
