data_PCOD8117334
_publ_section_title
;
Structure prediction by ZEFSAII (Michael W. Deem and Ramdas Pophale) SiO2 
 PCOD8117334
Probable space group: P 2/C
;
_chemical_formula_sum "Si O2"
_cell_formula_units_Z 26
_cell_length_a 11.690818
_cell_length_b 10.821913
_cell_length_c 18.297975
_cell_angle_alpha 90.000000
_cell_angle_beta 35.148987
_cell_angle_gamma 90.000000
_cell_volume 1332.759010
_symmetry_space_group_name_H-M "P 2/C"
_symmetry_group_IT_number 13
_symmetry_cell_setting 'monoclinic'
loop_
_space_group_symop_operation_xyz
x,y,z
-x,y,1/2-z
-x,-y,-z
x,-y,1/2+z
loop_
_atom_site_type_symbol
_atom_site_label
_atom_site_fract_x
_atom_site_fract_y
_atom_site_fract_z
Si Si1 0.334509 0.118585 0.610513
Si Si2 0.274183 0.830657 0.981782
Si Si3 0.082779 0.330341 0.786019
Si Si4 0.694623 0.898738 0.022793
Si Si5 0.500000 0.270546 0.750000
Si Si6 0.500000 0.325906 0.250000
Si Si7 0.000000 0.070885 0.250000
Si Si8 0.798452 0.525047 0.147329
O O1 0.378807 0.163091 0.505503
O O2 0.276128 0.244699 0.682062
O O3 0.530084 0.065594 0.547230
O O4 0.155658 0.020171 0.708509
O O5 0.420872 0.764433 0.851634
O O6 0.236022 0.972781 0.975507
O O7 0.075578 0.749900 0.086109
O O8 0.141640 0.454601 0.799097
O O9 0.000000 0.369551 0.750000
O O10 0.602920 0.808964 0.131430
O O11 0.884562 0.849205 0.874092
O O12 0.316763 0.352165 0.818194
O O13 0.660524 0.407329 0.208773
O O14 0.000000 0.500000 0.000000
#
# Coordination Sequence:
#
# PCOD8117334 Si02
#       8
#     4   4   4   4   2   2   2   4
#     4  10  18  36  61  85 125 161 194 239 306 367
#     4  10  19  36  60  91 119 156 196 241 298 374
#     4  10  18  38  65  84 112 160 207 245 297 360
#     4  11  21  38  60  94 130 155 197 250 310 367
#     4  11  25  40  62  90 127 161 196 254 314 359
#     4  11  23  38  62  90 119 157 208 248 304 361
#     4  10  18  34  58  90 126 164 194 238 302 382
#     4  11  23  44  61  81 121 166 204 254 301 352
#
# _framework density 19.508403000000001
#
# number of rings (size 3 to 8) (size 9 to 14) (size 15 to 20)
#    0.000    1.538    6.923    2.308    0.000    0.000 
#    5.538    6.154    0.000    0.000    0.000    0.000 
#    0.000    0.000    0.000    0.000    0.000    0.000 
#
# Total GULP energy -322094.327111 kJ/mol
# GULP energy per Si atom -12388.243350 kJ/mol
# Density = 1.946400 g / cm^3
# Si number density = 19.508403 Si / 1000 Ang^3
#
#
#
# Elastic Constant Matrix: (Units=GPa)
#
#
# Indices 1 2 3 4 5 6 
#
# 1 76.9178 25.0294 45.0368 0.0000 -6.0709 0.0000
# 2 25.0294 66.3835 67.1603 0.0000 5.9947 0.0000
# 3 45.0368 67.1603 173.5303 0.0000 10.2507 0.0000
# 4 0.0000 0.0000 0.0000 51.5253 0.0000 -5.3927
# 5 -6.0709 5.9947 10.2507 0.0000 25.2799 0.0000
# 6 0.0000 0.0000 0.0000 -5.3927 0.0000 23.1791
#
#
#
# Elastic Compliance Matrix: (Units=1/GPa)
#
#
# Indices 1 2 3 4 5 6 
#
# 1 0.016551 -0.003422 -0.003334 0.000000 0.006138 0.000000
# 2 -0.003422 0.025568 -0.008812 0.000000 -0.003312 0.000000
# 3 -0.003334 -0.008812 0.010207 0.000000 -0.002850 0.000000
# 4 0.000000 0.000000 0.000000 0.019892 0.000000 0.004628
# 5 0.006138 -0.003312 -0.002850 0.000000 0.042972 0.000000
# 6 0.000000 0.000000 0.000000 0.004628 0.000000 0.044219
#
#
# Mechanical properties :
#
#
# Convention : Reuss Voigt Hill
#
# Bulk Modulus (GPa) = 47.19035 65.69829 56.44432
# Shear Modulus (GPa) = 25.30277 31.97055 28.63666
#
# Velocity S-wave (km/s) = 3.60532 4.05261 3.83549
# Velocity P-wave (km/s) = 6.44774 7.45978 6.97215
#
# Compressibility (1/GPa) = 0.02119077
#
# Stress axis : x y z
#
# Youngs Moduli (GPa) = 60.42015 39.11130 97.97622
#
# Poissons Ratio (x) = 0.13384 0.32662
# Poissons Ratio (y) = 0.20675 0.86334
# Poissons Ratio (z) = 0.20142 0.34464
#
# Static dielectric constant tensor:
#      x y z
#    x 3.460810 0.000000 -0.047140 
#    y 0.000000 3.375360 0.000000 
#    z -0.047140 0.000000 3.830230 
# 
# 
# High freq. dielectric constant tensor:
#      x y z
#    x 1.751700 0.000000 -0.002800 
#    y 0.000000 1.743940 0.000000 
#    z -0.002800 0.000000 1.777150 
# 
# From -- ./inp_files/66485.got.cif
#   From: 2010.06.25/outbox.cif.g09.slc.cpg/sg13_34_cif.got.tgz:66485.got - 2010.06.28 04:50:58.
