data_PCOD8117848
_publ_section_title
;
Structure prediction by ZEFSAII (Michael W. Deem and Ramdas Pophale) SiO2 
 PCOD8117848
Probable space group: P 2/C
;
_chemical_formula_sum "Si O2"
_cell_formula_units_Z 28
_cell_length_a 13.905997
_cell_length_b 14.603948
_cell_length_c 7.712827
_cell_angle_alpha 90.000000
_cell_angle_beta 112.023160
_cell_angle_gamma 90.000000
_cell_volume 1452.047729
_symmetry_space_group_name_H-M "P 2/C"
_symmetry_group_IT_number 13
_symmetry_cell_setting 'monoclinic'
loop_
_space_group_symop_operation_xyz
x,y,z
-x,y,1/2-z
-x,-y,-z
x,-y,1/2+z
loop_
_atom_site_type_symbol
_atom_site_label
_atom_site_fract_x
_atom_site_fract_y
_atom_site_fract_z
Si Si1 0.617415 0.895239 0.877008
Si Si2 0.884066 0.360583 0.209975
Si Si3 0.535199 0.359586 0.959797
Si Si4 0.202624 0.508676 0.142090
Si Si5 0.292776 0.220441 0.356488
Si Si6 0.617067 0.894556 0.283973
Si Si7 0.356806 0.552711 0.510089
O O1 0.500000 0.866771 0.750000
O O2 0.699531 0.840903 0.812057
O O3 0.635230 0.000704 0.845065
O O4 0.639002 0.876194 0.095083
O O5 0.886212 0.434769 0.369116
O O6 0.818622 0.270399 0.211644
O O7 0.000000 0.327596 0.250000
O O8 0.834027 0.414744 0.015665
O O9 0.500000 0.319551 0.750000
O O10 0.581688 0.458756 0.964081
O O11 0.616503 0.293718 0.103206
O O12 0.434618 0.364384 0.020103
O O13 0.246524 0.564082 0.335477
O O14 0.308982 0.450082 0.170350
O O15 0.304881 0.163700 0.543324
O O16 0.500000 0.865719 0.250000
#
# Coordination Sequence:
#
# PCOD8117848 Si02
#       7
#     4   4   4   4   4   4   4
#     4  11  21  38  63  95 129 167 198 237 298 374
#     4  11  24  43  62  83 111 154 214 273 310 349
#     4  11  20  32  50  81 124 162 186 237 293 354
#     4  10  19  40  59  78 108 157 201 245 310 352
#     4  12  23  38  60  92 124 163 210 250 305 367
#     4  11  20  40  63  92 133 165 195 241 298 370
#     4  10  19  34  52  79 117 152 195 236 288 362
#
# _framework density 19.283111000000002
#
# number of rings (size 3 to 8) (size 9 to 14) (size 15 to 20)
#    0.000    1.143    7.143    1.714    0.000    1.143 
#    5.143    0.000    0.000    0.857    0.000    0.000 
#    0.000    0.000    0.000    0.000    0.000    0.000 
#
# Total GULP energy -346943.766083 kJ/mol
# GULP energy per Si atom -12390.848789 kJ/mol
# Density = 1.923922 g / cm^3
# Si number density = 19.283111 Si / 1000 Ang^3
#
#
#
# Elastic Constant Matrix: (Units=GPa)
#
#
# Indices 1 2 3 4 5 6 
#
# 1 112.2016 50.1802 35.9366 0.0000 5.4111 0.0000
# 2 50.1802 70.5955 26.0618 0.0000 -2.4805 0.0000
# 3 35.9366 26.0618 78.7892 0.0000 -20.9817 0.0000
# 4 0.0000 0.0000 0.0000 16.1964 0.0000 1.0432
# 5 5.4111 -2.4805 -20.9817 0.0000 27.5324 0.0000
# 6 0.0000 0.0000 0.0000 1.0432 0.0000 23.3880
#
#
#
# Elastic Compliance Matrix: (Units=1/GPa)
#
#
# Indices 1 2 3 4 5 6 
#
# 1 0.015328 -0.008848 -0.006373 0.000000 -0.008666 0.000000
# 2 -0.008848 0.021482 -0.002624 0.000000 0.001674 0.000000
# 3 -0.006373 -0.002624 0.020999 0.000000 0.017019 0.000000
# 4 0.000000 0.000000 0.000000 0.061920 0.000000 -0.002762
# 5 -0.008666 0.001674 0.017019 0.000000 0.051144 0.000000
# 6 0.000000 0.000000 0.000000 -0.002762 0.000000 0.042880
#
#
# Mechanical properties :
#
#
# Convention : Reuss Voigt Hill
#
# Bulk Modulus (GPa) = 45.20811 53.99373 49.60092
# Shear Modulus (GPa) = 19.46913 23.38386 21.42649
#
# Velocity S-wave (km/s) = 3.18094 3.48610 3.33701
# Velocity P-wave (km/s) = 6.08165 6.65321 6.37384
#
# Compressibility (1/GPa) = 0.02211992
#
# Stress axis : x y z
#
# Youngs Moduli (GPa) = 65.23802 46.55091 47.62131
#
# Poissons Ratio (x) = 0.41186 0.30348
# Poissons Ratio (y) = 0.57720 0.12498
# Poissons Ratio (z) = 0.41574 0.12217
#
# Static dielectric constant tensor:
#      x y z
#    x 3.903530 0.000000 -0.701800 
#    y 0.000000 3.525830 0.000000 
#    z -0.701800 0.000000 4.037330 
# 
# 
# High freq. dielectric constant tensor:
#      x y z
#    x 1.725700 0.000000 -0.030120 
#    y 0.000000 1.740420 0.000000 
#    z -0.030120 0.000000 1.754480 
# 
# From -- ./inp_files/19436.got.cif
#   From: 2010.06.25/outbox.cif.g09.slc.cpg/sg13_10_cif.got.tgz:19436.got - 2010.06.28 04:50:58.
