data_PCOD8117129
_publ_section_title
;
Structure prediction by ZEFSAII (Michael W. Deem and Ramdas Pophale) SiO2 
 PCOD8117129
Probable space group: P 2/C
;
_chemical_formula_sum "Si O2"
_cell_formula_units_Z 28
_cell_length_a 9.138111
_cell_length_b 6.620479
_cell_length_c 29.118269
_cell_angle_alpha 90.000000
_cell_angle_beta 122.794063
_cell_angle_gamma 90.000000
_cell_volume 1480.854961
_symmetry_space_group_name_H-M "P 2/C"
_symmetry_group_IT_number 13
_symmetry_cell_setting 'monoclinic'
loop_
_space_group_symop_operation_xyz
x,y,z
-x,y,1/2-z
-x,-y,-z
x,-y,1/2+z
loop_
_atom_site_type_symbol
_atom_site_label
_atom_site_fract_x
_atom_site_fract_y
_atom_site_fract_z
Si Si1 0.850370 0.798459 0.330366
Si Si2 0.404789 0.187123 0.460857
Si Si3 0.430542 0.573827 0.048372
Si Si4 0.762738 0.854143 0.120841
Si Si5 0.636183 0.532737 0.362923
Si Si6 0.405549 0.870642 0.689465
Si Si7 0.323849 0.206171 0.793914
O O1 0.771844 0.637063 0.352133
O O2 0.802529 0.746251 0.269753
O O3 0.056931 0.787120 0.371661
O O4 0.774870 0.020268 0.327865
O O5 0.534146 0.337295 0.455467
O O6 0.320057 0.322155 0.487994
O O7 0.500000 0.000000 0.500000
O O8 0.271239 0.085157 0.402227
O O9 0.613633 0.695243 0.081666
O O10 0.320046 0.588274 0.076589
O O11 0.786219 0.854994 0.179935
O O12 0.645077 0.293727 0.356826
O O13 0.435795 0.591563 0.320066
O O14 0.500000 0.771551 0.750000
O O15 0.537017 0.031103 0.690761
#
# Coordination Sequence:
#
# PCOD8117129 Si02
#       7
#     4   4   4   4   4   4   4
#     4  10  20  31  47  76 109 135 162 201 249 298
#     4   9  18  35  56  76  97 123 168 219 254 291
#     4   9  19  34  56  76  92 127 172 209 252 303
#     4  10  19  32  52  76 103 131 162 208 256 295
#     4  10  18  32  51  72 100 134 170 204 244 298
#     4   9  17  30  48  68  96 136 173 202 237 291
#     4   9  18  32  50  73 101 137 174 201 236 292
#
# _framework density 18.907996000000001
#
# number of rings (size 3 to 8) (size 9 to 14) (size 15 to 20)
#    0.000    2.571    0.000    3.429    0.000    2.286 
#    0.000    0.714    0.000   13.714    0.000    0.000 
#    0.000    0.000    0.000    0.000    0.000    0.000 
#
# Total GULP energy -346992.331903 kJ/mol
# GULP energy per Si atom -12392.583282 kJ/mol
# Density = 1.886496 g / cm^3
# Si number density = 18.907996 Si / 1000 Ang^3
#
#
#
# Elastic Constant Matrix: (Units=GPa)
#
#
# Indices 1 2 3 4 5 6 
#
# 1 84.9254 22.0867 34.6874 0.0000 -9.5268 0.0000
# 2 22.0867 79.3302 28.4522 0.0000 -13.6123 0.0000
# 3 34.6874 28.4522 64.0894 0.0000 -28.0424 0.0000
# 4 0.0000 0.0000 0.0000 25.2953 0.0000 -6.3599
# 5 -9.5268 -13.6123 -28.0424 0.0000 27.0402 0.0000
# 6 0.0000 0.0000 0.0000 -6.3599 0.0000 10.6208
#
#
#
# Elastic Compliance Matrix: (Units=1/GPa)
#
#
# Indices 1 2 3 4 5 6 
#
# 1 0.015816 -0.001694 -0.010514 0.000000 -0.006184 0.000000
# 2 -0.001694 0.015195 -0.005022 0.000000 0.001844 0.000000
# 3 -0.010514 -0.005022 0.038072 0.000000 0.033251 0.000000
# 4 0.000000 0.000000 0.000000 0.046540 0.000000 0.027869
# 5 -0.006184 0.001844 0.033251 0.000000 0.070215 0.000000
# 6 0.000000 0.000000 0.000000 0.027869 0.000000 0.110843
#
#
# Mechanical properties :
#
#
# Convention : Reuss Voigt Hill
#
# Bulk Modulus (GPa) = 28.88210 44.31082 36.59646
# Shear Modulus (GPa) = 14.59076 22.13251 18.36164
#
# Velocity S-wave (km/s) = 2.78091 3.42502 3.11964
# Velocity P-wave (km/s) = 5.06157 6.25515 5.68975
#
# Compressibility (1/GPa) = 0.03462352
#
# Stress axis : x y z
#
# Youngs Moduli (GPa) = 63.22590 65.81243 26.26574
#
# Poissons Ratio (x) = 0.11146 0.27617
# Poissons Ratio (y) = 0.10708 0.13191
# Poissons Ratio (z) = 0.66478 0.33051
#
# Static dielectric constant tensor:
#      x y z
#    x 3.253920 0.000000 -0.357050 
#    y 0.000000 3.539750 0.000000 
#    z -0.357050 0.000000 3.642790 
# 
# 
# High freq. dielectric constant tensor:
#      x y z
#    x 1.711240 0.000000 -0.032470 
#    y 0.000000 1.737840 0.000000 
#    z -0.032470 0.000000 1.729380 
# 
# From -- ./inp_files/95695.got.cif
#   From: 2010.06.25/outbox.cif.g09.slc.cpg/sg13_48_cif.got.tgz:95695.got - 2010.06.28 04:50:58.
