data_PCOD8117900
_publ_section_title
;
Structure prediction by ZEFSAII (Michael W. Deem and Ramdas Pophale) SiO2 
 PCOD8117900
Probable space group: P 2/C
;
_chemical_formula_sum "Si O2"
_cell_formula_units_Z 24
_cell_length_a 8.233478
_cell_length_b 13.786279
_cell_length_c 19.109169
_cell_angle_alpha 90.000000
_cell_angle_beta 148.514596
_cell_angle_gamma 90.000000
_cell_volume 1132.861201
_symmetry_space_group_name_H-M "P 2/C"
_symmetry_group_IT_number 13
_symmetry_cell_setting 'monoclinic'
loop_
_space_group_symop_operation_xyz
x,y,z
-x,y,1/2-z
-x,-y,-z
x,-y,1/2+z
loop_
_atom_site_type_symbol
_atom_site_label
_atom_site_fract_x
_atom_site_fract_y
_atom_site_fract_z
Si Si1 0.131285 0.905597 0.372705
Si Si2 0.664102 0.602688 0.475092
Si Si3 0.233177 0.713443 0.705677
Si Si4 0.129669 0.712810 0.219077
Si Si5 0.432591 0.615431 0.545933
Si Si6 0.837836 0.882641 0.616166
O O1 0.473742 0.857391 0.492922
O O2 0.000000 0.934595 0.250000
O O3 0.901582 0.823827 0.321880
O O4 0.138418 0.010729 0.413624
O O5 0.478729 0.671913 0.352281
O O6 0.602473 0.624295 0.534113
O O7 0.565704 0.492937 0.422092
O O8 0.030748 0.624061 0.599529
O O9 0.500000 0.742398 0.750000
O O10 0.382741 0.686211 0.834806
O O11 0.999469 0.804467 0.625562
O O12 0.000000 0.711239 0.250000
O O13 0.928081 0.644550 0.094394
O O14 0.000000 0.879217 0.750000
#
# Coordination Sequence:
#
# PCOD8117900 Si02
#       6
#     4   4   4   4   4   4
#     4   9  17  30  56  84 103 130 178 239 288 318
#     4  10  20  36  59  83 108 141 188 236 274 322
#     4  12  24  36  53  81 120 156 181 217 277 345
#     4   9  16  30  55  83 106 130 175 237 285 318
#     4  10  20  36  59  84 107 141 190 237 274 315
#     4  10  19  34  57  80 103 138 187 233 275 325
#
# _framework density 21.185295
#
# number of rings (size 3 to 8) (size 9 to 14) (size 15 to 20)
#    0.000    2.000    0.000    6.500    0.000    3.333 
#    0.000    0.833    0.000   25.000    0.000    0.000 
#    0.000    0.000    0.000    0.000    0.000    0.000 
#
# Total GULP energy -297442.915993 kJ/mol
# GULP energy per Si atom -12393.454833 kJ/mol
# Density = 2.113708 g / cm^3
# Si number density = 21.185295 Si / 1000 Ang^3
#
#
#
# Elastic Constant Matrix: (Units=GPa)
#
#
# Indices 1 2 3 4 5 6 
#
# 1 42.1627 32.0660 17.8238 0.0000 16.3948 0.0000
# 2 32.0660 133.4056 37.8562 0.0000 7.9457 0.0000
# 3 17.8238 37.8562 125.0709 0.0000 22.1596 0.0000
# 4 0.0000 0.0000 0.0000 37.2610 0.0000 7.6576
# 5 16.3948 7.9457 22.1596 0.0000 18.1012 0.0000
# 6 0.0000 0.0000 0.0000 7.6576 0.0000 12.9426
#
#
#
# Elastic Compliance Matrix: (Units=1/GPa)
#
#
# Indices 1 2 3 4 5 6 
#
# 1 0.045623 -0.009554 0.003791 0.000000 -0.041769 0.000000
# 2 -0.009554 0.010208 -0.003151 0.000000 0.008030 0.000000
# 3 0.003791 -0.003151 0.011202 0.000000 -0.015764 0.000000
# 4 0.000000 0.000000 0.000000 0.030553 0.000000 -0.018077
# 5 -0.041769 0.008030 -0.015764 0.000000 0.108850 0.000000
# 6 0.000000 0.000000 0.000000 -0.018077 0.000000 0.087959
#
#
# Mechanical properties :
#
#
# Convention : Reuss Voigt Hill
#
# Bulk Modulus (GPa) = 20.32342 52.90346 36.61344
# Shear Modulus (GPa) = 15.21489 27.85384 21.53437
#
# Velocity S-wave (km/s) = 2.68280 3.62991 3.19168
# Velocity P-wave (km/s) = 4.38298 6.52643 5.55900
#
# Compressibility (1/GPa) = 0.04920432
#
# Stress axis : x y z
#
# Youngs Moduli (GPa) = 21.91877 97.95970 89.27014
#
# Poissons Ratio (x) = 0.93591 -0.33838
# Poissons Ratio (y) = 0.20941 0.28129
# Poissons Ratio (z) = -0.08308 0.30867
#
# Static dielectric constant tensor:
#      x y z
#    x 3.099870 0.000000 0.183020 
#    y 0.000000 4.298160 0.000000 
#    z 0.183020 0.000000 3.821620 
# 
# 
# High freq. dielectric constant tensor:
#      x y z
#    x 1.745700 0.000000 0.021630 
#    y 0.000000 1.853420 0.000000 
#    z 0.021630 0.000000 1.854260 
# 
# From -- ./inp_files/64703.got.cif
#   From: 2010.06.25/outbox.cif.g09.slc.cpg/sg13_33_cif.got.tgz:64703.got - 2010.06.28 04:50:58.
