data_PCOD8117719
_publ_section_title
;
Structure prediction by ZEFSAII (Michael W. Deem and Ramdas Pophale) SiO2 
 PCOD8117719
Probable space group: P 2/C
;
_chemical_formula_sum "Si O2"
_cell_formula_units_Z 32
_cell_length_a 5.144634
_cell_length_b 15.749768
_cell_length_c 22.549705
_cell_angle_alpha 90.000000
_cell_angle_beta 63.677236
_cell_angle_gamma 90.000000
_cell_volume 1637.675712
_symmetry_space_group_name_H-M "P 2/C"
_symmetry_group_IT_number 13
_symmetry_cell_setting 'monoclinic'
loop_
_space_group_symop_operation_xyz
x,y,z
-x,y,1/2-z
-x,-y,-z
x,-y,1/2+z
loop_
_atom_site_type_symbol
_atom_site_label
_atom_site_fract_x
_atom_site_fract_y
_atom_site_fract_z
Si Si1 0.855699 0.077842 0.938871
Si Si2 0.414995 0.979067 0.911969
Si Si3 0.755640 0.166271 0.322325
Si Si4 0.855469 0.251906 0.428205
Si Si5 0.173283 0.749062 0.015062
Si Si6 0.659465 0.346239 0.293248
Si Si7 0.277089 0.574172 0.595753
Si Si8 0.147811 0.563083 0.031444
O O1 0.658294 0.048994 0.903835
O O2 0.149248 0.024632 0.906768
O O3 0.926987 0.178685 0.927978
O O4 0.682770 0.067396 0.018133
O O5 0.538947 0.912403 0.851749
O O6 0.910117 0.184812 0.369931
O O7 0.569648 0.250408 0.321694
O O8 0.000000 0.142182 0.250000
O O9 0.519861 0.252557 0.480803
O O10 0.941020 0.346579 0.395450
O O11 0.060804 0.224622 0.461102
O O12 0.019285 0.658827 0.048070
O O13 0.500000 0.376019 0.250000
O O14 0.590188 0.415504 0.351706
O O15 0.000000 0.346178 0.250000
O O16 0.523840 0.579043 0.521178
O O17 0.124830 0.482714 0.598805
O O18 0.000000 0.500000 0.000000
#
# Coordination Sequence:
#
# PCOD8117719 Si02
#       8
#     4   4   4   4   4   4   4   4
#     4  10  21  35  54  76 106 145 183 225 277 332
#     4  10  21  36  53  77 106 143 186 226 272 330
#     4  10  22  36  55  80 113 148 190 226 274 338
#     4  10  20  32  51  76 110 150 180 213 276 332
#     4  11  20  34  54  77 111 146 182 224 279 337
#     4  10  23  38  56  81 115 158 191 221 272 342
#     4   9  20  34  50  79 116 152 184 229 270 340
#     4  10  19  32  53  82 115 149 185 226 290 331
#
# _framework density 19.539885999999999
#
# number of rings (size 3 to 8) (size 9 to 14) (size 15 to 20)
#    0.000    2.000    2.500    0.750    5.250    8.000 
#    0.000    0.000    0.000    0.000    0.000    0.875 
#    3.750    0.000    0.000    0.000    0.000    0.000 
#
# Total GULP energy -396622.014517 kJ/mol
# GULP energy per Si atom -12394.437954 kJ/mol
# Density = 1.949541 g / cm^3
# Si number density = 19.539886 Si / 1000 Ang^3
#
#
#
# Elastic Constant Matrix: (Units=GPa)
#
#
# Indices 1 2 3 4 5 6 
#
# 1 71.2474 30.7160 24.9412 0.0000 17.5223 0.0000
# 2 30.7160 138.0366 51.4534 0.0000 3.4307 0.0000
# 3 24.9412 51.4534 75.9985 0.0000 9.3047 0.0000
# 4 0.0000 0.0000 0.0000 11.0114 0.0000 13.7198
# 5 17.5223 3.4307 9.3047 0.0000 26.4205 0.0000
# 6 0.0000 0.0000 0.0000 13.7198 0.0000 14.6200
#
#
#
# Elastic Compliance Matrix: (Units=1/GPa)
#
#
# Indices 1 2 3 4 5 6 
#
# 1 0.019064 -0.002867 -0.002940 0.000000 -0.011236 0.000000
# 2 -0.002867 0.010152 -0.006274 0.000000 0.002793 0.000000
# 3 -0.002940 -0.006274 0.018845 0.000000 -0.003872 0.000000
# 4 0.000000 0.000000 0.000000 -0.536579 0.000000 0.503542
# 5 -0.011236 0.002793 -0.003872 0.000000 0.046302 0.000000
# 6 0.000000 0.000000 0.000000 0.503542 0.000000 -0.404139
#
#
# Mechanical properties :
#
#
# Convention : Reuss Voigt Hill
#
# Bulk Modulus (GPa) = 41.84306 55.50040 48.67173
# Shear Modulus (GPa) = -6.14079 22.28850 8.07386
#
# Velocity S-wave (km/s) = -1.77469 3.38104 2.03493
# Velocity P-wave (km/s) = 4.15467 6.61114 5.52126
#
# Compressibility (1/GPa) = 0.02389882
#
# Stress axis : x y z
#
# Youngs Moduli (GPa) = 52.45473 98.50572 53.06529
#
# Poissons Ratio (x) = 0.28243 0.15599
# Poissons Ratio (y) = 0.15039 0.33293
# Poissons Ratio (z) = 0.15420 0.61803
#
# Static dielectric constant tensor:
#      x y z
#    x 3.540850 0.000000 0.086100 
#    y 0.000000 4.240490 0.000000 
#    z 0.086100 0.000000 3.172080 
# 
# 
# High freq. dielectric constant tensor:
#      x y z
#    x 1.769380 0.000000 0.010540 
#    y 0.000000 1.759680 0.000000 
#    z 0.010540 0.000000 1.705180 
# 
# From -- ./inp_files/73919.got.cif
#   From: 2010.06.25/outbox.cif.g09.slc.cpg/sg13_37_cif.got.tgz:73919.got - 2010.06.28 04:50:58.
