data_PCOD8117486
_publ_section_title
;
Structure prediction by ZEFSAII (Michael W. Deem and Ramdas Pophale) SiO2 
 PCOD8117486
Probable space group: P 2/C
;
_chemical_formula_sum "Si O2"
_cell_formula_units_Z 24
_cell_length_a 28.636193
_cell_length_b 7.896250
_cell_length_c 14.148540
_cell_angle_alpha 90.000000
_cell_angle_beta 20.233346
_cell_angle_gamma 90.000000
_cell_volume 1106.441538
_symmetry_space_group_name_H-M "P 2/C"
_symmetry_group_IT_number 13
_symmetry_cell_setting 'monoclinic'
loop_
_space_group_symop_operation_xyz
x,y,z
-x,y,1/2-z
-x,-y,-z
x,-y,1/2+z
loop_
_atom_site_type_symbol
_atom_site_label
_atom_site_fract_x
_atom_site_fract_y
_atom_site_fract_z
Si Si1 0.168119 0.262448 0.089609
Si Si2 0.500000 0.703070 0.250000
Si Si3 0.078406 0.435975 0.005706
Si Si4 0.774370 0.786676 0.813523
Si Si5 0.433530 0.551814 0.028155
Si Si6 0.791762 0.896561 0.173506
Si Si7 0.500000 0.801330 0.750000
O O1 0.210742 0.167945 0.104218
O O2 0.033889 0.377554 0.358285
O O3 0.283907 0.385055 0.831356
O O4 0.145991 0.118210 0.050554
O O5 0.383335 0.801808 0.414682
O O6 0.583098 0.603504 0.011908
O O7 0.000000 0.480400 0.250000
O O8 0.164839 0.598819 0.812318
O O9 0.177380 0.275988 0.828768
O O10 0.852837 0.933430 0.605855
O O11 0.523778 0.689270 0.800021
O O12 0.500000 0.500000 0.000000
O O13 0.629385 0.918029 0.483689
#
# Coordination Sequence:
#
# PCOD8117486 Si02
#       7
#     4   2   4   4   4   4   2
#     4  10  22  41  63  95 128 165 212 261 315 373
#     4  11  21  36  62  99 125 162 215 259 308 375
#     4  10  22  42  65  90 126 167 206 258 315 375
#     4  12  23  41  66  94 125 166 217 256 310 383
#     4  10  18  36  63  92 123 160 206 258 311 368
#     4  10  23  42  61  90 132 164 203 266 316 365
#     4   9  19  38  58  85 131 162 199 259 318 357
#
# _framework density 21.69116
#
# number of rings (size 3 to 8) (size 9 to 14) (size 15 to 20)
#    0.000    1.667    1.667    5.000    0.000    2.667 
#    3.000    5.833    0.000    0.000    0.000    0.000 
#    0.000    0.000    0.000    0.000    0.000    0.000 
#
# Total GULP energy -297404.397912 kJ/mol
# GULP energy per Si atom -12391.849913 kJ/mol
# Density = 2.164179 g / cm^3
# Si number density = 21.691160 Si / 1000 Ang^3
#
#
#
# Elastic Constant Matrix: (Units=GPa)
#
#
# Indices 1 2 3 4 5 6 
#
# 1 158.9262 63.7693 29.5069 0.0000 8.1016 0.0000
# 2 63.7693 128.3674 27.3762 0.0000 6.3641 0.0000
# 3 29.5069 27.3762 77.8164 0.0000 -6.2084 0.0000
# 4 0.0000 0.0000 0.0000 13.2035 0.0000 9.8860
# 5 8.1016 6.3641 -6.2084 0.0000 27.0966 0.0000
# 6 0.0000 0.0000 0.0000 9.8860 0.0000 24.1542
#
#
#
# Elastic Compliance Matrix: (Units=1/GPa)
#
#
# Indices 1 2 3 4 5 6 
#
# 1 0.008193 -0.003534 -0.002030 0.000000 -0.002085 0.000000
# 2 -0.003534 0.010146 -0.002379 0.000000 -0.001871 0.000000
# 3 -0.002030 -0.002379 0.014821 0.000000 0.004561 0.000000
# 4 0.000000 0.000000 0.000000 0.109203 0.000000 -0.044696
# 5 -0.002085 -0.001871 0.004561 0.000000 0.039013 0.000000
# 6 0.000000 0.000000 0.000000 -0.044696 0.000000 0.059694
#
#
# Mechanical properties :
#
#
# Convention : Reuss Voigt Hill
#
# Bulk Modulus (GPa) = 57.88566 67.37944 62.63255
# Shear Modulus (GPa) = 19.03211 29.18801 24.11006
#
# Velocity S-wave (km/s) = 2.96533 3.67225 3.33756
# Velocity P-wave (km/s) = 6.20230 7.00793 6.61738
#
# Compressibility (1/GPa) = 0.01727543
#
# Stress axis : x y z
#
# Youngs Moduli (GPa) = 122.04944 98.56321 67.47098
#
# Poissons Ratio (x) = 0.34832 0.13696
# Poissons Ratio (y) = 0.43132 0.16049
# Poissons Ratio (z) = 0.24775 0.23444
#
# Static dielectric constant tensor:
#      x y z
#    x 3.589980 0.000000 -0.438080 
#    y 0.000000 3.787810 0.000000 
#    z -0.438080 0.000000 3.792960 
# 
# 
# High freq. dielectric constant tensor:
#      x y z
#    x 1.857280 0.000000 -0.006640 
#    y 0.000000 1.836140 0.000000 
#    z -0.006640 0.000000 1.852810 
# 
# From -- ./inp_files/59884.got.cif
#   From: 2010.06.25/outbox.cif.g09.slc.cpg/sg13_30_cif.got.tgz:59884.got - 2010.06.28 04:50:58.
