data_PCOD8117735
_publ_section_title
;
Structure prediction by ZEFSAII (Michael W. Deem and Ramdas Pophale) SiO2 
 PCOD8117735
Probable space group: P 2/C
;
_chemical_formula_sum "Si O2"
_cell_formula_units_Z 32
_cell_length_a 10.776130
_cell_length_b 12.173669
_cell_length_c 19.551225
_cell_angle_alpha 90.000000
_cell_angle_beta 140.274691
_cell_angle_gamma 90.000000
_cell_volume 1639.201261
_symmetry_space_group_name_H-M "P 2/C"
_symmetry_group_IT_number 13
_symmetry_cell_setting 'monoclinic'
loop_
_space_group_symop_operation_xyz
x,y,z
-x,y,1/2-z
-x,-y,-z
x,-y,1/2+z
loop_
_atom_site_type_symbol
_atom_site_label
_atom_site_fract_x
_atom_site_fract_y
_atom_site_fract_z
Si Si1 0.932688 0.289816 0.881222
Si Si2 0.080680 0.503463 0.881750
Si Si3 0.320449 0.443491 0.358544
Si Si4 0.554795 0.654405 0.150775
Si Si5 0.120996 0.859138 0.868253
Si Si6 0.902773 0.887094 0.136352
Si Si7 0.130278 0.697987 0.992964
Si Si8 0.519148 0.765222 0.997858
O O1 0.712076 0.326449 0.776256
O O2 0.068820 0.375561 0.897366
O O3 0.966890 0.168941 0.866483
O O4 0.977212 0.283416 0.980804
O O5 0.276169 0.518665 0.918584
O O6 0.095529 0.572590 0.957122
O O7 0.891977 0.553916 0.765032
O O8 0.458796 0.524587 0.373505
O O9 0.427489 0.325310 0.406697
O O10 0.361607 0.709168 0.098498
O O11 0.617406 0.710738 0.106003
O O12 0.052716 0.782697 0.902553
O O13 0.346953 0.845239 0.947924
O O14 0.000000 0.824593 0.750000
O O15 0.087521 0.984359 0.875063
O O16 0.000000 0.859447 0.250000
O O17 0.684500 0.840549 0.034259
#
# Coordination Sequence:
#
# PCOD8117735 Si02
#       8
#     4   4   4   4   4   4   4   4
#     4  11  23  37  54  84 120 153 185 233 285 348
#     4  10  20  34  56  85 114 146 189 233 284 339
#     4  10  19  32  58  86 113 148 184 235 284 336
#     4  10  20  33  55  85 115 148 185 230 282 341
#     4  10  22  40  62  86 109 146 195 247 289 334
#     4  11  23  38  59  86 116 148 194 247 286 329
#     4  11  22  37  59  80 117 154 192 225 291 348
#     4  11  19  34  60  87 113 142 192 235 289 334
#
# _framework density 19.521704
#
# number of rings (size 3 to 8) (size 9 to 14) (size 15 to 20)
#    0.000    1.500    3.750    3.000    3.500    0.500 
#    0.000    0.000    0.000    2.250    0.000    0.000 
#    0.000    0.000    0.000    0.000    0.000    0.000 
#
# Total GULP energy -396702.294988 kJ/mol
# GULP energy per Si atom -12396.946718 kJ/mol
# Density = 1.947727 g / cm^3
# Si number density = 19.521704 Si / 1000 Ang^3
#
#
#
# Elastic Constant Matrix: (Units=GPa)
#
#
# Indices 1 2 3 4 5 6 
#
# 1 61.8628 31.6004 20.3720 0.0000 -17.9211 0.0000
# 2 31.6004 105.8361 33.6750 0.0000 -10.8565 0.0000
# 3 20.3720 33.6750 64.5303 0.0000 -14.0263 0.0000
# 4 0.0000 0.0000 0.0000 30.8939 0.0000 1.1752
# 5 -17.9211 -10.8565 -14.0263 0.0000 26.7023 0.0000
# 6 0.0000 0.0000 0.0000 1.1752 0.0000 17.3434
#
#
#
# Elastic Compliance Matrix: (Units=1/GPa)
#
#
# Indices 1 2 3 4 5 6 
#
# 1 0.022914 -0.004950 -0.001971 0.000000 0.012331 0.000000
# 2 -0.004950 0.012467 -0.005152 0.000000 -0.000959 0.000000
# 3 -0.001971 -0.005152 0.020393 0.000000 0.007295 0.000000
# 4 0.000000 0.000000 0.000000 0.032453 0.000000 -0.002199
# 5 0.012331 -0.000959 0.007295 0.000000 0.049168 0.000000
# 6 0.000000 0.000000 0.000000 -0.002199 0.000000 0.057808
#
#
# Mechanical properties :
#
#
# Convention : Reuss Voigt Hill
#
# Bulk Modulus (GPa) = 31.61573 44.83601 38.22587
# Shear Modulus (GPa) = 21.74944 24.76002 23.25473
#
# Velocity S-wave (km/s) = 3.34146 3.56523 3.45516
# Velocity P-wave (km/s) = 5.57830 6.32178 5.96164
#
# Compressibility (1/GPa) = 0.03162982
#
# Stress axis : x y z
#
# Youngs Moduli (GPa) = 43.64055 80.20970 49.03684
#
# Poissons Ratio (x) = 0.39702 0.09663
# Poissons Ratio (y) = 0.21601 0.25263
# Poissons Ratio (z) = 0.08600 0.41323
#
# Static dielectric constant tensor:
#      x y z
#    x 3.233140 0.000000 0.053580 
#    y 0.000000 3.477650 0.000000 
#    z 0.053580 0.000000 3.624430 
# 
# 
# High freq. dielectric constant tensor:
#      x y z
#    x 1.734060 0.000000 0.010720 
#    y 0.000000 1.755020 0.000000 
#    z 0.010720 0.000000 1.768290 
# 
# From -- ./inp_files/78501.got.cif
#   From: 2010.06.25/outbox.cif.g09.slc.cpg/sg13_40_cif.got.tgz:78501.got - 2010.06.28 04:50:58.
