data_PCOD8117222
_publ_section_title
;
Structure prediction by ZEFSAII (Michael W. Deem and Ramdas Pophale) SiO2 
 PCOD8117222
Probable space group: P 2/C
;
_chemical_formula_sum "Si O2"
_cell_formula_units_Z 20
_cell_length_a 13.785881
_cell_length_b 7.379818
_cell_length_c 15.007154
_cell_angle_alpha 90.000000
_cell_angle_beta 35.645046
_cell_angle_gamma 90.000000
_cell_volume 889.753651
_symmetry_space_group_name_H-M "P 2/C"
_symmetry_group_IT_number 13
_symmetry_cell_setting 'monoclinic'
loop_
_space_group_symop_operation_xyz
x,y,z
-x,y,1/2-z
-x,-y,-z
x,-y,1/2+z
loop_
_atom_site_type_symbol
_atom_site_label
_atom_site_fract_x
_atom_site_fract_y
_atom_site_fract_z
Si Si1 0.635848 0.822271 0.587190
Si Si2 0.456821 0.136793 0.953858
Si Si3 0.976202 0.039979 0.873485
Si Si4 0.890440 0.681373 0.749183
Si Si5 0.251753 0.315030 0.686544
O O1 0.500000 0.715361 0.750000
O O2 0.684700 0.703758 0.463773
O O3 0.542899 0.012292 0.633729
O O4 0.797589 0.870951 0.526625
O O5 0.595960 0.295760 0.856461
O O6 0.274487 0.219558 0.093923
O O7 0.500000 0.000000 0.000000
O O8 0.000000 0.028885 0.750000
O O9 0.002369 0.830880 0.887821
O O10 0.118804 0.161523 0.810918
O O11 0.835638 0.508732 0.731827
O O12 0.000000 0.607639 0.750000
#
# Coordination Sequence:
#
# PCOD8117222 Si02
#       5
#     4   4   4   4   4
#     4  10  19  35  55  80 114 147 177 220 281 325
#     4  10  18  33  54  82 107 139 182 228 263 318
#     4   9  16  33  53  76 101 140 186 215 259 318
#     4  11  17  31  59  82 100 138 188 226 260 310
#     4  10  20  33  58  80 106 137 190 230 259 313
#
# _framework density 22.47813
#
# number of rings (size 3 to 8) (size 9 to 14) (size 15 to 20)
#    0.000    2.000    8.000    2.400    0.000    0.000 
#    0.000    2.000    0.000    1.200    0.000    0.000 
#    0.000    0.000    0.000    0.000    0.000    0.000 
#
# Total GULP energy -247765.499528 kJ/mol
# GULP energy per Si atom -12388.274976 kJ/mol
# Density = 2.242697 g / cm^3
# Si number density = 22.478130 Si / 1000 Ang^3
#
#
#
# Elastic Constant Matrix: (Units=GPa)
#
#
# Indices 1 2 3 4 5 6 
#
# 1 55.8886 -2.7630 28.5009 0.0000 -30.1658 0.0000
# 2 -2.7630 83.0432 9.9265 0.0000 -2.9998 0.0000
# 3 28.5009 9.9265 86.0682 0.0000 -28.9727 0.0000
# 4 0.0000 0.0000 0.0000 19.9187 0.0000 -16.6939
# 5 -30.1658 -2.9998 -28.9727 0.0000 32.1790 0.0000
# 6 0.0000 0.0000 0.0000 -16.6939 0.0000 21.3177
#
#
#
# Elastic Compliance Matrix: (Units=1/GPa)
#
#
# Indices 1 2 3 4 5 6 
#
# 1 0.036794 0.002577 -0.001133 0.000000 0.033713 0.000000
# 2 0.002577 0.012392 -0.001550 0.000000 0.002176 0.000000
# 3 -0.001133 -0.001550 0.016884 0.000000 0.013995 0.000000
# 4 0.000000 0.000000 0.000000 0.146078 0.000000 0.114394
# 5 0.033713 0.002176 0.013995 0.000000 0.075483 0.000000
# 6 0.000000 0.000000 0.000000 0.114394 0.000000 0.136491
#
#
# Mechanical properties :
#
#
# Convention : Reuss Voigt Hill
#
# Bulk Modulus (GPa) = 15.18420 32.92543 24.05482
# Shear Modulus (GPa) = 11.20359 27.30545 19.25452
#
# Velocity S-wave (km/s) = 2.23496 3.48912 2.92993
# Velocity P-wave (km/s) = 3.66467 5.55981 4.70857
#
# Compressibility (1/GPa) = 0.06585792
#
# Stress axis : x y z
#
# Youngs Moduli (GPa) = 27.17819 80.69988 59.22875
#
# Poissons Ratio (x) = -0.20800 0.06710
# Poissons Ratio (y) = -0.07005 0.09182
# Poissons Ratio (z) = 0.03079 0.12511
#
# Static dielectric constant tensor:
#      x y z
#    x 4.909860 0.000000 -1.077560 
#    y 0.000000 4.255110 0.000000 
#    z -1.077560 0.000000 4.077490 
# 
# 
# High freq. dielectric constant tensor:
#      x y z
#    x 1.866400 0.000000 -0.056390 
#    y 0.000000 1.877920 0.000000 
#    z -0.056390 0.000000 1.862380 
# 
# From -- ./inp_files/63220.got.cif
#   From: 2010.06.25/outbox.cif.g09.slc.cpg/sg13_32_cif.got.tgz:63220.got - 2010.06.28 04:50:58.
