data_PCOD8117066
_publ_section_title
;
Structure prediction by ZEFSAII (Michael W. Deem and Ramdas Pophale) SiO2 
 PCOD8117066
Probable space group: P 2/C
;
_chemical_formula_sum "Si O2"
_cell_formula_units_Z 24
_cell_length_a 15.878240
_cell_length_b 8.727748
_cell_length_c 15.276213
_cell_angle_alpha 90.000000
_cell_angle_beta 36.321440
_cell_angle_gamma 90.000000
_cell_volume 1253.928540
_symmetry_space_group_name_H-M "P 2/C"
_symmetry_group_IT_number 13
_symmetry_cell_setting 'monoclinic'
loop_
_space_group_symop_operation_xyz
x,y,z
-x,y,1/2-z
-x,-y,-z
x,-y,1/2+z
loop_
_atom_site_type_symbol
_atom_site_label
_atom_site_fract_x
_atom_site_fract_y
_atom_site_fract_z
Si Si1 0.442285 0.657536 0.386649
Si Si2 0.837088 0.381528 0.063266
Si Si3 0.843755 0.514990 0.871060
Si Si4 0.575565 0.163183 0.929162
Si Si5 0.462995 0.310957 0.186890
Si Si6 0.150175 0.339292 0.816747
O O1 0.500000 0.739857 0.250000
O O2 0.271258 0.650049 0.528286
O O3 0.479938 0.751241 0.439911
O O4 0.514579 0.492325 0.331674
O O5 0.701306 0.277581 0.203056
O O6 0.825040 0.543734 0.123876
O O7 0.820006 0.402891 0.973111
O O8 0.983419 0.290505 0.961918
O O9 0.824754 0.424216 0.796391
O O10 0.000000 0.590054 0.750000
O O11 0.743822 0.190598 0.762815
O O12 0.568483 0.237660 0.029928
O O13 0.500000 0.000000 0.000000
O O14 0.500000 0.238675 0.250000
#
# Coordination Sequence:
#
# PCOD8117066 Si02
#       6
#     4   4   4   4   4   4
#     4  11  19  35  59  82 109 136 191 240 276 324
#     4  10  18  31  55  83 105 136 176 242 284 310
#     4  10  18  30  54  85 107 128 173 240 287 318
#     4  12  24  36  53  80 118 155 182 220 279 352
#     4  11  19  35  59  83 105 138 190 238 281 320
#     4  10  19  32  51  80 113 137 180 225 279 330
#
# _framework density 19.139847
#
# number of rings (size 3 to 8) (size 9 to 14) (size 15 to 20)
#    0.000    1.333    6.667    1.500    0.000    0.667 
#    0.000    0.833    0.000    5.000    0.000    0.000 
#    0.000    0.000    0.000    0.000    0.000    0.000 
#
# Total GULP energy -297318.473309 kJ/mol
# GULP energy per Si atom -12388.269721 kJ/mol
# Density = 1.909628 g / cm^3
# Si number density = 19.139847 Si / 1000 Ang^3
#
#
#
# Elastic Constant Matrix: (Units=GPa)
#
#
# Indices 1 2 3 4 5 6 
#
# 1 95.8337 26.6201 43.6656 0.0000 -13.3330 0.0000
# 2 26.6201 45.9190 28.2340 0.0000 -6.9051 0.0000
# 3 43.6656 28.2340 112.2705 0.0000 -27.8768 0.0000
# 4 0.0000 0.0000 0.0000 40.5669 0.0000 32.9783
# 5 -13.3330 -6.9051 -27.8768 0.0000 61.3700 0.0000
# 6 0.0000 0.0000 0.0000 32.9783 0.0000 96.6821
#
#
#
# Elastic Compliance Matrix: (Units=1/GPa)
#
#
# Indices 1 2 3 4 5 6 
#
# 1 0.013806 -0.005564 -0.003811 0.000000 0.000642 0.000000
# 2 -0.005564 0.028003 -0.004955 0.000000 -0.000309 0.000000
# 3 -0.003811 -0.004955 0.012727 0.000000 0.004396 0.000000
# 4 0.000000 0.000000 0.000000 0.034109 0.000000 -0.011635
# 5 0.000642 -0.000309 0.004396 0.000000 0.018396 0.000000
# 6 0.000000 0.000000 0.000000 -0.011635 0.000000 0.014312
#
#
# Mechanical properties :
#
#
# Convention : Reuss Voigt Hill
#
# Bulk Modulus (GPa) = 38.64513 50.11807 44.38160
# Shear Modulus (GPa) = 31.51841 50.09071 40.80456
#
# Velocity S-wave (km/s) = 4.06241 5.12130 4.62228
# Velocity P-wave (km/s) = 6.49915 7.82383 7.19206
#
# Compressibility (1/GPa) = 0.02587648
#
# Stress axis : x y z
#
# Youngs Moduli (GPa) = 72.43231 35.71025 78.57462
#
# Poissons Ratio (x) = 0.19869 0.29944
# Poissons Ratio (y) = 0.40300 0.38934
# Poissons Ratio (z) = 0.27603 0.17694
#
# Static dielectric constant tensor:
#      x y z
#    x 2.185980 0.000000 -1.618400 
#    y 0.000000 2.870310 0.000000 
#    z -1.618400 0.000000 2.785640 
# 
# 
# High freq. dielectric constant tensor:
#      x y z
#    x 1.774200 0.000000 -0.001910 
#    y 0.000000 1.653700 0.000000 
#    z -0.001910 0.000000 1.775380 
# 
# From -- ./inp_files/52860.got.cif
#   From: 2010.06.25/outbox.cif.g09.slc.cpg/sg13_27_cif.got.tgz:52860.got - 2010.06.28 04:50:58.
