data_PCOD8117608
_publ_section_title
;
Structure prediction by ZEFSAII (Michael W. Deem and Ramdas Pophale) SiO2 
 PCOD8117608
Probable space group: P 2/C
;
_chemical_formula_sum "Si O2"
_cell_formula_units_Z 30
_cell_length_a 18.645140
_cell_length_b 16.525894
_cell_length_c 5.101018
_cell_angle_alpha 90.000000
_cell_angle_beta 61.072339
_cell_angle_gamma 90.000000
_cell_volume 1375.657160
_symmetry_space_group_name_H-M "P 2/C"
_symmetry_group_IT_number 13
_symmetry_cell_setting 'monoclinic'
loop_
_space_group_symop_operation_xyz
x,y,z
-x,y,1/2-z
-x,-y,-z
x,-y,1/2+z
loop_
_atom_site_type_symbol
_atom_site_label
_atom_site_fract_x
_atom_site_fract_y
_atom_site_fract_z
Si Si1 0.000000 0.671845 0.250000
Si Si2 0.851486 0.042617 0.198697
Si Si3 0.336398 0.039124 0.970346
Si Si4 0.412790 0.197080 0.958031
Si Si5 0.411671 0.702075 0.959647
Si Si6 0.101774 0.446452 0.877646
Si Si7 0.233900 0.682831 0.161354
Si Si8 0.839034 0.234482 0.195192
O O1 0.029765 0.616922 0.441158
O O2 0.926768 0.725367 0.490628
O O3 0.757789 0.014287 0.379399
O O4 0.857544 0.139443 0.177947
O O5 0.894575 0.001991 0.376033
O O6 0.341106 0.135017 0.012518
O O7 0.380057 0.011310 0.625669
O O8 0.500000 0.153733 0.750000
O O9 0.406648 0.273999 0.773816
O O10 0.408779 0.220609 0.270262
O O11 0.500000 0.656572 0.750000
O O12 0.328371 0.653993 0.037254
O O13 0.094333 0.520371 0.685397
O O14 0.188391 0.401646 0.693038
O O15 0.198660 0.732854 0.468387
O O16 0.224428 0.741718 0.925231
#
# Coordination Sequence:
#
# PCOD8117608 Si02
#       8
#     2   4   4   4   4   4   4   4
#     4  10  24  42  64  94 124 160 192 232 292 350
#     4  10  20  35  53  77 108 149 198 246 296 338
#     4  10  19  29  45  66  95 137 182 230 287 351
#     4  10  20  32  48  73 104 141 184 237 297 343
#     4  10  20  35  56  80 109 145 191 241 283 331
#     4  11  23  40  64  94 127 156 186 228 285 358
#     4  11  22  38  62  90 119 158 198 241 293 344
#     4  11  23  39  61  88 120 155 202 249 291 354
#
# _framework density 21.807759000000001
#
# number of rings (size 3 to 8) (size 9 to 14) (size 15 to 20)
#    0.000    1.600    0.000    6.000    0.000    6.933 
#    0.000    0.667    0.000    0.800    0.000    0.000 
#    0.000    0.000    0.000    0.000    0.000    0.000 
#
# Total GULP energy -371816.844939 kJ/mol
# GULP energy per Si atom -12393.894831 kJ/mol
# Density = 2.175812 g / cm^3
# Si number density = 21.807759 Si / 1000 Ang^3
#
#
#
# Elastic Constant Matrix: (Units=GPa)
#
#
# Indices 1 2 3 4 5 6 
#
# 1 115.6379 31.7196 32.3156 0.0000 -3.6680 0.0000
# 2 31.7196 77.0166 26.0286 0.0000 7.3107 0.0000
# 3 32.3156 26.0286 100.5798 0.0000 26.0117 0.0000
# 4 0.0000 0.0000 0.0000 12.7211 0.0000 -2.2829
# 5 -3.6680 7.3107 26.0117 0.0000 34.4578 0.0000
# 6 0.0000 0.0000 0.0000 -2.2829 0.0000 28.0205
#
#
#
# Elastic Compliance Matrix: (Units=1/GPa)
#
#
# Indices 1 2 3 4 5 6 
#
# 1 0.010857 -0.003648 -0.003782 0.000000 0.004784 0.000000
# 2 -0.003648 0.015457 -0.002335 0.000000 -0.001905 0.000000
# 3 -0.003782 -0.002335 0.014585 0.000000 -0.010917 0.000000
# 4 0.000000 0.000000 0.000000 0.079776 0.000000 0.006500
# 5 0.004784 -0.001905 -0.010917 0.000000 0.038175 0.000000
# 6 0.000000 0.000000 0.000000 0.006500 0.000000 0.036218
#
#
# Mechanical properties :
#
#
# Convention : Reuss Voigt Hill
#
# Bulk Modulus (GPa) = 46.79605 52.59578 49.69592
# Shear Modulus (GPa) = 22.55099 28.58457 25.56778
#
# Velocity S-wave (km/s) = 3.21920 3.62436 3.42777
# Velocity P-wave (km/s) = 5.94329 6.45639 6.20514
#
# Compressibility (1/GPa) = 0.02136932
#
# Stress axis : x y z
#
# Youngs Moduli (GPa) = 92.10874 64.69759 68.56331
#
# Poissons Ratio (x) = 0.23599 0.25928
# Poissons Ratio (y) = 0.33597 0.16013
# Poissons Ratio (z) = 0.34831 0.15110
#
# Static dielectric constant tensor:
#      x y z
#    x 4.346830 0.000000 0.158850 
#    y 0.000000 3.540150 0.000000 
#    z 0.158850 0.000000 4.189180 
# 
# 
# High freq. dielectric constant tensor:
#      x y z
#    x 1.865510 0.000000 0.013340 
#    y 0.000000 1.816300 0.000000 
#    z 0.013340 0.000000 1.875390 
# 
# From -- ./inp_files/6257.got.cif
#   From: 2010.06.25/outbox.cif.g09.slc.cpg/sg13_4_cif.got.tgz:6257.got - 2010.06.28 04:50:58.
