data_PCOD8117501
_publ_section_title
;
Structure prediction by ZEFSAII (Michael W. Deem and Ramdas Pophale) SiO2 
 PCOD8117501
Probable space group: P 2/C
;
_chemical_formula_sum "Si O2"
_cell_formula_units_Z 20
_cell_length_a 21.936450
_cell_length_b 8.849889
_cell_length_c 15.267915
_cell_angle_alpha 90.000000
_cell_angle_beta 161.512145
_cell_angle_gamma 90.000000
_cell_volume 939.907513
_symmetry_space_group_name_H-M "P 2/C"
_symmetry_group_IT_number 13
_symmetry_cell_setting 'monoclinic'
loop_
_space_group_symop_operation_xyz
x,y,z
-x,y,1/2-z
-x,-y,-z
x,-y,1/2+z
loop_
_atom_site_type_symbol
_atom_site_label
_atom_site_fract_x
_atom_site_fract_y
_atom_site_fract_z
Si Si1 0.405650 0.401392 0.948551
Si Si2 0.000000 0.966845 0.750000
Si Si3 0.000000 0.539475 0.250000
Si Si4 0.285048 0.218596 0.196144
Si Si5 0.647998 0.687622 0.524659
Si Si6 0.028778 0.702673 0.663446
O O1 0.398547 0.510101 0.023116
O O2 0.196187 0.333739 0.646353
O O3 0.500000 0.500000 0.000000
O O4 0.547764 0.255439 0.147805
O O5 0.935964 0.865404 0.744659
O O6 0.816838 0.065515 0.471649
O O7 0.136578 0.641398 0.495975
O O8 0.877067 0.429465 0.147240
O O9 0.367351 0.210984 0.407848
O O10 0.866774 0.702887 0.787671
O O11 0.500000 0.750624 0.250000
#
# Coordination Sequence:
#
# PCOD8117501 Si02
#       6
#     4   2   2   4   4   4
#     4  10  20  39  65  98 123 165 218 275 324 374
#     4  10  26  42  68  90 136 184 216 250 332 402
#     4  10  18  36  66  86 126 164 222 264 314 378
#     4  10  22  42  63  92 130 175 214 261 323 393
#     4  11  23  38  66  99 128 160 220 281 322 367
#     4  11  22  39  66  98 125 170 220 270 329 381
#
# _framework density 21.278687999999999
#
# number of rings (size 3 to 8) (size 9 to 14) (size 15 to 20)
#    0.000    1.600    4.000    1.800    8.400    1.600 
#    0.000    0.000    0.000    0.000    0.000    0.000 
#    0.000    0.000    0.000    0.000    0.000    0.000 
#
# Total GULP energy -247854.139078 kJ/mol
# GULP energy per Si atom -12392.706954 kJ/mol
# Density = 2.123026 g / cm^3
# Si number density = 21.278688 Si / 1000 Ang^3
#
#
#
# Elastic Constant Matrix: (Units=GPa)
#
#
# Indices 1 2 3 4 5 6 
#
# 1 92.4816 41.3547 48.6168 0.0000 16.1988 0.0000
# 2 41.3547 114.6029 45.4967 0.0000 1.9175 0.0000
# 3 48.6168 45.4967 117.3783 0.0000 1.6271 0.0000
# 4 0.0000 0.0000 0.0000 26.8139 0.0000 -4.5244
# 5 16.1988 1.9175 1.6271 0.0000 42.0474 0.0000
# 6 0.0000 0.0000 0.0000 -4.5244 0.0000 25.0886
#
#
#
# Elastic Compliance Matrix: (Units=1/GPa)
#
#
# Indices 1 2 3 4 5 6 
#
# 1 0.016234 -0.003690 -0.005212 0.000000 -0.005884 0.000000
# 2 -0.003690 0.011156 -0.002810 0.000000 0.001022 0.000000
# 3 -0.005212 -0.002810 0.011744 0.000000 0.001682 0.000000
# 4 0.000000 0.000000 0.000000 0.038464 0.000000 0.006937
# 5 -0.005884 0.001022 0.001682 0.000000 0.025938 0.000000
# 6 0.000000 0.000000 0.000000 0.006937 0.000000 0.041110
#
#
# Mechanical properties :
#
#
# Convention : Reuss Voigt Hill
#
# Bulk Modulus (GPa) = 63.65583 66.15545 64.90564
# Shear Modulus (GPa) = 28.85078 31.38962 30.12020
#
# Velocity S-wave (km/s) = 3.68619 3.84496 3.76641
# Velocity P-wave (km/s) = 6.93524 7.13226 7.03444
#
# Compressibility (1/GPa) = 0.01570948
#
# Stress axis : x y z
#
# Youngs Moduli (GPa) = 61.60054 89.63922 85.15073
#
# Poissons Ratio (x) = 0.33081 0.44379
# Poissons Ratio (y) = 0.22733 0.23925
# Poissons Ratio (z) = 0.32105 0.25186
#
# Static dielectric constant tensor:
#      x y z
#    x 3.845090 0.000000 0.214190 
#    y 0.000000 3.925120 0.000000 
#    z 0.214190 0.000000 4.236300 
# 
# 
# High freq. dielectric constant tensor:
#      x y z
#    x 1.819540 0.000000 0.005120 
#    y 0.000000 1.818970 0.000000 
#    z 0.005120 0.000000 1.844000 
# 
# From -- ./inp_files/57409.got.cif
#   From: 2010.06.25/outbox.cif.g09.slc.cpg/sg13_29_cif.got.tgz:57409.got - 2010.06.28 04:50:58.
