data_PCOD8117589
_publ_section_title
;
Structure prediction by ZEFSAII (Michael W. Deem and Ramdas Pophale) SiO2 
 PCOD8117589
Probable space group: P 2/C
;
_chemical_formula_sum "Si O2"
_cell_formula_units_Z 26
_cell_length_a 9.058711
_cell_length_b 15.483448
_cell_length_c 15.668419
_cell_angle_alpha 90.000000
_cell_angle_beta 142.933574
_cell_angle_gamma 90.000000
_cell_volume 1324.614939
_symmetry_space_group_name_H-M "P 2/C"
_symmetry_group_IT_number 13
_symmetry_cell_setting 'monoclinic'
loop_
_space_group_symop_operation_xyz
x,y,z
-x,y,1/2-z
-x,-y,-z
x,-y,1/2+z
loop_
_atom_site_type_symbol
_atom_site_label
_atom_site_fract_x
_atom_site_fract_y
_atom_site_fract_z
Si Si1 0.631160 0.784768 0.720168
Si Si2 0.000000 0.499419 0.250000
Si Si3 0.492984 0.898712 0.508236
Si Si4 0.178879 0.351615 0.739165
Si Si5 0.185098 0.212781 0.459703
Si Si6 0.000000 0.800516 0.250000
Si Si7 0.632283 0.350407 0.073840
Si Si8 0.500000 0.714180 0.250000
O O1 0.500000 0.772486 0.750000
O O2 0.528134 0.868513 0.622401
O O3 0.594576 0.697922 0.646983
O O4 0.915328 0.804828 0.870010
O O5 0.989209 0.562733 0.328646
O O6 0.750396 0.444742 0.137312
O O7 0.716174 0.864263 0.553687
O O8 0.235221 0.861285 0.358549
O O9 0.500000 0.000000 0.500000
O O10 0.020841 0.263348 0.677225
O O11 0.306561 0.349867 0.706145
O O12 0.373102 0.354974 0.906905
O O13 0.177048 0.298487 0.397899
O O14 0.368616 0.223137 0.623161
#
# Coordination Sequence:
#
# PCOD8117589 Si02
#       8
#     4   2   4   4   4   2   4   2
#     4  11  23  39  65  92 123 161 206 255 310 369
#     4  11  20  34  61  88 118 166 215 254 304 371
#     4  11  24  42  66  94 123 165 203 251 309 375
#     4  10  22  36  61  87 122 165 208 257 301 378
#     4  10  21  41  66  83 127 165 197 250 317 370
#     4  11  20  40  65  88 118 172 207 236 312 383
#     4  10  18  41  58  84 120 166 205 246 315 367
#     4  10  20  40  60  90 122 166 208 252 314 368
#
# _framework density 19.628344999999999
#
# number of rings (size 3 to 8) (size 9 to 14) (size 15 to 20)
#    0.000    1.538    6.154    1.846    4.308    0.000 
#    2.769    3.846    0.000    0.000    0.000    0.000 
#    0.000    0.000    0.000    0.000    0.000    0.000 
#
# Total GULP energy -322288.362025 kJ/mol
# GULP energy per Si atom -12395.706232 kJ/mol
# Density = 1.958367 g / cm^3
# Si number density = 19.628345 Si / 1000 Ang^3
#
#
#
# Elastic Constant Matrix: (Units=GPa)
#
#
# Indices 1 2 3 4 5 6 
#
# 1 152.6813 45.0251 24.2555 0.0000 -7.4246 0.0000
# 2 45.0251 142.0969 20.8083 0.0000 -0.3267 0.0000
# 3 24.2555 20.8083 55.2552 0.0000 -7.4992 0.0000
# 4 0.0000 0.0000 0.0000 19.5659 0.0000 6.2582
# 5 -7.4246 -0.3267 -7.4992 0.0000 36.7726 0.0000
# 6 0.0000 0.0000 0.0000 6.2582 0.0000 18.1461
#
#
#
# Elastic Compliance Matrix: (Units=1/GPa)
#
#
# Indices 1 2 3 4 5 6 
#
# 1 0.007588 -0.002047 -0.002421 0.000000 0.001020 0.000000
# 2 -0.002047 0.008010 -0.002226 0.000000 -0.000796 0.000000
# 3 -0.002421 -0.002226 0.020497 0.000000 0.003671 0.000000
# 4 0.000000 0.000000 0.000000 0.057446 0.000000 -0.019812
# 5 0.001020 -0.000796 0.003671 0.000000 0.028142 0.000000
# 6 0.000000 0.000000 0.000000 -0.019812 0.000000 0.061941
#
#
# Mechanical properties :
#
#
# Convention : Reuss Voigt Hill
#
# Bulk Modulus (GPa) = 44.04106 58.91238 51.47672
# Shear Modulus (GPa) = 24.44010 32.22657 28.33334
#
# Velocity S-wave (km/s) = 3.53249 4.05636 3.80345
# Velocity P-wave (km/s) = 6.25493 7.21234 6.75063
#
# Compressibility (1/GPa) = 0.02270609
#
# Stress axis : x y z
#
# Youngs Moduli (GPa) = 131.79412 124.83944 48.78698
#
# Poissons Ratio (x) = 0.25558 0.11813
# Poissons Ratio (y) = 0.26982 0.10859
# Poissons Ratio (z) = 0.31912 0.27788
#
# Static dielectric constant tensor:
#      x y z
#    x 3.704140 0.000000 0.140680 
#    y 0.000000 3.547150 0.000000 
#    z 0.140680 0.000000 3.543530 
# 
# 
# High freq. dielectric constant tensor:
#      x y z
#    x 1.772130 0.000000 0.022630 
#    y 0.000000 1.749180 0.000000 
#    z 0.022630 0.000000 1.759000 
# 
# From -- ./inp_files/47967.got.cif
#   From: 2010.06.25/outbox.cif.g09.slc.cpg/sg13_24_cif.got.tgz:47967.got - 2010.06.28 04:50:58.
