data_PCOD8117488
_publ_section_title
;
Structure prediction by ZEFSAII (Michael W. Deem and Ramdas Pophale) SiO2 
 PCOD8117488
Probable space group: P 2/C
;
_chemical_formula_sum "Si O2"
_cell_formula_units_Z 32
_cell_length_a 10.355469
_cell_length_b 9.523642
_cell_length_c 27.246475
_cell_angle_alpha 90.000000
_cell_angle_beta 32.566957
_cell_angle_gamma 90.000000
_cell_volume 1446.422974
_symmetry_space_group_name_H-M "P 2/C"
_symmetry_group_IT_number 13
_symmetry_cell_setting 'monoclinic'
loop_
_space_group_symop_operation_xyz
x,y,z
-x,y,1/2-z
-x,-y,-z
x,-y,1/2+z
loop_
_atom_site_type_symbol
_atom_site_label
_atom_site_fract_x
_atom_site_fract_y
_atom_site_fract_z
Si Si1 0.814628 0.151196 0.468448
Si Si2 0.395353 0.366378 0.421380
Si Si3 0.283629 0.430524 0.039898
Si Si4 0.651708 0.293939 0.743955
Si Si5 0.303813 0.753233 0.852295
Si Si6 0.082731 0.142045 0.561738
Si Si7 0.691376 0.059097 0.612923
Si Si8 0.139952 0.501657 0.751992
O O1 0.663011 0.262996 0.484748
O O2 0.674562 0.098173 0.561340
O O3 0.051758 0.238876 0.405604
O O4 0.871243 0.003000 0.422176
O O5 0.274085 0.496307 0.489478
O O6 0.288699 0.363375 0.400277
O O7 0.330454 0.221671 0.470448
O O8 0.686369 0.375711 0.324840
O O9 0.035856 0.445690 0.149034
O O10 0.500000 0.500000 0.000000
O O11 0.500000 0.376656 0.750000
O O12 0.508528 0.150888 0.796812
O O13 0.675764 0.386566 0.785125
O O14 0.921055 0.252507 0.642559
O O15 0.500000 0.705085 0.750000
O O16 0.382035 0.900030 0.852160
O O17 0.956467 0.094816 0.550319
O O18 0.000000 0.438009 0.750000
#
# Coordination Sequence:
#
# PCOD8117488 Si02
#       8
#     4   4   4   4   4   4   4   4
#     4  11  21  39  68 100 131 178 221 275 349 415
#     4  12  23  43  70  96 135 176 225 285 338 419
#     4  12  27  47  68  90 135 190 234 285 344 401
#     4  10  22  39  67 100 132 176 229 285 340 417
#     4  11  21  38  66 107 145 173 213 281 356 418
#     4  10  19  41  66  99 135 168 220 282 345 403
#     4  10  18  36  64 102 140 172 209 279 350 409
#     4  12  26  44  66  93 140 186 233 282 361 412
#
# _framework density 22.123543000000002
#
# number of rings (size 3 to 8) (size 9 to 14) (size 15 to 20)
#    0.000    1.000    5.000    4.125    0.000    2.000 
#    0.000    0.625    2.750    0.000    0.000    0.000 
#    0.000    0.000    0.000    0.000    0.000    0.000 
#
# Total GULP energy -396689.660896 kJ/mol
# GULP energy per Si atom -12396.551903 kJ/mol
# Density = 2.207319 g / cm^3
# Si number density = 22.123543 Si / 1000 Ang^3
#
#
#
# Elastic Constant Matrix: (Units=GPa)
#
#
# Indices 1 2 3 4 5 6 
#
# 1 89.4874 55.9170 31.7684 0.0000 2.4754 0.0000
# 2 55.9170 118.4922 41.2056 0.0000 -0.7233 0.0000
# 3 31.7684 41.2056 128.6359 0.0000 3.4347 0.0000
# 4 0.0000 0.0000 0.0000 14.5202 0.0000 0.4737
# 5 2.4754 -0.7233 3.4347 0.0000 31.7064 0.0000
# 6 0.0000 0.0000 0.0000 0.4737 0.0000 34.2077
#
#
#
# Elastic Compliance Matrix: (Units=1/GPa)
#
#
# Indices 1 2 3 4 5 6 
#
# 1 0.016237 -0.007075 -0.001710 0.000000 -0.001244 0.000000
# 2 -0.007075 0.012590 -0.002315 0.000000 0.001090 0.000000
# 3 -0.001710 -0.002315 0.008961 0.000000 -0.000890 0.000000
# 4 0.000000 0.000000 0.000000 0.068901 0.000000 -0.000954
# 5 -0.001244 0.001090 -0.000890 0.000000 0.031758 0.000000
# 6 0.000000 0.000000 0.000000 -0.000954 0.000000 0.029246
#
#
# Mechanical properties :
#
#
# Convention : Reuss Voigt Hill
#
# Bulk Modulus (GPa) = 64.15188 66.04416 65.09802
# Shear Modulus (GPa) = 25.62912 29.93515 27.78214
#
# Velocity S-wave (km/s) = 3.40730 3.68243 3.54753
# Velocity P-wave (km/s) = 6.67380 6.92803 6.80210
#
# Compressibility (1/GPa) = 0.01558801
#
# Stress axis : x y z
#
# Youngs Moduli (GPa) = 61.58606 79.42935 111.58853
#
# Poissons Ratio (x) = 0.56199 0.19087
# Poissons Ratio (y) = 0.43574 0.25829
# Poissons Ratio (z) = 0.10534 0.18385
#
# Static dielectric constant tensor:
#      x y z
#    x 3.818340 0.000000 0.127830 
#    y 0.000000 4.107080 0.000000 
#    z 0.127830 0.000000 4.132170 
# 
# 
# High freq. dielectric constant tensor:
#      x y z
#    x 1.832910 0.000000 0.012720 
#    y 0.000000 1.869800 0.000000 
#    z 0.012720 0.000000 1.886850 
# 
# From -- ./inp_files/96685.got.cif
#   From: 2010.06.25/outbox.cif.g09.slc.cpg/sg13_49_cif.got.tgz:96685.got - 2010.06.28 04:50:58.
