data_PCOD8117708
_publ_section_title
;
Structure prediction by ZEFSAII (Michael W. Deem and Ramdas Pophale) SiO2 
 PCOD8117708
Probable space group: P 2/C
;
_chemical_formula_sum "Si O2"
_cell_formula_units_Z 32
_cell_length_a 9.545534
_cell_length_b 11.002456
_cell_length_c 22.294204
_cell_angle_alpha 90.000000
_cell_angle_beta 131.172822
_cell_angle_gamma 90.000000
_cell_volume 1762.460898
_symmetry_space_group_name_H-M "P 2/C"
_symmetry_group_IT_number 13
_symmetry_cell_setting 'monoclinic'
loop_
_space_group_symop_operation_xyz
x,y,z
-x,y,1/2-z
-x,-y,-z
x,-y,1/2+z
loop_
_atom_site_type_symbol
_atom_site_label
_atom_site_fract_x
_atom_site_fract_y
_atom_site_fract_z
Si Si1 0.963486 0.390068 0.406923
Si Si2 0.924715 0.348549 0.533906
Si Si3 0.904785 0.103393 0.896975
Si Si4 0.465616 0.756347 0.574974
Si Si5 0.344192 0.258261 0.254679
Si Si6 0.255683 0.799343 0.949214
Si Si7 0.062518 0.050273 0.202103
Si Si8 0.710245 0.994911 0.449217
O O1 0.012737 0.531409 0.413102
O O2 0.149345 0.313172 0.448964
O O3 0.896270 0.365849 0.455130
O O4 0.799215 0.355188 0.314369
O O5 0.724323 0.305476 0.500665
O O6 0.082395 0.248502 0.592528
O O7 0.730531 0.051273 0.886202
O O8 0.880860 0.068220 0.820517
O O9 0.090547 0.041787 0.973749
O O10 0.557181 0.686300 0.657929
O O11 0.593626 0.745547 0.553158
O O12 0.438164 0.896802 0.587775
O O13 0.500000 0.221498 0.250000
O O14 0.236826 0.140476 0.248915
O O15 0.114869 0.883339 0.874236
O O16 0.354980 0.881026 0.028345
O O17 0.000000 0.006518 0.250000
#
# Coordination Sequence:
#
# PCOD8117708 Si02
#       8
#     4   4   4   4   4   4   4   4
#     4  10  21  35  58  75 107 144 192 224 266 322
#     4  10  20  37  55  81 100 146 192 227 261 321
#     4   9  17  31  55  74 106 139 176 214 265 324
#     4  11  20  31  55  84 112 134 179 231 277 321
#     4  11  20  34  54  83 106 140 180 227 273 324
#     4  10  19  33  52  82 111 141 173 226 276 321
#     4  10  19  32  52  78 111 141 169 214 280 337
#     4   9  17  30  51  85 107 134 170 219 272 328
#
# _framework density 18.156431000000001
#
# number of rings (size 3 to 8) (size 9 to 14) (size 15 to 20)
#    0.000    2.000    3.750    1.125    3.500    0.500 
#    0.000    0.000    2.750    3.750    0.000    0.000 
#    0.000    0.000    0.000    0.000    0.000    0.000 
#
# Total GULP energy -396718.744720 kJ/mol
# GULP energy per Si atom -12397.460773 kJ/mol
# Density = 1.811511 g / cm^3
# Si number density = 18.156431 Si / 1000 Ang^3
#
#
#
# Elastic Constant Matrix: (Units=GPa)
#
#
# Indices 1 2 3 4 5 6 
#
# 1 103.0610 22.0086 27.2853 0.0000 -8.3102 0.0000
# 2 22.0086 98.5471 31.8575 0.0000 -5.1320 0.0000
# 3 27.2853 31.8575 56.8217 0.0000 -8.0045 0.0000
# 4 0.0000 0.0000 0.0000 16.0589 0.0000 -7.1110
# 5 -8.3102 -5.1320 -8.0045 0.0000 29.9596 0.0000
# 6 0.0000 0.0000 0.0000 -7.1110 0.0000 12.1671
#
#
#
# Elastic Compliance Matrix: (Units=1/GPa)
#
#
# Indices 1 2 3 4 5 6 
#
# 1 0.011271 -0.000924 -0.004651 0.000000 0.001725 0.000000
# 2 -0.000924 0.012472 -0.006530 0.000000 0.000136 0.000000
# 3 -0.004651 -0.006530 0.024060 0.000000 0.004019 0.000000
# 4 0.000000 0.000000 0.000000 0.084013 0.000000 0.049101
# 5 0.001725 0.000136 0.004019 0.000000 0.034954 0.000000
# 6 0.000000 0.000000 0.000000 0.049101 0.000000 0.110885
#
#
# Mechanical properties :
#
#
# Convention : Reuss Voigt Hill
#
# Bulk Modulus (GPa) = 42.38578 46.74805 44.56691
# Shear Modulus (GPa) = 16.14323 23.45569 19.79946
#
# Velocity S-wave (km/s) = 2.98504 3.59815 3.30584
# Velocity P-wave (km/s) = 5.93937 6.56244 6.25866
#
# Compressibility (1/GPa) = 0.02359282
#
# Stress axis : x y z
#
# Youngs Moduli (GPa) = 88.72515 80.18193 41.56356
#
# Poissons Ratio (x) = 0.07406 0.19332
# Poissons Ratio (y) = 0.08195 0.27140
# Poissons Ratio (z) = 0.41268 0.52356
#
# Static dielectric constant tensor:
#      x y z
#    x 3.553940 0.000000 -0.099810 
#    y 0.000000 3.290880 0.000000 
#    z -0.099810 0.000000 3.234500 
# 
# 
# High freq. dielectric constant tensor:
#      x y z
#    x 1.715880 0.000000 -0.005270 
#    y 0.000000 1.678760 0.000000 
#    z -0.005270 0.000000 1.683630 
# 
# From -- ./inp_files/85131.got.cif
#   From: 2010.06.25/outbox.cif.g09.slc.cpg/sg13_43_cif.got.tgz:85131.got - 2010.06.28 04:50:58.
