data_PCOD8117522
_publ_section_title
;
Structure prediction by ZEFSAII (Michael W. Deem and Ramdas Pophale) SiO2 
 PCOD8117522
Probable space group: P 2/C
;
_chemical_formula_sum "Si O2"
_cell_formula_units_Z 24
_cell_length_a 11.281659
_cell_length_b 7.910092
_cell_length_c 23.986612
_cell_angle_alpha 90.000000
_cell_angle_beta 146.338254
_cell_angle_gamma 90.000000
_cell_volume 1186.477619
_symmetry_space_group_name_H-M "P 2/C"
_symmetry_group_IT_number 13
_symmetry_cell_setting 'monoclinic'
loop_
_space_group_symop_operation_xyz
x,y,z
-x,y,1/2-z
-x,-y,-z
x,-y,1/2+z
loop_
_atom_site_type_symbol
_atom_site_label
_atom_site_fract_x
_atom_site_fract_y
_atom_site_fract_z
Si Si1 0.500000 0.510361 0.250000
Si Si2 0.000000 0.734931 0.750000
Si Si3 0.858582 0.092120 0.300933
Si Si4 0.589799 0.494594 0.096878
Si Si5 0.404809 0.755302 0.307510
Si Si6 0.168429 0.956411 0.019388
Si Si7 0.573585 0.283997 0.373212
O O1 0.361366 0.623005 0.239645
O O2 0.650008 0.389844 0.348262
O O3 0.011032 0.863691 0.703226
O O4 0.198191 0.611512 0.826926
O O5 0.665151 0.221311 0.235622
O O6 0.770294 0.901560 0.265684
O O7 0.038305 0.118186 0.417411
O O8 0.627523 0.674322 0.143256
O O9 0.420907 0.401168 0.070378
O O10 0.500000 0.500000 0.000000
O O11 0.646674 0.823001 0.392052
O O12 0.277943 0.133579 0.049093
O O13 0.000000 0.000000 0.000000
#
# Coordination Sequence:
#
# PCOD8117522 Si02
#       7
#     2   2   4   4   4   4   4
#     4  10  18  38  56  76 114 146 176 224 282 330
#     4  10  22  38  60  82 110 154 184 224 288 330
#     4  10  21  39  57  82 113 145 190 231 270 335
#     4  10  21  39  58  83 115 144 185 234 278 330
#     4  10  22  37  58  84 112 148 186 232 278 322
#     4  11  21  36  59  84 110 149 190 225 274 336
#     4   9  21  37  57  81 113 148 179 230 286 321
#
# _framework density 20.227943
#
# number of rings (size 3 to 8) (size 9 to 14) (size 15 to 20)
#    0.000    2.000    0.000    3.000    0.000    6.000 
#    0.000   23.333    0.000    0.000    0.000    0.000 
#    0.000    0.000    0.000    0.000    0.000    0.000 
#
# Total GULP energy -297395.014610 kJ/mol
# GULP energy per Si atom -12391.458942 kJ/mol
# Density = 2.018190 g / cm^3
# Si number density = 20.227943 Si / 1000 Ang^3
#
#
#
# Elastic Constant Matrix: (Units=GPa)
#
#
# Indices 1 2 3 4 5 6 
#
# 1 117.7673 25.3093 40.7767 0.0000 -24.9907 0.0000
# 2 25.3093 74.7610 10.8397 0.0000 -12.6263 0.0000
# 3 40.7767 10.8397 78.1323 0.0000 -18.5528 0.0000
# 4 0.0000 0.0000 0.0000 21.5907 0.0000 -5.0195
# 5 -24.9907 -12.6263 -18.5528 0.0000 39.3741 0.0000
# 6 0.0000 0.0000 0.0000 -5.0195 0.0000 37.6332
#
#
#
# Elastic Compliance Matrix: (Units=1/GPa)
#
#
# Indices 1 2 3 4 5 6 
#
# 1 0.011563 -0.002506 -0.004656 0.000000 0.004342 0.000000
# 2 -0.002506 0.014754 0.000008 0.000000 0.003144 0.000000
# 3 -0.004656 0.000008 0.016357 0.000000 0.004754 0.000000
# 4 0.000000 0.000000 0.000000 0.047798 0.000000 0.006375
# 5 0.004342 0.003144 0.004754 0.000000 0.031402 0.000000
# 6 0.000000 0.000000 0.000000 0.006375 0.000000 0.027423
#
#
# Mechanical properties :
#
#
# Convention : Reuss Voigt Hill
#
# Bulk Modulus (GPa) = 35.25491 47.16799 41.21145
# Shear Modulus (GPa) = 28.89141 32.63524 30.76333
#
# Velocity S-wave (km/s) = 3.78338 4.02104 3.90402
# Velocity P-wave (km/s) = 6.04582 6.70278 6.38275
#
# Compressibility (1/GPa) = 0.02836484
#
# Stress axis : x y z
#
# Youngs Moduli (GPa) = 86.47927 67.77669 61.13686
#
# Poissons Ratio (x) = 0.16987 0.28467
# Poissons Ratio (y) = 0.21674 -0.00047
# Poissons Ratio (z) = 0.40267 -0.00052
#
# Static dielectric constant tensor:
#      x y z
#    x 3.901190 0.000000 0.018710 
#    y 0.000000 3.877370 0.000000 
#    z 0.018710 0.000000 3.602090 
# 
# 
# High freq. dielectric constant tensor:
#      x y z
#    x 1.796210 0.000000 -0.014660 
#    y 0.000000 1.807110 0.000000 
#    z -0.014660 0.000000 1.776210 
# 
# From -- ./inp_files/32542.got.cif
#   From: 2010.06.25/outbox.cif.g09.slc.cpg/sg13_17_cif.got.tgz:32542.got - 2010.06.28 04:50:58.
