data_PCOD8117853
_publ_section_title
;
Structure prediction by ZEFSAII (Michael W. Deem and Ramdas Pophale) SiO2 
 PCOD8117853
Probable space group: P 2/C
;
_chemical_formula_sum "Si O2"
_cell_formula_units_Z 20
_cell_length_a 26.816114
_cell_length_b 7.339777
_cell_length_c 5.024000
_cell_angle_alpha 90.000000
_cell_angle_beta 78.351718
_cell_angle_gamma 90.000000
_cell_volume 968.480451
_symmetry_space_group_name_H-M "P 2/C"
_symmetry_group_IT_number 13
_symmetry_cell_setting 'monoclinic'
loop_
_space_group_symop_operation_xyz
x,y,z
-x,y,1/2-z
-x,-y,-z
x,-y,1/2+z
loop_
_atom_site_type_symbol
_atom_site_label
_atom_site_fract_x
_atom_site_fract_y
_atom_site_fract_z
Si Si1 0.000000 0.370593 0.750000
Si Si2 0.894356 0.618987 0.266356
Si Si3 0.690283 0.878235 0.506572
Si Si4 0.500000 0.127982 0.250000
Si Si5 0.783966 0.374498 0.973594
Si Si6 0.403459 0.380298 0.305855
O O1 0.945685 0.260240 0.785446
O O2 0.000000 0.500000 0.500000
O O3 0.895739 0.439740 0.455938
O O4 0.840450 0.717005 0.384337
O O5 0.745722 0.791424 0.477090
O O6 0.649212 0.722091 0.594553
O O7 0.683092 0.957329 0.220083
O O8 0.450189 0.249813 0.314105
O O9 0.500000 0.000000 0.500000
O O10 0.775718 0.536010 0.770375
O O11 0.406338 0.552021 0.499882
#
# Coordination Sequence:
#
# PCOD8117853 Si02
#       6
#     2   4   4   2   4   4
#     4   8  12  20  34  60  92 122 154 204 260 306
#     4   8  14  23  40  64  94 125 162 208 260 309
#     4  12  24  39  57  82 111 144 181 226 275 321
#     4  12  24  42  64  92 124 152 182 224 270 318
#     4  10  19  34  53  76 103 138 177 220 267 322
#     4  12  24  42  64  88 115 150 189 226 266 318
#
# _framework density 20.650908000000001
#
# number of rings (size 3 to 8) (size 9 to 14) (size 15 to 20)
#    0.000    1.600    0.000    6.600    0.000    0.000 
#    0.000    0.000    0.000    0.000    0.000    1.400 
#    0.000    0.000    0.000    0.000    0.000    0.000 
#
# Total GULP energy -247858.295029 kJ/mol
# GULP energy per Si atom -12392.914751 kJ/mol
# Density = 2.060391 g / cm^3
# Si number density = 20.650908 Si / 1000 Ang^3
#
#
#
# Elastic Constant Matrix: (Units=GPa)
#
#
# Indices 1 2 3 4 5 6 
#
# 1 161.7764 40.7360 19.4395 0.0000 -12.0081 0.0000
# 2 40.7360 56.3421 13.7346 0.0000 -5.3029 0.0000
# 3 19.4395 13.7346 91.1182 0.0000 4.7269 0.0000
# 4 0.0000 0.0000 0.0000 39.9706 0.0000 -5.9321
# 5 -12.0081 -5.3029 4.7269 0.0000 30.3157 0.0000
# 6 0.0000 0.0000 0.0000 -5.9321 0.0000 123.7080
#
#
#
# Elastic Compliance Matrix: (Units=1/GPa)
#
#
# Indices 1 2 3 4 5 6 
#
# 1 0.007773 -0.005156 -0.001002 0.000000 0.002333 0.000000
# 2 -0.005156 0.022264 -0.002371 0.000000 0.002222 0.000000
# 3 -0.001002 -0.002371 0.011683 0.000000 -0.002633 0.000000
# 4 0.000000 0.000000 0.000000 0.025198 0.000000 0.001208
# 5 0.002333 0.002222 -0.002633 0.000000 0.034710 0.000000
# 6 0.000000 0.000000 0.000000 0.001208 0.000000 0.008141
#
#
# Mechanical properties :
#
#
# Convention : Reuss Voigt Hill
#
# Bulk Modulus (GPa) = 40.55052 50.78409 45.66731
# Shear Modulus (GPa) = 37.02380 54.48731 45.75556
#
# Velocity S-wave (km/s) = 4.23879 5.14220 4.71219
# Velocity P-wave (km/s) = 6.60570 7.73960 7.19502
#
# Compressibility (1/GPa) = 0.02466060
#
# Stress axis : x y z
#
# Youngs Moduli (GPa) = 128.64422 44.91573 85.59750
#
# Poissons Ratio (x) = 0.23160 0.08579
# Poissons Ratio (y) = 0.66333 0.20296
# Poissons Ratio (z) = 0.12893 0.10650
#
# Static dielectric constant tensor:
#      x y z
#    x 4.580520 0.000000 -0.067890 
#    y 0.000000 3.173620 0.000000 
#    z -0.067890 0.000000 4.015890 
# 
# 
# High freq. dielectric constant tensor:
#      x y z
#    x 1.848990 0.000000 -0.000500 
#    y 0.000000 1.742710 0.000000 
#    z -0.000500 0.000000 1.834730 
# 
# From -- ./inp_files/7632.got.cif
#   From: 2010.06.25/outbox.cif.g09.slc.cpg/sg13_4_cif.got.tgz:7632.got - 2010.06.28 04:50:58.
