data_PCOD8117837
_publ_section_title
;
Structure prediction by ZEFSAII (Michael W. Deem and Ramdas Pophale) SiO2 
 PCOD8117837
Probable space group: P 2/C
;
_chemical_formula_sum "Si O2"
_cell_formula_units_Z 28
_cell_length_a 7.913400
_cell_length_b 11.539422
_cell_length_c 13.440484
_cell_angle_alpha 90.000000
_cell_angle_beta 76.441915
_cell_angle_gamma 90.000000
_cell_volume 1193.129713
_symmetry_space_group_name_H-M "P 2/C"
_symmetry_group_IT_number 13
_symmetry_cell_setting 'monoclinic'
loop_
_space_group_symop_operation_xyz
x,y,z
-x,y,1/2-z
-x,-y,-z
x,-y,1/2+z
loop_
_atom_site_type_symbol
_atom_site_label
_atom_site_fract_x
_atom_site_fract_y
_atom_site_fract_z
Si Si1 0.671521 0.300209 0.607193
Si Si2 0.996070 0.142355 0.900388
Si Si3 0.500000 0.516777 0.250000
Si Si4 0.367587 0.135799 0.608873
Si Si5 0.331094 0.350104 0.121505
Si Si6 0.000000 0.715077 0.750000
Si Si7 0.149579 0.093621 0.366002
Si Si8 0.478121 0.890157 0.629791
O O1 0.856947 0.237999 0.597375
O O2 0.659098 0.402907 0.689865
O O3 0.506799 0.214487 0.648990
O O4 0.653343 0.355521 0.499537
O O5 0.831526 0.187287 0.855161
O O6 0.085486 0.031497 0.835285
O O7 0.897208 0.099335 0.011940
O O8 0.454664 0.441866 0.158777
O O9 0.434330 0.128721 0.488269
O O10 0.360606 0.004938 0.651992
O O11 0.136711 0.375105 0.184862
O O12 0.360560 0.221984 0.163232
O O13 0.941004 0.796941 0.668979
O O14 0.358765 0.100799 0.315779
#
# Coordination Sequence:
#
# PCOD8117837 Si02
#       8
#     4   4   2   4   4   2   4   4
#     4  11  23  48  71  96 140 183 228 289 350 407
#     4  10  19  38  64  98 140 181 213 269 346 418
#     4  12  28  50  68  96 126 190 250 294 342 400
#     4   9  18  34  67 105 133 173 216 266 353 428
#     4  11  24  45  71  96 134 179 235 297 343 400
#     4  12  22  38  64 108 132 176 228 286 346 420
#     4  10  19  33  62 101 143 172 216 269 340 426
#     4   9  17  35  65  97 135 175 215 274 343 418
#
# _framework density 23.467690000000001
#
# number of rings (size 3 to 8) (size 9 to 14) (size 15 to 20)
#    0.000    1.714    2.857    2.143    4.000    0.000 
#    7.714    0.714    0.000    0.000    0.000    0.000 
#    0.000    0.000    0.000    0.000    0.000    0.000 
#
# Total GULP energy -347039.972996 kJ/mol
# GULP energy per Si atom -12394.284750 kJ/mol
# Density = 2.341428 g / cm^3
# Si number density = 23.467690 Si / 1000 Ang^3
#
#
#
# Elastic Constant Matrix: (Units=GPa)
#
#
# Indices 1 2 3 4 5 6 
#
# 1 158.0360 39.8528 12.5451 0.0000 -16.2046 0.0000
# 2 39.8528 92.7946 26.1786 0.0000 -4.5339 0.0000
# 3 12.5451 26.1786 51.4710 0.0000 0.3276 0.0000
# 4 0.0000 0.0000 0.0000 27.0074 0.0000 -0.7988
# 5 -16.2046 -4.5339 0.3276 0.0000 34.1035 0.0000
# 6 0.0000 0.0000 0.0000 -0.7988 0.0000 15.8117
#
#
#
# Elastic Compliance Matrix: (Units=1/GPa)
#
#
# Indices 1 2 3 4 5 6 
#
# 1 0.007417 -0.002938 -0.000333 0.000000 0.003137 0.000000
# 2 -0.002938 0.013849 -0.006331 0.000000 0.000506 0.000000
# 3 -0.000333 -0.006331 0.022737 0.000000 -0.001218 0.000000
# 4 0.000000 0.000000 0.000000 0.037082 0.000000 0.001873
# 5 0.003137 0.000506 -0.001218 0.000000 0.030892 0.000000
# 6 0.000000 0.000000 0.000000 0.001873 0.000000 0.063339
#
#
# Mechanical properties :
#
#
# Convention : Reuss Voigt Hill
#
# Bulk Modulus (GPa) = 40.32480 51.05051 45.68765
# Shear Modulus (GPa) = 24.65646 30.29953 27.47799
#
# Velocity S-wave (km/s) = 3.24490 3.59711 3.42553
# Velocity P-wave (km/s) = 5.59103 6.24924 5.92927
#
# Compressibility (1/GPa) = 0.02479864
#
# Stress axis : x y z
#
# Youngs Moduli (GPa) = 134.83194 72.20735 43.98042
#
# Poissons Ratio (x) = 0.21214 0.01466
# Poissons Ratio (y) = 0.39613 0.27844
# Poissons Ratio (z) = 0.04495 0.45714
#
# Static dielectric constant tensor:
#      x y z
#    x 4.598610 0.000000 -0.014780 
#    y 0.000000 3.983020 0.000000 
#    z -0.014780 0.000000 4.320000 
# 
# 
# High freq. dielectric constant tensor:
#      x y z
#    x 1.936190 0.000000 -0.007150 
#    y 0.000000 1.893230 0.000000 
#    z -0.007150 0.000000 1.958210 
# 
# From -- ./inp_files/46918.got.cif
#   From: 2010.06.25/outbox.cif.g09.slc.cpg/sg13_24_cif.got.tgz:46918.got - 2010.06.28 04:50:58.
