data_PCOD8117190
_publ_section_title
;
Structure prediction by ZEFSAII (Michael W. Deem and Ramdas Pophale) SiO2 
 PCOD8117190
Probable space group: P 2/C
;
_chemical_formula_sum "Si O2"
_cell_formula_units_Z 32
_cell_length_a 21.411390
_cell_length_b 9.413880
_cell_length_c 26.481085
_cell_angle_alpha 90.000000
_cell_angle_beta 17.955810
_cell_angle_gamma 90.000000
_cell_volume 1645.505814
_symmetry_space_group_name_H-M "P 2/C"
_symmetry_group_IT_number 13
_symmetry_cell_setting 'monoclinic'
loop_
_space_group_symop_operation_xyz
x,y,z
-x,y,1/2-z
-x,-y,-z
x,-y,1/2+z
loop_
_atom_site_type_symbol
_atom_site_label
_atom_site_fract_x
_atom_site_fract_y
_atom_site_fract_z
Si Si1 0.399162 0.345884 0.695492
Si Si2 0.482552 0.895842 0.321567
Si Si3 0.910366 0.981668 0.497893
Si Si4 0.036097 0.236878 0.466503
Si Si5 0.525697 0.763133 0.471702
Si Si6 0.766066 0.104161 0.929812
Si Si7 0.520546 0.345881 0.384800
Si Si8 0.777324 0.981672 0.814410
O O1 0.522927 0.239873 0.637006
O O2 0.418513 0.320922 0.621144
O O3 0.501306 0.500004 0.624351
O O4 0.159510 0.336637 0.893524
O O5 0.500000 0.844717 0.250000
O O6 0.290923 0.999994 0.479544
O O7 0.674083 0.993322 0.187044
O O8 0.040063 0.098297 0.428368
O O9 0.962535 0.823039 0.477146
O O10 0.984237 0.000002 0.382882
O O11 0.240125 0.320902 0.299525
O O12 0.552634 0.663361 0.500400
O O13 0.666362 0.901697 0.365203
O O14 0.296189 0.823042 0.643496
O O15 0.729584 0.006689 0.909287
O O16 0.000000 0.155269 0.750000
O O17 0.616798 0.239871 0.043135
#
# Coordination Sequence:
#
# PCOD8117190 Si02
#       8
#     4   4   4   4   4   4   4   4
#     4  11  22  38  60  89 124 158 190 237 301 361
#     4  11  23  40  62  84 112 155 207 248 283 339
#     4  10  18  32  59  89 116 146 191 246 291 340
#     4  10  19  32  58  90 121 150 186 236 299 357
#     4  10  19  32  58  90 121 150 186 236 299 357
#     4  11  23  40  62  84 112 155 207 248 283 339
#     4  11  22  38  60  89 124 158 190 237 301 361
#     4  10  18  32  59  89 116 146 191 246 291 340
#
# _framework density 19.446909000000002
#
# number of rings (size 3 to 8) (size 9 to 14) (size 15 to 20)
#    0.000    1.500    5.000    1.500    0.000    0.000 
#    0.000    1.250    0.000    0.000    0.000    0.000 
#    0.000    0.000    0.000    0.000    0.000    0.000 
#
# Total GULP energy -396567.149890 kJ/mol
# GULP energy per Si atom -12392.723434 kJ/mol
# Density = 1.940265 g / cm^3
# Si number density = 19.446909 Si / 1000 Ang^3
#
#
#
# Elastic Constant Matrix: (Units=GPa)
#
#
# Indices 1 2 3 4 5 6 
#
# 1 67.5436 32.5789 16.2509 0.0000 5.8053 0.0000
# 2 32.5789 98.2512 34.6727 0.0000 1.4420 0.0000
# 3 16.2509 34.6727 85.6910 0.0000 6.7460 0.0000
# 4 0.0000 0.0000 0.0000 23.0934 0.0000 4.8964
# 5 5.8053 1.4420 6.7460 0.0000 30.4873 0.0000
# 6 0.0000 0.0000 0.0000 4.8964 0.0000 16.0195
#
#
#
# Elastic Compliance Matrix: (Units=1/GPa)
#
#
# Indices 1 2 3 4 5 6 
#
# 1 0.017978 -0.005596 -0.000912 0.000000 -0.002957 0.000000
# 2 -0.005596 0.013623 -0.004564 0.000000 0.001431 0.000000
# 3 -0.000912 -0.004564 0.013901 0.000000 -0.002686 0.000000
# 4 0.000000 0.000000 0.000000 0.046303 0.000000 -0.014153
# 5 -0.002957 0.001431 -0.002686 0.000000 0.033890 0.000000
# 6 0.000000 0.000000 0.000000 -0.014153 0.000000 0.066750
#
#
# Mechanical properties :
#
#
# Convention : Reuss Voigt Hill
#
# Bulk Modulus (GPa) = 42.81186 46.49898 44.65542
# Shear Modulus (GPa) = 22.48450 25.11891 23.80171
#
# Velocity S-wave (km/s) = 3.40398 3.59787 3.50227
# Velocity P-wave (km/s) = 6.12470 6.42045 6.27432
#
# Compressibility (1/GPa) = 0.02335801
#
# Stress axis : x y z
#
# Youngs Moduli (GPa) = 55.62338 73.40512 71.93775
#
# Poissons Ratio (x) = 0.41077 0.06564
# Poissons Ratio (y) = 0.31126 0.32830
# Poissons Ratio (z) = 0.05075 0.33499
#
# Static dielectric constant tensor:
#      x y z
#    x 3.385400 0.000000 0.158920 
#    y 0.000000 3.394380 0.000000 
#    z 0.158920 0.000000 3.615190 
# 
# 
# High freq. dielectric constant tensor:
#      x y z
#    x 1.742590 0.000000 0.016350 
#    y 0.000000 1.731540 0.000000 
#    z 0.016350 0.000000 1.766240 
# 
# From -- ./inp_files/91294.got.cif
#   From: 2010.06.25/outbox.cif.g09.slc.cpg/sg13_46_cif.got.tgz:91294.got - 2010.06.28 04:50:58.
