data_PCOD8117165
_publ_section_title
;
Structure prediction by ZEFSAII (Michael W. Deem and Ramdas Pophale) SiO2 
 PCOD8117165
Probable space group: P 2/C
;
_chemical_formula_sum "Si O2"
_cell_formula_units_Z 26
_cell_length_a 14.028581
_cell_length_b 10.962068
_cell_length_c 17.245016
_cell_angle_alpha 90.000000
_cell_angle_beta 148.656435
_cell_angle_gamma 90.000000
_cell_volume 1379.475568
_symmetry_space_group_name_H-M "P 2/C"
_symmetry_group_IT_number 13
_symmetry_cell_setting 'monoclinic'
loop_
_space_group_symop_operation_xyz
x,y,z
-x,y,1/2-z
-x,-y,-z
x,-y,1/2+z
loop_
_atom_site_type_symbol
_atom_site_label
_atom_site_fract_x
_atom_site_fract_y
_atom_site_fract_z
Si Si1 0.542854 0.713365 0.943589
Si Si2 0.631857 0.513324 0.248111
Si Si3 0.781355 0.322944 0.464660
Si Si4 0.775837 0.133771 0.323311
Si Si5 0.500000 0.719248 0.250000
Si Si6 0.180721 0.311986 0.726040
Si Si7 0.816590 0.128831 0.906804
O O1 0.460150 0.579261 0.875251
O O2 0.664986 0.738317 0.952088
O O3 0.390961 0.821654 0.848349
O O4 0.658585 0.707834 0.101494
O O5 0.696130 0.451489 0.374641
O O6 0.499076 0.629514 0.174478
O O7 0.799969 0.570956 0.316898
O O8 0.779642 0.237724 0.389664
O O9 0.990114 0.335929 0.638770
O O10 0.972530 0.126691 0.414826
O O11 0.735268 0.005857 0.336996
O O12 0.316014 0.802061 0.124297
O O13 0.177502 0.189297 0.673545
#
# Coordination Sequence:
#
# PCOD8117165 Si02
#       7
#     4   4   4   4   2   4   4
#     4  11  20  33  54  80 111 138 175 220 269 319
#     4  10  18  35  51  76 107 139 181 217 260 317
#     4  10  19  34  56  78 104 141 184 219 251 319
#     4   9  19  36  55  79 103 140 183 218 263 311
#     4  10  18  32  56  78 102 132 180 224 254 300
#     4  10  21  33  52  81 110 141 171 219 277 309
#     4   9  20  35  56  79 104 137 183 222 257 323
#
# _framework density 18.847742
#
# number of rings (size 3 to 8) (size 9 to 14) (size 15 to 20)
#    0.000    2.154    1.538    2.769    2.154    1.846 
#    0.000    0.000    0.000    2.769    0.000    0.000 
#    0.000    0.000    0.000    0.000    0.000    0.000 
#
# Total GULP energy -322169.110070 kJ/mol
# GULP energy per Si atom -12391.119618 kJ/mol
# Density = 1.880484 g / cm^3
# Si number density = 18.847742 Si / 1000 Ang^3
#
#
#
# Elastic Constant Matrix: (Units=GPa)
#
#
# Indices 1 2 3 4 5 6 
#
# 1 60.3357 20.8975 31.3582 0.0000 23.7684 0.0000
# 2 20.8975 89.9072 40.4617 0.0000 23.1635 0.0000
# 3 31.3582 40.4617 112.0720 0.0000 15.3054 0.0000
# 4 0.0000 0.0000 0.0000 16.2800 0.0000 9.3719
# 5 23.7684 23.1635 15.3054 0.0000 32.4418 0.0000
# 6 0.0000 0.0000 0.0000 9.3719 0.0000 25.4267
#
#
#
# Elastic Compliance Matrix: (Units=1/GPa)
#
#
# Indices 1 2 3 4 5 6 
#
# 1 0.025638 0.000689 -0.005120 0.000000 -0.016860 0.000000
# 2 0.000689 0.015391 -0.004468 0.000000 -0.009386 0.000000
# 3 -0.005120 -0.004468 0.011779 0.000000 0.001384 0.000000
# 4 0.000000 0.000000 0.000000 0.077969 0.000000 -0.028738
# 5 -0.016860 -0.009386 0.001384 0.000000 0.049226 0.000000
# 6 0.000000 0.000000 0.000000 -0.028738 0.000000 0.049921
#
#
# Mechanical properties :
#
#
# Convention : Reuss Voigt Hill
#
# Bulk Modulus (GPa) = 28.56205 49.74995 39.15600
# Shear Modulus (GPa) = 19.27579 26.13620 22.70599
#
# Velocity S-wave (km/s) = 3.20145 3.72788 3.47465
# Velocity P-wave (km/s) = 5.37147 6.70690 6.07599
#
# Compressibility (1/GPa) = 0.03501149
#
# Stress axis : x y z
#
# Youngs Moduli (GPa) = 39.00449 64.97139 84.89420
#
# Poissons Ratio (x) = -0.04475 0.43464
# Poissons Ratio (y) = -0.02686 0.37928
# Poissons Ratio (z) = 0.19969 0.29027
#
# Static dielectric constant tensor:
#      x y z
#    x 3.460610 0.000000 0.494460 
#    y 0.000000 3.602360 0.000000 
#    z 0.494460 0.000000 3.651630 
# 
# 
# High freq. dielectric constant tensor:
#      x y z
#    x 1.722440 0.000000 0.031710 
#    y 0.000000 1.739440 0.000000 
#    z 0.031710 0.000000 1.714400 
# 
# From -- ./inp_files/46691.got.cif
#   From: 2010.06.25/outbox.cif.g09.slc.cpg/sg13_24_cif.got.tgz:46691.got - 2010.06.28 04:50:58.
