data_PCOD8117660
_publ_section_title
;
Structure prediction by ZEFSAII (Michael W. Deem and Ramdas Pophale) SiO2 
 PCOD8117660
Probable space group: P 2/C
;
_chemical_formula_sum "Si O2"
_cell_formula_units_Z 20
_cell_length_a 25.322507
_cell_length_b 8.428904
_cell_length_c 5.030240
_cell_angle_alpha 90.000000
_cell_angle_beta 90.057829
_cell_angle_gamma 90.000000
_cell_volume 1073.658811
_symmetry_space_group_name_H-M "P 2/C"
_symmetry_group_IT_number 13
_symmetry_cell_setting 'monoclinic'
loop_
_space_group_symop_operation_xyz
x,y,z
-x,y,1/2-z
-x,-y,-z
x,-y,1/2+z
loop_
_atom_site_type_symbol
_atom_site_label
_atom_site_fract_x
_atom_site_fract_y
_atom_site_fract_z
Si Si1 0.439894 0.602963 0.224773
Si Si2 0.831994 0.608079 0.271458
Si Si3 0.633626 0.101942 0.774546
Si Si4 0.945903 0.603095 0.178141
Si Si5 0.244743 0.896876 0.227998
O O1 0.500000 0.663535 0.250000
O O2 0.428508 0.461402 0.430667
O O3 0.401850 0.747538 0.289293
O O4 0.824992 0.535491 0.563741
O O5 0.890260 0.690421 0.239236
O O6 0.788709 0.740507 0.218440
O O7 0.694361 0.154800 0.748021
O O8 0.620520 0.963165 0.565943
O O9 0.947243 0.447392 0.370228
O O10 0.000000 0.702319 0.250000
O O11 0.230952 0.032055 0.441475
#
# Coordination Sequence:
#
# PCOD8117660 Si02
#       5
#     4   4   4   4   4
#     4  10  21  36  54  78 106 132 160 202 253 292
#     4  10  19  31  51  76  96 124 169 207 239 290
#     4  10  21  36  54  75  99 133 172 202 237 292
#     4   8  14  25  42  66  94 120 152 199 244 280
#     4  10  21  36  51  71 103 135 161 200 253 294
#
# _framework density 18.627889
#
# number of rings (size 3 to 8) (size 9 to 14) (size 15 to 20)
#    0.000    2.400    0.000    2.400    0.000    2.400 
#    0.000    0.000    0.000    1.200    0.000    0.000 
#    0.000    0.000    0.000    0.000    0.000    0.000 
#
# Total GULP energy -247937.380379 kJ/mol
# GULP energy per Si atom -12396.869019 kJ/mol
# Density = 1.858549 g / cm^3
# Si number density = 18.627889 Si / 1000 Ang^3
#
#
#
# Elastic Constant Matrix: (Units=GPa)
#
#
# Indices 1 2 3 4 5 6 
#
# 1 120.1792 65.6883 23.3342 0.0000 -0.6672 0.0000
# 2 65.6883 62.7078 4.4961 0.0000 -0.8466 0.0000
# 3 23.3342 4.4961 77.2759 0.0000 -1.8910 0.0000
# 4 0.0000 0.0000 0.0000 11.8382 0.0000 1.6821
# 5 -0.6672 -0.8466 -1.8910 0.0000 24.2553 0.0000
# 6 0.0000 0.0000 0.0000 1.6821 0.0000 -28.0705
#
#
#
# Elastic Compliance Matrix: (Units=1/GPa)
#
#
# Indices 1 2 3 4 5 6 
#
# 1 0.021348 -0.021999 -0.005181 0.000000 -0.000585 0.000000
# 2 -0.021999 0.038689 0.004418 0.000000 0.001090 0.000000
# 3 -0.005181 0.004418 0.014275 0.000000 0.001125 0.000000
# 4 0.000000 0.000000 0.000000 0.083759 0.000000 0.005019
# 5 -0.000585 0.001090 0.001125 0.000000 0.041338 0.000000
# 6 0.000000 0.000000 0.000000 0.005019 0.000000 -0.035324
#
#
# Mechanical properties :
#
#
# Convention : Reuss Voigt Hill
#
# Bulk Modulus (GPa) = 34.73361 49.68889 42.21125
# Shear Modulus (GPa) = 22.80969 12.71422 17.76196
#
# Velocity S-wave (km/s) = 3.50307 2.61538 3.09125
# Velocity P-wave (km/s) = 5.92018 5.98771 5.95404
#
# Compressibility (1/GPa) = 0.02879056
#
# Stress axis : x y z
#
# Youngs Moduli (GPa) = 46.84307 25.84682 70.05057
#
# Poissons Ratio (x) = 0.56860 0.36290
# Poissons Ratio (y) = 1.03050 -0.30951
# Poissons Ratio (z) = 0.24267 -0.11420
#
# Static dielectric constant tensor:
#      x y z
#    x 3.764020 0.000000 -0.005180 
#    y 0.000000 2.810610 0.000000 
#    z -0.005180 0.000000 3.606740 
# 
# 
# High freq. dielectric constant tensor:
#      x y z
#    x 1.740630 0.000000 -0.000860 
#    y 0.000000 1.667610 0.000000 
#    z -0.000860 0.000000 1.748330 
# 
# From -- ./inp_files/6667.got.cif
#   From: 2010.06.25/outbox.cif.g09.slc.cpg/sg13_4_cif.got.tgz:6667.got - 2010.06.28 04:50:58.
