data_PCOD8117755
_publ_section_title
;
Structure prediction by ZEFSAII (Michael W. Deem and Ramdas Pophale) SiO2 
 PCOD8117755
Probable space group: P 2/C
;
_chemical_formula_sum "Si O2"
_cell_formula_units_Z 30
_cell_length_a 15.354190
_cell_length_b 20.191067
_cell_length_c 5.075056
_cell_angle_alpha 90.000000
_cell_angle_beta 110.451522
_cell_angle_gamma 90.000000
_cell_volume 1474.184546
_symmetry_space_group_name_H-M "P 2/C"
_symmetry_group_IT_number 13
_symmetry_cell_setting 'monoclinic'
loop_
_space_group_symop_operation_xyz
x,y,z
-x,y,1/2-z
-x,-y,-z
x,-y,1/2+z
loop_
_atom_site_type_symbol
_atom_site_label
_atom_site_fract_x
_atom_site_fract_y
_atom_site_fract_z
Si Si1 0.171059 0.959680 0.527949
Si Si2 0.335059 0.245358 0.047243
Si Si3 0.390002 0.041090 0.293454
Si Si4 0.291802 0.675968 0.000818
Si Si5 0.902259 0.738368 0.723748
Si Si6 0.142138 0.183141 0.830929
Si Si7 0.500000 0.157386 0.250000
Si Si8 0.606028 0.542802 0.349588
O O1 0.280638 0.946374 0.663550
O O2 0.119568 0.892925 0.378943
O O3 0.141344 0.983678 0.786915
O O4 0.346881 0.279716 0.345160
O O5 0.424664 0.205582 0.037944
O O6 0.318019 0.303100 0.821717
O O7 0.251905 0.193263 0.978999
O O8 0.443318 0.110905 0.395884
O O9 0.421075 0.988926 0.546175
O O10 0.320892 0.600022 0.002052
O O11 0.179980 0.684093 0.852890
O O12 0.884001 0.797726 0.495331
O O13 0.000000 0.703115 0.750000
O O14 0.913656 0.771050 0.022742
O O15 0.500000 0.569814 0.250000
O O16 0.623776 0.484001 0.575292
#
# Coordination Sequence:
#
# PCOD8117755 Si02
#       8
#     4   4   4   4   4   4   2   4
#     4  10  19  33  52  72  99 140 181 228 284 337
#     4  10  23  33  53  80 111 154 176 237 273 333
#     4  10  22  35  49  69 101 143 190 235 275 334
#     4  10  22  40  57  86 119 144 190 228 278 313
#     4  10  21  37  64  85 108 142 178 230 288 344
#     4  10  19  38  53  81 109 136 186 224 288 342
#     4  12  22  36  50  76 112 144 194 230 284 334
#     4  10  21  37  60  86 118 162 197 219 250 305
#
# _framework density 20.350231999999998
#
# number of rings (size 3 to 8) (size 9 to 14) (size 15 to 20)
#    0.000    1.867    1.333    2.400    1.867    2.133 
#    0.000    0.000    0.000    8.800    0.000    0.000 
#    0.000    0.000    0.000    0.000    0.000    0.000 
#
# Total GULP energy -371932.144680 kJ/mol
# GULP energy per Si atom -12397.738156 kJ/mol
# Density = 2.030391 g / cm^3
# Si number density = 20.350232 Si / 1000 Ang^3
#
#
#
# Elastic Constant Matrix: (Units=GPa)
#
#
# Indices 1 2 3 4 5 6 
#
# 1 74.6262 33.5008 19.4711 0.0000 0.7988 0.0000
# 2 33.5008 85.8727 16.3774 0.0000 12.0592 0.0000
# 3 19.4711 16.3774 79.5067 0.0000 -13.5838 0.0000
# 4 0.0000 0.0000 0.0000 16.0038 0.0000 -0.9322
# 5 0.7988 12.0592 -13.5838 0.0000 23.0866 0.0000
# 6 0.0000 0.0000 0.0000 -0.9322 0.0000 10.6805
#
#
#
# Elastic Compliance Matrix: (Units=1/GPa)
#
#
# Indices 1 2 3 4 5 6 
#
# 1 0.016881 -0.006233 -0.002661 0.000000 0.001106 0.000000
# 2 -0.006233 0.016216 -0.003584 0.000000 -0.010364 0.000000
# 3 -0.002661 -0.003584 0.015902 0.000000 0.011321 0.000000
# 4 0.000000 0.000000 0.000000 0.062805 0.000000 0.005482
# 5 0.001106 -0.010364 0.011321 0.000000 0.055351 0.000000
# 6 0.000000 0.000000 0.000000 0.005482 0.000000 0.094107
#
#
# Mechanical properties :
#
#
# Convention : Reuss Voigt Hill
#
# Bulk Modulus (GPa) = 41.59603 42.07825 41.83714
# Shear Modulus (GPa) = 16.99333 21.33126 19.16229
#
# Velocity S-wave (km/s) = 2.89285 3.24112 3.07192
# Velocity P-wave (km/s) = 5.62517 5.89308 5.76068
#
# Compressibility (1/GPa) = 0.02404076
#
# Stress axis : x y z
#
# Youngs Moduli (GPa) = 59.23867 61.66785 62.88612
#
# Poissons Ratio (x) = 0.38440 0.16735
# Poissons Ratio (y) = 0.36926 0.22541
# Poissons Ratio (z) = 0.15764 0.22104
#
# Static dielectric constant tensor:
#      x y z
#    x 3.779700 0.000000 -0.039530 
#    y 0.000000 3.327210 0.000000 
#    z -0.039530 0.000000 3.713440 
# 
# 
# High freq. dielectric constant tensor:
#      x y z
#    x 1.795400 0.000000 -0.005290 
#    y 0.000000 1.763370 0.000000 
#    z -0.005290 0.000000 1.802140 
# 
# From -- ./inp_files/5250.got.cif
#   From: 2010.06.25/outbox.cif.g09.slc.cpg/sg13_3_cif.got.tgz:5250.got - 2010.06.28 04:50:58.
