data_PCOD8117293
_publ_section_title
;
Structure prediction by ZEFSAII (Michael W. Deem and Ramdas Pophale) SiO2 
 PCOD8117293
Probable space group: P 2/C
;
_chemical_formula_sum "Si O2"
_cell_formula_units_Z 28
_cell_length_a 21.192428
_cell_length_b 14.405363
_cell_length_c 9.382250
_cell_angle_alpha 90.000000
_cell_angle_beta 149.390273
_cell_angle_gamma 90.000000
_cell_volume 1458.443762
_symmetry_space_group_name_H-M "P 2/C"
_symmetry_group_IT_number 13
_symmetry_cell_setting 'monoclinic'
loop_
_space_group_symop_operation_xyz
x,y,z
-x,y,1/2-z
-x,-y,-z
x,-y,1/2+z
loop_
_atom_site_type_symbol
_atom_site_label
_atom_site_fract_x
_atom_site_fract_y
_atom_site_fract_z
Si Si1 0.661216 0.162152 0.461610
Si Si2 0.241077 0.690306 0.528281
Si Si3 0.615168 0.793688 0.176901
Si Si4 0.720022 0.644435 0.578839
Si Si5 0.989026 0.592429 0.066099
Si Si6 0.412514 0.963885 0.208714
Si Si7 0.414581 0.542311 0.713672
O O1 0.756450 0.206125 0.533462
O O2 0.690569 0.204005 0.675331
O O3 0.676976 0.050325 0.505961
O O4 0.526941 0.190789 0.140566
O O5 0.285235 0.694348 0.777922
O O6 0.331585 0.625757 0.610649
O O7 0.099468 0.660355 0.237698
O O8 0.633728 0.696451 0.295420
O O9 0.662438 0.874944 0.377088
O O10 0.674531 0.539535 0.515916
O O11 0.858961 0.644099 0.785546
O O12 0.000000 0.561696 0.250000
O O13 0.000000 0.500000 0.000000
O O14 0.500000 0.931588 0.250000
O O15 0.500000 0.000000 0.500000
O O16 0.500000 0.580082 0.750000
O O17 0.500000 0.500000 0.000000
#
# Coordination Sequence:
#
# PCOD8117293 Si02
#       7
#     4   4   4   4   4   4   4
#     4  10  21  36  54  86 119 149 185 226 285 342
#     4  11  24  38  58  81 113 152 190 242 281 336
#     4  10  22  34  56  85 120 149 184 228 283 346
#     4  11  24  39  57  82 111 153 195 235 284 337
#     4  10  22  42  61  80 106 150 206 242 282 330
#     4  10  18  34  54  84 119 153 187 225 277 348
#     4  12  24  35  52  82 115 145 182 226 290 344
#
# _framework density 19.198544999999999
#
# number of rings (size 3 to 8) (size 9 to 14) (size 15 to 20)
#    0.000    1.429    5.714    0.857    8.000    1.143 
#    0.000    0.000    0.000    0.857    0.000    0.000 
#    0.000    0.000    0.000    0.000    0.000    0.000 
#
# Total GULP energy -347134.142713 kJ/mol
# GULP energy per Si atom -12397.647954 kJ/mol
# Density = 1.915485 g / cm^3
# Si number density = 19.198545 Si / 1000 Ang^3
#
#
#
# Elastic Constant Matrix: (Units=GPa)
#
#
# Indices 1 2 3 4 5 6 
#
# 1 128.6234 41.1904 33.5845 0.0000 -3.1590 0.0000
# 2 41.1904 85.0360 13.7839 0.0000 -2.6989 0.0000
# 3 33.5845 13.7839 52.6551 0.0000 2.0492 0.0000
# 4 0.0000 0.0000 0.0000 16.3264 0.0000 -9.5138
# 5 -3.1590 -2.6989 2.0492 0.0000 28.5918 0.0000
# 6 0.0000 0.0000 0.0000 -9.5138 0.0000 35.8220
#
#
#
# Elastic Compliance Matrix: (Units=1/GPa)
#
#
# Indices 1 2 3 4 5 6 
#
# 1 0.010643 -0.004187 -0.005739 0.000000 0.001192 0.000000
# 2 -0.004187 0.013984 -0.001026 0.000000 0.000931 0.000000
# 3 -0.005739 -0.001026 0.023013 0.000000 -0.002380 0.000000
# 4 0.000000 0.000000 0.000000 0.072466 0.000000 0.019246
# 5 0.001192 0.000931 -0.002380 0.000000 0.035365 0.000000
# 6 0.000000 0.000000 0.000000 0.019246 0.000000 0.033027
#
#
# Mechanical properties :
#
#
# Convention : Reuss Voigt Hill
#
# Bulk Modulus (GPa) = 38.85638 49.27024 44.06331
# Shear Modulus (GPa) = 22.83295 27.99839 25.41567
#
# Velocity S-wave (km/s) = 3.45237 3.82299 3.64240
# Velocity P-wave (km/s) = 6.01457 6.72356 6.37892
#
# Compressibility (1/GPa) = 0.02573580
#
# Stress axis : x y z
#
# Youngs Moduli (GPa) = 93.95549 71.51061 43.45358
#
# Poissons Ratio (x) = 0.29945 0.24937
# Poissons Ratio (y) = 0.39343 0.04459
# Poissons Ratio (z) = 0.53919 0.07337
#
# Static dielectric constant tensor:
#      x y z
#    x 3.967880 0.000000 -0.075740 
#    y 0.000000 4.257720 0.000000 
#    z -0.075740 0.000000 3.389900 
# 
# 
# High freq. dielectric constant tensor:
#      x y z
#    x 1.758150 0.000000 -0.026180 
#    y 0.000000 1.746450 0.000000 
#    z -0.026180 0.000000 1.714490 
# 
# From -- ./inp_files/19703.got.cif
#   From: 2010.06.25/outbox.cif.g09.slc.cpg/sg13_10_cif.got.tgz:19703.got - 2010.06.28 04:50:58.
