data_PCOD8117597
_publ_section_title
;
Structure prediction by ZEFSAII (Michael W. Deem and Ramdas Pophale) SiO2 
 PCOD8117597
Probable space group: P 2/C
;
_chemical_formula_sum "Si O2"
_cell_formula_units_Z 30
_cell_length_a 22.393917
_cell_length_b 11.542846
_cell_length_c 12.773229
_cell_angle_alpha 90.000000
_cell_angle_beta 155.042640
_cell_angle_gamma 90.000000
_cell_volume 1393.150813
_symmetry_space_group_name_H-M "P 2/C"
_symmetry_group_IT_number 13
_symmetry_cell_setting 'monoclinic'
loop_
_space_group_symop_operation_xyz
x,y,z
-x,y,1/2-z
-x,-y,-z
x,-y,1/2+z
loop_
_atom_site_type_symbol
_atom_site_label
_atom_site_fract_x
_atom_site_fract_y
_atom_site_fract_z
Si Si1 0.331820 0.829691 0.197111
Si Si2 0.145277 0.642812 0.417185
Si Si3 0.254828 0.575111 0.001668
Si Si4 0.800793 0.086626 0.220896
Si Si5 0.368077 0.789769 0.886766
Si Si6 0.113486 0.878009 0.015517
Si Si7 0.993058 0.706530 0.977430
Si Si8 0.500000 0.606833 0.250000
O O1 0.501431 0.840359 0.473576
O O2 0.266014 0.865400 0.203450
O O3 0.294806 0.696614 0.117050
O O4 0.267533 0.912722 0.003766
O O5 0.230973 0.520846 0.554216
O O6 0.242257 0.746729 0.612342
O O7 0.000000 0.632070 0.250000
O O8 0.117798 0.665354 0.251106
O O9 0.109192 0.597031 0.706862
O O10 0.383022 0.532597 0.128278
O O11 0.681737 0.104348 0.120098
O O12 0.908775 0.192705 0.403830
O O13 0.877922 0.965730 0.371966
O O14 0.412438 0.685044 0.031224
O O15 0.000000 0.923546 0.750000
O O16 0.058945 0.755276 0.973922
#
# Coordination Sequence:
#
# PCOD8117597 Si02
#       8
#     4   4   4   4   4   4   4   2
#     4  10  23  44  64  92 129 173 212 262 323 387
#     4  12  25  38  66 100 128 166 213 268 319 383
#     4  10  21  40  66  90 128 168 213 257 323 387
#     4  11  21  40  68  90 125 163 216 266 315 387
#     4  11  21  43  66  92 128 171 217 260 314 385
#     4  12  25  39  67  99 127 169 216 269 325 376
#     4  11  23  44  59  97 131 165 207 271 319 380
#     4  10  18  42  64  86 122 174 216 254 314 386
#
# _framework density 21.533920999999999
#
# number of rings (size 3 to 8) (size 9 to 14) (size 15 to 20)
#    0.000    1.067    8.000    0.800    3.733    2.667 
#    2.400    1.333    0.000    0.000    0.000    0.000 
#    0.000    0.000    0.000    0.000    0.000    0.000 
#
# Total GULP energy -371973.554108 kJ/mol
# GULP energy per Si atom -12399.118470 kJ/mol
# Density = 2.148491 g / cm^3
# Si number density = 21.533921 Si / 1000 Ang^3
#
#
#
# Elastic Constant Matrix: (Units=GPa)
#
#
# Indices 1 2 3 4 5 6 
#
# 1 122.5442 29.5618 34.7429 0.0000 22.1749 0.0000
# 2 29.5618 43.2131 14.3709 0.0000 0.2800 0.0000
# 3 34.7429 14.3709 77.1799 0.0000 4.8985 0.0000
# 4 0.0000 0.0000 0.0000 16.8867 0.0000 -1.6838
# 5 22.1749 0.2800 4.8985 0.0000 33.6175 0.0000
# 6 0.0000 0.0000 0.0000 -1.6838 0.0000 24.3919
#
#
#
# Elastic Compliance Matrix: (Units=1/GPa)
#
#
# Indices 1 2 3 4 5 6 
#
# 1 0.012295 -0.007121 -0.003732 0.000000 -0.007507 0.000000
# 2 -0.007121 0.028800 -0.002463 0.000000 0.004816 0.000000
# 3 -0.003732 -0.002463 0.015077 0.000000 0.000285 0.000000
# 4 0.000000 0.000000 0.000000 0.059629 0.000000 0.004116
# 5 -0.007507 0.004816 0.000285 0.000000 0.034616 0.000000
# 6 0.000000 0.000000 0.000000 0.004116 0.000000 0.041281
#
#
# Mechanical properties :
#
#
# Convention : Reuss Voigt Hill
#
# Bulk Modulus (GPa) = 33.85180 44.47649 39.16415
# Shear Modulus (GPa) = 21.91285 25.93001 23.92143
#
# Velocity S-wave (km/s) = 3.19344 3.47385 3.33659
# Velocity P-wave (km/s) = 5.41773 6.06541 5.75069
#
# Compressibility (1/GPa) = 0.02954053
#
# Stress axis : x y z
#
# Youngs Moduli (GPa) = 81.33664 34.72194 66.32518
#
# Poissons Ratio (x) = 0.24725 0.24753
# Poissons Ratio (y) = 0.57918 0.16335
# Poissons Ratio (z) = 0.30356 0.08551
#
# Static dielectric constant tensor:
#      x y z
#    x 4.074700 0.000000 0.305880 
#    y 0.000000 3.603470 0.000000 
#    z 0.305880 0.000000 3.954420 
# 
# 
# High freq. dielectric constant tensor:
#      x y z
#    x 1.853450 0.000000 0.017570 
#    y 0.000000 1.818860 0.000000 
#    z 0.017570 0.000000 1.839830 
# 
# From -- ./inp_files/40891.got.cif
#   From: 2010.06.25/outbox.cif.g09.slc.cpg/sg13_21_cif.got.tgz:40891.got - 2010.06.28 04:50:58.
