data_PCOD8117969
_publ_section_title
;
Structure prediction by ZEFSAII (Michael W. Deem and Ramdas Pophale) SiO2 
 PCOD8117969
Probable space group: P 2/C
;
_chemical_formula_sum "Si O2"
_cell_formula_units_Z 18
_cell_length_a 7.664479
_cell_length_b 10.995033
_cell_length_c 17.831256
_cell_angle_alpha 90.000000
_cell_angle_beta 149.833046
_cell_angle_gamma 90.000000
_cell_volume 755.119450
_symmetry_space_group_name_H-M "P 2/C"
_symmetry_group_IT_number 13
_symmetry_cell_setting 'monoclinic'
loop_
_space_group_symop_operation_xyz
x,y,z
-x,y,1/2-z
-x,-y,-z
x,-y,1/2+z
loop_
_atom_site_type_symbol
_atom_site_label
_atom_site_fract_x
_atom_site_fract_y
_atom_site_fract_z
Si Si1 0.691454 0.247555 0.022846
Si Si2 0.773623 0.072808 0.239775
Si Si3 0.323824 0.381465 0.759634
Si Si4 0.135895 0.843901 0.418491
Si Si5 0.000000 0.573356 0.750000
O O1 0.723547 0.343296 0.103614
O O2 0.044132 0.171875 0.137650
O O3 0.610169 0.311979 0.914848
O O4 0.367639 0.160735 0.927818
O O5 0.000000 0.088435 0.250000
O O6 0.373584 0.107267 0.075855
O O7 0.814669 0.937745 0.289034
O O8 0.500000 0.433437 0.750000
O O9 0.186378 0.493343 0.756537
O O10 0.017133 0.289143 0.621969
#
# Coordination Sequence:
#
# PCOD8117969 Si02
#       5
#     4   4   4   4   2
#     4  11  21  43  69  99 135 180 225 280 344 405
#     4  10  19  34  71 103 132 173 227 276 348 411
#     4  12  27  43  68 100 141 183 232 280 335 400
#     4  11  20  41  67 103 137 175 224 282 343 410
#     4  12  24  46  72  96 138 182 236 280 334 394
#
# _framework density 23.837287
#
# number of rings (size 3 to 8) (size 9 to 14) (size 15 to 20)
#    0.000    0.889    5.556    6.000    0.000    0.889 
#    0.000    5.556    0.000    0.000    0.000    0.000 
#    0.000    0.000    0.000    0.000    0.000    0.000 
#
# Total GULP energy -223196.418683 kJ/mol
# GULP energy per Si atom -12399.801038 kJ/mol
# Density = 2.378303 g / cm^3
# Si number density = 23.837287 Si / 1000 Ang^3
#
#
#
# Elastic Constant Matrix: (Units=GPa)
#
#
# Indices 1 2 3 4 5 6 
#
# 1 89.2315 22.1733 24.0361 0.0000 -19.5386 0.0000
# 2 22.1733 116.7003 35.1912 0.0000 -7.6904 0.0000
# 3 24.0361 35.1912 117.1254 0.0000 -4.0345 0.0000
# 4 0.0000 0.0000 0.0000 28.1742 0.0000 0.3960
# 5 -19.5386 -7.6904 -4.0345 0.0000 12.0018 0.0000
# 6 0.0000 0.0000 0.0000 0.3960 0.0000 -6.1886
#
#
#
# Elastic Compliance Matrix: (Units=1/GPa)
#
#
# Indices 1 2 3 4 5 6 
#
# 1 0.018325 -0.000846 -0.002527 0.000000 0.028442 0.000000
# 2 -0.000846 0.009787 -0.002629 0.000000 0.004011 0.000000
# 3 -0.002527 -0.002629 0.009760 0.000000 -0.002517 0.000000
# 4 0.000000 0.000000 0.000000 0.035462 0.000000 0.002269
# 5 0.028442 0.004011 -0.002517 0.000000 0.131347 0.000000
# 6 0.000000 0.000000 0.000000 0.002269 0.000000 -0.161442
#
#
# Mechanical properties :
#
#
# Convention : Reuss Voigt Hill
#
# Bulk Modulus (GPa) = 38.65631 53.98424 46.32028
# Shear Modulus (GPa) = 78.29284 22.90793 50.60038
#
# Velocity S-wave (km/s) = 5.73725 3.10338 4.61232
# Velocity P-wave (km/s) = 7.75499 5.96133 6.91655
#
# Compressibility (1/GPa) = 0.02586900
#
# Stress axis : x y z
#
# Youngs Moduli (GPa) = 54.56925 102.18011 102.46381
#
# Poissons Ratio (x) = 0.08640 0.25891
# Poissons Ratio (y) = 0.04614 0.26936
# Poissons Ratio (z) = 0.13789 0.26861
#
# Static dielectric constant tensor:
#      x y z
#    x 3.541090 0.000000 0.021250 
#    y 0.000000 4.550490 0.000000 
#    z 0.021250 0.000000 4.804170 
# 
# 
# High freq. dielectric constant tensor:
#      x y z
#    x 1.880350 0.000000 -0.000570 
#    y 0.000000 1.958900 0.000000 
#    z -0.000570 0.000000 1.966690 
# 
# From -- ./inp_files/11324.got.cif
#   From: 2010.06.25/outbox.cif.g09.slc.cpg/sg13_6_cif.got.tgz:11324.got - 2010.06.28 04:50:58.
