data_PCOD8117026
_publ_section_title
;
Structure prediction by ZEFSAII (Michael W. Deem and Ramdas Pophale) SiO2 
 PCOD8117026
Probable space group: P 2/C
;
_chemical_formula_sum "Si O2"
_cell_formula_units_Z 28
_cell_length_a 14.167301
_cell_length_b 8.888806
_cell_length_c 17.241397
_cell_angle_alpha 90.000000
_cell_angle_beta 138.226238
_cell_angle_gamma 90.000000
_cell_volume 1446.444497
_symmetry_space_group_name_H-M "P 2/C"
_symmetry_group_IT_number 13
_symmetry_cell_setting 'monoclinic'
loop_
_space_group_symop_operation_xyz
x,y,z
-x,y,1/2-z
-x,-y,-z
x,-y,1/2+z
loop_
_atom_site_type_symbol
_atom_site_label
_atom_site_fract_x
_atom_site_fract_y
_atom_site_fract_z
Si Si1 0.564444 0.581731 0.112343
Si Si2 0.645568 0.410246 0.307611
Si Si3 0.000000 0.442947 0.250000
Si Si4 0.619323 0.280511 0.877064
Si Si5 0.000000 0.050980 0.750000
Si Si6 0.081864 0.195686 0.419537
Si Si7 0.149009 0.701550 0.258820
Si Si8 0.957572 0.670422 0.993810
O O1 0.625328 0.450835 0.205068
O O2 0.442525 0.683214 0.076192
O O3 0.689260 0.698405 0.168664
O O4 0.500000 0.500000 0.000000
O O5 0.500000 0.329926 0.250000
O O6 0.669643 0.564435 0.368652
O O7 0.788070 0.311939 0.404907
O O8 0.071060 0.343211 0.359827
O O9 0.121500 0.545366 0.286715
O O10 0.500000 0.202804 0.750000
O O11 0.751963 0.169190 0.962260
O O12 0.868892 0.159149 0.692714
O O13 0.971270 0.951491 0.656793
O O14 0.995946 0.218559 0.446463
O O15 0.040434 0.723272 0.120877
O O16 0.000000 0.500000 0.000000
#
# Coordination Sequence:
#
# PCOD8117026 Si02
#       8
#     4   4   2   4   2   4   4   4
#     4  10  18  29  53  85 118 147 183 237 300 346
#     4   9  18  31  50  91 123 138 177 248 316 341
#     4  10  18  30  58  82 114 142 186 254 284 340
#     4   9  17  30  51  77 110 145 182 238 292 346
#     4  10  28  40  54  80 124 164 192 246 304 362
#     4  11  20  37  57  86 114 152 205 238 294 354
#     4  11  21  38  57  86 118 153 197 240 304 355
#     4  12  18  33  64  91 111 146 207 260 288 346
#
# _framework density 19.357811000000002
#
# number of rings (size 3 to 8) (size 9 to 14) (size 15 to 20)
#    0.000    2.000    4.286    1.714    0.000    5.143 
#    0.000    0.714    0.000    4.286    0.000    1.000 
#    0.000    0.000    0.000    0.000    0.000    0.000 
#
# Total GULP energy -347144.780852 kJ/mol
# GULP energy per Si atom -12398.027888 kJ/mol
# Density = 1.931375 g / cm^3
# Si number density = 19.357811 Si / 1000 Ang^3
#
#
#
# Elastic Constant Matrix: (Units=GPa)
#
#
# Indices 1 2 3 4 5 6 
#
# 1 131.5489 34.3614 55.4223 0.0000 8.3674 0.0000
# 2 34.3614 68.6026 26.4567 0.0000 -1.9342 0.0000
# 3 55.4223 26.4567 84.9388 0.0000 14.2006 0.0000
# 4 0.0000 0.0000 0.0000 12.7263 0.0000 -6.0058
# 5 8.3674 -1.9342 14.2006 0.0000 43.2757 0.0000
# 6 0.0000 0.0000 0.0000 -6.0058 0.0000 18.5612
#
#
#
# Elastic Compliance Matrix: (Units=1/GPa)
#
#
# Indices 1 2 3 4 5 6 
#
# 1 0.011047 -0.003155 -0.006184 0.000000 -0.000248 0.000000
# 2 -0.003155 0.017744 -0.003917 0.000000 0.002689 0.000000
# 3 -0.006184 -0.003917 0.017836 0.000000 -0.004832 0.000000
# 4 0.000000 0.000000 0.000000 0.092738 0.000000 0.030007
# 5 -0.000248 0.002689 -0.004832 0.000000 0.024861 0.000000
# 6 0.000000 0.000000 0.000000 0.030007 0.000000 0.063585
#
#
# Mechanical properties :
#
#
# Convention : Reuss Voigt Hill
#
# Bulk Modulus (GPa) = 49.71763 57.50790 53.61276
# Shear Modulus (GPa) = 19.15496 26.16931 22.66213
#
# Velocity S-wave (km/s) = 3.14908 3.68077 3.42526
# Velocity P-wave (km/s) = 6.24192 6.91639 6.58779
#
# Compressibility (1/GPa) = 0.02011359
#
# Stress axis : x y z
#
# Youngs Moduli (GPa) = 90.52248 56.35798 56.06567
#
# Poissons Ratio (x) = 0.17783 0.34670
# Poissons Ratio (y) = 0.28563 0.21964
# Poissons Ratio (z) = 0.55978 0.22078
#
# Static dielectric constant tensor:
#      x y z
#    x 3.836310 0.000000 -0.029940 
#    y 0.000000 3.050530 0.000000 
#    z -0.029940 0.000000 4.715420 
# 
# 
# High freq. dielectric constant tensor:
#      x y z
#    x 1.774650 0.000000 -0.005620 
#    y 0.000000 1.697180 0.000000 
#    z -0.005620 0.000000 1.759260 
# 
# From -- ./inp_files/68267.got.cif
#   From: 2010.06.25/outbox.cif.g09.slc.cpg/sg13_35_cif.got.tgz:68267.got - 2010.06.28 04:50:58.
