data_PCOD8117687
_publ_section_title
;
Structure prediction by ZEFSAII (Michael W. Deem and Ramdas Pophale) SiO2 
 PCOD8117687
Probable space group: P 2/C
;
_chemical_formula_sum "Si O2"
_cell_formula_units_Z 28
_cell_length_a 5.361987
_cell_length_b 20.361104
_cell_length_c 13.967335
_cell_angle_alpha 90.000000
_cell_angle_beta 66.895957
_cell_angle_gamma 90.000000
_cell_volume 1402.591205
_symmetry_space_group_name_H-M "P 2/C"
_symmetry_group_IT_number 13
_symmetry_cell_setting 'monoclinic'
loop_
_space_group_symop_operation_xyz
x,y,z
-x,y,1/2-z
-x,-y,-z
x,-y,1/2+z
loop_
_atom_site_type_symbol
_atom_site_label
_atom_site_fract_x
_atom_site_fract_y
_atom_site_fract_z
Si Si1 0.165614 0.571422 0.073849
Si Si2 0.500000 0.828766 0.250000
Si Si3 0.271267 0.225437 0.975454
Si Si4 0.603609 0.501249 0.634352
Si Si5 0.197811 0.920027 0.550034
Si Si6 0.000000 0.820402 0.250000
Si Si7 0.805890 0.278466 0.941253
Si Si8 0.613296 0.018587 0.131795
O O1 0.351003 0.537701 0.126402
O O2 0.150842 0.647891 0.101112
O O3 0.858154 0.545787 0.118209
O O4 0.303492 0.560078 0.949159
O O5 0.601987 0.781313 0.149889
O O6 0.240263 0.869356 0.250173
O O7 0.485151 0.266173 0.008521
O O8 0.987930 0.265476 0.008850
O O9 0.212675 0.157317 0.036170
O O10 0.500000 0.531871 0.750000
O O11 0.381523 0.939655 0.612901
O O12 0.883840 0.939004 0.608513
O O13 0.320169 0.952557 0.436008
O O14 0.102264 0.774902 0.150025
O O15 0.500000 0.994961 0.250000
#
# Coordination Sequence:
#
# PCOD8117687 Si02
#       8
#     4   2   4   4   4   2   4   4
#     4  10  21  36  54  83 107 141 186 217 275 330
#     4   8  16  28  42  68 102 136 164 192 250 310
#     4  10  19  33  52  77 111 141 172 217 266 326
#     4  10  21  36  56  78 107 143 182 230 268 313
#     4  10  21  36  58  86 107 146 189 217 280 333
#     4   8  16  26  40  66  98 134 170 190 246 314
#     4  10  19  32  49  76 109 144 169 218 266 322
#     4  10  21  38  58  81 111 144 185 236 271 314
#
# _framework density 19.963049000000002
#
# number of rings (size 3 to 8) (size 9 to 14) (size 15 to 20)
#    0.000    2.286    0.000    2.571    3.000    0.000 
#    2.571    0.000    0.000    5.143    0.000    0.000 
#    0.000    0.000    0.000    0.000    0.000    0.000 
#
# Total GULP energy -346881.354011 kJ/mol
# GULP energy per Si atom -12388.619786 kJ/mol
# Density = 1.991761 g / cm^3
# Si number density = 19.963049 Si / 1000 Ang^3
#
#
#
# Elastic Constant Matrix: (Units=GPa)
#
#
# Indices 1 2 3 4 5 6 
#
# 1 220.0759 12.1498 12.7065 0.0000 0.6102 0.0000
# 2 12.1498 33.8645 -2.1244 0.0000 2.1364 0.0000
# 3 12.7065 -2.1244 89.7304 0.0000 11.6016 0.0000
# 4 0.0000 0.0000 0.0000 7.1502 0.0000 -2.0769
# 5 0.6102 2.1364 11.6016 0.0000 10.6698 0.0000
# 6 0.0000 0.0000 0.0000 -2.0769 0.0000 24.5356
#
#
#
# Elastic Compliance Matrix: (Units=1/GPa)
#
#
# Indices 1 2 3 4 5 6 
#
# 1 0.004689 -0.001798 -0.000836 0.000000 0.001001 0.000000
# 2 -0.001798 0.030828 0.002059 0.000000 -0.008308 0.000000
# 3 -0.000836 0.002059 0.013217 0.000000 -0.014735 0.000000
# 4 0.000000 0.000000 0.000000 0.143382 0.000000 0.012137
# 5 0.001001 -0.008308 -0.014735 0.000000 0.111351 0.000000
# 6 0.000000 0.000000 0.000000 0.012137 0.000000 0.041785
#
#
# Mechanical properties :
#
#
# Convention : Reuss Voigt Hill
#
# Bulk Modulus (GPa) = 21.01588 43.23719 32.12653
# Shear Modulus (GPa) = 13.80221 29.86705 21.83463
#
# Velocity S-wave (km/s) = 2.63228 3.87216 3.31078
# Velocity P-wave (km/s) = 4.44846 6.45733 5.54463
#
# Compressibility (1/GPa) = 0.04758307
#
# Stress axis : x y z
#
# Youngs Moduli (GPa) = 213.28225 32.43839 75.66136
#
# Poissons Ratio (x) = 0.05832 0.06324
# Poissons Ratio (y) = 0.38343 -0.15576
# Poissons Ratio (z) = 0.17828 -0.06678
#
# Static dielectric constant tensor:
#      x y z
#    x 4.949490 0.000000 -0.070350 
#    y 0.000000 3.163970 0.000000 
#    z -0.070350 0.000000 3.435820 
# 
# 
# High freq. dielectric constant tensor:
#      x y z
#    x 1.827910 0.000000 -0.003210 
#    y 0.000000 1.744270 0.000000 
#    z -0.003210 0.000000 1.746430 
# 
# From -- ./inp_files/44401.got.cif
#   From: 2010.06.25/outbox.cif.g09.slc.cpg/sg13_23_cif.got.tgz:44401.got - 2010.06.28 04:50:58.
