data_PCOD8117338
_publ_section_title
;
Structure prediction by ZEFSAII (Michael W. Deem and Ramdas Pophale) SiO2 
 PCOD8117338
Probable space group: P 2/C
;
_chemical_formula_sum "Si O2"
_cell_formula_units_Z 28
_cell_length_a 9.342956
_cell_length_b 9.118188
_cell_length_c 28.337491
_cell_angle_alpha 90.000000
_cell_angle_beta 35.713675
_cell_angle_gamma 90.000000
_cell_volume 1409.191413
_symmetry_space_group_name_H-M "P 2/C"
_symmetry_group_IT_number 13
_symmetry_cell_setting 'monoclinic'
loop_
_space_group_symop_operation_xyz
x,y,z
-x,y,1/2-z
-x,-y,-z
x,-y,1/2+z
loop_
_atom_site_type_symbol
_atom_site_label
_atom_site_fract_x
_atom_site_fract_y
_atom_site_fract_z
Si Si1 0.500000 0.817094 0.250000
Si Si2 0.716135 0.219371 0.966158
Si Si3 0.694024 0.553326 0.392269
Si Si4 0.000000 0.767225 0.250000
Si Si5 0.172689 0.748646 0.611170
Si Si6 0.160735 0.389347 0.014790
Si Si7 0.871586 0.671975 0.081827
Si Si8 0.071352 0.964310 0.314457
O O1 0.624695 0.713205 0.176896
O O2 0.300382 0.931485 0.285709
O O3 0.710751 0.374431 0.939540
O O4 0.894384 0.232762 0.963655
O O5 0.818332 0.091377 0.905335
O O6 0.437008 0.180894 0.053787
O O7 0.795156 0.663128 0.326386
O O8 0.852600 0.404012 0.353376
O O9 0.414093 0.518775 0.452648
O O10 0.868570 0.874433 0.248611
O O11 0.140506 0.725692 0.563310
O O12 0.962807 0.861273 0.684926
O O13 0.930099 0.500191 0.075790
O O14 0.166562 0.299645 0.963749
#
# Coordination Sequence:
#
# PCOD8117338 Si02
#       8
#     2   4   4   2   4   4   4   4
#     4  10  22  40  56  80 120 176 190 230 302 378
#     4   9  17  35  57  85 109 151 189 240 293 355
#     4  10  18  34  59  84 117 147 200 246 297 343
#     4  10  22  38  58  84 112 162 200 238 296 370
#     4  11  19  35  57  87 116 147 194 254 303 332
#     4  10  19  33  58  92 115 150 197 260 281 347
#     4  10  18  34  60  86 119 150 207 236 290 351
#     4  10  22  37  59  78 121 157 196 234 304 365
#
# _framework density 19.869551000000001
#
# number of rings (size 3 to 8) (size 9 to 14) (size 15 to 20)
#    0.000    2.000    2.857    2.143    0.000    0.571 
#    0.000    5.000    3.143    0.000    0.000    0.000 
#    0.000    0.000    0.000    0.000    0.000    0.000 
#
# Total GULP energy -347089.386321 kJ/mol
# GULP energy per Si atom -12396.049511 kJ/mol
# Density = 1.982433 g / cm^3
# Si number density = 19.869551 Si / 1000 Ang^3
#
#
#
# Elastic Constant Matrix: (Units=GPa)
#
#
# Indices 1 2 3 4 5 6 
#
# 1 101.0675 48.3560 37.3916 0.0000 10.6825 0.0000
# 2 48.3560 113.6080 45.3729 0.0000 -0.7109 0.0000
# 3 37.3916 45.3729 79.7450 0.0000 0.5946 0.0000
# 4 0.0000 0.0000 0.0000 16.5607 0.0000 -6.1787
# 5 10.6825 -0.7109 0.5946 0.0000 26.6090 0.0000
# 6 0.0000 0.0000 0.0000 -6.1787 0.0000 21.2903
#
#
#
# Elastic Compliance Matrix: (Units=1/GPa)
#
#
# Indices 1 2 3 4 5 6 
#
# 1 0.014114 -0.004422 -0.004059 0.000000 -0.005693 0.000000
# 2 -0.004422 0.012781 -0.005216 0.000000 0.002233 0.000000
# 3 -0.004059 -0.005216 0.017403 0.000000 0.001102 0.000000
# 4 0.000000 0.000000 0.000000 0.067716 0.000000 0.019652
# 5 -0.005693 0.002233 0.001102 0.000000 0.039902 0.000000
# 6 0.000000 0.000000 0.000000 0.019652 0.000000 0.052673
#
#
# Mechanical properties :
#
#
# Convention : Reuss Voigt Hill
#
# Bulk Modulus (GPa) = 59.15703 61.85126 60.50415
# Shear Modulus (GPa) = 21.04228 23.77865 22.41047
#
# Velocity S-wave (km/s) = 3.25779 3.46314 3.36204
# Velocity P-wave (km/s) = 6.63237 6.86931 6.75188
#
# Compressibility (1/GPa) = 0.01690416
#
# Stress axis : x y z
#
# Youngs Moduli (GPa) = 70.85386 78.23998 57.46229
#
# Poissons Ratio (x) = 0.34595 0.23327
# Poissons Ratio (y) = 0.31329 0.29970
# Poissons Ratio (z) = 0.28763 0.40807
#
# Static dielectric constant tensor:
#      x y z
#    x 3.757570 0.000000 0.019410 
#    y 0.000000 3.403120 0.000000 
#    z 0.019410 0.000000 3.495800 
# 
# 
# High freq. dielectric constant tensor:
#      x y z
#    x 1.783650 0.000000 -0.002040 
#    y 0.000000 1.760410 0.000000 
#    z -0.002040 0.000000 1.751480 
# 
# From -- ./inp_files/95954.got.cif
#   From: 2010.06.25/outbox.cif.g09.slc.cpg/sg13_48_cif.got.tgz:95954.got - 2010.06.28 04:50:58.
