data_PCOD8117679
_publ_section_title
;
Structure prediction by ZEFSAII (Michael W. Deem and Ramdas Pophale) SiO2 
 PCOD8117679
Probable space group: P 2/C
;
_chemical_formula_sum "Si O2"
_cell_formula_units_Z 24
_cell_length_a 18.330720
_cell_length_b 9.177425
_cell_length_c 20.159493
_cell_angle_alpha 90.000000
_cell_angle_beta 21.078308
_cell_angle_gamma 90.000000
_cell_volume 1219.697889
_symmetry_space_group_name_H-M "P 2/C"
_symmetry_group_IT_number 13
_symmetry_cell_setting 'monoclinic'
loop_
_space_group_symop_operation_xyz
x,y,z
-x,y,1/2-z
-x,-y,-z
x,-y,1/2+z
loop_
_atom_site_type_symbol
_atom_site_label
_atom_site_fract_x
_atom_site_fract_y
_atom_site_fract_z
Si Si1 0.309001 0.613028 0.096440
Si Si2 0.905960 0.866780 0.638336
Si Si3 0.056757 0.632949 0.999913
Si Si4 0.530316 0.249331 0.301280
Si Si5 0.678569 0.044081 0.731484
Si Si6 0.576979 0.291616 0.490126
O O1 0.459168 0.689592 0.021223
O O2 0.081623 0.622400 0.317207
O O3 0.326675 0.702670 0.013082
O O4 0.379809 0.450162 0.017086
O O5 0.984727 0.776179 0.507578
O O6 0.119034 0.928494 0.485097
O O7 0.748330 0.988538 0.745467
O O8 0.797068 0.776898 0.788100
O O9 0.289930 0.642790 0.825549
O O10 0.000000 0.500000 0.000000
O O11 0.500000 0.273803 0.250000
O O12 0.558937 0.079002 0.292750
O O13 0.542599 0.189497 0.856222
#
# Coordination Sequence:
#
# PCOD8117679 Si02
#       6
#     4   4   4   4   4   4
#     4  11  21  34  61  92 122 157 195 254 309 360
#     4  10  19  31  56  93 117 146 186 247 302 347
#     4  11  19  37  64  95 122 148 200 258 307 361
#     4  11  26  43  58  84 124 170 206 244 309 378
#     4  10  21  34  57  85 122 156 193 245 296 357
#     4  11  19  33  60  95 120 144 199 258 310 350
#
# _framework density 19.677002999999999
#
# number of rings (size 3 to 8) (size 9 to 14) (size 15 to 20)
#    0.000    1.333    6.667    1.500    0.000    0.667 
#    0.000    0.833    0.000    0.000    0.000    0.000 
#    0.000    0.000    0.000    0.000    0.000    0.000 
#
# Total GULP energy -297453.369139 kJ/mol
# GULP energy per Si atom -12393.890381 kJ/mol
# Density = 1.963222 g / cm^3
# Si number density = 19.677003 Si / 1000 Ang^3
#
#
#
# Elastic Constant Matrix: (Units=GPa)
#
#
# Indices 1 2 3 4 5 6 
#
# 1 44.6437 14.0594 18.6916 0.0000 5.4995 0.0000
# 2 14.0594 84.6404 33.1232 0.0000 -8.4836 0.0000
# 3 18.6916 33.1232 116.6938 0.0000 4.9523 0.0000
# 4 0.0000 0.0000 0.0000 42.4790 0.0000 0.8886
# 5 5.4995 -8.4836 4.9523 0.0000 14.0248 0.0000
# 6 0.0000 0.0000 0.0000 0.8886 0.0000 13.5738
#
#
#
# Elastic Compliance Matrix: (Units=1/GPa)
#
#
# Indices 1 2 3 4 5 6 
#
# 1 0.026392 -0.004694 -0.002371 0.000000 -0.012351 0.000000
# 2 -0.004694 0.015506 -0.004189 0.000000 0.012700 0.000000
# 3 -0.002371 -0.004189 0.010361 0.000000 -0.005263 0.000000
# 4 0.000000 0.000000 0.000000 0.023573 0.000000 -0.001543
# 5 -0.012351 0.012700 -0.005263 0.000000 0.085686 0.000000
# 6 0.000000 0.000000 0.000000 -0.001543 0.000000 0.073772
#
#
# Mechanical properties :
#
#
# Convention : Reuss Voigt Hill
#
# Bulk Modulus (GPa) = 33.61002 41.96958 37.78980
# Shear Modulus (GPa) = 18.67651 26.02243 22.34947
#
# Velocity S-wave (km/s) = 3.08418 3.64054 3.37384
# Velocity P-wave (km/s) = 5.45901 6.24875 5.86718
#
# Compressibility (1/GPa) = 0.02975303
#
# Stress axis : x y z
#
# Youngs Moduli (GPa) = 37.89026 64.48934 96.51189
#
# Poissons Ratio (x) = 0.30272 0.22881
# Poissons Ratio (y) = 0.17786 0.40424
# Poissons Ratio (z) = 0.08983 0.27012
#
# Static dielectric constant tensor:
#      x y z
#    x 2.958530 0.000000 -0.065540 
#    y 0.000000 3.896010 0.000000 
#    z -0.065540 0.000000 3.884350 
# 
# 
# High freq. dielectric constant tensor:
#      x y z
#    x 1.688420 0.000000 -0.003120 
#    y 0.000000 1.785640 0.000000 
#    z -0.003120 0.000000 1.785880 
# 
# From -- ./inp_files/81644.got.cif
#   From: 2010.06.25/outbox.cif.g09.slc.cpg/sg13_41_cif.got.tgz:81644.got - 2010.06.28 04:50:58.
