data_PCOD8117867
_publ_section_title
;
Structure prediction by ZEFSAII (Michael W. Deem and Ramdas Pophale) SiO2 
 PCOD8117867
Probable space group: P 2/C
;
_chemical_formula_sum "Si O2"
_cell_formula_units_Z 26
_cell_length_a 14.954296
_cell_length_b 11.779016
_cell_length_c 21.311017
_cell_angle_alpha 90.000000
_cell_angle_beta 19.097181
_cell_angle_gamma 90.000000
_cell_volume 1228.158733
_symmetry_space_group_name_H-M "P 2/C"
_symmetry_group_IT_number 13
_symmetry_cell_setting 'monoclinic'
loop_
_space_group_symop_operation_xyz
x,y,z
-x,y,1/2-z
-x,-y,-z
x,-y,1/2+z
loop_
_atom_site_type_symbol
_atom_site_label
_atom_site_fract_x
_atom_site_fract_y
_atom_site_fract_z
Si Si1 0.249324 0.777196 0.166289
Si Si2 0.802088 0.883120 0.068729
Si Si3 0.712742 0.959451 0.261696
Si Si4 0.797793 0.372837 0.574147
Si Si5 0.933633 0.593308 0.125148
Si Si6 0.500000 0.716345 0.750000
Si Si7 0.641972 0.160961 0.037222
O O1 0.392010 0.870585 0.116473
O O2 0.243585 0.652002 0.201863
O O3 0.951783 0.832378 0.353982
O O4 0.400261 0.766286 0.999244
O O5 0.500000 0.926221 0.250000
O O6 0.827445 0.887307 0.127200
O O7 0.855717 0.754007 0.010934
O O8 0.035737 0.960599 0.881751
O O9 0.448351 0.032439 0.417324
O O10 0.500000 0.413659 0.750000
O O11 0.795421 0.377654 0.651026
O O12 0.032473 0.456703 0.390214
O O13 0.237255 0.639890 0.930347
O O14 0.547159 0.791428 0.781492
#
# Coordination Sequence:
#
# PCOD8117867 Si02
#       7
#     4   4   4   4   4   2   4
#     4  10  21  38  53  88 113 158 186 241 291 341
#     4  10  21  32  53  89 117 145 192 234 278 337
#     4  11  20  34  56  83 118 158 183 236 282 349
#     4  10  19  34  54  88 112 150 192 241 291 334
#     4  10  19  35  59  83 115 144 196 241 287 346
#     4  10  20  36  60  90 104 148 196 244 278 350
#     4  10  22  34  58  84 120 144 198 235 287 344
#
# _framework density 21.169902
#
# number of rings (size 3 to 8) (size 9 to 14) (size 15 to 20)
#    0.000    1.846    2.308    2.308    7.538    0.000 
#    0.000    0.000    0.000    8.308    0.000    0.000 
#    0.000    0.000    0.000    0.000    0.000    0.000 
#
# Total GULP energy -322300.872156 kJ/mol
# GULP energy per Si atom -12396.187391 kJ/mol
# Density = 2.112172 g / cm^3
# Si number density = 21.169902 Si / 1000 Ang^3
#
#
#
# Elastic Constant Matrix: (Units=GPa)
#
#
# Indices 1 2 3 4 5 6 
#
# 1 99.2260 39.3056 22.4547 0.0000 13.6613 0.0000
# 2 39.3056 106.8411 22.5314 0.0000 11.4987 0.0000
# 3 22.4547 22.5314 35.5856 0.0000 9.0933 0.0000
# 4 0.0000 0.0000 0.0000 21.3042 0.0000 -6.8740
# 5 13.6613 11.4987 9.0933 0.0000 45.7861 0.0000
# 6 0.0000 0.0000 0.0000 -6.8740 0.0000 17.1015
#
#
#
# Elastic Compliance Matrix: (Units=1/GPa)
#
#
# Indices 1 2 3 4 5 6 
#
# 1 0.012934 -0.003387 -0.005529 0.000000 -0.001911 0.000000
# 2 -0.003387 0.011778 -0.005081 0.000000 -0.000938 0.000000
# 3 -0.005529 -0.005081 0.035880 0.000000 -0.004200 0.000000
# 4 0.000000 0.000000 0.000000 0.053934 0.000000 0.021679
# 5 -0.001911 -0.000938 -0.004200 0.000000 0.023481 0.000000
# 6 0.000000 0.000000 0.000000 0.021679 0.000000 0.067188
#
#
# Mechanical properties :
#
#
# Convention : Reuss Voigt Hill
#
# Bulk Modulus (GPa) = 30.67497 45.58179 38.12838
# Shear Modulus (GPa) = 20.48734 27.32910 23.90822
#
# Velocity S-wave (km/s) = 3.11426 3.59686 3.36423
# Velocity P-wave (km/s) = 5.23954 6.23122 5.75677
#
# Compressibility (1/GPa) = 0.03259986
#
# Stress axis : x y z
#
# Youngs Moduli (GPa) = 77.31741 84.90400 27.87058
#
# Poissons Ratio (x) = 0.28753 0.15409
# Poissons Ratio (y) = 0.26184 0.14160
# Poissons Ratio (z) = 0.42747 0.43136
#
# Static dielectric constant tensor:
#      x y z
#    x 4.104630 0.000000 0.101030 
#    y 0.000000 3.968010 0.000000 
#    z 0.101030 0.000000 3.570270 
# 
# 
# High freq. dielectric constant tensor:
#      x y z
#    x 1.837790 0.000000 -0.013500 
#    y 0.000000 1.830680 0.000000 
#    z -0.013500 0.000000 1.790630 
# 
# From -- ./inp_files/76201.got.cif
#   From: 2010.06.25/outbox.cif.g09.slc.cpg/sg13_39_cif.got.tgz:76201.got - 2010.06.28 04:50:58.
