data_PCOD8117100
_publ_section_title
;
Structure prediction by ZEFSAII (Michael W. Deem and Ramdas Pophale) SiO2 
 PCOD8117100
Probable space group: P 2/C
;
_chemical_formula_sum "Si O2"
_cell_formula_units_Z 24
_cell_length_a 7.642099
_cell_length_b 9.644612
_cell_length_c 14.507661
_cell_angle_alpha 90.000000
_cell_angle_beta 62.236033
_cell_angle_gamma 90.000000
_cell_volume 946.185540
_symmetry_space_group_name_H-M "P 2/C"
_symmetry_group_IT_number 13
_symmetry_cell_setting 'monoclinic'
loop_
_space_group_symop_operation_xyz
x,y,z
-x,y,1/2-z
-x,-y,-z
x,-y,1/2+z
loop_
_atom_site_type_symbol
_atom_site_label
_atom_site_fract_x
_atom_site_fract_y
_atom_site_fract_z
Si Si1 0.067147 0.574812 0.876226
Si Si2 0.683266 0.567165 0.870161
Si Si3 0.694321 0.926758 0.054686
Si Si4 0.598381 0.856089 0.828123
Si Si5 0.377233 0.617559 0.372116
Si Si6 0.062934 0.885188 0.870358
O O1 0.177674 0.551212 0.752747
O O2 0.158648 0.456721 0.921808
O O3 0.106959 0.731591 0.902440
O O4 0.828175 0.558448 0.923248
O O5 0.571400 0.715314 0.891948
O O6 0.513079 0.448953 0.919895
O O7 0.634754 0.780032 0.110842
O O8 0.501861 0.021958 0.086999
O O9 0.839599 0.995816 0.092660
O O10 0.822839 0.908113 0.928322
O O11 0.500000 0.845749 0.750000
O O12 0.833827 0.889456 0.755954
O O13 0.500000 0.583411 0.250000
#
# Coordination Sequence:
#
# PCOD8117100 Si02
#       6
#     4   4   4   4   4   4
#     4   9  18  33  53  77 104 142 184 217 258 318
#     4   9  17  32  55  77 102 141 186 220 255 315
#     4  10  19  31  53  81 107 138 176 223 275 317
#     4   9  16  32  55  76 102 141 182 217 261 317
#     4  10  18  31  53  79 108 139 174 222 273 315
#     4   9  18  33  51  76 106 140 183 218 259 323
#
# _framework density 25.365003999999999
#
# number of rings (size 3 to 8) (size 9 to 14) (size 15 to 20)
#    0.000    2.667    0.000    5.000    0.000    0.667 
#    0.000    3.333    0.000   10.000    0.000    0.000 
#    0.000    0.000    0.000    0.000    0.000    0.000 
#
# Total GULP energy -297504.606492 kJ/mol
# GULP energy per Si atom -12396.025271 kJ/mol
# Density = 2.530727 g / cm^3
# Si number density = 25.365004 Si / 1000 Ang^3
#
#
#
# Elastic Constant Matrix: (Units=GPa)
#
#
# Indices 1 2 3 4 5 6 
#
# 1 115.8031 79.6675 45.8266 0.0000 -28.3433 0.0000
# 2 79.6675 207.4395 49.7527 0.0000 -31.5520 0.0000
# 3 45.8266 49.7527 81.8185 0.0000 -27.3135 0.0000
# 4 0.0000 0.0000 0.0000 32.6915 0.0000 -14.2338
# 5 -28.3433 -31.5520 -27.3135 0.0000 55.4841 0.0000
# 6 0.0000 0.0000 0.0000 -14.2338 0.0000 30.6173
#
#
#
# Elastic Compliance Matrix: (Units=1/GPa)
#
#
# Indices 1 2 3 4 5 6 
#
# 1 0.013638 -0.003766 -0.004473 0.000000 0.002623 0.000000
# 2 -0.003766 0.006841 -0.001668 0.000000 0.001145 0.000000
# 3 -0.004473 -0.001668 0.017546 0.000000 0.005404 0.000000
# 4 0.000000 0.000000 0.000000 0.038352 0.000000 0.017829
# 5 0.002623 0.001145 0.005404 0.000000 0.022675 0.000000
# 6 0.000000 0.000000 0.000000 0.017829 0.000000 0.040950
#
#
# Mechanical properties :
#
#
# Convention : Reuss Voigt Hill
#
# Bulk Modulus (GPa) = 54.91256 83.95053 69.43155
# Shear Modulus (GPa) = 30.14086 39.07954 34.61020
#
# Velocity S-wave (km/s) = 3.45089 3.92942 3.69790
# Velocity P-wave (km/s) = 6.12977 7.33184 6.75759
#
# Compressibility (1/GPa) = 0.01821077
#
# Stress axis : x y z
#
# Youngs Moduli (GPa) = 73.32246 146.16892 56.99290
#
# Poissons Ratio (x) = 0.55047 0.25493
# Poissons Ratio (y) = 0.27613 0.09509
# Poissons Ratio (z) = 0.32798 0.24388
#
# Static dielectric constant tensor:
#      x y z
#    x 4.718110 0.000000 -0.546400 
#    y 0.000000 4.385790 0.000000 
#    z -0.546400 0.000000 5.346090 
# 
# 
# High freq. dielectric constant tensor:
#      x y z
#    x 2.015030 0.000000 -0.013760 
#    y 0.000000 1.999690 0.000000 
#    z -0.013760 0.000000 2.055650 
# 
# From -- ./inp_files/84725.got.cif
#   From: 2010.06.25/outbox.cif.g09.slc.cpg/sg13_43_cif.got.tgz:84725.got - 2010.06.28 04:50:58.
