data_PCOD8117049
_publ_section_title
;
Structure prediction by ZEFSAII (Michael W. Deem and Ramdas Pophale) SiO2 
 PCOD8117049
Probable space group: P 2/C
;
_chemical_formula_sum "Si O2"
_cell_formula_units_Z 24
_cell_length_a 8.929578
_cell_length_b 18.479768
_cell_length_c 15.815649
_cell_angle_alpha 90.000000
_cell_angle_beta 28.309464
_cell_angle_gamma 90.000000
_cell_volume 1237.675584
_symmetry_space_group_name_H-M "P 2/C"
_symmetry_group_IT_number 13
_symmetry_cell_setting 'monoclinic'
loop_
_space_group_symop_operation_xyz
x,y,z
-x,y,1/2-z
-x,-y,-z
x,-y,1/2+z
loop_
_atom_site_type_symbol
_atom_site_label
_atom_site_fract_x
_atom_site_fract_y
_atom_site_fract_z
Si Si1 0.124967 0.174851 0.934709
Si Si2 0.932261 0.908153 0.878031
Si Si3 0.875571 0.334195 0.562962
Si Si4 0.297804 0.453697 0.433701
Si Si5 0.686308 0.043111 0.743593
Si Si6 0.080967 0.410948 0.304905
O O1 0.500000 0.178608 0.750000
O O2 0.007170 0.254298 0.964846
O O3 0.054731 0.107294 0.906116
O O4 0.988959 0.156651 0.095646
O O5 0.134903 0.977435 0.803225
O O6 0.000000 0.881166 0.750000
O O7 0.563152 0.928077 0.064224
O O8 0.500000 0.343919 0.750000
O O9 0.039730 0.392141 0.542580
O O10 0.997521 0.343365 0.406165
O O11 0.500000 0.475395 0.250000
O O12 0.543877 0.425921 0.381269
O O13 0.113635 0.521463 0.561915
O O14 0.500000 0.020569 0.750000
O O15 0.000000 0.391095 0.250000
#
# Coordination Sequence:
#
# PCOD8117049 Si02
#       6
#     4   4   4   4   4   4
#     4   8  17  32  51  70  97 135 171 200 244 304
#     4  10  18  30  51  77 102 128 163 212 256 295
#     4  10  19  35  55  72  98 140 177 209 249 301
#     4  10  20  35  54  77 101 134 174 206 245 308
#     4   9  17  32  50  72  98 133 171 202 244 303
#     4  11  21  34  54  80 106 130 163 213 259 299
#
# _framework density 19.391188
#
# number of rings (size 3 to 8) (size 9 to 14) (size 15 to 20)
#    0.000    2.667    0.000    6.500    0.000    0.667 
#    0.000    7.500    0.000    9.000    0.000    2.333 
#    0.000    0.000    0.000    0.000    0.000    0.000 
#
# Total GULP energy -297380.015561 kJ/mol
# GULP energy per Si atom -12390.833982 kJ/mol
# Density = 1.934705 g / cm^3
# Si number density = 19.391188 Si / 1000 Ang^3
#
#
#
# Elastic Constant Matrix: (Units=GPa)
#
#
# Indices 1 2 3 4 5 6 
#
# 1 64.6507 -2.9876 19.8150 0.0000 -0.5195 0.0000
# 2 -2.9876 47.3030 12.1066 0.0000 -5.5326 0.0000
# 3 19.8150 12.1066 77.6441 0.0000 3.8465 0.0000
# 4 0.0000 0.0000 0.0000 19.2318 0.0000 8.9103
# 5 -0.5195 -5.5326 3.8465 0.0000 30.6457 0.0000
# 6 0.0000 0.0000 0.0000 8.9103 0.0000 22.4684
#
#
#
# Elastic Compliance Matrix: (Units=1/GPa)
#
#
# Indices 1 2 3 4 5 6 
#
# 1 0.017065 0.002464 -0.004806 0.000000 0.001337 0.000000
# 2 0.002464 0.022990 -0.004449 0.000000 0.004751 0.000000
# 3 -0.004806 -0.004449 0.014936 0.000000 -0.002759 0.000000
# 4 0.000000 0.000000 0.000000 0.063701 0.000000 -0.025262
# 5 0.001337 0.004751 -0.002759 0.000000 0.033858 0.000000
# 6 0.000000 0.000000 0.000000 -0.025262 0.000000 0.054525
#
#
# Mechanical properties :
#
#
# Convention : Reuss Voigt Hill
#
# Bulk Modulus (GPa) = 24.14829 27.49621 25.82225
# Shear Modulus (GPa) = 21.32559 25.18010 23.25285
#
# Velocity S-wave (km/s) = 3.31986 3.60743 3.46662
# Velocity P-wave (km/s) = 5.21301 5.61800 5.41929
#
# Compressibility (1/GPa) = 0.04141080
#
# Stress axis : x y z
#
# Youngs Moduli (GPa) = 58.59866 43.49671 66.95202
#
# Poissons Ratio (x) = -0.10718 0.32174
# Poissons Ratio (y) = -0.14440 0.29787
# Poissons Ratio (z) = 0.28160 0.19351
#
# Static dielectric constant tensor:
#      x y z
#    x 2.967460 0.000000 -1.473270 
#    y 0.000000 3.987810 0.000000 
#    z -1.473270 0.000000 -1.248880 
# 
# 
# High freq. dielectric constant tensor:
#      x y z
#    x 1.723400 0.000000 -0.002180 
#    y 0.000000 1.753270 0.000000 
#    z -0.002180 0.000000 1.760900 
# 
# From -- ./inp_files/48051.got.cif
#   From: 2010.06.25/outbox.cif.g09.slc.cpg/sg13_25_cif.got.tgz:48051.got - 2010.06.28 04:50:58.
