data_PCOD8117273
_publ_section_title
;
Structure prediction by ZEFSAII (Michael W. Deem and Ramdas Pophale) SiO2 
 PCOD8117273
Probable space group: P 2/C
;
_chemical_formula_sum "Si O2"
_cell_formula_units_Z 26
_cell_length_a 11.221977
_cell_length_b 20.091319
_cell_length_c 8.928037
_cell_angle_alpha 90.000000
_cell_angle_beta 138.973400
_cell_angle_gamma 90.000000
_cell_volume 1321.321664
_symmetry_space_group_name_H-M "P 2/C"
_symmetry_group_IT_number 13
_symmetry_cell_setting 'monoclinic'
loop_
_space_group_symop_operation_xyz
x,y,z
-x,y,1/2-z
-x,-y,-z
x,-y,1/2+z
loop_
_atom_site_type_symbol
_atom_site_label
_atom_site_fract_x
_atom_site_fract_y
_atom_site_fract_z
Si Si1 0.486080 0.428304 0.559325
Si Si2 0.747329 0.186069 0.332769
Si Si3 0.334199 0.804288 0.407285
Si Si4 0.193315 0.336324 0.126227
Si Si5 0.922553 0.094398 0.930775
Si Si6 0.000000 0.003886 0.750000
Si Si7 0.226016 0.340246 0.811349
O O1 0.500000 0.433911 0.750000
O O2 0.500000 0.500000 0.500000
O O3 0.306851 0.386303 0.340023
O O4 0.669306 0.396026 0.676448
O O5 0.771621 0.188267 0.534929
O O6 0.787723 0.259370 0.304048
O O7 0.877088 0.129040 0.385665
O O8 0.538787 0.169396 0.100283
O O9 0.226714 0.849109 0.187194
O O10 0.312389 0.728666 0.334322
O O11 0.264932 0.345461 0.025242
O O12 0.981164 0.352412 0.930746
O O13 0.888100 0.044660 0.035535
O O14 0.878020 0.051871 0.738413
#
# Coordination Sequence:
#
# PCOD8117273 Si02
#       7
#     4   4   4   4   4   2   4
#     4  12  26  44  64  92 134 173 204 257 315 373
#     4  10  18  33  63  93 117 155 206 253 304 362
#     4  10  18  33  63  93 117 155 206 253 304 362
#     4  10  20  38  66  97 125 162 212 262 310 375
#     4  11  20  42  56  88 119 170 200 258 306 366
#     4  10  24  38  62  78 128 164 210 242 314 380
#     4  10  20  38  66  97 125 162 212 262 310 375
#
# _framework density 19.677268999999999
#
# number of rings (size 3 to 8) (size 9 to 14) (size 15 to 20)
#    0.000    1.538    4.615    1.385    0.000    1.231 
#    2.769    5.385    0.000    0.000    0.000    0.000 
#    0.000    0.000    0.000    0.000    0.000    0.000 
#
# Total GULP energy -322255.894070 kJ/mol
# GULP energy per Si atom -12394.457464 kJ/mol
# Density = 1.963248 g / cm^3
# Si number density = 19.677269 Si / 1000 Ang^3
#
#
#
# Elastic Constant Matrix: (Units=GPa)
#
#
# Indices 1 2 3 4 5 6 
#
# 1 75.0345 49.6979 44.6823 0.0000 1.0189 0.0000
# 2 49.6979 144.8167 56.1321 0.0000 -1.4658 0.0000
# 3 44.6823 56.1321 103.1859 0.0000 3.7550 0.0000
# 4 0.0000 0.0000 0.0000 32.5042 0.0000 -0.7937
# 5 1.0189 -1.4658 3.7550 0.0000 34.2967 0.0000
# 6 0.0000 0.0000 0.0000 -0.7937 0.0000 0.2439
#
#
#
# Elastic Compliance Matrix: (Units=1/GPa)
#
#
# Indices 1 2 3 4 5 6 
#
# 1 0.019983 -0.004443 -0.006232 0.000000 -0.000101 0.000000
# 2 -0.004443 0.009766 -0.003422 0.000000 0.000924 0.000000
# 3 -0.006232 -0.003422 0.014307 0.000000 -0.001528 0.000000
# 4 0.000000 0.000000 0.000000 0.033421 0.000000 0.108752
# 5 -0.000101 0.000924 -0.001528 0.000000 0.029367 0.000000
# 6 0.000000 0.000000 0.000000 0.108752 0.000000 4.453855
#
#
# Mechanical properties :
#
#
# Convention : Reuss Voigt Hill
#
# Bulk Modulus (GPa) = 63.04931 69.34020 66.19476
# Shear Modulus (GPa) = 1.08833 24.91062 12.99948
#
# Velocity S-wave (km/s) = 0.74451 3.56189 2.57307
# Velocity P-wave (km/s) = 5.73152 7.22712 6.52233
#
# Compressibility (1/GPa) = 0.01586060
#
# Stress axis : x y z
#
# Youngs Moduli (GPa) = 50.04350 102.39798 69.89419
#
# Poissons Ratio (x) = 0.45494 0.43561
# Poissons Ratio (y) = 0.22234 0.23920
# Poissons Ratio (z) = 0.31189 0.35043
#
# Static dielectric constant tensor:
#      x y z
#    x 3.375020 0.000000 -0.002200 
#    y 0.000000 3.751740 0.000000 
#    z -0.002200 0.000000 3.546200 
# 
# 
# High freq. dielectric constant tensor:
#      x y z
#    x 1.744000 0.000000 0.009150 
#    y 0.000000 1.781510 0.000000 
#    z 0.009150 0.000000 1.760970 
# 
# From -- ./inp_files/13669.got.cif
#   From: 2010.06.25/outbox.cif.g09.slc.cpg/sg13_7_cif.got.tgz:13669.got - 2010.06.28 04:50:58.
