data_PCOD8117323
_publ_section_title
;
Structure prediction by ZEFSAII (Michael W. Deem and Ramdas Pophale) SiO2 
 PCOD8117323
Probable space group: P 2/C
;
_chemical_formula_sum "Si O2"
_cell_formula_units_Z 30
_cell_length_a 10.155057
_cell_length_b 11.798433
_cell_length_c 17.745692
_cell_angle_alpha 90.000000
_cell_angle_beta 44.915221
_cell_angle_gamma 90.000000
_cell_volume 1501.208699
_symmetry_space_group_name_H-M "P 2/C"
_symmetry_group_IT_number 13
_symmetry_cell_setting 'monoclinic'
loop_
_space_group_symop_operation_xyz
x,y,z
-x,y,1/2-z
-x,-y,-z
x,-y,1/2+z
loop_
_atom_site_type_symbol
_atom_site_label
_atom_site_fract_x
_atom_site_fract_y
_atom_site_fract_z
Si Si1 0.795309 0.053168 0.708060
Si Si2 0.348979 0.219886 0.623771
Si Si3 0.251600 0.734163 0.607409
Si Si4 0.705935 0.170684 0.154830
Si Si5 0.879214 0.207155 0.931845
Si Si6 0.000000 0.930338 0.750000
Si Si7 0.913693 0.407841 0.706530
Si Si8 0.117221 0.650396 0.812126
O O1 0.632014 0.115149 0.823601
O O2 0.927331 0.148725 0.618127
O O3 0.721431 0.958748 0.679965
O O4 0.950878 0.001051 0.698001
O O5 0.548181 0.260827 0.513097
O O6 0.212679 0.174623 0.612117
O O7 0.259635 0.326163 0.703727
O O8 0.181207 0.860122 0.651970
O O9 0.260232 0.674644 0.685533
O O10 0.101233 0.668295 0.617583
O O11 0.500000 0.215650 0.250000
O O12 0.842785 0.262259 0.136757
O O13 0.731112 0.174966 0.055188
O O14 0.929410 0.340371 0.904777
O O15 0.853307 0.517069 0.680891
O O16 0.000000 0.453967 0.750000
#
# Coordination Sequence:
#
# PCOD8117323 Si02
#       8
#     4   4   4   4   4   2   4   4
#     4  11  20  41  60  81 118 156 197 243 293 352
#     4  10  21  36  64  94 114 147 205 249 286 346
#     4  10  19  34  57  92 116 150 196 251 284 342
#     4  12  25  40  56  86 120 157 197 243 293 356
#     4  10  22  38  60  87 122 155 189 237 307 350
#     4  10  18  34  58  82 112 152 188 236 294 336
#     4   9  18  39  63  88 115 152 194 245 290 351
#     4  10  20  39  60  82 122 153 195 237 303 348
#
# _framework density 19.983896999999999
#
# number of rings (size 3 to 8) (size 9 to 14) (size 15 to 20)
#    0.000    1.867    5.333    2.000    0.000    2.667 
#    4.800    0.000    0.000    0.000    0.000    0.000 
#    0.000    0.000    0.000    0.000    0.000    0.000 
#
# Total GULP energy -371655.760199 kJ/mol
# GULP energy per Si atom -12388.525340 kJ/mol
# Density = 1.993841 g / cm^3
# Si number density = 19.983897 Si / 1000 Ang^3
#
#
#
# Elastic Constant Matrix: (Units=GPa)
#
#
# Indices 1 2 3 4 5 6 
#
# 1 42.1170 19.8496 21.0320 0.0000 -3.4352 0.0000
# 2 19.8496 107.6191 29.9378 0.0000 6.4021 0.0000
# 3 21.0320 29.9378 121.3542 0.0000 -13.4455 0.0000
# 4 0.0000 0.0000 0.0000 15.9558 0.0000 3.0739
# 5 -3.4352 6.4021 -13.4455 0.0000 28.9620 0.0000
# 6 0.0000 0.0000 0.0000 3.0739 0.0000 7.9284
#
#
#
# Elastic Compliance Matrix: (Units=1/GPa)
#
#
# Indices 1 2 3 4 5 6 
#
# 1 0.027711 -0.004309 -0.003447 0.000000 0.002639 0.000000
# 2 -0.004309 0.011001 -0.002418 0.000000 -0.004065 0.000000
# 3 -0.003447 -0.002418 0.009960 0.000000 0.004750 0.000000
# 4 0.000000 0.000000 0.000000 0.067732 0.000000 -0.026260
# 5 0.002639 -0.004065 0.004750 0.000000 0.037945 0.000000
# 6 0.000000 0.000000 0.000000 -0.026260 0.000000 0.136311
#
#
# Mechanical properties :
#
#
# Convention : Reuss Voigt Hill
#
# Bulk Modulus (GPa) = 35.30475 45.85879 40.58177
# Shear Modulus (GPa) = 15.60308 23.92063 19.76185
#
# Velocity S-wave (km/s) = 2.79728 3.46352 3.14807
# Velocity P-wave (km/s) = 5.30453 6.24438 5.79354
#
# Compressibility (1/GPa) = 0.02832480
#
# Stress axis : x y z
#
# Youngs Moduli (GPa) = 36.08685 90.89931 100.39748
#
# Poissons Ratio (x) = 0.39170 0.34609
# Poissons Ratio (y) = 0.15550 0.24272
# Poissons Ratio (z) = 0.12440 0.21975
#
# Static dielectric constant tensor:
#      x y z
#    x 3.224580 0.000000 0.092100 
#    y 0.000000 3.751860 0.000000 
#    z 0.092100 0.000000 3.492400 
# 
# 
# High freq. dielectric constant tensor:
#      x y z
#    x 1.749220 0.000000 -0.003610 
#    y 0.000000 1.789100 0.000000 
#    z -0.003610 0.000000 1.771760 
# 
# From -- ./inp_files/66642.got.cif
#   From: 2010.06.25/outbox.cif.g09.slc.cpg/sg13_34_cif.got.tgz:66642.got - 2010.06.28 04:50:58.
