data_PCOD8117888
_publ_section_title
;
Structure prediction by ZEFSAII (Michael W. Deem and Ramdas Pophale) SiO2 
 PCOD8117888
Probable space group: P 2/C
;
_chemical_formula_sum "Si O2"
_cell_formula_units_Z 28
_cell_length_a 8.888534
_cell_length_b 9.530543
_cell_length_c 18.938233
_cell_angle_alpha 90.000000
_cell_angle_beta 93.873866
_cell_angle_gamma 90.000000
_cell_volume 1600.640593
_symmetry_space_group_name_H-M "P 2/C"
_symmetry_group_IT_number 13
_symmetry_cell_setting 'monoclinic'
loop_
_space_group_symop_operation_xyz
x,y,z
-x,y,1/2-z
-x,-y,-z
x,-y,1/2+z
loop_
_atom_site_type_symbol
_atom_site_label
_atom_site_fract_x
_atom_site_fract_y
_atom_site_fract_z
Si Si1 0.379359 0.119203 0.361507
Si Si2 0.834127 0.945789 0.772041
Si Si3 0.818629 0.139482 0.011348
Si Si4 0.411531 0.667890 0.561422
Si Si5 0.411186 0.868962 0.180085
Si Si6 0.380603 0.354953 0.561270
Si Si7 0.848500 0.871933 0.925362
O O1 0.270301 0.132375 0.289674
O O2 0.277369 0.079901 0.425732
O O3 0.468410 0.264884 0.379242
O O4 0.506540 0.001392 0.354378
O O5 0.852153 0.847159 0.841166
O O6 0.000000 0.985302 0.750000
O O7 0.754258 0.087297 0.796967
O O8 0.763478 0.292638 0.984907
O O9 0.797970 0.029873 0.945930
O O10 0.990286 0.160234 0.037007
O O11 0.357940 0.514773 0.586049
O O12 0.475955 0.655004 0.484913
O O13 0.266051 0.762623 0.545312
O O14 0.500000 0.814332 0.250000
O O15 0.408426 0.736161 0.130598
#
# Coordination Sequence:
#
# PCOD8117888 Si02
#       7
#     4   4   4   4   4   4   4
#     4  10  19  34  56  83 105 140 181 228 270 318
#     4  11  20  34  55  82 112 136 179 230 271 315
#     4  10  20  33  58  81 109 138 184 226 271 320
#     4  10  21  35  58  80 110 142 183 223 268 321
#     4  10  20  35  56  80 107 142 177 224 276 319
#     4  10  20  38  54  81 111 142 179 226 267 322
#     4  11  20  34  54  85 105 147 180 226 271 317
#
# _framework density 17.492996000000002
#
# number of rings (size 3 to 8) (size 9 to 14) (size 15 to 20)
#    0.000    1.714    4.286    0.857    0.000    2.857 
#    2.571    0.000    0.000    0.857    0.000    0.000 
#    0.000    0.000    0.000    0.000    0.000    0.000 
#
# Total GULP energy -347130.341024 kJ/mol
# GULP energy per Si atom -12397.512179 kJ/mol
# Density = 1.745318 g / cm^3
# Si number density = 17.492996 Si / 1000 Ang^3
#
#
#
# Elastic Constant Matrix: (Units=GPa)
#
#
# Indices 1 2 3 4 5 6 
#
# 1 119.9233 58.4259 37.2666 0.0000 -1.6765 0.0000
# 2 58.4259 113.3007 43.0906 0.0000 9.6160 0.0000
# 3 37.2666 43.0906 100.8077 0.0000 9.2568 0.0000
# 4 0.0000 0.0000 0.0000 23.9281 0.0000 -2.4164
# 5 -1.6765 9.6160 9.2568 0.0000 19.2646 0.0000
# 6 0.0000 0.0000 0.0000 -2.4164 0.0000 18.1177
#
#
#
# Elastic Compliance Matrix: (Units=1/GPa)
#
#
# Indices 1 2 3 4 5 6 
#
# 1 0.011920 -0.005639 -0.002458 0.000000 0.005034 0.000000
# 2 -0.005639 0.013404 -0.003123 0.000000 -0.005681 0.000000
# 3 -0.002458 -0.003123 0.012596 0.000000 -0.004707 0.000000
# 4 0.000000 0.000000 0.000000 0.042362 0.000000 0.005650
# 5 0.005034 -0.005681 -0.004707 0.000000 0.057444 0.000000
# 6 0.000000 0.000000 0.000000 0.005650 0.000000 0.055948
#
#
# Mechanical properties :
#
#
# Convention : Reuss Voigt Hill
#
# Bulk Modulus (GPa) = 64.60522 67.95534 66.28028
# Shear Modulus (GPa) = 22.59615 25.27865 23.93740
#
# Velocity S-wave (km/s) = 3.59796 3.80554 3.70320
# Velocity P-wave (km/s) = 7.36700 7.63158 7.50045
#
# Compressibility (1/GPa) = 0.01547863
#
# Stress axis : x y z
#
# Youngs Moduli (GPa) = 83.88983 74.60447 79.39006
#
# Poissons Ratio (x) = 0.42071 0.19518
# Poissons Ratio (y) = 0.47307 0.24796
# Poissons Ratio (z) = 0.20624 0.23301
#
# Static dielectric constant tensor:
#      x y z
#    x 3.380720 0.000000 -0.031560 
#    y 0.000000 3.116540 0.000000 
#    z -0.031560 0.000000 3.439630 
# 
# 
# High freq. dielectric constant tensor:
#      x y z
#    x 1.687900 0.000000 0.001590 
#    y 0.000000 1.645590 0.000000 
#    z 0.001590 0.000000 1.689640 
# 
# From -- ./inp_files/70477.got.cif
#   From: 2010.06.25/outbox.cif.g09.slc.cpg/sg13_36_cif.got.tgz:70477.got - 2010.06.28 04:50:58.
