data_PCOD8117216
_publ_section_title
;
Structure prediction by ZEFSAII (Michael W. Deem and Ramdas Pophale) SiO2 
 PCOD8117216
Probable space group: P 2/C
;
_chemical_formula_sum "Si O2"
_cell_formula_units_Z 32
_cell_length_a 19.694417
_cell_length_b 10.605606
_cell_length_c 17.530613
_cell_angle_alpha 90.000000
_cell_angle_beta 29.080289
_cell_angle_gamma 90.000000
_cell_volume 1779.684615
_symmetry_space_group_name_H-M "P 2/C"
_symmetry_group_IT_number 13
_symmetry_cell_setting 'monoclinic'
loop_
_space_group_symop_operation_xyz
x,y,z
-x,y,1/2-z
-x,-y,-z
x,-y,1/2+z
loop_
_atom_site_type_symbol
_atom_site_label
_atom_site_fract_x
_atom_site_fract_y
_atom_site_fract_z
Si Si1 0.339589 0.252721 0.830226
Si Si2 0.191265 0.409460 0.276344
Si Si3 0.649002 0.304039 0.508870
Si Si4 0.945723 0.894464 0.109982
Si Si5 0.874992 0.334867 0.582233
Si Si6 0.706516 0.047822 0.382652
Si Si7 0.437268 0.027589 0.230296
Si Si8 0.243270 0.174058 0.322089
O O1 0.484690 0.297879 0.649678
O O2 0.206682 0.301561 0.914701
O O3 0.345702 0.100283 0.829763
O O4 0.326398 0.318924 0.925545
O O5 0.281681 0.414951 0.109380
O O6 0.197324 0.547245 0.305941
O O7 0.260995 0.313657 0.269239
O O8 0.035824 0.365298 0.405827
O O9 0.728795 0.176796 0.405939
O O10 0.861161 0.785004 0.150061
O O11 0.836127 0.955119 0.277642
O O12 0.085556 0.837632 0.010612
O O13 0.000000 0.000000 0.000000
O O14 0.717075 0.070460 0.281255
O O15 0.559409 0.986261 0.548179
O O16 0.500000 0.064793 0.250000
O O17 0.343566 0.145577 0.295045
#
# Coordination Sequence:
#
# PCOD8117216 Si02
#       8
#     4   4   4   4   4   4   4   4
#     4  10  18  33  53  79 108 138 168 227 276 305
#     4   9  20  37  53  78 103 139 189 216 253 319
#     4   9  18  33  52  76 112 135 173 219 262 322
#     4   9  17  31  51  81 104 125 173 215 262 312
#     4  10  20  34  57  79 104 139 178 224 263 310
#     4   9  16  31  51  77 104 133 167 211 265 320
#     4  11  19  32  51  79 109 136 170 216 272 323
#     4   9  18  31  53  71 104 139 168 215 258 311
#
# _framework density 17.980713999999999
#
# number of rings (size 3 to 8) (size 9 to 14) (size 15 to 20)
#    0.000    2.500    2.500    2.625    0.000    3.000 
#    0.000    0.625    5.500    0.000    0.000    0.000 
#    0.000    0.000    0.000    0.000    0.000    0.000 
#
# Total GULP energy -396631.659388 kJ/mol
# GULP energy per Si atom -12394.739356 kJ/mol
# Density = 1.793979 g / cm^3
# Si number density = 17.980714 Si / 1000 Ang^3
#
#
#
# Elastic Constant Matrix: (Units=GPa)
#
#
# Indices 1 2 3 4 5 6 
#
# 1 114.8402 43.2105 36.1137 0.0000 -10.4080 0.0000
# 2 43.2105 85.4918 32.2651 0.0000 -1.8521 0.0000
# 3 36.1137 32.2651 59.6458 0.0000 3.5176 0.0000
# 4 0.0000 0.0000 0.0000 26.7268 0.0000 -3.7018
# 5 -10.4080 -1.8521 3.5176 0.0000 16.8824 0.0000
# 6 0.0000 0.0000 0.0000 -3.7018 0.0000 20.0677
#
#
#
# Elastic Compliance Matrix: (Units=1/GPa)
#
#
# Indices 1 2 3 4 5 6 
#
# 1 0.012974 -0.004026 -0.006199 0.000000 0.008849 0.000000
# 2 -0.004026 0.016132 -0.006324 0.000000 0.000605 0.000000
# 3 -0.006199 -0.006324 0.024508 0.000000 -0.009622 0.000000
# 4 0.000000 0.000000 0.000000 0.038397 0.000000 0.007083
# 5 0.008849 0.000605 -0.009622 0.000000 0.066760 0.000000
# 6 0.000000 0.000000 0.000000 0.007083 0.000000 0.051138
#
#
# Mechanical properties :
#
#
# Convention : Reuss Voigt Hill
#
# Bulk Modulus (GPa) = 48.74740 53.68404 51.21572
# Shear Modulus (GPa) = 20.01234 22.62797 21.32015
#
# Velocity S-wave (km/s) = 3.33977 3.55132 3.44717
# Velocity P-wave (km/s) = 6.48397 6.83646 6.66254
#
# Compressibility (1/GPa) = 0.02051391
#
# Stress axis : x y z
#
# Youngs Moduli (GPa) = 77.07650 61.98848 40.80338
#
# Poissons Ratio (x) = 0.24958 0.25295
# Poissons Ratio (y) = 0.31033 0.25806
# Poissons Ratio (z) = 0.47782 0.39204
#
# Static dielectric constant tensor:
#      x y z
#    x 3.097500 0.000000 -0.149830 
#    y 0.000000 3.230380 0.000000 
#    z -0.149830 0.000000 3.696800 
# 
# 
# High freq. dielectric constant tensor:
#      x y z
#    x 1.672310 0.000000 -0.012610 
#    y 0.000000 1.675870 0.000000 
#    z -0.012610 0.000000 1.702260 
# 
# From -- ./inp_files/70631.got.cif
#   From: 2010.06.25/outbox.cif.g09.slc.cpg/sg13_36_cif.got.tgz:70631.got - 2010.06.28 04:50:58.
