data_PCOD8117731
_publ_section_title
;
Structure prediction by ZEFSAII (Michael W. Deem and Ramdas Pophale) SiO2 
 PCOD8117731
Probable space group: P 2/C
;
_chemical_formula_sum "Si O2"
_cell_formula_units_Z 16
_cell_length_a 19.025055
_cell_length_b 6.855897
_cell_length_c 5.290677
_cell_angle_alpha 90.000000
_cell_angle_beta 90.278940
_cell_angle_gamma 90.000000
_cell_volume 690.075020
_symmetry_space_group_name_H-M "P 2/C"
_symmetry_group_IT_number 13
_symmetry_cell_setting 'monoclinic'
loop_
_space_group_symop_operation_xyz
x,y,z
-x,y,1/2-z
-x,-y,-z
x,-y,1/2+z
loop_
_atom_site_type_symbol
_atom_site_label
_atom_site_fract_x
_atom_site_fract_y
_atom_site_fract_z
Si Si1 0.500000 0.373051 0.750000
Si Si2 0.713390 0.710817 0.773888
Si Si3 0.653955 0.271919 0.773246
Si Si4 0.000000 0.371234 0.250000
Si Si5 0.859697 0.873469 0.727676
O O1 0.500000 0.500000 0.500000
O O2 0.570178 0.243777 0.750487
O O3 0.680518 0.495955 0.792850
O O4 0.680177 0.826792 0.534049
O O5 0.797801 0.712719 0.753462
O O6 0.690209 0.825464 0.028694
O O7 0.932721 0.235077 0.253687
O O8 0.000000 0.500000 0.500000
O O9 0.853677 0.969910 0.451827
#
# Coordination Sequence:
#
# PCOD8117731 Si02
#       5
#     2   4   4   2   4
#     4  12  16  30  48  88 128 164 194 270 356 346
#     4  10  20  33  57  84 122 157 207 260 312 357
#     4  10  19  32  55  92 123 157 210 281 303 382
#     4  12  28  46  74 104 126 168 216 274 314 372
#     4  12  26  46  68  94 136 178 210 255 325 400
#
# _framework density 23.185886
#
# number of rings (size 3 to 8) (size 9 to 14) (size 15 to 20)
#    0.000    1.000    5.000    3.750    7.000    0.000 
#    0.000    0.000    0.000    0.000    0.000   29.750 
#    0.000    0.000    0.000    0.000    0.000    0.000 
#
# Total GULP energy -198312.044112 kJ/mol
# GULP energy per Si atom -12394.502757 kJ/mol
# Density = 2.313311 g / cm^3
# Si number density = 23.185886 Si / 1000 Ang^3
#
#
#
# Elastic Constant Matrix: (Units=GPa)
#
#
# Indices 1 2 3 4 5 6 
#
# 1 189.6040 9.9835 8.7595 0.0000 -7.5291 0.0000
# 2 9.9835 45.4014 -16.1443 0.0000 -4.7837 0.0000
# 3 8.7595 -16.1443 205.9082 0.0000 -6.2464 0.0000
# 4 0.0000 0.0000 0.0000 -2.4446 0.0000 -31.4270
# 5 -7.5291 -4.7837 -6.2464 0.0000 41.4837 0.0000
# 6 0.0000 0.0000 0.0000 -31.4270 0.0000 -67.2470
#
#
#
# Elastic Compliance Matrix: (Units=1/GPa)
#
#
# Indices 1 2 3 4 5 6 
#
# 1 0.005383 -0.001207 -0.000300 0.000000 0.000793 0.000000
# 2 -0.001207 0.023279 0.001960 0.000000 0.002761 0.000000
# 3 -0.000300 0.001960 0.005051 0.000000 0.000932 0.000000
# 4 0.000000 0.000000 0.000000 0.081683 0.000000 -0.038174
# 5 0.000793 0.002761 0.000932 0.000000 0.024708 0.000000
# 6 0.000000 0.000000 0.000000 -0.038174 0.000000 0.002969
#
#
# Mechanical properties :
#
#
# Convention : Reuss Voigt Hill
#
# Bulk Modulus (GPa) = 28.88390 49.56789 39.22589
# Shear Modulus (GPa) = 32.52942 23.57942 28.05442
#
# Velocity S-wave (km/s) = 3.74971 3.19246 3.48225
# Velocity P-wave (km/s) = 5.58853 5.91726 5.75524
#
# Compressibility (1/GPa) = 0.03462136
#
# Stress axis : x y z
#
# Youngs Moduli (GPa) = 185.76984 42.95710 197.97065
#
# Poissons Ratio (x) = 0.05184 0.05930
# Poissons Ratio (y) = 0.22417 -0.38808
# Poissons Ratio (z) = 0.05565 -0.08421
#
# Static dielectric constant tensor:
#      x y z
#    x 0.000000 0.000000 0.000000 
#    y 0.000000 0.000000 0.000000 
#    z 0.000000 0.000000 0.000000 
# 
# 
# High freq. dielectric constant tensor:
#      x y z
#    x 1.932110 0.000000 -0.000800 
#    y 0.000000 1.883970 0.000000 
#    z -0.000800 0.000000 1.961820 
# 
# From -- ./inp_files/5779.got.cif
#   From: 2010.06.25/outbox.cif.g09.slc.cpg/sg13_3_cif.got.tgz:5779.got - 2010.06.28 04:50:58.
