data_PCOD8117636
_publ_section_title
;
Structure prediction by ZEFSAII (Michael W. Deem and Ramdas Pophale) SiO2 
 PCOD8117636
Probable space group: P 2/C
;
_chemical_formula_sum "Si O2"
_cell_formula_units_Z 20
_cell_length_a 8.895088
_cell_length_b 19.354882
_cell_length_c 5.163975
_cell_angle_alpha 90.000000
_cell_angle_beta 82.300764
_cell_angle_gamma 90.000000
_cell_volume 881.032609
_symmetry_space_group_name_H-M "P 2/C"
_symmetry_group_IT_number 13
_symmetry_cell_setting 'monoclinic'
loop_
_space_group_symop_operation_xyz
x,y,z
-x,y,1/2-z
-x,-y,-z
x,-y,1/2+z
loop_
_atom_site_type_symbol
_atom_site_label
_atom_site_fract_x
_atom_site_fract_y
_atom_site_fract_z
Si Si1 0.765385 0.454307 0.031341
Si Si2 0.169519 0.970568 0.004082
Si Si3 0.831719 0.189631 0.869087
Si Si4 0.000000 0.365222 0.250000
Si Si5 0.258085 0.266169 0.087175
Si Si6 0.500000 0.357358 0.250000
O O1 0.760242 0.514911 0.245479
O O2 0.918742 0.411497 0.048854
O O3 0.620227 0.404592 0.073292
O O4 0.174097 0.891274 0.078073
O O5 0.253142 0.014463 0.212187
O O6 0.000000 0.000000 0.000000
O O7 0.726529 0.211491 0.650736
O O8 0.000000 0.211991 0.750000
O O9 0.776132 0.228045 0.136182
O O10 0.878139 0.319765 0.435135
O O11 0.414945 0.308104 0.064096
#
# Coordination Sequence:
#
# PCOD8117636 Si02
#       6
#     4   4   4   2   4   2
#     4  11  24  41  65  90 120 155 201 253 307 364
#     4  10  19  30  52  87 130 155 190 246 308 357
#     4  12  21  36  60  92 130 154 202 253 311 353
#     4  10  22  38  60  92 124 154 194 254 316 366
#     4  11  25  39  61  89 126 165 203 253 304 363
#     4  10  26  46  64  88 122 168 212 244 298 370
#
# _framework density 22.700635999999999
#
# number of rings (size 3 to 8) (size 9 to 14) (size 15 to 20)
#    0.000    1.200    4.000    2.400    2.800   10.400 
#    0.000    0.000    0.000    0.000    0.000   14.000 
#    0.000    0.000    0.000    0.000    0.000    0.000 
#
# Total GULP energy -247945.551729 kJ/mol
# GULP energy per Si atom -12397.277586 kJ/mol
# Density = 2.264897 g / cm^3
# Si number density = 22.700636 Si / 1000 Ang^3
#
#
#
# Elastic Constant Matrix: (Units=GPa)
#
#
# Indices 1 2 3 4 5 6 
#
# 1 93.7916 51.4973 20.0638 0.0000 21.2257 0.0000
# 2 51.4973 145.1198 54.0092 0.0000 13.0836 0.0000
# 3 20.0638 54.0092 150.3137 0.0000 5.3047 0.0000
# 4 0.0000 0.0000 0.0000 36.0916 0.0000 23.1640
# 5 21.2257 13.0836 5.3047 0.0000 16.9684 0.0000
# 6 0.0000 0.0000 0.0000 23.1640 0.0000 21.8249
#
#
#
# Elastic Compliance Matrix: (Units=1/GPa)
#
#
# Indices 1 2 3 4 5 6 
#
# 1 0.017212 -0.004456 -0.000058 0.000000 -0.018076 0.000000
# 2 -0.004456 0.009609 -0.002824 0.000000 -0.000952 0.000000
# 3 -0.000058 -0.002824 0.007681 0.000000 -0.000151 0.000000
# 4 0.000000 0.000000 0.000000 0.086908 0.000000 -0.092241
# 5 -0.018076 -0.000952 -0.000151 0.000000 0.082325 0.000000
# 6 0.000000 0.000000 0.000000 -0.092241 0.000000 0.143720
#
#
# Mechanical properties :
#
#
# Convention : Reuss Voigt Hill
#
# Bulk Modulus (GPa) = 50.44442 71.15173 60.79807
# Shear Modulus (GPa) = 13.55966 32.55399 23.05682
#
# Velocity S-wave (km/s) = 2.44668 3.79100 3.19045
# Velocity P-wave (km/s) = 5.50013 7.11153 6.35709
#
# Compressibility (1/GPa) = 0.01982380
#
# Stress axis : x y z
#
# Youngs Moduli (GPa) = 58.09910 104.06700 130.19776
#
# Poissons Ratio (x) = 0.46377 0.00759
# Poissons Ratio (y) = 0.25892 0.36771
# Poissons Ratio (z) = 0.00339 0.29391
#
# Static dielectric constant tensor:
#      x y z
#    x 3.983930 0.000000 0.114640 
#    y 0.000000 4.362480 0.000000 
#    z 0.114640 0.000000 3.378990 
# 
# 
# High freq. dielectric constant tensor:
#      x y z
#    x 1.860600 0.000000 0.009980 
#    y 0.000000 1.912310 0.000000 
#    z 0.009980 0.000000 1.908110 
# 
# From -- ./inp_files/1632.got.cif
#   From: 2010.06.25/outbox.cif.g09.slc.cpg/sg13_1_cif.got.tgz:1632.got - 2010.06.28 04:50:58.
