data_PCOD8117110
_publ_section_title
;
Structure prediction by ZEFSAII (Michael W. Deem and Ramdas Pophale) SiO2 
 PCOD8117110
Probable space group: P 2/C
;
_chemical_formula_sum "Si O2"
_cell_formula_units_Z 30
_cell_length_a 24.099898
_cell_length_b 8.910114
_cell_length_c 14.612868
_cell_angle_alpha 90.000000
_cell_angle_beta 31.677671
_cell_angle_gamma 90.000000
_cell_volume 1647.817297
_symmetry_space_group_name_H-M "P 2/C"
_symmetry_group_IT_number 13
_symmetry_cell_setting 'monoclinic'
loop_
_space_group_symop_operation_xyz
x,y,z
-x,y,1/2-z
-x,-y,-z
x,-y,1/2+z
loop_
_atom_site_type_symbol
_atom_site_label
_atom_site_fract_x
_atom_site_fract_y
_atom_site_fract_z
Si Si1 0.588507 0.172714 0.051962
Si Si2 0.435987 0.172335 0.931132
Si Si3 0.000000 0.510309 0.250000
Si Si4 0.229759 0.502211 0.936887
Si Si5 0.767388 0.640953 0.759731
Si Si6 0.563720 0.347037 0.900966
Si Si7 0.778111 0.339910 0.858410
Si Si8 0.994334 0.649310 0.450083
O O1 0.500000 0.211092 0.250000
O O2 0.585007 0.002330 0.023446
O O3 0.573126 0.279995 0.987977
O O4 0.699874 0.204988 0.944602
O O5 0.500000 0.205090 0.750000
O O6 0.501665 0.231493 0.924694
O O7 0.324741 0.254280 0.074870
O O8 0.887447 0.419999 0.402583
O O9 0.994599 0.618850 0.342896
O O10 0.242672 0.619054 0.835204
O O11 0.320078 0.375366 0.805187
O O12 0.241826 0.599321 0.011608
O O13 0.759457 0.476526 0.814954
O O14 0.879184 0.722927 0.631743
O O15 0.500000 0.500000 0.000000
O O16 0.896028 0.264909 0.681055
O O17 0.000000 0.500000 0.500000
#
# Coordination Sequence:
#
# PCOD8117110 Si02
#       8
#     4   4   2   4   4   4   4   4
#     4  11  24  38  53  78 112 148 182 219 269 325
#     4  11  24  39  53  76 114 148 179 219 273 323
#     4   8  16  28  46  82 114 134 164 226 280 318
#     4  10  18  31  56  85 109 138 181 227 276 315
#     4  10  18  35  55  82 109 139 182 227 271 316
#     4  12  21  36  59  85 107 138 184 229 269 317
#     4  10  18  34  56  82 111 140 182 224 266 322
#     4   8  16  28  52  80 107 136 173 225 270 312
#
# _framework density 18.205902999999999
#
# number of rings (size 3 to 8) (size 9 to 14) (size 15 to 20)
#    0.000    1.867    2.667    2.000    0.000    1.067 
#    0.000    0.667    0.000    0.000    0.000    0.000 
#    0.000    0.000    0.000    0.000    0.000    0.000 
#
# Total GULP energy -371684.808595 kJ/mol
# GULP energy per Si atom -12389.493620 kJ/mol
# Density = 1.816447 g / cm^3
# Si number density = 18.205903 Si / 1000 Ang^3
#
#
#
# Elastic Constant Matrix: (Units=GPa)
#
#
# Indices 1 2 3 4 5 6 
#
# 1 113.9439 48.2581 53.6604 0.0000 -15.4109 0.0000
# 2 48.2581 69.4253 57.6055 0.0000 -13.8439 0.0000
# 3 53.6604 57.6055 139.4057 0.0000 -41.7644 0.0000
# 4 0.0000 0.0000 0.0000 5.0331 0.0000 8.9011
# 5 -15.4109 -13.8439 -41.7644 0.0000 43.9889 0.0000
# 6 0.0000 0.0000 0.0000 8.9011 0.0000 21.4782
#
#
#
# Elastic Compliance Matrix: (Units=1/GPa)
#
#
# Indices 1 2 3 4 5 6 
#
# 1 0.012768 -0.007340 -0.001724 0.000000 0.000526 0.000000
# 2 -0.007340 0.026318 -0.008859 0.000000 -0.002699 0.000000
# 3 -0.001724 -0.008859 0.014648 0.000000 0.010515 0.000000
# 4 0.000000 0.000000 0.000000 0.743882 0.000000 -0.308282
# 5 0.000526 -0.002699 0.010515 0.000000 0.032051 0.000000
# 6 0.000000 0.000000 0.000000 -0.308282 0.000000 0.174318
#
#
# Mechanical properties :
#
#
# Convention : Reuss Voigt Hill
#
# Bulk Modulus (GPa) = 55.90076 71.31365 63.60721
# Shear Modulus (GPa) = 4.78106 24.98345 14.88225
#
# Velocity S-wave (km/s) = 1.62228 3.70844 2.86219
# Velocity P-wave (km/s) = 5.85495 7.58896 6.77764
#
# Compressibility (1/GPa) = 0.01788884
#
# Stress axis : x y z
#
# Youngs Moduli (GPa) = 78.32175 37.99691 68.26977
#
# Poissons Ratio (x) = 0.27888 0.11771
# Poissons Ratio (y) = 0.57484 0.60478
# Poissons Ratio (z) = 0.13504 0.33660
#
# Static dielectric constant tensor:
#      x y z
#    x 3.734590 0.000000 -0.286860 
#    y 0.000000 2.868510 0.000000 
#    z -0.286860 0.000000 4.045960 
# 
# 
# High freq. dielectric constant tensor:
#      x y z
#    x 1.733380 0.000000 -0.007470 
#    y 0.000000 1.640890 0.000000 
#    z -0.007470 0.000000 1.736450 
# 
# From -- ./inp_files/58681.got.cif
#   From: 2010.06.25/outbox.cif.g09.slc.cpg/sg13_30_cif.got.tgz:58681.got - 2010.06.28 04:50:58.
