data_PCOD8117926
_publ_section_title
;
Structure prediction by ZEFSAII (Michael W. Deem and Ramdas Pophale) SiO2 
 PCOD8117926
Probable space group: P 2/C
;
_chemical_formula_sum "Si O2"
_cell_formula_units_Z 26
_cell_length_a 9.255919
_cell_length_b 15.830221
_cell_length_c 16.742153
_cell_angle_alpha 90.000000
_cell_angle_beta 34.257872
_cell_angle_gamma 90.000000
_cell_volume 1380.903541
_symmetry_space_group_name_H-M "P 2/C"
_symmetry_group_IT_number 13
_symmetry_cell_setting 'monoclinic'
loop_
_space_group_symop_operation_xyz
x,y,z
-x,y,1/2-z
-x,-y,-z
x,-y,1/2+z
loop_
_atom_site_type_symbol
_atom_site_label
_atom_site_fract_x
_atom_site_fract_y
_atom_site_fract_z
Si Si1 0.000000 0.289201 0.250000
Si Si2 0.475284 0.400719 0.006890
Si Si3 0.439560 0.323233 0.692306
Si Si4 0.833070 0.184293 0.480349
Si Si5 0.276260 0.014407 0.911826
Si Si6 0.274110 0.826745 0.908287
Si Si7 0.098118 0.285465 0.623574
O O1 0.237760 0.352820 0.158384
O O2 0.039417 0.226838 0.156031
O O3 0.500000 0.500000 0.000000
O O4 0.444379 0.384225 0.927123
O O5 0.737050 0.365598 0.924274
O O6 0.500000 0.364787 0.750000
O O7 0.573304 0.232126 0.622865
O O8 0.135075 0.316285 0.824085
O O9 0.753085 0.085147 0.504230
O O10 0.015045 0.183731 0.475365
O O11 0.500000 0.047268 0.750000
O O12 0.351507 0.920218 0.905296
O O13 0.000000 0.000000 0.000000
O O14 0.500000 0.790269 0.750000
O O15 0.270022 0.776459 0.992884
O O16 0.000000 0.239462 0.750000
#
# Coordination Sequence:
#
# PCOD8117926 Si02
#       7
#     2   4   4   4   4   4   4
#     4  10  22  38  60  86 120 158 198 248 316 360
#     4  10  23  40  62  85 120 156 190 248 315 373
#     4  10  19  36  62  87 110 153 202 243 290 359
#     4  10  19  35  57  84 119 158 203 243 296 364
#     4   9  19  32  55  85 118 161 203 250 302 355
#     4  10  19  34  58  84 123 159 201 249 302 357
#     4  10  21  37  60  88 120 153 202 248 304 360
#
# _framework density 18.828251999999999
#
# number of rings (size 3 to 8) (size 9 to 14) (size 15 to 20)
#    0.000    2.154    1.538    1.385    5.385    0.000 
#    1.385    3.077    0.000    5.538    0.000    0.000 
#    0.000    0.000    0.000    0.000    0.000    0.000 
#
# Total GULP energy -322112.679749 kJ/mol
# GULP energy per Si atom -12388.949221 kJ/mol
# Density = 1.878540 g / cm^3
# Si number density = 18.828252 Si / 1000 Ang^3
#
#
#
# Elastic Constant Matrix: (Units=GPa)
#
#
# Indices 1 2 3 4 5 6 
#
# 1 99.3108 46.9293 46.8644 0.0000 2.9008 0.0000
# 2 46.9293 142.1357 69.1382 0.0000 18.1193 0.0000
# 3 46.8644 69.1382 128.8830 0.0000 2.2299 0.0000
# 4 0.0000 0.0000 0.0000 21.6822 0.0000 0.3223
# 5 2.9008 18.1193 2.2299 0.0000 35.9968 0.0000
# 6 0.0000 0.0000 0.0000 0.3223 0.0000 26.0881
#
#
#
# Elastic Compliance Matrix: (Units=1/GPa)
#
#
# Indices 1 2 3 4 5 6 
#
# 1 0.012872 -0.002759 -0.003210 0.000000 0.000550 0.000000
# 2 -0.002759 0.010892 -0.004754 0.000000 -0.004966 0.000000
# 3 -0.003210 -0.004754 0.011443 0.000000 0.001943 0.000000
# 4 0.000000 0.000000 0.000000 0.046129 0.000000 -0.000570
# 5 0.000550 -0.004966 0.001943 0.000000 0.030115 0.000000
# 6 0.000000 0.000000 0.000000 -0.000570 0.000000 0.038339
#
#
# Mechanical properties :
#
#
# Convention : Reuss Voigt Hill
#
# Bulk Modulus (GPa) = 72.66771 77.35480 75.01125
# Shear Modulus (GPa) = 28.43799 30.57994 29.50896
#
# Velocity S-wave (km/s) = 3.89059 4.03445 3.96317
# Velocity P-wave (km/s) = 7.67210 7.92944 7.80183
#
# Compressibility (1/GPa) = 0.01376127
#
# Stress axis : x y z
#
# Youngs Moduli (GPa) = 77.68962 91.81309 87.39144
#
# Poissons Ratio (x) = 0.25327 0.28054
# Poissons Ratio (y) = 0.21431 0.41544
# Poissons Ratio (z) = 0.24940 0.43646
#
# Static dielectric constant tensor:
#      x y z
#    x 3.479240 0.000000 -0.081800 
#    y 0.000000 3.513420 0.000000 
#    z -0.081800 0.000000 3.705880 
# 
# 
# High freq. dielectric constant tensor:
#      x y z
#    x 1.718810 0.000000 -0.015480 
#    y 0.000000 1.720240 0.000000 
#    z -0.015480 0.000000 1.746230 
# 
# From -- ./inp_files/47571.got.cif
#   From: 2010.06.25/outbox.cif.g09.slc.cpg/sg13_24_cif.got.tgz:47571.got - 2010.06.28 04:50:58.
