data_PCOD8117836
_publ_section_title
;
Structure prediction by ZEFSAII (Michael W. Deem and Ramdas Pophale) SiO2 
 PCOD8117836
Probable space group: P 2/C
;
_chemical_formula_sum "Si O2"
_cell_formula_units_Z 28
_cell_length_a 14.511080
_cell_length_b 14.168713
_cell_length_c 10.576336
_cell_angle_alpha 90.000000
_cell_angle_beta 42.940010
_cell_angle_gamma 90.000000
_cell_volume 1481.359865
_symmetry_space_group_name_H-M "P 2/C"
_symmetry_group_IT_number 13
_symmetry_cell_setting 'monoclinic'
loop_
_space_group_symop_operation_xyz
x,y,z
-x,y,1/2-z
-x,-y,-z
x,-y,1/2+z
loop_
_atom_site_type_symbol
_atom_site_label
_atom_site_fract_x
_atom_site_fract_y
_atom_site_fract_z
Si Si1 0.678554 0.586971 0.798721
Si Si2 0.648162 0.291103 0.086419
Si Si3 0.175727 0.238462 0.974277
Si Si4 0.860482 0.839678 0.464079
Si Si5 0.915842 0.036409 0.461931
Si Si6 0.890055 0.281612 0.185129
Si Si7 0.378203 0.624018 0.153022
O O1 0.685212 0.638164 0.659549
O O2 0.809084 0.619968 0.748716
O O3 0.689666 0.477043 0.753777
O O4 0.540181 0.615003 0.012474
O O5 0.500000 0.246648 0.250000
O O6 0.750128 0.204025 0.981329
O O7 0.659305 0.353266 0.951787
O O8 0.315183 0.292813 0.802177
O O9 0.167968 0.132175 0.922603
O O10 0.167903 0.229223 0.133192
O O11 0.050313 0.299969 0.043572
O O12 0.865408 0.787679 0.593170
O O13 0.000000 0.832283 0.250000
O O14 0.817763 0.948536 0.528783
O O15 0.000000 0.059207 0.250000
O O16 0.000000 0.000000 0.500000
#
# Coordination Sequence:
#
# PCOD8117836 Si02
#       7
#     4   4   4   4   4   4   4
#     4   9  21  38  58  79 110 150 185 230 280 335
#     4   9  19  36  55  80 111 139 185 239 277 324
#     4  11  21  35  56  84 116 146 180 237 277 331
#     4  10  19  33  61  82 105 150 188 229 270 335
#     4  11  20  35  58  85 114 150 190 232 282 343
#     4  10  20  37  53  82 119 144 181 231 285 327
#     4  10  21  36  59  84 106 147 194 226 277 342
#
# _framework density 18.901551000000001
#
# number of rings (size 3 to 8) (size 9 to 14) (size 15 to 20)
#    0.000    2.000    2.857    0.857    4.000    1.143 
#    0.000    0.000    3.143    2.571    0.000    0.000 
#    0.000    0.000    0.000    0.000    0.000    0.000 
#
# Total GULP energy -346998.645482 kJ/mol
# GULP energy per Si atom -12392.808767 kJ/mol
# Density = 1.885853 g / cm^3
# Si number density = 18.901551 Si / 1000 Ang^3
#
#
#
# Elastic Constant Matrix: (Units=GPa)
#
#
# Indices 1 2 3 4 5 6 
#
# 1 69.5231 31.0351 20.6472 0.0000 -6.5031 0.0000
# 2 31.0351 135.9826 41.5008 0.0000 -18.5864 0.0000
# 3 20.6472 41.5008 70.5805 0.0000 -2.2011 0.0000
# 4 0.0000 0.0000 0.0000 24.9273 0.0000 3.0710
# 5 -6.5031 -18.5864 -2.2011 0.0000 22.7719 0.0000
# 6 0.0000 0.0000 0.0000 3.0710 0.0000 -1.5396
#
#
#
# Elastic Compliance Matrix: (Units=1/GPa)
#
#
# Indices 1 2 3 4 5 6 
#
# 1 0.016707 -0.002450 -0.003370 0.000000 0.002446 0.000000
# 2 -0.002450 0.010521 -0.005239 0.000000 0.007381 0.000000
# 3 -0.003370 -0.005239 0.018126 0.000000 -0.003487 0.000000
# 4 0.000000 0.000000 0.000000 0.032203 0.000000 0.064236
# 5 0.002446 0.007381 -0.003487 0.000000 0.050300 0.000000
# 6 0.000000 0.000000 0.000000 0.064236 0.000000 -0.521398
#
#
# Mechanical properties :
#
#
# Convention : Reuss Voigt Hill
#
# Bulk Modulus (GPa) = 43.03967 51.38361 47.21164
# Shear Modulus (GPa) = -13.74848 21.42545 3.83848
#
# Velocity S-wave (km/s) = -2.69991 3.37044 1.42660
# Velocity P-wave (km/s) = 3.61946 6.51079 5.26740
#
# Compressibility (1/GPa) = 0.02323438
#
# Stress axis : x y z
#
# Youngs Moduli (GPa) = 59.85447 95.04859 55.16895
#
# Poissons Ratio (x) = 0.23288 0.18595
# Poissons Ratio (y) = 0.14665 0.28905
# Poissons Ratio (z) = 0.20174 0.49799
#
# Static dielectric constant tensor:
#      x y z
#    x 3.799090 0.000000 0.138200 
#    y 0.000000 3.661780 0.000000 
#    z 0.138200 0.000000 3.588880 
# 
# 
# High freq. dielectric constant tensor:
#      x y z
#    x 1.736670 0.000000 0.017540 
#    y 0.000000 1.734650 0.000000 
#    z 0.017540 0.000000 1.721310 
# 
# From -- ./inp_files/37367.got.cif
#   From: 2010.06.25/outbox.cif.g09.slc.cpg/sg13_19_cif.got.tgz:37367.got - 2010.06.28 04:50:58.
