data_PCOD8117976
_publ_section_title
;
Structure prediction by ZEFSAII (Michael W. Deem and Ramdas Pophale) SiO2 
 PCOD8117976
Probable space group: P 2/C
;
_chemical_formula_sum "Si O2"
_cell_formula_units_Z 32
_cell_length_a 26.582393
_cell_length_b 11.275285
_cell_length_c 20.593125
_cell_angle_alpha 90.000000
_cell_angle_beta 17.314620
_cell_angle_gamma 90.000000
_cell_volume 1836.977192
_symmetry_space_group_name_H-M "P 2/C"
_symmetry_group_IT_number 13
_symmetry_cell_setting 'monoclinic'
loop_
_space_group_symop_operation_xyz
x,y,z
-x,y,1/2-z
-x,-y,-z
x,-y,1/2+z
loop_
_atom_site_type_symbol
_atom_site_label
_atom_site_fract_x
_atom_site_fract_y
_atom_site_fract_z
Si Si1 0.980191 0.420502 0.698404
Si Si2 0.276163 0.468671 0.673082
Si Si3 0.710035 0.315819 0.258962
Si Si4 0.861959 0.161798 0.183785
Si Si5 0.679883 0.251452 0.053093
Si Si6 0.499877 0.247892 0.399861
Si Si7 0.059373 0.612816 0.848083
Si Si8 0.777599 0.905519 0.315762
O O1 0.976161 0.557666 0.679133
O O2 0.000000 0.423458 0.750000
O O3 0.127945 0.343092 0.484824
O O4 0.808567 0.358728 0.887543
O O5 0.350054 0.559381 0.636046
O O6 0.420599 0.374923 0.476908
O O7 0.218032 0.541146 0.681825
O O8 0.109944 0.398780 0.901039
O O9 0.749221 0.224531 0.268001
O O10 0.564838 0.256399 0.393668
O O11 0.892682 0.248045 0.208319
O O12 0.762948 0.047882 0.332921
O O13 0.036532 0.130147 0.934462
O O14 0.500000 0.298209 0.250000
O O15 0.654977 0.216181 0.159746
O O16 0.739842 0.139865 0.935460
O O17 0.357219 0.146802 0.569674
#
# Coordination Sequence:
#
# PCOD8117976 Si02
#       8
#     4   4   4   4   4   4   4   4
#     4  11  19  33  51  82 111 134 170 207 271 329
#     4   9  17  30  51  82 107 133 166 206 265 320
#     4  10  20  31  53  80 112 136 163 218 269 313
#     4  10  19  35  54  72  98 140 181 222 251 298
#     4  10  20  32  52  77 107 135 171 214 258 313
#     4  11  19  32  51  81 110 133 166 219 266 310
#     4   9  17  31  54  74 103 136 172 215 248 315
#     4  10  20  33  53  74  98 136 188 217 251 298
#
# _framework density 17.419922
#
# number of rings (size 3 to 8) (size 9 to 14) (size 15 to 20)
#    0.000    2.000    3.750    2.625    0.000    0.500 
#    0.000    0.000    0.000   15.000    0.000    0.000 
#    0.000    0.000    0.000    0.000    0.000    0.000 
#
# Total GULP energy -396596.255015 kJ/mol
# GULP energy per Si atom -12393.632969 kJ/mol
# Density = 1.738027 g / cm^3
# Si number density = 17.419922 Si / 1000 Ang^3
#
#
#
# Elastic Constant Matrix: (Units=GPa)
#
#
# Indices 1 2 3 4 5 6 
#
# 1 79.4812 49.6986 19.6034 0.0000 0.8335 0.0000
# 2 49.6986 134.3898 36.3978 0.0000 0.4529 0.0000
# 3 19.6034 36.3978 57.3524 0.0000 2.0526 0.0000
# 4 0.0000 0.0000 0.0000 33.7168 0.0000 -2.2097
# 5 0.8335 0.4529 2.0526 0.0000 23.5350 0.0000
# 6 0.0000 0.0000 0.0000 -2.2097 0.0000 23.0596
#
#
#
# Elastic Compliance Matrix: (Units=1/GPa)
#
#
# Indices 1 2 3 4 5 6 
#
# 1 0.016584 -0.005554 -0.002133 0.000000 -0.000294 0.000000
# 2 -0.005554 0.010848 -0.005001 0.000000 0.000424 0.000000
# 3 -0.002133 -0.005001 0.021400 0.000000 -0.001695 0.000000
# 4 0.000000 0.000000 0.000000 0.029846 0.000000 0.002860
# 5 -0.000294 0.000424 -0.001695 0.000000 0.042640 0.000000
# 6 0.000000 0.000000 0.000000 0.002860 0.000000 0.043640
#
#
# Mechanical properties :
#
#
# Convention : Reuss Voigt Hill
#
# Bulk Modulus (GPa) = 42.63549 53.62478 48.13014
# Shear Modulus (GPa) = 25.23303 27.09719 26.16511
#
# Velocity S-wave (km/s) = 3.81007 3.94830 3.87980
# Velocity P-wave (km/s) = 6.62448 7.18581 6.91085
#
# Compressibility (1/GPa) = 0.02345464
#
# Stress axis : x y z
#
# Youngs Moduli (GPa) = 60.30015 92.18185 46.72941
#
# Poissons Ratio (x) = 0.51199 0.09968
# Poissons Ratio (y) = 0.33491 0.23371
# Poissons Ratio (z) = 0.12862 0.46103
#
# Static dielectric constant tensor:
#      x y z
#    x 3.345320 0.000000 0.015090 
#    y 0.000000 3.287910 0.000000 
#    z 0.015090 0.000000 3.205440 
# 
# 
# High freq. dielectric constant tensor:
#      x y z
#    x 1.669200 0.000000 -0.008100 
#    y 0.000000 1.659050 0.000000 
#    z -0.008100 0.000000 1.662140 
# 
# From -- ./inp_files/71468.got.cif
#   From: 2010.06.25/outbox.cif.g09.slc.cpg/sg13_36_cif.got.tgz:71468.got - 2010.06.28 04:50:58.
