data_PCOD8117455
_publ_section_title
;
Structure prediction by ZEFSAII (Michael W. Deem and Ramdas Pophale) SiO2 
 PCOD8117455
Probable space group: P 2/C
;
_chemical_formula_sum "Si O2"
_cell_formula_units_Z 24
_cell_length_a 11.323428
_cell_length_b 8.312462
_cell_length_c 16.205843
_cell_angle_alpha 90.000000
_cell_angle_beta 131.287695
_cell_angle_gamma 90.000000
_cell_volume 1146.182572
_symmetry_space_group_name_H-M "P 2/C"
_symmetry_group_IT_number 13
_symmetry_cell_setting 'monoclinic'
loop_
_space_group_symop_operation_xyz
x,y,z
-x,y,1/2-z
-x,-y,-z
x,-y,1/2+z
loop_
_atom_site_type_symbol
_atom_site_label
_atom_site_fract_x
_atom_site_fract_y
_atom_site_fract_z
Si Si1 0.540302 0.371969 0.588425
Si Si2 0.000000 0.405900 0.250000
Si Si3 0.500000 0.353600 0.750000
Si Si4 0.170657 0.708796 0.057930
Si Si5 0.815539 0.816538 0.144742
Si Si6 0.759018 0.173266 0.077092
Si Si7 0.917420 0.612348 0.059665
O O1 0.500000 0.500000 0.500000
O O2 0.518469 0.449598 0.670676
O O3 0.713432 0.292880 0.660196
O O4 0.418235 0.225774 0.521891
O O5 0.156723 0.296043 0.320848
O O6 0.987453 0.516442 0.325296
O O7 0.658007 0.244845 0.827084
O O8 0.032728 0.729469 0.060605
O O9 0.140461 0.817311 0.962534
O O10 0.175044 0.516350 0.038703
O O11 0.793137 0.733532 0.044541
O O12 0.000000 0.812885 0.250000
O O13 0.754826 0.997829 0.114696
#
# Coordination Sequence:
#
# PCOD8117455 Si02
#       7
#     4   2   2   4   4   4   4
#     4  11  24  42  66  92 123 169 212 263 306 369
#     4  10  18  36  58  90 114 158 208 250 290 374
#     4  10  20  36  60  88 116 154 210 256 306 356
#     4   9  20  37  57  85 120 159 201 264 298 362
#     4  12  22  37  62  94 122 168 204 248 317 380
#     4  10  22  38  59  89 128 158 203 253 319 364
#     4  10  20  35  59  86 119 155 210 249 301 363
#
# _framework density 20.939073
#
# number of rings (size 3 to 8) (size 9 to 14) (size 15 to 20)
#    0.000    1.667    1.667    4.500    2.333    0.667 
#    0.000    0.000    0.000   10.000    0.000    0.000 
#    0.000    0.000    0.000    0.000    0.000    0.000 
#
# Total GULP energy -297318.690977 kJ/mol
# GULP energy per Si atom -12388.278791 kJ/mol
# Density = 2.089141 g / cm^3
# Si number density = 20.939073 Si / 1000 Ang^3
#
#
#
# Elastic Constant Matrix: (Units=GPa)
#
#
# Indices 1 2 3 4 5 6 
#
# 1 130.9907 31.1657 36.2328 0.0000 -11.3230 0.0000
# 2 31.1657 86.9449 21.4008 0.0000 -7.7819 0.0000
# 3 36.2328 21.4008 85.4294 0.0000 -0.9178 0.0000
# 4 0.0000 0.0000 0.0000 14.1204 0.0000 2.1455
# 5 -11.3230 -7.7819 -0.9178 0.0000 41.6847 0.0000
# 6 0.0000 0.0000 0.0000 2.1455 0.0000 28.0722
#
#
#
# Elastic Compliance Matrix: (Units=1/GPa)
#
#
# Indices 1 2 3 4 5 6 
#
# 1 0.009284 -0.002327 -0.003333 0.000000 0.002014 0.000000
# 2 -0.002327 0.013050 -0.002263 0.000000 0.001754 0.000000
# 3 -0.003333 -0.002263 0.013675 0.000000 -0.001027 0.000000
# 4 0.000000 0.000000 0.000000 0.071652 0.000000 -0.005476
# 5 0.002014 0.001754 -0.001027 0.000000 0.024842 0.000000
# 6 0.000000 0.000000 0.000000 -0.005476 0.000000 0.036041
#
#
# Mechanical properties :
#
#
# Convention : Reuss Voigt Hill
#
# Bulk Modulus (GPa) = 49.59804 53.44038 51.51921
# Shear Modulus (GPa) = 26.16291 31.07983 28.62137
#
# Velocity S-wave (km/s) = 3.53863 3.85684 3.70116
# Velocity P-wave (km/s) = 6.35878 6.73876 6.55153
#
# Compressibility (1/GPa) = 0.02016209
#
# Stress axis : x y z
#
# Youngs Moduli (GPa) = 107.71447 76.62949 73.12580
#
# Poissons Ratio (x) = 0.17833 0.24372
# Poissons Ratio (y) = 0.25067 0.16550
# Poissons Ratio (z) = 0.35900 0.17343
#
# Static dielectric constant tensor:
#      x y z
#    x 4.078790 0.000000 -0.107350 
#    y 0.000000 3.529040 0.000000 
#    z -0.107350 0.000000 3.973170 
# 
# 
# High freq. dielectric constant tensor:
#      x y z
#    x 1.831960 0.000000 -0.001380 
#    y 0.000000 1.777890 0.000000 
#    z -0.001380 0.000000 1.822710 
# 
# From -- ./inp_files/66128.got.cif
#   From: 2010.06.25/outbox.cif.g09.slc.cpg/sg13_34_cif.got.tgz:66128.got - 2010.06.28 04:50:58.
