data_PCOD8117045
_publ_section_title
;
Structure prediction by ZEFSAII (Michael W. Deem and Ramdas Pophale) SiO2 
 PCOD8117045
Probable space group: P 2/C
;
_chemical_formula_sum "Si O2"
_cell_formula_units_Z 28
_cell_length_a 19.699433
_cell_length_b 13.350964
_cell_length_c 9.276410
_cell_angle_alpha 90.000000
_cell_angle_beta 37.037957
_cell_angle_gamma 90.000000
_cell_volume 1469.571941
_symmetry_space_group_name_H-M "P 2/C"
_symmetry_group_IT_number 13
_symmetry_cell_setting 'monoclinic'
loop_
_space_group_symop_operation_xyz
x,y,z
-x,y,1/2-z
-x,-y,-z
x,-y,1/2+z
loop_
_atom_site_type_symbol
_atom_site_label
_atom_site_fract_x
_atom_site_fract_y
_atom_site_fract_z
Si Si1 0.386675 0.153248 0.368100
Si Si2 0.157254 0.937215 0.335770
Si Si3 0.665720 0.673529 0.330073
Si Si4 0.463888 0.742498 0.470646
Si Si5 0.888027 0.767996 0.867213
Si Si6 0.419032 0.464543 0.015851
Si Si7 0.962878 0.139502 0.964219
O O1 0.500000 0.109675 0.250000
O O2 0.286230 0.074014 0.562917
O O3 0.356269 0.261540 0.488917
O O4 0.407463 0.168807 0.160980
O O5 0.139503 0.876005 0.514274
O O6 0.075687 0.898378 0.349610
O O7 0.126593 0.051732 0.420805
O O8 0.576138 0.703832 0.361183
O O9 0.667656 0.554915 0.368815
O O10 0.789213 0.689991 0.058126
O O11 0.500000 0.782187 0.250000
O O12 0.372949 0.648791 0.623619
O O13 0.902566 0.780805 0.670652
O O14 0.000000 0.722364 0.750000
O O15 0.500000 0.440870 0.750000
O O16 0.500000 0.500000 0.000000
O O17 0.000000 0.190029 0.750000
#
# Coordination Sequence:
#
# PCOD8117045 Si02
#       7
#     4   4   4   4   4   4   4
#     4   9  17  30  47  67  95 128 155 182 224 276
#     4   9  17  30  49  69  91 121 157 191 223 272
#     4   9  16  28  46  66  94 126 155 186 219 267
#     4   9  17  27  43  71 100 121 148 187 228 269
#     4   9  18  31  47  70  92 117 154 191 229 273
#     4   9  15  25  43  69  93 118 152 184 217 259
#     4  10  18  30  50  72  91 113 150 199 239 268
#
# _framework density 19.053166999999998
#
# number of rings (size 3 to 8) (size 9 to 14) (size 15 to 20)
#    0.000    2.857    0.000    4.286    0.000    1.143 
#    0.000    0.000    0.000   14.571    0.000   38.000 
#    0.000    1.143    0.000    0.000    0.000    0.000 
#
# Total GULP energy -346887.159046 kJ/mol
# GULP energy per Si atom -12388.827109 kJ/mol
# Density = 1.900980 g / cm^3
# Si number density = 19.053167 Si / 1000 Ang^3
#
#
#
# Elastic Constant Matrix: (Units=GPa)
#
#
# Indices 1 2 3 4 5 6 
#
# 1 49.2551 15.4400 43.0662 0.0000 14.6897 0.0000
# 2 15.4400 37.7476 26.9658 0.0000 -7.9058 0.0000
# 3 43.0662 26.9658 120.7984 0.0000 1.8687 0.0000
# 4 0.0000 0.0000 0.0000 5.8932 0.0000 3.1422
# 5 14.6897 -7.9058 1.8687 0.0000 48.4928 0.0000
# 6 0.0000 0.0000 0.0000 3.1422 0.0000 14.2857
#
#
#
# Elastic Compliance Matrix: (Units=1/GPa)
#
#
# Indices 1 2 3 4 5 6 
#
# 1 0.036225 -0.009845 -0.010528 0.000000 -0.012173 0.000000
# 2 -0.009845 0.035681 -0.004594 0.000000 0.008976 0.000000
# 3 -0.010528 -0.004594 0.013027 0.000000 0.001938 0.000000
# 4 0.000000 0.000000 0.000000 0.192231 0.000000 -0.042282
# 5 -0.012173 0.008976 0.001938 0.000000 0.025698 0.000000
# 6 0.000000 0.000000 0.000000 -0.042282 0.000000 0.079300
#
#
# Mechanical properties :
#
#
# Convention : Reuss Voigt Hill
#
# Bulk Modulus (GPa) = 28.57368 42.08278 35.32823
# Shear Modulus (GPa) = 11.26730 21.88962 16.57846
#
# Velocity S-wave (km/s) = 2.43443 3.39318 2.95297
# Velocity P-wave (km/s) = 4.78866 6.12262 5.49626
#
# Compressibility (1/GPa) = 0.03499724
#
# Stress axis : x y z
#
# Youngs Moduli (GPa) = 27.60553 28.02650 76.76197
#
# Poissons Ratio (x) = 0.27593 0.80819
# Poissons Ratio (y) = 0.27178 0.35263
# Poissons Ratio (z) = 0.29064 0.12875
#
# Static dielectric constant tensor:
#      x y z
#    x 3.512130 0.000000 0.107940 
#    y 0.000000 3.453520 0.000000 
#    z 0.107940 0.000000 3.582750 
# 
# 
# High freq. dielectric constant tensor:
#      x y z
#    x 1.734350 0.000000 0.020500 
#    y 0.000000 1.700340 0.000000 
#    z 0.020500 0.000000 1.740620 
# 
# From -- ./inp_files/21951.got.cif
#   From: 2010.06.25/outbox.cif.g09.slc.cpg/sg13_11_cif.got.tgz:21951.got - 2010.06.28 04:50:58.
