data_PCOD8117952
_publ_section_title
;
Structure prediction by ZEFSAII (Michael W. Deem and Ramdas Pophale) SiO2 
 PCOD8117952
Probable space group: P 2/C
;
_chemical_formula_sum "Si O2"
_cell_formula_units_Z 24
_cell_length_a 11.140380
_cell_length_b 9.024726
_cell_length_c 11.269752
_cell_angle_alpha 90.000000
_cell_angle_beta 71.886726
_cell_angle_gamma 90.000000
_cell_volume 1076.898568
_symmetry_space_group_name_H-M "P 2/C"
_symmetry_group_IT_number 13
_symmetry_cell_setting 'monoclinic'
loop_
_space_group_symop_operation_xyz
x,y,z
-x,y,1/2-z
-x,-y,-z
x,-y,1/2+z
loop_
_atom_site_type_symbol
_atom_site_label
_atom_site_fract_x
_atom_site_fract_y
_atom_site_fract_z
Si Si1 0.853335 0.733928 0.205209
Si Si2 0.627008 0.173725 0.642369
Si Si3 0.000000 0.477884 0.250000
Si Si4 0.026799 0.233045 0.427819
Si Si5 0.308044 0.852011 0.851940
Si Si6 0.462043 0.156179 0.070531
Si Si7 0.000000 0.984457 0.250000
O O1 0.713473 0.716621 0.193683
O O2 0.877628 0.583714 0.271056
O O3 0.873727 0.880205 0.281336
O O4 0.960918 0.757294 0.073559
O O5 0.500000 0.131107 0.750000
O O6 0.593196 0.249035 0.525116
O O7 0.707687 0.022709 0.601592
O O8 0.019569 0.377281 0.128929
O O9 0.177722 0.236214 0.400515
O O10 0.984351 0.085253 0.371504
O O11 0.412463 0.774272 0.906385
O O12 0.352138 0.853896 0.701432
O O13 0.500000 0.000000 0.000000
#
# Coordination Sequence:
#
# PCOD8117952 Si02
#       7
#     4   4   2   4   4   4   2
#     4  11  24  41  63  92 132 166 213 263 322 374
#     4  11  21  35  60  93 130 162 200 257 326 379
#     4  10  26  46  60  88 126 180 216 258 314 384
#     4  11  23  40  66  93 127 166 215 265 323 372
#     4  10  19  34  59  94 122 159 202 254 317 380
#     4   9  18  33  53  89 132 162 192 248 317 383
#     4  10  22  34  60 102 124 154 204 262 316 384
#
# _framework density 22.286223
#
# number of rings (size 3 to 8) (size 9 to 14) (size 15 to 20)
#    0.000    1.667    5.000    1.000    4.667    4.000 
#    0.000    0.000    3.667    2.000    0.000    0.000 
#    0.000    0.000    0.000    0.000    0.000    0.000 
#
# Total GULP energy -297462.422506 kJ/mol
# GULP energy per Si atom -12394.267604 kJ/mol
# Density = 2.223550 g / cm^3
# Si number density = 22.286223 Si / 1000 Ang^3
#
#
#
# Elastic Constant Matrix: (Units=GPa)
#
#
# Indices 1 2 3 4 5 6 
#
# 1 163.1649 38.9404 47.5351 0.0000 23.2588 0.0000
# 2 38.9404 92.0447 13.2939 0.0000 12.5414 0.0000
# 3 47.5351 13.2939 67.9954 0.0000 13.4137 0.0000
# 4 0.0000 0.0000 0.0000 11.7401 0.0000 9.3512
# 5 23.2588 12.5414 13.4137 0.0000 45.4864 0.0000
# 6 0.0000 0.0000 0.0000 9.3512 0.0000 27.2921
#
#
#
# Elastic Compliance Matrix: (Units=1/GPa)
#
#
# Indices 1 2 3 4 5 6 
#
# 1 0.008517 -0.002583 -0.005022 0.000000 -0.002162 0.000000
# 2 -0.002583 0.012258 -0.000196 0.000000 -0.002001 0.000000
# 3 -0.005022 -0.000196 0.018835 0.000000 -0.002932 0.000000
# 4 0.000000 0.000000 0.000000 0.117150 0.000000 -0.040140
# 5 -0.002162 -0.002001 -0.002932 0.000000 0.024506 0.000000
# 6 0.000000 0.000000 0.000000 -0.040140 0.000000 0.050394
#
#
# Mechanical properties :
#
#
# Convention : Reuss Voigt Hill
#
# Bulk Modulus (GPa) = 41.65565 58.08264 49.86914
# Shear Modulus (GPa) = 19.58751 31.79943 25.69347
#
# Velocity S-wave (km/s) = 2.96785 3.78148 3.39910
# Velocity P-wave (km/s) = 5.52051 6.72197 6.15064
#
# Compressibility (1/GPa) = 0.02400635
#
# Stress axis : x y z
#
# Youngs Moduli (GPa) = 117.41825 81.57888 53.09328
#
# Poissons Ratio (x) = 0.21073 0.26666
# Poissons Ratio (y) = 0.30331 0.01041
# Poissons Ratio (z) = 0.58972 0.01599
#
# Static dielectric constant tensor:
#      x y z
#    x 4.517820 0.000000 0.729750 
#    y 0.000000 3.697500 0.000000 
#    z 0.729750 0.000000 4.208150 
# 
# 
# High freq. dielectric constant tensor:
#      x y z
#    x 1.892620 0.000000 0.033280 
#    y 0.000000 1.821940 0.000000 
#    z 0.033280 0.000000 1.881110 
# 
# From -- ./inp_files/32547.got.cif
#   From: 2010.06.25/outbox.cif.g09.slc.cpg/sg13_17_cif.got.tgz:32547.got - 2010.06.28 04:50:58.
