data_PCOD8117811
_publ_section_title
;
Structure prediction by ZEFSAII (Michael W. Deem and Ramdas Pophale) SiO2 
 PCOD8117811
Probable space group: P 2/C
;
_chemical_formula_sum "Si O2"
_cell_formula_units_Z 32
_cell_length_a 20.179994
_cell_length_b 8.760155
_cell_length_c 13.909226
_cell_angle_alpha 90.000000
_cell_angle_beta 134.436751
_cell_angle_gamma 90.000000
_cell_volume 1755.692464
_symmetry_space_group_name_H-M "P 2/C"
_symmetry_group_IT_number 13
_symmetry_cell_setting 'monoclinic'
loop_
_space_group_symop_operation_xyz
x,y,z
-x,y,1/2-z
-x,-y,-z
x,-y,1/2+z
loop_
_atom_site_type_symbol
_atom_site_label
_atom_site_fract_x
_atom_site_fract_y
_atom_site_fract_z
Si Si1 0.269330 0.362589 0.979403
Si Si2 0.204361 0.657072 0.016501
Si Si3 0.681993 0.138651 0.740035
Si Si4 0.965311 0.645337 0.522172
Si Si5 0.916535 0.856838 0.731855
Si Si6 0.570381 0.780253 0.949500
Si Si7 0.151381 0.150240 0.726768
Si Si8 0.376120 0.855471 0.693041
O O1 0.237832 0.530126 0.975764
O O2 0.365781 0.368757 0.013423
O O3 0.290140 0.264128 0.097857
O O4 0.189305 0.278551 0.837832
O O5 0.290736 0.711876 0.170018
O O6 0.120003 0.593738 0.996101
O O7 0.169606 0.801954 0.920163
O O8 0.594490 0.168469 0.581787
O O9 0.769651 0.090803 0.765252
O O10 0.653228 0.003621 0.780419
O O11 0.933484 0.776877 0.417062
O O12 0.000000 0.500000 0.500000
O O13 0.050262 0.714409 0.669349
O O14 0.000000 0.913875 0.750000
O O15 0.884937 0.001399 0.758730
O O16 0.459458 0.761310 0.830576
O O17 0.597076 0.902215 0.890929
#
# Coordination Sequence:
#
# PCOD8117811 Si02
#       8
#     4   4   4   4   4   4   4   4
#     4   9  18  34  53  75 106 144 175 214 268 320
#     4  10  21  34  53  76 107 142 182 222 269 323
#     4  10  19  33  56  84 107 138 182 225 266 320
#     4  10  21  35  51  75 108 142 180 226 272 325
#     4  10  21  36  52  76 108 141 179 229 274 314
#     4   8  18  34  58  77 112 138 175 217 268 319
#     4  10  20  34  54  80 107 139 185 228 268 318
#     4   9  17  34  60  77 110 143 174 218 273 318
#
# _framework density 18.226427000000001
#
# number of rings (size 3 to 8) (size 9 to 14) (size 15 to 20)
#    0.750    1.750    0.000    2.250    0.000    2.000 
#    0.000    0.625    5.500    0.000    0.000    0.000 
#    0.000    0.000    0.000    0.000    0.000    0.000 
#
# Total GULP energy -396493.401449 kJ/mol
# GULP energy per Si atom -12390.418795 kJ/mol
# Density = 1.818494 g / cm^3
# Si number density = 18.226427 Si / 1000 Ang^3
#
#
#
# Elastic Constant Matrix: (Units=GPa)
#
#
# Indices 1 2 3 4 5 6 
#
# 1 58.8480 37.5927 19.5401 0.0000 -7.4641 0.0000
# 2 37.5927 56.5304 12.0453 0.0000 -9.8212 0.0000
# 3 19.5401 12.0453 107.6673 0.0000 -1.3794 0.0000
# 4 0.0000 0.0000 0.0000 24.9809 0.0000 -15.4876
# 5 -7.4641 -9.8212 -1.3794 0.0000 20.9134 0.0000
# 6 0.0000 0.0000 0.0000 -15.4876 0.0000 28.2597
#
#
#
# Elastic Compliance Matrix: (Units=1/GPa)
#
#
# Indices 1 2 3 4 5 6 
#
# 1 0.030740 -0.019440 -0.003383 0.000000 0.001619 0.000000
# 2 -0.019440 0.032014 0.000050 0.000000 0.008099 0.000000
# 3 -0.003383 0.000050 0.009889 0.000000 -0.000532 0.000000
# 4 0.000000 0.000000 0.000000 0.060632 0.000000 0.033229
# 5 0.001619 0.008099 -0.000532 0.000000 0.052162 0.000000
# 6 0.000000 0.000000 0.000000 0.033229 0.000000 0.053597
#
#
# Mechanical properties :
#
#
# Convention : Reuss Voigt Hill
#
# Bulk Modulus (GPa) = 36.90426 40.15577 38.53001
# Shear Modulus (GPa) = 17.02922 25.08864 21.05893
#
# Velocity S-wave (km/s) = 3.05997 3.71414 3.40281
# Velocity P-wave (km/s) = 5.72505 6.36181 6.05181
#
# Compressibility (1/GPa) = 0.02709714
#
# Stress axis : x y z
#
# Youngs Moduli (GPa) = 32.53072 31.23675 101.11784
#
# Poissons Ratio (x) = 0.60724 0.34211
# Poissons Ratio (y) = 0.63240 -0.00509
# Poissons Ratio (z) = 0.11006 -0.00157
#
# Static dielectric constant tensor:
#      x y z
#    x 3.255840 0.000000 0.042970 
#    y 0.000000 2.931520 0.000000 
#    z 0.042970 0.000000 3.785030 
# 
# 
# High freq. dielectric constant tensor:
#      x y z
#    x 1.690570 0.000000 0.001120 
#    y 0.000000 1.673080 0.000000 
#    z 0.001120 0.000000 1.734730 
# 
# From -- ./inp_files/40531.got.cif
#   From: 2010.06.25/outbox.cif.g09.slc.cpg/sg13_21_cif.got.tgz:40531.got - 2010.06.28 04:50:58.
