data_PCOD8117612
_publ_section_title
;
Structure prediction by ZEFSAII (Michael W. Deem and Ramdas Pophale) SiO2 
 PCOD8117612
Probable space group: P 2/C
;
_chemical_formula_sum "Si O2"
_cell_formula_units_Z 18
_cell_length_a 13.265440
_cell_length_b 14.325041
_cell_length_c 7.538965
_cell_angle_alpha 90.000000
_cell_angle_beta 133.413802
_cell_angle_gamma 90.000000
_cell_volume 1040.664066
_symmetry_space_group_name_H-M "P 2/C"
_symmetry_group_IT_number 13
_symmetry_cell_setting 'monoclinic'
loop_
_space_group_symop_operation_xyz
x,y,z
-x,y,1/2-z
-x,-y,-z
x,-y,1/2+z
loop_
_atom_site_type_symbol
_atom_site_label
_atom_site_fract_x
_atom_site_fract_y
_atom_site_fract_z
Si Si1 0.335456 0.101778 0.854912
Si Si2 0.664642 0.900156 0.751626
Si Si3 0.336073 0.760656 0.051799
Si Si4 0.890222 0.384966 0.254555
Si Si5 0.000000 0.563719 0.250000
O O1 0.286007 0.183538 0.665132
O O2 0.272562 0.001362 0.723084
O O3 0.284370 0.127538 0.990348
O O4 0.499955 0.093579 0.043440
O O5 0.715356 0.821205 0.677877
O O6 0.259719 0.661364 0.953204
O O7 0.500000 0.741406 0.250000
O O8 0.936975 0.372539 0.517049
O O9 0.000000 0.337016 0.250000
O O10 0.881665 0.495802 0.195383
#
# Coordination Sequence:
#
# PCOD8117612 Si02
#       5
#     4   4   4   4   2
#     4   9  15  25  42  65 101 138 169 193 230 282
#     4   9  15  25  41  66 100 140 167 192 231 284
#     4  10  19  29  48  80 106 125 162 211 248 278
#     4   9  18  36  58  74  93 125 171 202 242 307
#     4   8  18  38  62  70  86 132 174 192 244 322
#
# _framework density 17.296647
#
# number of rings (size 3 to 8) (size 9 to 14) (size 15 to 20)
#    0.667    2.222    2.222    0.000    0.000    1.778 
#    0.000    1.111    0.000    1.333    0.000    0.000 
#    0.000    0.000    0.000    0.000    0.000    0.000 
#
# Total GULP energy -223035.722966 kJ/mol
# GULP energy per Si atom -12390.873498 kJ/mol
# Density = 1.725728 g / cm^3
# Si number density = 17.296647 Si / 1000 Ang^3
#
#
#
# Elastic Constant Matrix: (Units=GPa)
#
#
# Indices 1 2 3 4 5 6 
#
# 1 65.0409 28.6062 56.3624 0.0000 -27.8804 0.0000
# 2 28.6062 70.7527 48.0000 0.0000 -1.1893 0.0000
# 3 56.3624 48.0000 87.8937 0.0000 -29.9270 0.0000
# 4 0.0000 0.0000 0.0000 20.7353 0.0000 -1.4948
# 5 -27.8804 -1.1893 -29.9270 0.0000 36.8949 0.0000
# 6 0.0000 0.0000 0.0000 -1.4948 0.0000 10.0764
#
#
#
# Elastic Compliance Matrix: (Units=1/GPa)
#
#
# Indices 1 2 3 4 5 6 
#
# 1 0.038671 -0.002966 -0.018320 0.000000 0.014266 0.000000
# 2 -0.002966 0.028052 -0.019166 0.000000 -0.016884 0.000000
# 3 -0.018320 -0.019166 0.039607 0.000000 0.017665 0.000000
# 4 0.000000 0.000000 0.000000 0.048748 0.000000 0.007232
# 5 0.014266 -0.016884 0.017665 0.000000 0.051669 0.000000
# 6 0.000000 0.000000 0.000000 0.007232 0.000000 0.100314
#
#
# Mechanical properties :
#
#
# Convention : Reuss Voigt Hill
#
# Bulk Modulus (GPa) = 39.33271 54.40273 46.86772
# Shear Modulus (GPa) = 12.61216 19.58925 16.10070
#
# Velocity S-wave (km/s) = 2.70324 3.36898 3.05430
# Velocity P-wave (km/s) = 5.70375 6.83041 6.29235
#
# Compressibility (1/GPa) = 0.02542413
#
# Stress axis : x y z
#
# Youngs Moduli (GPa) = 25.85918 35.64804 25.24791
#
# Poissons Ratio (x) = 0.10575 0.46255
# Poissons Ratio (y) = 0.07671 0.48391
# Poissons Ratio (z) = 0.47375 0.68324
#
# Static dielectric constant tensor:
#      x y z
#    x 3.154320 0.000000 -0.517820 
#    y 0.000000 2.983400 0.000000 
#    z -0.517820 0.000000 3.030060 
# 
# 
# High freq. dielectric constant tensor:
#      x y z
#    x 1.649730 0.000000 -0.046960 
#    y 0.000000 1.648510 0.000000 
#    z -0.046960 0.000000 1.644510 
# 
# From -- ./inp_files/21686.got.cif
#   From: 2010.06.25/outbox.cif.g09.slc.cpg/sg13_11_cif.got.tgz:21686.got - 2010.06.28 04:50:58.
