data_PCOD8117322
_publ_section_title
;
Structure prediction by ZEFSAII (Michael W. Deem and Ramdas Pophale) SiO2 
 PCOD8117322
Probable space group: P 2/C
;
_chemical_formula_sum "Si O2"
_cell_formula_units_Z 28
_cell_length_a 19.357051
_cell_length_b 8.420270
_cell_length_c 21.641400
_cell_angle_alpha 90.000000
_cell_angle_beta 26.017870
_cell_angle_gamma 90.000000
_cell_volume 1547.284354
_symmetry_space_group_name_H-M "P 2/C"
_symmetry_group_IT_number 13
_symmetry_cell_setting 'monoclinic'
loop_
_space_group_symop_operation_xyz
x,y,z
-x,y,1/2-z
-x,-y,-z
x,-y,1/2+z
loop_
_atom_site_type_symbol
_atom_site_label
_atom_site_fract_x
_atom_site_fract_y
_atom_site_fract_z
Si Si1 0.122835 0.687521 0.035312
Si Si2 0.717817 0.201172 0.334774
Si Si3 0.580527 0.360757 0.895683
Si Si4 0.095058 0.426252 0.231272
Si Si5 0.655548 0.631426 0.756241
Si Si6 0.185207 0.851992 0.221961
Si Si7 0.695149 0.696512 0.488589
O O1 0.247519 0.731034 0.988250
O O2 0.020645 0.537285 0.137127
O O3 0.003756 0.835117 0.120041
O O4 0.211038 0.647873 0.901688
O O5 0.550287 0.221973 0.505219
O O6 0.852154 0.284679 0.267109
O O7 0.711030 0.272895 0.271850
O O8 0.758946 0.017401 0.294847
O O9 0.634169 0.442836 0.788478
O O10 0.734096 0.292848 0.805724
O O11 0.500000 0.500000 0.000000
O O12 0.243488 0.527242 0.086656
O O13 0.000000 0.351846 0.250000
O O14 0.493027 0.702086 0.861066
O O15 0.236540 0.837874 0.109061
#
# Coordination Sequence:
#
# PCOD8117322 Si02
#       7
#     4   4   4   4   4   4   4
#     4  10  22  35  55  85 111 147 184 231 283 323
#     4  11  21  34  59  84 111 145 186 229 275 333
#     4  10  18  34  58  81 101 138 187 231 262 320
#     4   9  19  36  57  80 109 141 190 232 268 326
#     4  11  20  35  59  83 110 144 187 235 277 324
#     4  11  21  35  57  84 112 144 186 228 278 332
#     4  10  18  37  58  80 107 146 192 227 264 334
#
# _framework density 18.096221
#
# number of rings (size 3 to 8) (size 9 to 14) (size 15 to 20)
#    0.000    1.714    4.286    4.714    0.000    4.000 
#    0.000    0.000    0.000    0.000    0.000    0.000 
#    0.000    0.000    0.000    0.000    0.000    0.000 
#
# Total GULP energy -347159.103439 kJ/mol
# GULP energy per Si atom -12398.539409 kJ/mol
# Density = 1.805503 g / cm^3
# Si number density = 18.096221 Si / 1000 Ang^3
#
#
#
# Elastic Constant Matrix: (Units=GPa)
#
#
# Indices 1 2 3 4 5 6 
#
# 1 129.3114 45.8106 55.8423 0.0000 -11.3615 0.0000
# 2 45.8106 69.4030 37.1608 0.0000 -0.9007 0.0000
# 3 55.8423 37.1608 100.3862 0.0000 3.6191 0.0000
# 4 0.0000 0.0000 0.0000 19.9713 0.0000 -9.3913
# 5 -11.3615 -0.9007 3.6191 0.0000 31.8930 0.0000
# 6 0.0000 0.0000 0.0000 -9.3913 0.0000 17.0674
#
#
#
# Elastic Compliance Matrix: (Units=1/GPa)
#
#
# Indices 1 2 3 4 5 6 
#
# 1 0.012185 -0.005313 -0.004983 0.000000 0.004756 0.000000
# 2 -0.005313 0.020338 -0.004544 0.000000 -0.000803 0.000000
# 3 -0.004983 -0.004544 0.014544 0.000000 -0.003554 0.000000
# 4 0.000000 0.000000 0.000000 0.067551 0.000000 0.037170
# 5 0.004756 -0.000803 -0.003554 0.000000 0.033430 0.000000
# 6 0.000000 0.000000 0.000000 0.037170 0.000000 0.079044
#
#
# Mechanical properties :
#
#
# Convention : Reuss Voigt Hill
#
# Bulk Modulus (GPa) = 57.51617 64.08088 60.79853
# Shear Modulus (GPa) = 19.04265 24.47214 21.75739
#
# Velocity S-wave (km/s) = 3.24744 3.68140 3.47121
# Velocity P-wave (km/s) = 6.77596 7.31836 7.05237
#
# Compressibility (1/GPa) = 0.01738642
#
# Stress axis : x y z
#
# Youngs Moduli (GPa) = 82.06559 49.16788 68.75802
#
# Poissons Ratio (x) = 0.26125 0.34262
# Poissons Ratio (y) = 0.43604 0.31245
# Poissons Ratio (z) = 0.40893 0.22343
#
# Static dielectric constant tensor:
#      x y z
#    x 3.521950 0.000000 -0.169580 
#    y 0.000000 3.238020 0.000000 
#    z -0.169580 0.000000 3.403630 
# 
# 
# High freq. dielectric constant tensor:
#      x y z
#    x 1.713060 0.000000 -0.020390 
#    y 0.000000 1.673050 0.000000 
#    z -0.020390 0.000000 1.694200 
# 
# From -- ./inp_files/80833.got.cif
#   From: 2010.06.25/outbox.cif.g09.slc.cpg/sg13_41_cif.got.tgz:80833.got - 2010.06.28 04:50:58.
