data_PCOD8117938
_publ_section_title
;
Structure prediction by ZEFSAII (Michael W. Deem and Ramdas Pophale) SiO2 
 PCOD8117938
Probable space group: P 2/C
;
_chemical_formula_sum "Si O2"
_cell_formula_units_Z 28
_cell_length_a 19.021045
_cell_length_b 11.736107
_cell_length_c 16.270420
_cell_angle_alpha 90.000000
_cell_angle_beta 22.105850
_cell_angle_gamma 90.000000
_cell_volume 1366.825848
_symmetry_space_group_name_H-M "P 2/C"
_symmetry_group_IT_number 13
_symmetry_cell_setting 'monoclinic'
loop_
_space_group_symop_operation_xyz
x,y,z
-x,y,1/2-z
-x,-y,-z
x,-y,1/2+z
loop_
_atom_site_type_symbol
_atom_site_label
_atom_site_fract_x
_atom_site_fract_y
_atom_site_fract_z
Si Si1 0.965921 0.007276 0.193269
Si Si2 0.698927 0.110253 0.232646
Si Si3 0.816447 0.449070 0.654253
Si Si4 0.005988 0.733904 0.839874
Si Si5 0.578843 0.045557 0.541509
Si Si6 0.572464 0.705756 0.085117
Si Si7 0.449161 0.354915 0.075174
O O1 0.000000 0.980372 0.250000
O O2 0.041232 0.134306 0.087978
O O3 0.745225 0.995350 0.416585
O O4 0.079701 0.910190 0.019949
O O5 0.659099 0.060340 0.364236
O O6 0.630744 0.239442 0.301073
O O7 0.591702 0.042693 0.276323
O O8 0.708242 0.553890 0.728649
O O9 0.000000 0.500000 0.500000
O O10 0.864096 0.352466 0.536072
O O11 0.656007 0.389396 0.887041
O O12 0.205996 0.704818 0.659349
O O13 0.000000 0.711741 0.750000
O O14 0.497349 0.163849 0.665432
O O15 0.500000 0.649757 0.250000
O O16 0.514267 0.643520 0.064009
#
# Coordination Sequence:
#
# PCOD8117938 Si02
#       7
#     4   4   4   4   4   4   4
#     4  10  22  36  59  92 120 148 195 245 299 352
#     4  10  21  37  57  85 120 156 190 231 290 362
#     4  11  22  40  61  84 117 152 199 248 291 341
#     4  10  21  35  59  92 116 150 189 248 301 344
#     4   9  21  33  54  85 119 157 180 228 294 352
#     4  10  19  34  58  91 121 143 188 247 299 350
#     4  10  23  39  59  88 115 155 201 240 291 355
#
# _framework density 20.485417999999999
#
# number of rings (size 3 to 8) (size 9 to 14) (size 15 to 20)
#    0.000    2.000    1.429    1.286   12.000    1.143 
#    0.000    0.714    0.000    1.714    0.000    0.000 
#    0.000    0.000    0.000    0.000    0.000    0.000 
#
# Total GULP energy -346933.576340 kJ/mol
# GULP energy per Si atom -12390.484869 kJ/mol
# Density = 2.043879 g / cm^3
# Si number density = 20.485418 Si / 1000 Ang^3
#
#
#
# Elastic Constant Matrix: (Units=GPa)
#
#
# Indices 1 2 3 4 5 6 
#
# 1 54.7772 5.8064 2.9217 0.0000 -8.9434 0.0000
# 2 5.8064 78.6412 22.1883 0.0000 1.0479 0.0000
# 3 2.9217 22.1883 54.3242 0.0000 -4.2124 0.0000
# 4 0.0000 0.0000 0.0000 41.8180 0.0000 -2.9841
# 5 -8.9434 1.0479 -4.2124 0.0000 30.9694 0.0000
# 6 0.0000 0.0000 0.0000 -2.9841 0.0000 17.0423
#
#
#
# Elastic Compliance Matrix: (Units=1/GPa)
#
#
# Indices 1 2 3 4 5 6 
#
# 1 0.019335 -0.001506 0.000012 0.000000 0.005636 0.000000
# 2 -0.001506 0.014541 -0.005993 0.000000 -0.001742 0.000000
# 3 0.000012 -0.005993 0.021094 0.000000 0.003075 0.000000
# 4 0.000000 0.000000 0.000000 0.024216 0.000000 0.004240
# 5 0.005636 -0.001742 0.003075 0.000000 0.034395 0.000000
# 6 0.000000 0.000000 0.000000 0.004240 0.000000 0.059420
#
#
# Mechanical properties :
#
#
# Convention : Reuss Voigt Hill
#
# Bulk Modulus (GPa) = 25.00267 27.73059 26.36663
# Shear Modulus (GPa) = 24.83766 28.42103 26.62934
#
# Velocity S-wave (km/s) = 3.48581 3.72879 3.60935
# Velocity P-wave (km/s) = 5.33224 5.66610 5.50170
#
# Compressibility (1/GPa) = 0.03999573
#
# Stress axis : x y z
#
# Youngs Moduli (GPa) = 51.71966 68.76909 47.40733
#
# Poissons Ratio (x) = 0.10358 -0.00059
# Poissons Ratio (y) = 0.07790 0.28413
# Poissons Ratio (z) = -0.00064 0.41216
#
# Static dielectric constant tensor:
#      x y z
#    x 3.880840 0.000000 -0.470030 
#    y 0.000000 3.767700 0.000000 
#    z -0.470030 0.000000 3.990400 
# 
# 
# High freq. dielectric constant tensor:
#      x y z
#    x 1.787430 0.000000 -0.023420 
#    y 0.000000 1.785800 0.000000 
#    z -0.023420 0.000000 1.810240 
# 
# From -- ./inp_files/70653.got.cif
#   From: 2010.06.25/outbox.cif.g09.slc.cpg/sg13_36_cif.got.tgz:70653.got - 2010.06.28 04:50:58.
