data_PCOD8117068
_publ_section_title
;
Structure prediction by ZEFSAII (Michael W. Deem and Ramdas Pophale) SiO2 
 PCOD8117068
Probable space group: P 2/C
;
_chemical_formula_sum "Si O2"
_cell_formula_units_Z 32
_cell_length_a 19.023839
_cell_length_b 11.114246
_cell_length_c 24.158691
_cell_angle_alpha 90.000000
_cell_angle_beta 19.964753
_cell_angle_gamma 90.000000
_cell_volume 1744.088467
_symmetry_space_group_name_H-M "P 2/C"
_symmetry_group_IT_number 13
_symmetry_cell_setting 'monoclinic'
loop_
_space_group_symop_operation_xyz
x,y,z
-x,y,1/2-z
-x,-y,-z
x,-y,1/2+z
loop_
_atom_site_type_symbol
_atom_site_label
_atom_site_fract_x
_atom_site_fract_y
_atom_site_fract_z
Si Si1 0.078680 0.134827 0.397864
Si Si2 0.362548 0.937275 0.147498
Si Si3 0.477374 0.705886 0.427325
Si Si4 0.838873 0.656464 0.743769
Si Si5 0.847796 0.226610 0.411578
Si Si6 0.102544 0.567240 0.371898
Si Si7 0.966854 0.189363 0.940916
Si Si8 0.740945 0.973869 0.070329
O O1 0.175411 0.252293 0.297210
O O2 0.027609 0.153555 0.498954
O O3 0.866556 0.090171 0.526871
O O4 0.259438 0.037458 0.261987
O O5 0.499553 0.849735 0.083308
O O6 0.181810 0.854697 0.253879
O O7 0.500000 0.000000 0.000000
O O8 0.357330 0.659650 0.570492
O O9 0.347919 0.697502 0.466220
O O10 0.690177 0.634575 0.261001
O O11 0.049723 0.684768 0.619740
O O12 0.843857 0.523207 0.716389
O O13 0.807393 0.093246 0.465234
O O14 0.000000 0.196980 0.250000
O O15 0.950399 0.665266 0.454696
O O16 0.000000 0.500000 0.500000
O O17 0.789162 0.118520 0.037963
O O18 0.500000 0.953094 0.250000
#
# Coordination Sequence:
#
# PCOD8117068 Si02
#       8
#     4   4   4   4   4   4   4   4
#     4  10  19  35  54  81 114 145 182 228 285 337
#     4  10  18  30  55  82 111 138 175 229 283 338
#     4  10  21  35  58  88 110 146 191 229 289 337
#     4  10  19  38  57  82 113 147 188 241 274 325
#     4   9  21  36  57  83 114 145 183 232 288 340
#     4  11  22  37  60  79 111 150 202 237 267 322
#     4  10  22  36  52  80 112 147 183 227 282 331
#     4  10  21  33  54  80 113 146 177 227 287 340
#
# _framework density 18.347691999999999
#
# number of rings (size 3 to 8) (size 9 to 14) (size 15 to 20)
#    0.000    2.000    2.500    1.875    7.000    0.000 
#    0.000    1.250    0.000    2.250    0.000    0.000 
#    0.000    0.000    0.000    0.000    0.000    0.000 
#
# Total GULP energy -396489.912287 kJ/mol
# GULP energy per Si atom -12390.309759 kJ/mol
# Density = 1.830593 g / cm^3
# Si number density = 18.347692 Si / 1000 Ang^3
#
#
#
# Elastic Constant Matrix: (Units=GPa)
#
#
# Indices 1 2 3 4 5 6 
#
# 1 74.2565 43.9779 40.5542 0.0000 2.4856 0.0000
# 2 43.9779 136.9547 44.6598 0.0000 4.2762 0.0000
# 3 40.5542 44.6598 91.8562 0.0000 1.4582 0.0000
# 4 0.0000 0.0000 0.0000 28.8944 0.0000 2.7405
# 5 2.4856 4.2762 1.4582 0.0000 18.3097 0.0000
# 6 0.0000 0.0000 0.0000 2.7405 0.0000 24.3584
#
#
#
# Elastic Compliance Matrix: (Units=1/GPa)
#
#
# Indices 1 2 3 4 5 6 
#
# 1 0.019539 -0.004077 -0.006626 0.000000 -0.001173 0.000000
# 2 -0.004077 0.009581 -0.002835 0.000000 -0.001458 0.000000
# 3 -0.006626 -0.002835 0.015185 0.000000 0.000352 0.000000
# 4 0.000000 0.000000 0.000000 0.034982 0.000000 -0.003936
# 5 -0.001173 -0.001458 0.000352 0.000000 0.055088 0.000000
# 6 0.000000 0.000000 0.000000 -0.003936 0.000000 0.041496
#
#
# Mechanical properties :
#
#
# Convention : Reuss Voigt Hill
#
# Bulk Modulus (GPa) = 58.04096 62.38347 60.21222
# Shear Modulus (GPa) = 23.95907 25.90419 24.93163
#
# Velocity S-wave (km/s) = 3.61755 3.76154 3.69025
# Velocity P-wave (km/s) = 7.01082 7.27599 7.14463
#
# Compressibility (1/GPa) = 0.01722921
#
# Stress axis : x y z
#
# Youngs Moduli (GPa) = 51.17908 104.37437 65.85656
#
# Poissons Ratio (x) = 0.42555 0.43634
# Poissons Ratio (y) = 0.20866 0.18670
# Poissons Ratio (z) = 0.33909 0.29590
#
# Static dielectric constant tensor:
#      x y z
#    x 3.682170 0.000000 -0.144090 
#    y 0.000000 3.658340 0.000000 
#    z -0.144090 0.000000 3.611760 
# 
# 
# High freq. dielectric constant tensor:
#      x y z
#    x 1.690270 0.000000 0.010500 
#    y 0.000000 1.712120 0.000000 
#    z 0.010500 0.000000 1.719910 
# 
# From -- ./inp_files/88171.got.cif
#   From: 2010.06.25/outbox.cif.g09.slc.cpg/sg13_45_cif.got.tgz:88171.got - 2010.06.28 04:50:58.
