data_PCOD8117484
_publ_section_title
;
Structure prediction by ZEFSAII (Michael W. Deem and Ramdas Pophale) SiO2 
 PCOD8117484
Probable space group: P 2/C
;
_chemical_formula_sum "Si O2"
_cell_formula_units_Z 28
_cell_length_a 14.743617
_cell_length_b 9.783041
_cell_length_c 20.783396
_cell_angle_alpha 90.000000
_cell_angle_beta 152.896538
_cell_angle_gamma 90.000000
_cell_volume 1365.767894
_symmetry_space_group_name_H-M "P 2/C"
_symmetry_group_IT_number 13
_symmetry_cell_setting 'monoclinic'
loop_
_space_group_symop_operation_xyz
x,y,z
-x,y,1/2-z
-x,-y,-z
x,-y,1/2+z
loop_
_atom_site_type_symbol
_atom_site_label
_atom_site_fract_x
_atom_site_fract_y
_atom_site_fract_z
Si Si1 0.644977 0.113908 0.434824
Si Si2 0.236517 0.049456 0.121614
Si Si3 0.468542 0.648083 0.059391
Si Si4 0.844614 0.854858 0.600364
Si Si5 0.505865 0.331751 0.072697
Si Si6 0.937427 0.230562 0.387122
Si Si7 0.678773 0.731225 0.316728
O O1 0.426063 0.128822 0.269142
O O2 0.802256 0.115068 0.474313
O O3 0.658600 0.238706 0.494489
O O4 0.673199 0.969511 0.489059
O O5 0.069720 0.099447 0.067435
O O6 0.298857 0.892335 0.157620
O O7 0.446907 0.486171 0.050085
O O8 0.638493 0.696127 0.216876
O O9 0.256526 0.710955 0.945695
O O10 0.518136 0.698174 0.018492
O O11 0.000000 0.906766 0.750000
O O12 0.970784 0.841029 0.616177
O O13 0.733262 0.306830 0.240687
O O14 0.106451 0.332608 0.524741
O O15 0.500000 0.676951 0.250000
#
# Coordination Sequence:
#
# PCOD8117484 Si02
#       7
#     4   4   4   4   4   4   4
#     4  10  20  40  61  94 125 162 208 263 315 365
#     4  10  18  36  63  89 130 157 200 266 318 362
#     4  11  23  44  64  87 130 175 211 256 319 379
#     4  12  22  38  66  93 123 165 217 259 314 382
#     4  10  25  44  64  89 129 174 213 259 319 372
#     4  11  22  37  64  96 121 163 210 261 312 378
#     4  12  20  37  64  96 126 166 207 255 319 375
#
# _framework density 20.501289
#
# number of rings (size 3 to 8) (size 9 to 14) (size 15 to 20)
#    0.000    1.143    7.143    0.429    0.000    2.286 
#    5.143    2.143    0.000    0.000    0.000    0.000 
#    0.000    0.000    0.000    0.000    0.000    0.000 
#
# Total GULP energy -346908.542334 kJ/mol
# GULP energy per Si atom -12389.590798 kJ/mol
# Density = 2.045463 g / cm^3
# Si number density = 20.501289 Si / 1000 Ang^3
#
#
#
# Elastic Constant Matrix: (Units=GPa)
#
#
# Indices 1 2 3 4 5 6 
#
# 1 151.2342 68.1940 47.6473 0.0000 -22.4265 0.0000
# 2 68.1940 98.7651 23.9668 0.0000 -3.3520 0.0000
# 3 47.6473 23.9668 105.4847 0.0000 -25.9101 0.0000
# 4 0.0000 0.0000 0.0000 17.9671 0.0000 -8.1492
# 5 -22.4265 -3.3520 -25.9101 0.0000 30.8078 0.0000
# 6 0.0000 0.0000 0.0000 -8.1492 0.0000 17.7173
#
#
#
# Elastic Compliance Matrix: (Units=1/GPa)
#
#
# Indices 1 2 3 4 5 6 
#
# 1 0.011331 -0.007121 -0.002098 0.000000 0.005709 0.000000
# 2 -0.007121 0.015221 -0.001397 0.000000 -0.004702 0.000000
# 3 -0.002098 -0.001397 0.013023 0.000000 0.009273 0.000000
# 4 0.000000 0.000000 0.000000 0.070329 0.000000 0.032348
# 5 0.005709 -0.004702 0.009273 0.000000 0.043903 0.000000
# 6 0.000000 0.000000 0.000000 0.032348 0.000000 0.071321
#
#
# Mechanical properties :
#
#
# Convention : Reuss Voigt Hill
#
# Bulk Modulus (GPa) = 54.51478 70.56667 62.54072
# Shear Modulus (GPa) = 19.80414 27.67683 23.74049
#
# Velocity S-wave (km/s) = 3.11142 3.67823 3.40663
# Velocity P-wave (km/s) = 6.28940 7.24807 6.78568
#
# Compressibility (1/GPa) = 0.01834365
#
# Stress axis : x y z
#
# Youngs Moduli (GPa) = 88.25696 65.69907 76.78801
#
# Poissons Ratio (x) = 0.46781 0.16109
# Poissons Ratio (y) = 0.62844 0.10727
# Poissons Ratio (z) = 0.18515 0.09178
#
# Static dielectric constant tensor:
#      x y z
#    x 4.135420 0.000000 -0.196030 
#    y 0.000000 3.448420 0.000000 
#    z -0.196030 0.000000 4.549380 
# 
# 
# High freq. dielectric constant tensor:
#      x y z
#    x 1.815130 0.000000 -0.012420 
#    y 0.000000 1.771320 0.000000 
#    z -0.012420 0.000000 1.812080 
# 
# From -- ./inp_files/80002.got.cif
#   From: 2010.06.25/outbox.cif.g09.slc.cpg/sg13_41_cif.got.tgz:80002.got - 2010.06.28 04:50:58.
