data_PCOD8117252
_publ_section_title
;
Structure prediction by ZEFSAII (Michael W. Deem and Ramdas Pophale) SiO2 
 PCOD8117252
Probable space group: P 2/C
;
_chemical_formula_sum "Si O2"
_cell_formula_units_Z 32
_cell_length_a 8.183468
_cell_length_b 12.559459
_cell_length_c 19.408044
_cell_angle_alpha 90.000000
_cell_angle_beta 52.167164
_cell_angle_gamma 90.000000
_cell_volume 1575.466647
_symmetry_space_group_name_H-M "P 2/C"
_symmetry_group_IT_number 13
_symmetry_cell_setting 'monoclinic'
loop_
_space_group_symop_operation_xyz
x,y,z
-x,y,1/2-z
-x,-y,-z
x,-y,1/2+z
loop_
_atom_site_type_symbol
_atom_site_label
_atom_site_fract_x
_atom_site_fract_y
_atom_site_fract_z
Si Si1 0.209111 0.618261 0.674537
Si Si2 0.298146 0.074430 0.956854
Si Si3 0.996886 0.911623 0.407135
Si Si4 0.580632 0.784339 0.799773
Si Si5 0.401877 0.508483 0.951055
Si Si6 0.186380 0.695429 0.524242
Si Si7 0.647146 0.026400 0.771703
Si Si8 0.184981 0.281202 0.476939
O O1 0.225132 0.722093 0.718770
O O2 0.403217 0.544017 0.645904
O O3 0.193985 0.653473 0.599583
O O4 0.000000 0.556935 0.750000
O O5 0.157747 0.059258 0.925754
O O6 0.539651 0.053445 0.873382
O O7 0.301088 0.192123 0.988425
O O8 0.203134 0.990839 0.037200
O O9 0.121044 0.925542 0.302019
O O10 0.926037 0.788941 0.435044
O O11 0.500000 0.730436 0.750000
O O12 0.392208 0.782883 0.903225
O O13 0.667236 0.900035 0.760204
O O14 0.229395 0.601628 0.995293
O O15 0.500000 0.500000 0.000000
O O16 0.306273 0.396848 0.949445
O O17 0.955308 0.707870 0.555128
O O18 0.500000 0.073168 0.750000
#
# Coordination Sequence:
#
# PCOD8117252 Si02
#       8
#     4   4   4   4   4   4   4   4
#     4  10  21  35  53  79 109 144 185 235 290 328
#     4   9  17  30  49  79 111 145 181 223 277 336
#     4   9  17  28  50  81 110 146 181 224 281 330
#     4  10  19  31  53  81 112 142 183 235 279 332
#     4   9  20  38  55  75 106 142 184 234 282 330
#     4  10  20  34  57  80 111 148 185 231 282 336
#     4   9  17  29  49  77 115 145 183 230 276 335
#     4  10  18  33  58  84 108 143 194 231 281 343
#
# _framework density 20.311442
#
# number of rings (size 3 to 8) (size 9 to 14) (size 15 to 20)
#    0.000    2.500    1.250    1.125    7.000    0.000 
#    0.000    3.125    0.000   15.000    0.000    0.000 
#    0.000    0.000    0.000    0.000    0.000    0.000 
#
# Total GULP energy -396503.903609 kJ/mol
# GULP energy per Si atom -12390.746988 kJ/mol
# Density = 2.026521 g / cm^3
# Si number density = 20.311442 Si / 1000 Ang^3
#
#
#
# Elastic Constant Matrix: (Units=GPa)
#
#
# Indices 1 2 3 4 5 6 
#
# 1 43.4293 25.9417 18.2087 0.0000 -6.7240 0.0000
# 2 25.9417 115.2838 40.0642 0.0000 -14.1813 0.0000
# 3 18.2087 40.0642 112.5527 0.0000 -28.9864 0.0000
# 4 0.0000 0.0000 0.0000 19.0818 0.0000 5.3569
# 5 -6.7240 -14.1813 -28.9864 0.0000 28.7768 0.0000
# 6 0.0000 0.0000 0.0000 5.3569 0.0000 8.3418
#
#
#
# Elastic Compliance Matrix: (Units=1/GPa)
#
#
# Indices 1 2 3 4 5 6 
#
# 1 0.027281 -0.005191 -0.002137 0.000000 0.001663 0.000000
# 2 -0.005191 0.010956 -0.002676 0.000000 0.001490 0.000000
# 3 -0.002137 -0.002676 0.013118 0.000000 0.011395 0.000000
# 4 0.000000 0.000000 0.000000 0.063932 0.000000 -0.041056
# 5 0.001663 0.001490 0.011395 0.000000 0.047351 0.000000
# 6 0.000000 0.000000 0.000000 -0.041056 0.000000 0.146244
#
#
# Mechanical properties :
#
#
# Convention : Reuss Voigt Hill
#
# Bulk Modulus (GPa) = 31.90339 48.85499 40.37919
# Shear Modulus (GPa) = 14.73455 23.71016 19.22235
#
# Velocity S-wave (km/s) = 2.69630 3.42033 3.07967
# Velocity P-wave (km/s) = 5.04327 6.30106 5.70692
#
# Compressibility (1/GPa) = 0.03134463
#
# Stress axis : x y z
#
# Youngs Moduli (GPa) = 36.65621 91.27568 76.23288
#
# Poissons Ratio (x) = 0.47386 0.16292
# Poissons Ratio (y) = 0.19030 0.20401
# Poissons Ratio (z) = 0.07834 0.24426
#
# Static dielectric constant tensor:
#      x y z
#    x 3.572220 0.000000 -0.427800 
#    y 0.000000 3.890900 0.000000 
#    z -0.427800 0.000000 4.052600 
# 
# 
# High freq. dielectric constant tensor:
#      x y z
#    x 1.773540 0.000000 -0.021310 
#    y 0.000000 1.781600 0.000000 
#    z -0.021310 0.000000 1.784950 
# 
# From -- ./inp_files/76419.got.cif
#   From: 2010.06.25/outbox.cif.g09.slc.cpg/sg13_39_cif.got.tgz:76419.got - 2010.06.28 04:50:58.
