data_PCOD8117933
_publ_section_title
;
Structure prediction by ZEFSAII (Michael W. Deem and Ramdas Pophale) SiO2 
 PCOD8117933
Probable space group: P 2/C
;
_chemical_formula_sum "Si O2"
_cell_formula_units_Z 32
_cell_length_a 16.060509
_cell_length_b 20.104712
_cell_length_c 16.704307
_cell_angle_alpha 90.000000
_cell_angle_beta 17.433676
_cell_angle_gamma 90.000000
_cell_volume 1615.956835
_symmetry_space_group_name_H-M "P 2/C"
_symmetry_group_IT_number 13
_symmetry_cell_setting 'monoclinic'
loop_
_space_group_symop_operation_xyz
x,y,z
-x,y,1/2-z
-x,-y,-z
x,-y,1/2+z
loop_
_atom_site_type_symbol
_atom_site_label
_atom_site_fract_x
_atom_site_fract_y
_atom_site_fract_z
Si Si1 0.520845 0.946750 0.347975
Si Si2 0.689288 0.805523 0.007282
Si Si3 0.355834 0.215364 0.130966
Si Si4 0.286599 0.356424 0.269143
Si Si5 0.124609 0.868927 0.355145
Si Si6 0.992533 0.031627 0.846760
Si Si7 0.205682 0.473967 0.246409
Si Si8 0.875950 0.591135 0.277007
O O1 0.389655 0.882839 0.425914
O O2 0.714893 0.925588 0.243452
O O3 0.272222 0.991262 0.611103
O O4 0.717152 0.986381 0.106221
O O5 0.640892 0.768564 0.967008
O O6 0.000000 0.796873 0.750000
O O7 0.500000 0.771823 0.250000
O O8 0.309267 0.279381 0.228125
O O9 0.105472 0.164262 0.376821
O O10 0.654104 0.184671 0.881092
O O11 0.217959 0.393738 0.246316
O O12 0.041573 0.368210 0.557395
O O13 0.561860 0.383093 0.060336
O O14 0.967218 0.904005 0.426311
O O15 0.000000 0.058543 0.750000
O O16 0.117518 0.509860 0.243688
O O17 0.000000 0.500000 0.500000
O O18 0.500000 0.500000 0.000000
O O19 0.000000 0.605997 0.250000
#
# Coordination Sequence:
#
# PCOD8117933 Si02
#       8
#     4   4   4   4   4   4   4   4
#     4  11  21  36  58  79 103 135 177 227 287 346
#     4  11  21  36  57  83 108 133 174 230 282 330
#     4  11  23  39  58  77 110 153 186 215 263 332
#     4  10  20  37  58  82 113 154 192 219 266 331
#     4  11  23  39  56  79 109 145 183 225 273 331
#     4  12  23  36  55  80 107 137 178 231 283 330
#     4   8  16  31  54  80 109 140 172 219 274 315
#     4  10  19  34  58  88 115 143 188 240 272 303
#
# _framework density 19.802509000000001
#
# number of rings (size 3 to 8) (size 9 to 14) (size 15 to 20)
#    0.000    1.500    0.000    7.875    0.000    0.000 
#    0.000    4.375    0.000    4.500    0.000    0.000 
#    0.000    0.000    0.000    0.000    0.000    0.000 
#
# Total GULP energy -396627.249523 kJ/mol
# GULP energy per Si atom -12394.601548 kJ/mol
# Density = 1.975744 g / cm^3
# Si number density = 19.802509 Si / 1000 Ang^3
#
#
#
# Elastic Constant Matrix: (Units=GPa)
#
#
# Indices 1 2 3 4 5 6 
#
# 1 78.8733 32.3645 7.7986 0.0000 7.2072 0.0000
# 2 32.3645 49.9090 7.7131 0.0000 7.5394 0.0000
# 3 7.7986 7.7131 108.9155 0.0000 -1.2190 0.0000
# 4 0.0000 0.0000 0.0000 25.6159 0.0000 -0.3065
# 5 7.2072 7.5394 -1.2190 0.0000 29.1381 0.0000
# 6 0.0000 0.0000 0.0000 -0.3065 0.0000 21.8847
#
#
#
# Elastic Compliance Matrix: (Units=1/GPa)
#
#
# Indices 1 2 3 4 5 6 
#
# 1 0.017358 -0.010958 -0.000483 0.000000 -0.001478 0.000000
# 2 -0.010958 0.028030 -0.001252 0.000000 -0.004595 0.000000
# 3 -0.000483 -0.001252 0.009314 0.000000 0.000833 0.000000
# 4 0.000000 0.000000 0.000000 0.039045 0.000000 0.000547
# 5 -0.001478 -0.004595 0.000833 0.000000 0.035909 0.000000
# 6 0.000000 0.000000 0.000000 0.000547 0.000000 0.045702
#
#
# Mechanical properties :
#
#
# Convention : Reuss Voigt Hill
#
# Bulk Modulus (GPa) = 34.11180 37.05003 35.58091
# Shear Modulus (GPa) = 23.75125 27.98252 25.86688
#
# Velocity S-wave (km/s) = 3.46700 3.76317 3.61812
# Velocity P-wave (km/s) = 5.76977 6.13452 5.95494
#
# Compressibility (1/GPa) = 0.02931537
#
# Stress axis : x y z
#
# Youngs Moduli (GPa) = 57.61066 35.67613 107.36508
#
# Poissons Ratio (x) = 0.39094 0.05190
# Poissons Ratio (y) = 0.63130 0.13440
# Poissons Ratio (z) = 0.02785 0.04466
#
# Static dielectric constant tensor:
#      x y z
#    x 3.436610 0.000000 -0.036140 
#    y 0.000000 3.544130 0.000000 
#    z -0.036140 0.000000 3.919090 
# 
# 
# High freq. dielectric constant tensor:
#      x y z
#    x 1.759790 0.000000 -0.002720 
#    y 0.000000 1.743950 0.000000 
#    z -0.002720 0.000000 1.802430 
# 
# From -- ./inp_files/53992.got.cif
#   From: 2010.06.25/outbox.cif.g09.slc.cpg/sg13_27_cif.got.tgz:53992.got - 2010.06.28 04:50:58.
