data_PCOD8117768
_publ_section_title
;
Structure prediction by ZEFSAII (Michael W. Deem and Ramdas Pophale) SiO2 
 PCOD8117768
Probable space group: P 2/C
;
_chemical_formula_sum "Si O2"
_cell_formula_units_Z 32
_cell_length_a 9.306708
_cell_length_b 10.578865
_cell_length_c 17.811094
_cell_angle_alpha 90.000000
_cell_angle_beta 103.207593
_cell_angle_gamma 90.000000
_cell_volume 1707.196100
_symmetry_space_group_name_H-M "P 2/C"
_symmetry_group_IT_number 13
_symmetry_cell_setting 'monoclinic'
loop_
_space_group_symop_operation_xyz
x,y,z
-x,y,1/2-z
-x,-y,-z
x,-y,1/2+z
loop_
_atom_site_type_symbol
_atom_site_label
_atom_site_fract_x
_atom_site_fract_y
_atom_site_fract_z
Si Si1 0.528673 0.616232 0.449050
Si Si2 0.142771 0.248300 0.308086
Si Si3 0.011793 0.484832 0.834404
Si Si4 0.344918 0.847206 0.957823
Si Si5 0.648218 0.791357 0.802541
Si Si6 0.284106 0.454307 0.115007
Si Si7 0.676986 0.090399 0.453469
Si Si8 0.777056 0.327817 0.544307
O O1 0.500000 0.500000 0.500000
O O2 0.643496 0.713541 0.499670
O O3 0.600958 0.571348 0.378812
O O4 0.366455 0.675111 0.417824
O O5 0.106175 0.384801 0.340894
O O6 0.215723 0.158870 0.379743
O O7 0.252104 0.259629 0.251973
O O8 0.000000 0.186961 0.250000
O O9 0.083112 0.372085 0.891082
O O10 0.000000 0.427873 0.750000
O O11 0.850079 0.514557 0.846519
O O12 0.502641 0.878870 0.939940
O O13 0.293140 0.950330 0.012865
O O14 0.500000 0.848415 0.750000
O O15 0.618467 0.665623 0.848113
O O16 0.715290 0.895970 0.868674
O O17 0.226061 0.427622 0.024120
O O18 0.784915 0.185450 0.512301
#
# Coordination Sequence:
#
# PCOD8117768 Si02
#       8
#     4   4   4   4   4   4   4   4
#     4   9  18  32  57  87 108 136 192 232 278 329
#     4  11  21  35  55  86 117 143 183 243 296 340
#     4  11  21  34  52  82 118 151 180 234 304 346
#     4  10  19  37  60  84 112 150 190 238 282 337
#     4  11  20  34  59  87 111 143 194 241 283 342
#     4  10  19  33  53  81 112 144 180 226 295 345
#     4   9  20  37  60  83 106 152 201 230 278 339
#     4   9  19  33  55  79 110 144 187 233 271 343
#
# _framework density 18.744185999999999
#
# number of rings (size 3 to 8) (size 9 to 14) (size 15 to 20)
#    0.000    2.000    3.750    2.625    1.750    0.000 
#    0.000    1.250    2.750    0.750    0.000    0.000 
#    0.000    0.000    0.000    0.000    0.000    0.000 
#
# Total GULP energy -396448.314596 kJ/mol
# GULP energy per Si atom -12389.009831 kJ/mol
# Density = 1.870152 g / cm^3
# Si number density = 18.744186 Si / 1000 Ang^3
#
#
#
# Elastic Constant Matrix: (Units=GPa)
#
#
# Indices 1 2 3 4 5 6 
#
# 1 59.0842 23.2589 31.5635 0.0000 -7.2387 0.0000
# 2 23.2589 92.6782 48.4971 0.0000 3.4887 0.0000
# 3 31.5635 48.4971 105.0685 0.0000 5.0236 0.0000
# 4 0.0000 0.0000 0.0000 36.0344 0.0000 -4.3546
# 5 -7.2387 3.4887 5.0236 0.0000 40.6118 0.0000
# 6 0.0000 0.0000 0.0000 -4.3546 0.0000 25.0935
#
#
#
# Elastic Compliance Matrix: (Units=1/GPa)
#
#
# Indices 1 2 3 4 5 6 
#
# 1 0.021474 -0.002733 -0.005415 0.000000 0.004732 0.000000
# 2 -0.002733 0.014581 -0.005861 0.000000 -0.001015 0.000000
# 3 -0.005415 -0.005861 0.013954 0.000000 -0.002188 0.000000
# 4 0.000000 0.000000 0.000000 0.028346 0.000000 0.004919
# 5 0.004732 -0.001015 -0.002188 0.000000 0.025825 0.000000
# 6 0.000000 0.000000 0.000000 0.004919 0.000000 0.040705
#
#
# Mechanical properties :
#
#
# Convention : Reuss Voigt Hill
#
# Bulk Modulus (GPa) = 45.47531 51.49667 48.48599
# Shear Modulus (GPa) = 27.74189 30.58204 29.16197
#
# Velocity S-wave (km/s) = 3.85129 4.04362 3.94863
# Velocity P-wave (km/s) = 6.64005 7.02383 6.83463
#
# Compressibility (1/GPa) = 0.02198996
#
# Stress axis : x y z
#
# Youngs Moduli (GPa) = 46.56834 68.58263 71.66327
#
# Poissons Ratio (x) = 0.18747 0.38809
# Poissons Ratio (y) = 0.12729 0.41999
# Poissons Ratio (z) = 0.25219 0.40193
#
# Static dielectric constant tensor:
#      x y z
#    x 3.305540 0.000000 -0.319070 
#    y 0.000000 3.305080 0.000000 
#    z -0.319070 0.000000 3.439500 
# 
# 
# High freq. dielectric constant tensor:
#      x y z
#    x 1.721450 0.000000 -0.006500 
#    y 0.000000 1.697300 0.000000 
#    z -0.006500 0.000000 1.724610 
# 
# From -- ./inp_files/64306.got.cif
#   From: 2010.06.25/outbox.cif.g09.slc.cpg/sg13_33_cif.got.tgz:64306.got - 2010.06.28 04:50:58.
