data_PCOD8117168
_publ_section_title
;
Structure prediction by ZEFSAII (Michael W. Deem and Ramdas Pophale) SiO2 
 PCOD8117168
Probable space group: P 2/C
;
_chemical_formula_sum "Si O2"
_cell_formula_units_Z 26
_cell_length_a 12.156574
_cell_length_b 8.354041
_cell_length_c 13.494794
_cell_angle_alpha 90.000000
_cell_angle_beta 109.839353
_cell_angle_gamma 90.000000
_cell_volume 1289.143148
_symmetry_space_group_name_H-M "P 2/C"
_symmetry_group_IT_number 13
_symmetry_cell_setting 'monoclinic'
loop_
_space_group_symop_operation_xyz
x,y,z
-x,y,1/2-z
-x,-y,-z
x,-y,1/2+z
loop_
_atom_site_type_symbol
_atom_site_label
_atom_site_fract_x
_atom_site_fract_y
_atom_site_fract_z
Si Si1 0.944221 0.727278 0.903191
Si Si2 0.824650 0.096954 0.543883
Si Si3 0.366307 0.387082 0.403424
Si Si4 0.000000 0.966079 0.750000
Si Si5 0.265526 0.517063 0.674028
Si Si6 0.795720 0.742666 0.493704
Si Si7 0.615033 0.687879 0.956044
O O1 0.867459 0.574248 0.849146
O O2 0.937314 0.860227 0.814996
O O3 0.901017 0.793618 0.995237
O O4 0.076191 0.665199 0.956702
O O5 0.699314 0.179530 0.532665
O O6 0.802415 0.932194 0.476967
O O7 0.898589 0.073233 0.667751
O O8 0.328689 0.494537 0.298380
O O9 0.265893 0.273996 0.417629
O O10 0.387348 0.515786 0.494255
O O11 0.476860 0.268605 0.413819
O O12 0.269191 0.346663 0.617526
O O13 0.334912 0.658304 0.638346
#
# Coordination Sequence:
#
# PCOD8117168 Si02
#       7
#     4   4   4   2   4   4   4
#     4  10  20  35  52  79 114 142 176 223 272 321
#     4  10  21  36  54  80 113 144 178 222 272 322
#     4  10  20  36  56  76 103 142 185 223 266 322
#     4  10  18  32  56  80 110 150 182 218 276 330
#     4  10  19  34  57  77 104 143 180 222 270 322
#     4  10  20  34  54  82 109 139 179 224 268 318
#     4   9  21  37  53  77 107 140 178 225 272 315
#
# _framework density 20.168437000000001
#
# number of rings (size 3 to 8) (size 9 to 14) (size 15 to 20)
#    0.000    2.154    0.000    4.615    0.000    3.077 
#    0.000    0.000    0.000   12.000    0.000    0.000 
#    0.000    0.000    0.000    0.000    0.000    0.000 
#
# Total GULP energy -322221.883981 kJ/mol
# GULP energy per Si atom -12393.149384 kJ/mol
# Density = 2.012253 g / cm^3
# Si number density = 20.168437 Si / 1000 Ang^3
#
#
#
# Elastic Constant Matrix: (Units=GPa)
#
#
# Indices 1 2 3 4 5 6 
#
# 1 133.2927 20.0865 32.5856 0.0000 18.7037 0.0000
# 2 20.0865 44.0331 9.2066 0.0000 14.9273 0.0000
# 3 32.5856 9.2066 91.1329 0.0000 3.3287 0.0000
# 4 0.0000 0.0000 0.0000 18.4591 0.0000 0.1105
# 5 18.7037 14.9273 3.3287 0.0000 25.3532 0.0000
# 6 0.0000 0.0000 0.0000 0.1105 0.0000 30.3487
#
#
#
# Elastic Compliance Matrix: (Units=1/GPa)
#
#
# Indices 1 2 3 4 5 6 
#
# 1 0.009242 -0.001777 -0.002928 0.000000 -0.005387 0.000000
# 2 -0.001777 0.029189 -0.001742 0.000000 -0.015646 0.000000
# 3 -0.002928 -0.001742 0.012138 0.000000 0.001592 0.000000
# 4 0.000000 0.000000 0.000000 0.054175 0.000000 -0.000197
# 5 -0.005387 -0.015646 0.001592 0.000000 0.052420 0.000000
# 6 0.000000 0.000000 0.000000 -0.000197 0.000000 0.032951
#
#
# Mechanical properties :
#
#
# Convention : Reuss Voigt Hill
#
# Bulk Modulus (GPa) = 26.54347 43.57954 35.06150
# Shear Modulus (GPa) = 23.19461 28.60421 25.89941
#
# Velocity S-wave (km/s) = 3.39491 3.77007 3.58740
# Velocity P-wave (km/s) = 5.34385 6.37228 5.88059
#
# Compressibility (1/GPa) = 0.03767405
#
# Stress axis : x y z
#
# Youngs Moduli (GPa) = 108.20299 34.25935 82.38721
#
# Poissons Ratio (x) = 0.06089 0.24125
# Poissons Ratio (y) = 0.19232 0.14350
# Poissons Ratio (z) = 0.31684 0.05967
#
# Static dielectric constant tensor:
#      x y z
#    x 4.295480 0.000000 0.056790 
#    y 0.000000 3.377240 0.000000 
#    z 0.056790 0.000000 3.540740 
# 
# 
# High freq. dielectric constant tensor:
#      x y z
#    x 1.803110 0.000000 -0.000790 
#    y 0.000000 1.760430 0.000000 
#    z -0.000790 0.000000 1.779010 
# 
# From -- ./inp_files/50174.got.cif
#   From: 2010.06.25/outbox.cif.g09.slc.cpg/sg13_26_cif.got.tgz:50174.got - 2010.06.28 04:50:58.
