data_PCOD8117572
_publ_section_title
;
Structure prediction by ZEFSAII (Michael W. Deem and Ramdas Pophale) SiO2 
 PCOD8117572
Probable space group: P 2/C
;
_chemical_formula_sum "Si O2"
_cell_formula_units_Z 20
_cell_length_a 11.338674
_cell_length_b 7.180127
_cell_length_c 12.619887
_cell_angle_alpha 90.000000
_cell_angle_beta 52.387733
_cell_angle_gamma 90.000000
_cell_volume 813.883452
_symmetry_space_group_name_H-M "P 2/C"
_symmetry_group_IT_number 13
_symmetry_cell_setting 'monoclinic'
loop_
_space_group_symop_operation_xyz
x,y,z
-x,y,1/2-z
-x,-y,-z
x,-y,1/2+z
loop_
_atom_site_type_symbol
_atom_site_label
_atom_site_fract_x
_atom_site_fract_y
_atom_site_fract_z
Si Si1 0.671360 0.176032 0.272395
Si Si2 0.832651 0.487351 0.299503
Si Si3 0.665091 0.245091 0.033145
Si Si4 0.902169 0.040205 0.397176
Si Si5 0.844400 0.186205 0.640378
O O1 0.782623 0.278959 0.294066
O O2 0.688220 0.262630 0.146172
O O3 0.504392 0.202484 0.405120
O O4 0.714153 0.958764 0.242871
O O5 0.720175 0.562818 0.450854
O O6 0.810760 0.612731 0.206341
O O7 0.000000 0.491759 0.250000
O O8 0.759172 0.071877 0.931554
O O9 0.855859 0.202666 0.505226
O O10 0.000000 0.130507 0.250000
O O11 0.995850 0.881318 0.405995
#
# Coordination Sequence:
#
# PCOD8117572 Si02
#       5
#     4   4   4   4   4
#     4  10  25  41  66  97 126 174 218 256 334 389
#     4  12  23  43  66  95 134 169 214 274 317 381
#     4  10  20  45  64  92 138 164 209 282 315 380
#     4  10  18  39  66  91 129 169 211 268 320 375
#     4  10  21  40  66  92 129 169 215 268 317 383
#
# _framework density 24.573543999999998
#
# number of rings (size 3 to 8) (size 9 to 14) (size 15 to 20)
#    0.000    1.600    4.000    0.600    0.000    3.200 
#    3.600    8.000    0.000    0.000    0.000    0.000 
#    0.000    0.000    0.000    0.000    0.000    0.000 
#
# Total GULP energy -248026.140948 kJ/mol
# GULP energy per Si atom -12401.307047 kJ/mol
# Density = 2.451761 g / cm^3
# Si number density = 24.573544 Si / 1000 Ang^3
#
#
#
# Elastic Constant Matrix: (Units=GPa)
#
#
# Indices 1 2 3 4 5 6 
#
# 1 117.5786 27.7033 56.3327 0.0000 -23.3874 0.0000
# 2 27.7033 91.0918 34.7079 0.0000 -6.8111 0.0000
# 3 56.3327 34.7079 149.5753 0.0000 -18.0149 0.0000
# 4 0.0000 0.0000 0.0000 13.6701 0.0000 4.3622
# 5 -23.3874 -6.8111 -18.0149 0.0000 42.6451 0.0000
# 6 0.0000 0.0000 0.0000 4.3622 0.0000 39.6087
#
#
#
# Elastic Compliance Matrix: (Units=1/GPa)
#
#
# Indices 1 2 3 4 5 6 
#
# 1 0.011450 -0.001873 -0.003327 0.000000 0.004575 0.000000
# 2 -0.001873 0.012374 -0.002162 0.000000 0.000036 0.000000
# 3 -0.003327 -0.002162 0.008617 0.000000 0.001471 0.000000
# 4 0.000000 0.000000 0.000000 0.075817 0.000000 -0.008350
# 5 0.004575 0.000036 0.001471 0.000000 0.026585 0.000000
# 6 0.000000 0.000000 0.000000 -0.008350 0.000000 0.026167
#
#
# Mechanical properties :
#
#
# Convention : Reuss Voigt Hill
#
# Bulk Modulus (GPa) = 56.43647 66.19262 61.31455
# Shear Modulus (GPa) = 27.52731 35.15159 31.33945
#
# Velocity S-wave (km/s) = 3.35057 3.78625 3.57505
# Velocity P-wave (km/s) = 6.16317 6.79038 6.48436
#
# Compressibility (1/GPa) = 0.01771904
#
# Stress axis : x y z
#
# Youngs Moduli (GPa) = 87.33598 80.81612 116.04682
#
# Poissons Ratio (x) = 0.15134 0.38606
# Poissons Ratio (y) = 0.16355 0.25085
# Poissons Ratio (z) = 0.29054 0.17470
#
# Static dielectric constant tensor:
#      x y z
#    x 4.541610 0.000000 0.150080 
#    y 0.000000 4.078960 0.000000 
#    z 0.150080 0.000000 4.805320 
# 
# 
# High freq. dielectric constant tensor:
#      x y z
#    x 1.983290 0.000000 0.007760 
#    y 0.000000 1.955180 0.000000 
#    z 0.007760 0.000000 1.991870 
# 
# From -- ./inp_files/49497.got.cif
#   From: 2010.06.25/outbox.cif.g09.slc.cpg/sg13_25_cif.got.tgz:49497.got - 2010.06.28 04:50:58.
