data_PCOD8117539
_publ_section_title
;
Structure prediction by ZEFSAII (Michael W. Deem and Ramdas Pophale) SiO2 
 PCOD8117539
Probable space group: P 2/C
;
_chemical_formula_sum "Si O2"
_cell_formula_units_Z 20
_cell_length_a 7.626440
_cell_length_b 6.489390
_cell_length_c 22.399208
_cell_angle_alpha 90.000000
_cell_angle_beta 116.038824
_cell_angle_gamma 90.000000
_cell_volume 996.035755
_symmetry_space_group_name_H-M "P 2/C"
_symmetry_group_IT_number 13
_symmetry_cell_setting 'monoclinic'
loop_
_space_group_symop_operation_xyz
x,y,z
-x,y,1/2-z
-x,-y,-z
x,-y,1/2+z
loop_
_atom_site_type_symbol
_atom_site_label
_atom_site_fract_x
_atom_site_fract_y
_atom_site_fract_z
Si Si1 0.500000 0.922403 0.250000
Si Si2 0.588487 0.530019 0.202083
Si Si3 0.897677 0.884390 0.849095
Si Si4 0.000000 0.667392 0.750000
Si Si5 0.243498 0.572939 0.575958
Si Si6 0.982267 0.187863 0.541595
O O1 0.565683 0.778092 0.203777
O O2 0.321413 0.063166 0.203523
O O3 0.500000 0.430649 0.250000
O O4 0.470441 0.437605 0.127905
O O5 0.813597 0.478234 0.228413
O O6 0.023342 0.810097 0.811566
O O7 0.885383 0.700719 0.895441
O O8 0.011801 0.087531 0.891364
O O9 0.213910 0.683424 0.506432
O O10 0.165758 0.340085 0.562470
O O11 0.000000 0.000000 0.500000
#
# Coordination Sequence:
#
# PCOD8117539 Si02
#       6
#     2   4   4   2   4   4
#     4  10  20  38  64  86 130 168 212 260 314 388
#     4  10  20  39  61  87 126 168 207 255 321 369
#     4  11  20  36  58  97 121 163 214 257 319 376
#     4  12  24  36  64  96 132 164 206 272 318 380
#     4  10  18  38  62  86 126 165 210 261 313 371
#     4   9  19  34  64  90 117 168 215 254 308 379
#
# _framework density 20.079601
#
# number of rings (size 3 to 8) (size 9 to 14) (size 15 to 20)
#    0.600    1.200    4.000    1.200    0.000    0.800 
#    0.000    1.000    0.000   10.800    0.000    0.000 
#    0.000    0.000    0.000    0.000    0.000    0.000 
#
# Total GULP energy -247795.288697 kJ/mol
# GULP energy per Si atom -12389.764435 kJ/mol
# Density = 2.003390 g / cm^3
# Si number density = 20.079601 Si / 1000 Ang^3
#
#
#
# Elastic Constant Matrix: (Units=GPa)
#
#
# Indices 1 2 3 4 5 6 
#
# 1 100.2014 28.0639 33.5851 0.0000 12.3339 0.0000
# 2 28.0639 95.5772 24.2776 0.0000 2.2743 0.0000
# 3 33.5851 24.2776 82.5057 0.0000 21.5444 0.0000
# 4 0.0000 0.0000 0.0000 38.2181 0.0000 11.0817
# 5 12.3339 2.2743 21.5444 0.0000 32.8511 0.0000
# 6 0.0000 0.0000 0.0000 11.0817 0.0000 20.5178
#
#
#
# Elastic Compliance Matrix: (Units=1/GPa)
#
#
# Indices 1 2 3 4 5 6 
#
# 1 0.012184 -0.002596 -0.003678 0.000000 -0.001983 0.000000
# 2 -0.002596 0.011939 -0.003011 0.000000 0.002123 0.000000
# 3 -0.003678 -0.003011 0.017000 0.000000 -0.009559 0.000000
# 4 0.000000 0.000000 0.000000 0.031024 0.000000 -0.016756
# 5 -0.001983 0.002123 -0.009559 0.000000 0.037307 0.000000
# 6 0.000000 0.000000 0.000000 -0.016756 0.000000 0.057788
#
#
# Mechanical properties :
#
#
# Convention : Reuss Voigt Hill
#
# Bulk Modulus (GPa) = 44.33945 50.01530 47.17737
# Shear Modulus (GPa) = 25.86261 31.14125 28.50193
#
# Velocity S-wave (km/s) = 3.59277 3.94241 3.77164
# Velocity P-wave (km/s) = 6.27220 6.75914 6.52022
#
# Compressibility (1/GPa) = 0.02255328
#
# Stress axis : x y z
#
# Youngs Moduli (GPa) = 82.07626 83.75744 58.82475
#
# Poissons Ratio (x) = 0.21744 0.21636
# Poissons Ratio (y) = 0.21307 0.17710
# Poissons Ratio (z) = 0.30188 0.25217
#
# Static dielectric constant tensor:
#      x y z
#    x 3.057240 0.000000 0.240690 
#    y 0.000000 3.914900 0.000000 
#    z 0.240690 0.000000 4.271790 
# 
# 
# High freq. dielectric constant tensor:
#      x y z
#    x 1.721900 0.000000 0.034160 
#    y 0.000000 1.806480 0.000000 
#    z 0.034160 0.000000 1.796560 
# 
# From -- ./inp_files/74267.got.cif
#   From: 2010.06.25/outbox.cif.g09.slc.cpg/sg13_38_cif.got.tgz:74267.got - 2010.06.28 04:50:58.
