data_PCOD8117785
_publ_section_title
;
Structure prediction by ZEFSAII (Michael W. Deem and Ramdas Pophale) SiO2 
 PCOD8117785
Probable space group: P 2/C
;
_chemical_formula_sum "Si O2"
_cell_formula_units_Z 28
_cell_length_a 12.480694
_cell_length_b 8.382236
_cell_length_c 14.819203
_cell_angle_alpha 90.000000
_cell_angle_beta 116.630103
_cell_angle_gamma 90.000000
_cell_volume 1385.867046
_symmetry_space_group_name_H-M "P 2/C"
_symmetry_group_IT_number 13
_symmetry_cell_setting 'monoclinic'
loop_
_space_group_symop_operation_xyz
x,y,z
-x,y,1/2-z
-x,-y,-z
x,-y,1/2+z
loop_
_atom_site_type_symbol
_atom_site_label
_atom_site_fract_x
_atom_site_fract_y
_atom_site_fract_z
Si Si1 0.694629 0.227990 0.649831
Si Si2 0.238941 0.879627 0.135674
Si Si3 0.846958 0.208746 0.443065
Si Si4 0.550992 0.285845 0.864704
Si Si5 0.074614 0.727677 0.933401
Si Si6 0.898291 0.046780 0.642880
Si Si7 0.735377 0.469553 0.514928
O O1 0.754474 0.221581 0.770380
O O2 0.551334 0.210963 0.608905
O O3 0.760897 0.086318 0.619960
O O4 0.716206 0.395093 0.606816
O O5 0.360401 0.860323 0.123299
O O6 0.218435 0.069282 0.139643
O O7 0.130276 0.798323 0.044596
O O8 0.920235 0.128721 0.554067
O O9 0.749694 0.333836 0.443761
O O10 0.935658 0.300441 0.407324
O O11 0.500000 0.354547 0.750000
O O12 0.621572 0.424431 0.944512
O O13 0.139708 0.565382 0.929298
O O14 0.088873 0.855966 0.858376
O O15 0.000000 0.112750 0.750000
#
# Coordination Sequence:
#
# PCOD8117785 Si02
#       7
#     4   4   4   4   4   4   4
#     4  10  19  35  57  81 110 143 181 227 270 312
#     4   9  18  35  58  78 102 144 187 224 266 319
#     4  10  19  34  57  80 108 146 182 222 268 319
#     4   9  19  37  57  78 109 147 183 221 269 322
#     4  10  19  35  54  78 113 146 177 218 271 328
#     4  10  19  33  54  82 110 142 184 227 265 310
#     4  10  21  35  54  83 112 142 179 221 272 324
#
# _framework density 20.203959999999999
#
# number of rings (size 3 to 8) (size 9 to 14) (size 15 to 20)
#    0.000    2.286    0.000    4.286    0.000    0.000 
#    0.000   27.857    0.000    0.000    0.000    0.000 
#    0.000    0.000    0.000    0.000    0.000    0.000 
#
# Total GULP energy -346976.005096 kJ/mol
# GULP energy per Si atom -12392.000182 kJ/mol
# Density = 2.015797 g / cm^3
# Si number density = 20.203960 Si / 1000 Ang^3
#
#
#
# Elastic Constant Matrix: (Units=GPa)
#
#
# Indices 1 2 3 4 5 6 
#
# 1 150.3613 45.7066 39.2903 0.0000 -7.8875 0.0000
# 2 45.7066 66.2677 28.6201 0.0000 0.7259 0.0000
# 3 39.2903 28.6201 75.4946 0.0000 4.0461 0.0000
# 4 0.0000 0.0000 0.0000 26.3298 0.0000 1.0210
# 5 -7.8875 0.7259 4.0461 0.0000 22.4977 0.0000
# 6 0.0000 0.0000 0.0000 1.0210 0.0000 22.9741
#
#
#
# Elastic Compliance Matrix: (Units=1/GPa)
#
#
# Indices 1 2 3 4 5 6 
#
# 1 0.009200 -0.005058 -0.003082 0.000000 0.003943 0.000000
# 2 -0.005058 0.020835 -0.005185 0.000000 -0.001513 0.000000
# 3 -0.003082 -0.005185 0.017029 0.000000 -0.003976 0.000000
# 4 0.000000 0.000000 0.000000 0.038045 0.000000 -0.001691
# 5 0.003943 -0.001513 -0.003976 0.000000 0.046595 0.000000
# 6 0.000000 0.000000 0.000000 -0.001691 0.000000 0.043602
#
#
# Mechanical properties :
#
#
# Convention : Reuss Voigt Hill
#
# Bulk Modulus (GPa) = 48.98642 57.70639 53.34640
# Shear Modulus (GPa) = 23.95078 26.26076 25.10577
#
# Velocity S-wave (km/s) = 3.44677 3.60916 3.52890
# Velocity P-wave (km/s) = 6.33553 6.78174 6.56243
#
# Compressibility (1/GPa) = 0.02041382
#
# Stress axis : x y z
#
# Youngs Moduli (GPa) = 108.69189 47.99679 58.72402
#
# Poissons Ratio (x) = 0.24276 0.18099
# Poissons Ratio (y) = 0.54974 0.30449
# Poissons Ratio (z) = 0.33500 0.24887
#
# Static dielectric constant tensor:
#      x y z
#    x 3.909850 0.000000 -0.035020 
#    y 0.000000 3.643170 0.000000 
#    z -0.035020 0.000000 3.591630 
# 
# 
# High freq. dielectric constant tensor:
#      x y z
#    x 1.804800 0.000000 -0.007510 
#    y 0.000000 1.767820 0.000000 
#    z -0.007510 0.000000 1.773080 
# 
# From -- ./inp_files/50451.got.cif
#   From: 2010.06.25/outbox.cif.g09.slc.cpg/sg13_26_cif.got.tgz:50451.got - 2010.06.28 04:50:58.
