data_PCOD8117865
_publ_section_title
;
Structure prediction by ZEFSAII (Michael W. Deem and Ramdas Pophale) SiO2 
 PCOD8117865
Probable space group: P 2/C
;
_chemical_formula_sum "Si O2"
_cell_formula_units_Z 30
_cell_length_a 24.328678
_cell_length_b 8.366575
_cell_length_c 11.831127
_cell_angle_alpha 90.000000
_cell_angle_beta 43.148371
_cell_angle_gamma 90.000000
_cell_volume 1646.942973
_symmetry_space_group_name_H-M "P 2/C"
_symmetry_group_IT_number 13
_symmetry_cell_setting 'monoclinic'
loop_
_space_group_symop_operation_xyz
x,y,z
-x,y,1/2-z
-x,-y,-z
x,-y,1/2+z
loop_
_atom_site_type_symbol
_atom_site_label
_atom_site_fract_x
_atom_site_fract_y
_atom_site_fract_z
Si Si1 0.673606 0.716969 0.365671
Si Si2 0.742778 0.000045 0.135827
Si Si3 0.499973 0.579324 0.623901
Si Si4 0.673699 0.283075 0.113252
Si Si5 0.000000 0.999992 0.250000
Si Si6 0.866860 0.199918 0.330407
Si Si7 0.133187 0.800018 0.930898
Si Si8 0.209701 0.500016 0.435469
O O1 0.579707 0.682844 0.503494
O O2 0.700135 0.772032 0.449717
O O3 0.730291 0.566794 0.250338
O O4 0.685309 0.860792 0.262703
O O5 0.685329 0.139248 0.181229
O O6 0.797372 0.068375 0.155330
O O7 0.797471 0.931791 0.952453
O O8 0.500000 0.485892 0.750000
O O9 0.500000 0.500000 0.500000
O O10 0.420172 0.682601 0.742807
O O11 0.730496 0.433106 0.058271
O O12 0.949017 0.880737 0.404751
O O13 0.050906 0.119261 0.251990
O O14 0.874181 0.245596 0.188739
O O15 0.847523 0.361152 0.429464
O O16 0.152486 0.638708 0.971918
#
# Coordination Sequence:
#
# PCOD8117865 Si02
#       8
#     4   4   4   4   2   4   4   4
#     4  10  19  34  54  78 111 145 182 230 273 321
#     4   9  20  34  54  81 106 140 186 221 268 326
#     4  10  20  35  54  80 114 152 188 231 282 326
#     4  10  19  34  54  78 111 145 182 230 273 321
#     4  10  22  38  56  80 108 136 174 214 268 332
#     4  10  20  37  57  79 107 140 174 219 269 320
#     4  10  20  37  57  79 107 140 174 219 269 320
#     4  10  20  34  56  82 106 136 186 218 266 326
#
# _framework density 18.215565999999999
#
# number of rings (size 3 to 8) (size 9 to 14) (size 15 to 20)
#    0.000    2.133    1.333    2.000    0.000    1.067 
#    0.000    6.667    0.000    0.000    0.000    0.000 
#    0.000    0.000    0.000    0.000    0.000    0.000 
#
# Total GULP energy -371700.363579 kJ/mol
# GULP energy per Si atom -12390.012119 kJ/mol
# Density = 1.817411 g / cm^3
# Si number density = 18.215566 Si / 1000 Ang^3
#
#
#
# Elastic Constant Matrix: (Units=GPa)
#
#
# Indices 1 2 3 4 5 6 
#
# 1 94.8785 39.4018 79.6541 0.0000 6.1196 0.0000
# 2 39.4018 89.7874 42.4814 0.0000 -10.6591 0.0000
# 3 79.6541 42.4814 92.9441 0.0000 -2.1046 0.0000
# 4 0.0000 0.0000 0.0000 19.6635 0.0000 -0.9531
# 5 6.1196 -10.6591 -2.1046 0.0000 34.0831 0.0000
# 6 0.0000 0.0000 0.0000 -0.9531 0.0000 19.3420
#
#
#
# Elastic Compliance Matrix: (Units=1/GPa)
#
#
# Indices 1 2 3 4 5 6 
#
# 1 0.041048 -0.003189 -0.033958 0.000000 -0.010464 0.000000
# 2 -0.003189 0.015039 -0.004027 0.000000 0.005027 0.000000
# 3 -0.033958 -0.004027 0.041871 0.000000 0.007423 0.000000
# 4 0.000000 0.000000 0.000000 0.050977 0.000000 0.002512
# 5 -0.010464 0.005027 0.007423 0.000000 0.033249 0.000000
# 6 0.000000 0.000000 0.000000 0.002512 0.000000 0.051825
#
#
# Mechanical properties :
#
#
# Convention : Reuss Voigt Hill
#
# Bulk Modulus (GPa) = 64.06420 66.74276 65.40348
# Shear Modulus (GPa) = 15.54914 22.35589 18.95252
#
# Velocity S-wave (km/s) = 2.92484 3.50708 3.22911
# Velocity P-wave (km/s) = 6.83028 7.28831 7.06301
#
# Compressibility (1/GPa) = 0.01560934
#
# Stress axis : x y z
#
# Youngs Moduli (GPa) = 24.36149 66.49414 23.88313
#
# Poissons Ratio (x) = 0.21204 0.81103
# Poissons Ratio (y) = 0.07769 0.09618
# Poissons Ratio (z) = 0.82728 0.26777
#
# Static dielectric constant tensor:
#      x y z
#    x 3.626910 0.000000 0.079150 
#    y 0.000000 3.267990 0.000000 
#    z 0.079150 0.000000 3.604260 
# 
# 
# High freq. dielectric constant tensor:
#      x y z
#    x 1.716050 0.000000 0.002030 
#    y 0.000000 1.696040 0.000000 
#    z 0.002030 0.000000 1.715380 
# 
# From -- ./inp_files/38807.got.cif
#   From: 2010.06.25/outbox.cif.g09.slc.cpg/sg13_20_cif.got.tgz:38807.got - 2010.06.28 04:50:58.
