data_PCOD8117704
_publ_section_title
;
Structure prediction by ZEFSAII (Michael W. Deem and Ramdas Pophale) SiO2 
 PCOD8117704
Probable space group: P 2/C
;
_chemical_formula_sum "Si O2"
_cell_formula_units_Z 24
_cell_length_a 18.190664
_cell_length_b 12.987297
_cell_length_c 14.163461
_cell_angle_alpha 90.000000
_cell_angle_beta 156.894295
_cell_angle_gamma 90.000000
_cell_volume 1313.099027
_symmetry_space_group_name_H-M "P 2/C"
_symmetry_group_IT_number 13
_symmetry_cell_setting 'monoclinic'
loop_
_space_group_symop_operation_xyz
x,y,z
-x,y,1/2-z
-x,-y,-z
x,-y,1/2+z
loop_
_atom_site_type_symbol
_atom_site_label
_atom_site_fract_x
_atom_site_fract_y
_atom_site_fract_z
Si Si1 0.849861 0.632972 0.352260
Si Si2 0.849852 0.132973 0.852248
Si Si3 0.753354 0.559116 0.628189
Si Si4 0.648630 0.369835 0.806074
Si Si5 0.351391 0.869844 0.193957
Si Si6 0.753373 0.940889 0.628196
O O1 0.796011 0.749998 0.263593
O O2 0.775546 0.561203 0.180194
O O3 0.750910 0.596142 0.331684
O O4 0.072453 0.623806 0.626737
O O5 0.750844 0.096135 0.831586
O O6 0.775582 0.061207 0.680224
O O7 0.072440 0.123813 0.126751
O O8 0.571005 0.606778 0.462517
O O9 0.739763 0.565766 0.499070
O O10 0.680935 0.249994 0.866283
O O11 0.571030 0.893227 0.462534
O O12 0.260232 0.934249 0.000940
#
# Coordination Sequence:
#
# PCOD8117704 Si02
#       6
#     4   4   4   4   4   4
#     4  10  20  33  51  74  99 128 161 199 243 288
#     4  10  20  33  51  74  99 128 161 199 243 288
#     4  10  19  32  52  74  99 126 162 203 240 282
#     4  10  19  33  53  74  96 127 166 201 236 283
#     4  10  19  33  53  74  96 127 166 201 236 283
#     4  10  19  32  52  74  99 126 162 203 240 282
#
# _framework density 18.277372
#
# number of rings (size 3 to 8) (size 9 to 14) (size 15 to 20)
#    0.000    2.000    0.000    6.000    0.000    2.667 
#    0.000    3.333    0.000   20.000    0.000    0.000 
#    0.000    0.000    0.000    0.000    0.000    0.000 
#
# Total GULP energy -297693.544125 kJ/mol
# GULP energy per Si atom -12403.897672 kJ/mol
# Density = 1.823577 g / cm^3
# Si number density = 18.277372 Si / 1000 Ang^3
#
#
#
# Elastic Constant Matrix: (Units=GPa)
#
#
# Indices 1 2 3 4 5 6 
#
# 1 83.5532 62.9214 49.0869 0.0000 -3.2806 0.0000
# 2 62.9214 98.6568 38.2799 0.0000 -12.6118 0.0000
# 3 49.0869 38.2799 89.0918 0.0000 -3.6648 0.0000
# 4 0.0000 0.0000 0.0000 22.7897 0.0000 -5.1581
# 5 -3.2806 -12.6118 -3.6648 0.0000 17.2326 0.0000
# 6 0.0000 0.0000 0.0000 -5.1581 0.0000 30.2863
#
#
#
# Elastic Compliance Matrix: (Units=1/GPa)
#
#
# Indices 1 2 3 4 5 6 
#
# 1 0.029405 -0.016064 -0.009637 0.000000 -0.008208 0.000000
# 2 -0.016064 0.022095 -0.000104 0.000000 0.013090 0.000000
# 3 -0.009637 -0.000104 0.016646 0.000000 0.001629 0.000000
# 4 0.000000 0.000000 0.000000 0.045639 0.000000 0.007773
# 5 -0.008208 0.013090 0.001629 0.000000 0.066394 0.000000
# 6 0.000000 0.000000 0.000000 0.007773 0.000000 0.034342
#
#
# Mechanical properties :
#
#
# Convention : Reuss Voigt Hill
#
# Bulk Modulus (GPa) = 60.47466 63.54203 62.00834
# Shear Modulus (GPa) = 18.40650 22.12929 20.26790
#
# Velocity S-wave (km/s) = 3.17687 3.48336 3.33364
# Velocity P-wave (km/s) = 6.82757 7.14277 6.98695
#
# Compressibility (1/GPa) = 0.01653585
#
# Stress axis : x y z
#
# Youngs Moduli (GPa) = 34.00775 45.25817 60.07528
#
# Poissons Ratio (x) = 0.72703 0.57893
# Poissons Ratio (y) = 0.54631 0.00627
# Poissons Ratio (z) = 0.32772 0.00472
#
# Static dielectric constant tensor:
#      x y z
#    x 3.449630 0.000000 0.210600 
#    y 0.000000 3.327100 0.000000 
#    z 0.210600 0.000000 3.364630 
# 
# 
# High freq. dielectric constant tensor:
#      x y z
#    x 1.710110 0.000000 0.018930 
#    y 0.000000 1.701710 0.000000 
#    z 0.018930 0.000000 1.709940 
# 
# From -- ./inp_files/29749.got.cif
#   From: 2010.06.25/outbox.cif.g09.slc.cpg/sg13_15_cif.got.tgz:29749.got - 2010.06.28 04:50:58.
