data_PCOD8117384
_publ_section_title
;
Structure prediction by ZEFSAII (Michael W. Deem and Ramdas Pophale) SiO2 
 PCOD8117384
Probable space group: P 2/C
;
_chemical_formula_sum "Si O2"
_cell_formula_units_Z 32
_cell_length_a 13.873827
_cell_length_b 8.910413
_cell_length_c 20.269192
_cell_angle_alpha 90.000000
_cell_angle_beta 140.906809
_cell_angle_gamma 90.000000
_cell_volume 1580.058629
_symmetry_space_group_name_H-M "P 2/C"
_symmetry_group_IT_number 13
_symmetry_cell_setting 'monoclinic'
loop_
_space_group_symop_operation_xyz
x,y,z
-x,y,1/2-z
-x,-y,-z
x,-y,1/2+z
loop_
_atom_site_type_symbol
_atom_site_label
_atom_site_fract_x
_atom_site_fract_y
_atom_site_fract_z
Si Si1 0.831734 0.118237 0.660105
Si Si2 0.034742 0.672453 0.842899
Si Si3 0.798352 0.684588 0.260676
Si Si4 0.546263 0.619645 0.846089
Si Si5 0.864556 0.642333 0.067031
Si Si6 0.705112 0.643750 0.678132
Si Si7 0.514697 0.723133 0.185502
Si Si8 0.683467 0.165789 0.035828
O O1 0.778421 0.172295 0.703321
O O2 0.849056 0.268794 0.626845
O O3 0.000000 0.038226 0.750000
O O4 0.695300 0.005907 0.566535
O O5 0.132170 0.535904 0.923726
O O6 0.149893 0.811346 0.909039
O O7 0.000000 0.624952 0.750000
O O8 0.870214 0.713140 0.789129
O O9 0.740193 0.534598 0.190835
O O10 0.695731 0.708017 0.270486
O O11 0.972425 0.680491 0.379878
O O12 0.500000 0.680535 0.750000
O O13 0.426405 0.677138 0.837951
O O14 0.561912 0.440248 0.855373
O O15 0.715579 0.687261 0.946061
O O16 0.653299 0.716230 0.580180
O O17 0.500000 0.799482 0.250000
O O18 0.444003 0.821438 0.088520
#
# Coordination Sequence:
#
# PCOD8117384 Si02
#       8
#     4   4   4   4   4   4   4   4
#     4  10  20  34  58  87 114 139 185 234 278 333
#     4   9  16  32  53  84 109 140 181 228 282 330
#     4   9  20  36  58  83 112 146 184 230 279 338
#     4  10  21  37  55  84 115 146 187 235 273 326
#     4  10  18  35  57  80 112 149 180 225 285 329
#     4   9  19  34  57  84 111 140 185 234 279 326
#     4  10  22  39  55  83 116 147 190 232 274 328
#     4  11  20  34  60  83 111 148 182 235 279 323
#
# _framework density 20.252414000000002
#
# number of rings (size 3 to 8) (size 9 to 14) (size 15 to 20)
#    0.000    2.250    1.250    3.750    1.750    1.500 
#    2.250    3.125    0.000    1.500    0.000    0.000 
#    0.000    0.000    0.000    0.000    0.000    0.000 
#
# Total GULP energy -396449.177797 kJ/mol
# GULP energy per Si atom -12389.036806 kJ/mol
# Density = 2.020632 g / cm^3
# Si number density = 20.252414 Si / 1000 Ang^3
#
#
#
# Elastic Constant Matrix: (Units=GPa)
#
#
# Indices 1 2 3 4 5 6 
#
# 1 127.9809 30.4459 70.6284 0.0000 12.3640 0.0000
# 2 30.4459 43.0566 17.9998 0.0000 2.6525 0.0000
# 3 70.6284 17.9998 122.4893 0.0000 12.6062 0.0000
# 4 0.0000 0.0000 0.0000 17.6565 0.0000 6.1906
# 5 12.3640 2.6525 12.6062 0.0000 27.8081 0.0000
# 6 0.0000 0.0000 0.0000 6.1906 0.0000 7.3731
#
#
#
# Elastic Compliance Matrix: (Units=1/GPa)
#
#
# Indices 1 2 3 4 5 6 
#
# 1 0.013079 -0.006449 -0.006355 0.000000 -0.002319 0.000000
# 2 -0.006449 0.027940 -0.000428 0.000000 0.000396 0.000000
# 3 -0.006355 -0.000428 0.012164 0.000000 -0.002648 0.000000
# 4 0.000000 0.000000 0.000000 0.080265 0.000000 -0.067392
# 5 -0.002319 0.000396 -0.002648 0.000000 0.038154 0.000000
# 6 0.000000 0.000000 0.000000 -0.067392 0.000000 0.192212
#
#
# Mechanical properties :
#
#
# Convention : Reuss Voigt Hill
#
# Bulk Modulus (GPa) = 37.42712 59.07499 48.25106
# Shear Modulus (GPa) = 12.52552 22.19769 17.36161
#
# Velocity S-wave (km/s) = 2.48961 3.31426 2.93108
# Velocity P-wave (km/s) = 5.17539 6.62408 5.94403
#
# Compressibility (1/GPa) = 0.02671859
#
# Stress axis : x y z
#
# Youngs Moduli (GPa) = 76.45823 35.79124 82.21091
#
# Poissons Ratio (x) = 0.23081 0.52246
# Poissons Ratio (y) = 0.49306 0.03520
# Poissons Ratio (z) = 0.48591 0.01532
#
# Static dielectric constant tensor:
#      x y z
#    x 3.861140 0.000000 0.336040 
#    y 0.000000 3.340650 0.000000 
#    z 0.336040 0.000000 3.628940 
# 
# 
# High freq. dielectric constant tensor:
#      x y z
#    x 1.786120 0.000000 0.030220 
#    y 0.000000 1.761700 0.000000 
#    z 0.030220 0.000000 1.778430 
# 
# From -- ./inp_files/79817.got.cif
#   From: 2010.06.25/outbox.cif.g09.slc.cpg/sg13_40_cif.got.tgz:79817.got - 2010.06.28 04:50:58.
