data_PCOD8117610
_publ_section_title
;
Structure prediction by ZEFSAII (Michael W. Deem and Ramdas Pophale) SiO2 
 PCOD8117610
Probable space group: P 2/C
;
_chemical_formula_sum "Si O2"
_cell_formula_units_Z 28
_cell_length_a 10.526912
_cell_length_b 15.493951
_cell_length_c 9.069855
_cell_angle_alpha 90.000000
_cell_angle_beta 94.771790
_cell_angle_gamma 90.000000
_cell_volume 1474.197289
_symmetry_space_group_name_H-M "P 2/C"
_symmetry_group_IT_number 13
_symmetry_cell_setting 'monoclinic'
loop_
_space_group_symop_operation_xyz
x,y,z
-x,y,1/2-z
-x,-y,-z
x,-y,1/2+z
loop_
_atom_site_type_symbol
_atom_site_label
_atom_site_fract_x
_atom_site_fract_y
_atom_site_fract_z
Si Si1 0.845878 0.587136 0.902465
Si Si2 0.500000 0.000938 0.250000
Si Si3 0.000000 0.989417 0.750000
Si Si4 0.152183 0.925862 0.023708
Si Si5 0.149516 0.579249 0.927763
Si Si6 0.859763 0.746891 0.405117
Si Si7 0.337194 0.075257 0.982611
Si Si8 0.841497 0.242202 0.566658
O O1 0.795435 0.580524 0.731421
O O2 0.793015 0.505625 0.989001
O O3 0.794762 0.676517 0.965337
O O4 0.997661 0.581195 0.919082
O O5 0.576853 0.067675 0.362165
O O6 0.582965 0.933127 0.160880
O O7 0.957872 0.928007 0.611492
O O8 0.894096 0.051909 0.813480
O O9 0.213858 0.830835 0.040178
O O10 0.255472 0.989450 0.972566
O O11 0.195229 0.665015 0.014874
O O12 0.826593 0.729166 0.233379
O O13 0.008360 0.772770 0.448503
O O14 0.246438 0.159624 0.980771
#
# Coordination Sequence:
#
# PCOD8117610 Si02
#       8
#     4   2   2   4   4   4   4   4
#     4   9  17  29  45  67 100 143 176 199 233 280
#     4  10  24  40  54  70  94 130 182 236 282 308
#     4  10  20  30  46  74 108 142 170 202 252 312
#     4  11  20  32  49  72 105 138 170 207 253 313
#     4   9  17  28  43  67 105 144 173 198 226 279
#     4  10  19  29  46  76 108 139 168 197 243 307
#     4  11  22  38  55  72  98 134 175 224 269 311
#     4  10  19  32  50  72 103 137 170 207 251 307
#
# _framework density 18.993389000000001
#
# number of rings (size 3 to 8) (size 9 to 14) (size 15 to 20)
#    0.000    2.000    0.000    6.000    0.000    8.000 
#    0.000    0.000    0.000    0.000    0.000    0.000 
#    0.000   38.857    0.000    0.000    0.000    0.000 
#
# Total GULP energy -347021.012373 kJ/mol
# GULP energy per Si atom -12393.607585 kJ/mol
# Density = 1.895016 g / cm^3
# Si number density = 18.993389 Si / 1000 Ang^3
#
#
#
# Elastic Constant Matrix: (Units=GPa)
#
#
# Indices 1 2 3 4 5 6 
#
# 1 41.0714 30.3916 26.4598 0.0000 -1.3819 0.0000
# 2 30.3916 170.2931 77.4207 0.0000 -10.3289 0.0000
# 3 26.4598 77.4207 145.7360 0.0000 -11.3579 0.0000
# 4 0.0000 0.0000 0.0000 31.5267 0.0000 -1.6957
# 5 -1.3819 -10.3289 -11.3579 0.0000 14.4725 0.0000
# 6 0.0000 0.0000 0.0000 -1.6957 0.0000 13.3780
#
#
#
# Elastic Compliance Matrix: (Units=1/GPa)
#
#
# Indices 1 2 3 4 5 6 
#
# 1 0.029334 -0.003799 -0.003516 0.000000 -0.002669 0.000000
# 2 -0.003799 0.008316 -0.003509 0.000000 0.002819 0.000000
# 3 -0.003516 -0.003509 0.009738 0.000000 0.004803 0.000000
# 4 0.000000 0.000000 0.000000 0.031937 0.000000 0.004048
# 5 -0.002669 0.002819 0.004803 0.000000 0.074623 0.000000
# 6 0.000000 0.000000 0.000000 0.004048 0.000000 0.075263
#
#
# Mechanical properties :
#
#
# Convention : Reuss Voigt Hill
#
# Bulk Modulus (GPa) = 38.84652 69.51607 54.18130
# Shear Modulus (GPa) = 19.27246 26.73067 23.00156
#
# Velocity S-wave (km/s) = 3.18888 3.75556 3.48376
# Velocity P-wave (km/s) = 5.83572 7.44884 6.69107
#
# Compressibility (1/GPa) = 0.02574233
#
# Stress axis : x y z
#
# Youngs Moduli (GPa) = 34.09017 120.24678 102.68782
#
# Poissons Ratio (x) = 0.45677 0.36104
# Poissons Ratio (y) = 0.12949 0.36028
# Poissons Ratio (z) = 0.11986 0.42189
#
# Static dielectric constant tensor:
#      x y z
#    x 3.355150 0.000000 0.515140 
#    y 0.000000 3.596700 0.000000 
#    z 0.515140 0.000000 4.796200 
# 
# 
# High freq. dielectric constant tensor:
#      x y z
#    x 1.668990 0.000000 -0.007810 
#    y 0.000000 1.741250 0.000000 
#    z -0.007810 0.000000 1.762680 
# 
# From -- ./inp_files/16332.got.cif
#   From: 2010.06.25/outbox.cif.g09.slc.cpg/sg13_9_cif.got.tgz:16332.got - 2010.06.28 04:50:58.
