data_PCOD8117321
_publ_section_title
;
Structure prediction by ZEFSAII (Michael W. Deem and Ramdas Pophale) SiO2 
 PCOD8117321
Probable space group: P 2/C
;
_chemical_formula_sum "Si O2"
_cell_formula_units_Z 32
_cell_length_a 18.057719
_cell_length_b 8.944394
_cell_length_c 23.755335
_cell_angle_alpha 90.000000
_cell_angle_beta 152.067886
_cell_angle_gamma 90.000000
_cell_volume 1797.277418
_symmetry_space_group_name_H-M "P 2/C"
_symmetry_group_IT_number 13
_symmetry_cell_setting 'monoclinic'
loop_
_space_group_symop_operation_xyz
x,y,z
-x,y,1/2-z
-x,-y,-z
x,-y,1/2+z
loop_
_atom_site_type_symbol
_atom_site_label
_atom_site_fract_x
_atom_site_fract_y
_atom_site_fract_z
Si Si1 0.632061 0.880190 0.578022
Si Si2 0.458038 0.755274 0.659032
Si Si3 0.804891 0.015432 0.489128
Si Si4 0.336517 0.810987 0.023876
Si Si5 0.575641 0.498871 0.455817
Si Si6 0.348621 0.035095 0.730103
Si Si7 0.369931 0.658035 0.399020
Si Si8 0.164060 0.926053 0.215994
O O1 0.686355 0.895549 0.550366
O O2 0.546834 0.722347 0.532297
O O3 0.500000 0.000000 0.500000
O O4 0.779170 0.918440 0.717167
O O5 0.500000 0.696731 0.750000
O O6 0.294790 0.847470 0.552090
O O7 0.449854 0.618997 0.610747
O O8 0.593108 0.864325 0.725302
O O9 0.727772 0.944516 0.381962
O O10 0.976735 0.082045 0.593477
O O11 0.804527 0.874675 0.531918
O O12 0.325781 0.633247 0.006989
O O13 0.506153 0.850654 0.165361
O O14 0.406164 0.555713 0.368013
O O15 0.679609 0.430900 0.577689
O O16 0.214751 0.072603 0.685418
O O17 0.238239 0.781723 0.297134
#
# Coordination Sequence:
#
# PCOD8117321 Si02
#       8
#     4   4   4   4   4   4   4   4
#     4   9  16  30  54  81 102 130 181 229 263 320
#     4   9  20  35  56  80 107 147 189 221 264 332
#     4  10  23  34  54  83 116 144 180 226 286 323
#     4  10  19  35  55  85 109 137 186 231 272 325
#     4  10  18  34  58  79 107 139 187 228 270 320
#     4  10  18  37  57  81 107 143 189 233 258 326
#     4   9  19  32  56  87 102 139 189 232 268 326
#     4  11  19  34  58  84 108 143 183 230 281 324
#
# _framework density 17.804708000000002
#
# number of rings (size 3 to 8) (size 9 to 14) (size 15 to 20)
#    0.000    2.250    3.750    2.250    5.250    1.500 
#    0.000    0.000   16.500    1.500    0.000    0.000 
#    0.000    0.000    0.000    0.000    0.000    0.000 
#
# Total GULP energy -396543.986315 kJ/mol
# GULP energy per Si atom -12391.999572 kJ/mol
# Density = 1.776418 g / cm^3
# Si number density = 17.804708 Si / 1000 Ang^3
#
#
#
# Elastic Constant Matrix: (Units=GPa)
#
#
# Indices 1 2 3 4 5 6 
#
# 1 100.8688 57.6068 25.9963 0.0000 -2.3713 0.0000
# 2 57.6068 93.5875 17.4788 0.0000 -10.0458 0.0000
# 3 25.9963 17.4788 33.8682 0.0000 5.9664 0.0000
# 4 0.0000 0.0000 0.0000 18.3898 0.0000 -9.4090
# 5 -2.3713 -10.0458 5.9664 0.0000 28.8440 0.0000
# 6 0.0000 0.0000 0.0000 -9.4090 0.0000 37.4951
#
#
#
# Elastic Compliance Matrix: (Units=1/GPa)
#
#
# Indices 1 2 3 4 5 6 
#
# 1 0.017294 -0.009028 -0.008627 0.000000 0.000062 0.000000
# 2 -0.009028 0.017472 -0.003144 0.000000 0.005993 0.000000
# 3 -0.008627 -0.003144 0.039529 0.000000 -0.009981 0.000000
# 4 0.000000 0.000000 0.000000 0.062388 0.000000 0.015656
# 5 0.000062 0.005993 -0.009981 0.000000 0.038826 0.000000
# 6 0.000000 0.000000 0.000000 0.015656 0.000000 0.030599
#
#
# Mechanical properties :
#
#
# Convention : Reuss Voigt Hill
#
# Bulk Modulus (GPa) = 30.58159 47.83202 39.20680
# Shear Modulus (GPa) = 19.33455 25.42860 22.38157
#
# Velocity S-wave (km/s) = 3.29891 3.78325 3.54935
# Velocity P-wave (km/s) = 5.63239 6.78285 6.23422
#
# Compressibility (1/GPa) = 0.03269941
#
# Stress axis : x y z
#
# Youngs Moduli (GPa) = 57.82254 57.23283 25.29816
#
# Poissons Ratio (x) = 0.51667 0.21824
# Poissons Ratio (y) = 0.52199 0.07953
# Poissons Ratio (z) = 0.49881 0.17993
#
# Static dielectric constant tensor:
#      x y z
#    x 3.472070 0.000000 -0.247280 
#    y 0.000000 3.668940 0.000000 
#    z -0.247280 0.000000 3.328390 
# 
# 
# High freq. dielectric constant tensor:
#      x y z
#    x 1.701010 0.000000 -0.021250 
#    y 0.000000 1.684230 0.000000 
#    z -0.021250 0.000000 1.654720 
# 
# From -- ./inp_files/87915.got.cif
#   From: 2010.06.25/outbox.cif.g09.slc.cpg/sg13_44_cif.got.tgz:87915.got - 2010.06.28 04:50:58.
