data_PCOD8117303
_publ_section_title
;
Structure prediction by ZEFSAII (Michael W. Deem and Ramdas Pophale) SiO2 
 PCOD8117303
Probable space group: P 2/C
;
_chemical_formula_sum "Si O2"
_cell_formula_units_Z 32
_cell_length_a 23.416274
_cell_length_b 12.556621
_cell_length_c 9.880452
_cell_angle_alpha 90.000000
_cell_angle_beta 42.565148
_cell_angle_gamma 90.000000
_cell_volume 1965.119766
_symmetry_space_group_name_H-M "P 2/C"
_symmetry_group_IT_number 13
_symmetry_cell_setting 'monoclinic'
loop_
_space_group_symop_operation_xyz
x,y,z
-x,y,1/2-z
-x,-y,-z
x,-y,1/2+z
loop_
_atom_site_type_symbol
_atom_site_label
_atom_site_fract_x
_atom_site_fract_y
_atom_site_fract_z
Si Si1 0.600102 0.660766 0.580584
Si Si2 0.788170 0.912095 0.585050
Si Si3 0.400209 0.414837 0.918046
Si Si4 0.657021 0.251993 0.264268
Si Si5 0.056946 0.025389 0.273560
Si Si6 0.778329 0.096162 0.417083
Si Si7 0.492145 0.901300 0.415528
Si Si8 0.641445 0.256934 0.726686
O O1 0.500000 0.675832 0.750000
O O2 0.625169 0.537516 0.529575
O O3 0.638523 0.713806 0.645153
O O4 0.642783 0.723361 0.383468
O O5 0.752205 0.794666 0.611640
O O6 0.774426 0.938133 0.767099
O O7 0.888452 0.921338 0.372007
O O8 0.738941 0.000659 0.578460
O O9 0.500000 0.397972 0.750000
O O10 0.367822 0.370094 0.831640
O O11 0.355022 0.353972 0.119550
O O12 0.597569 0.155441 0.413811
O O13 0.124542 0.115052 0.203587
O O14 0.000000 0.069030 0.250000
O O15 0.000000 0.000000 0.500000
O O16 0.728898 0.204921 0.528061
O O17 0.500000 0.945657 0.250000
O O18 0.564457 0.816674 0.317938
O O19 0.500000 0.000000 0.500000
#
# Coordination Sequence:
#
# PCOD8117303 Si02
#       8
#     4   4   4   4   4   4   4   4
#     4  11  24  35  56  77 100 146 196 242 274 313
#     4  10  21  34  55  81 111 146 173 220 258 323
#     4  11  20  39  56  73 102 144 196 238 276 308
#     4  12  21  37  53  77 108 142 187 228 272 314
#     4  10  18  34  56  81 112 143 173 205 260 327
#     4  10  21  34  55  81 111 146 172 221 257 324
#     4  12  24  36  51  71 104 148 185 218 255 324
#     4  12  21  37  53  77 108 142 186 227 275 309
#
# _framework density 16.283995000000001
#
# number of rings (size 3 to 8) (size 9 to 14) (size 15 to 20)
#    0.750    0.250    6.250    1.500    3.500    2.000 
#    0.000    0.000    0.000    0.000    0.000    0.000 
#    0.000   20.000    0.000    0.000    0.000    0.000 
#
# Total GULP energy -396707.693366 kJ/mol
# GULP energy per Si atom -12397.115418 kJ/mol
# Density = 1.624693 g / cm^3
# Si number density = 16.283995 Si / 1000 Ang^3
#
#
#
# Elastic Constant Matrix: (Units=GPa)
#
#
# Indices 1 2 3 4 5 6 
#
# 1 86.1572 31.6471 43.7685 0.0000 18.1118 0.0000
# 2 31.6471 65.1014 40.8465 0.0000 7.2238 0.0000
# 3 43.7685 40.8465 113.3734 0.0000 22.1168 0.0000
# 4 0.0000 0.0000 0.0000 -4.0628 0.0000 -13.2105
# 5 18.1118 7.2238 22.1168 0.0000 43.0220 0.0000
# 6 0.0000 0.0000 0.0000 -13.2105 0.0000 5.8402
#
#
#
# Elastic Compliance Matrix: (Units=1/GPa)
#
#
# Indices 1 2 3 4 5 6 
#
# 1 0.016189 -0.005162 -0.003589 0.000000 -0.004103 0.000000
# 2 -0.005162 0.021499 -0.006083 0.000000 0.001690 0.000000
# 3 -0.003589 -0.006083 0.013230 0.000000 -0.004269 0.000000
# 4 0.000000 0.000000 0.000000 -0.029459 0.000000 -0.066637
# 5 -0.004103 0.001690 -0.004269 0.000000 0.026882 0.000000
# 6 0.000000 0.000000 0.000000 -0.066637 0.000000 0.020494
#
#
# Mechanical properties :
#
#
# Convention : Reuss Voigt Hill
#
# Bulk Modulus (GPa) = 47.05955 55.23958 51.14956
# Shear Modulus (GPa) = 47.35432 18.85119 33.10275
#
# Velocity S-wave (km/s) = 5.39846 3.40612 4.51359
# Velocity P-wave (km/s) = 8.23528 7.03314 7.65784
#
# Compressibility (1/GPa) = 0.02124967
#
# Stress axis : x y z
#
# Youngs Moduli (GPa) = 61.77049 46.51391 75.58365
#
# Poissons Ratio (x) = 0.24012 0.27131
# Poissons Ratio (y) = 0.31888 0.45974
# Poissons Ratio (z) = 0.22172 0.28292
#
# Static dielectric constant tensor:
#      x y z
#    x 3.327870 0.000000 0.135500 
#    y 0.000000 2.927580 0.000000 
#    z 0.135500 0.000000 3.123950 
# 
# 
# High freq. dielectric constant tensor:
#      x y z
#    x 1.625890 0.000000 0.025720 
#    y 0.000000 1.604730 0.000000 
#    z 0.025720 0.000000 1.632240 
# 
# From -- ./inp_files/24070.got.cif
#   From: 2010.06.25/outbox.cif.g09.slc.cpg/sg13_13_cif.got.tgz:24070.got - 2010.06.28 04:50:58.
