data_PCOD8117901
_publ_section_title
;
Structure prediction by ZEFSAII (Michael W. Deem and Ramdas Pophale) SiO2 
 PCOD8117901
Probable space group: P 2/C
;
_chemical_formula_sum "Si O2"
_cell_formula_units_Z 16
_cell_length_a 28.768459
_cell_length_b 6.577375
_cell_length_c 23.592579
_cell_angle_alpha 90.000000
_cell_angle_beta 169.615517
_cell_angle_gamma 90.000000
_cell_volume 804.686205
_symmetry_space_group_name_H-M "P 2/C"
_symmetry_group_IT_number 13
_symmetry_cell_setting 'monoclinic'
loop_
_space_group_symop_operation_xyz
x,y,z
-x,y,1/2-z
-x,-y,-z
x,-y,1/2+z
loop_
_atom_site_type_symbol
_atom_site_label
_atom_site_fract_x
_atom_site_fract_y
_atom_site_fract_z
Si Si1 0.374932 0.172241 0.701626
Si Si2 0.956126 0.394936 0.273549
Si Si3 0.182781 0.439065 0.269923
Si Si4 0.381847 0.259912 0.168281
O O1 0.289542 0.253884 0.536999
O O2 0.208113 0.291614 0.548990
O O3 0.328810 0.930665 0.646262
O O4 0.675290 0.224071 0.073111
O O5 0.992499 0.411838 0.384443
O O6 0.886789 0.618291 0.164507
O O7 0.408466 0.602839 0.548151
O O8 0.000000 0.500000 0.000000
O O9 0.500000 0.187274 0.250000
#
# Coordination Sequence:
#
# PCOD8117901 Si02
#       4
#     4   4   4   4
#     4  10  19  34  57  80 104 139 185 228 270 317
#     4   9  20  35  55  82 108 137 181 231 271 316
#     4  10  21  36  52  78 116 148 176 218 272 328
#     4   9  18  36  59  80 108 145 183 226 276 324
#
# _framework density 19.883527000000001
#
# number of rings (size 3 to 8) (size 9 to 14) (size 15 to 20)
#    0.000    2.500    0.000    3.750    0.000   10.000 
#    0.000    1.250    0.000    0.000    0.000   10.500 
#    0.000    0.000    0.000    0.000    0.000    0.000 
#
# Total GULP energy -198246.886232 kJ/mol
# GULP energy per Si atom -12390.430389 kJ/mol
# Density = 1.983827 g / cm^3
# Si number density = 19.883527 Si / 1000 Ang^3
#
#
#
# Elastic Constant Matrix: (Units=GPa)
#
#
# Indices 1 2 3 4 5 6 
#
# 1 130.3736 46.5048 49.4197 0.0000 -1.1270 0.0000
# 2 46.5048 126.1484 24.6462 0.0000 16.5233 0.0000
# 3 49.4197 24.6462 69.6156 0.0000 -7.6730 0.0000
# 4 0.0000 0.0000 0.0000 20.3129 0.0000 7.6966
# 5 -1.1270 16.5233 -7.6730 0.0000 29.3847 0.0000
# 6 0.0000 0.0000 0.0000 7.6966 0.0000 23.1442
#
#
#
# Elastic Compliance Matrix: (Units=1/GPa)
#
#
# Indices 1 2 3 4 5 6 
#
# 1 0.011349 -0.002835 -0.007031 0.000000 0.000194 0.000000
# 2 -0.002835 0.010282 -0.002344 0.000000 -0.006503 0.000000
# 3 -0.007031 -0.002344 0.020903 0.000000 0.006507 0.000000
# 4 0.000000 0.000000 0.000000 0.056327 0.000000 -0.018732
# 5 0.000194 -0.006503 0.006507 0.000000 0.039394 0.000000
# 6 0.000000 0.000000 0.000000 -0.018732 0.000000 0.049437
#
#
# Mechanical properties :
#
#
# Convention : Reuss Voigt Hill
#
# Bulk Modulus (GPa) = 55.21048 63.03102 59.12075
# Shear Modulus (GPa) = 22.91994 28.27283 25.59639
#
# Velocity S-wave (km/s) = 3.39884 3.77493 3.59181
# Velocity P-wave (km/s) = 6.57496 7.12524 6.85562
#
# Compressibility (1/GPa) = 0.01811250
#
# Stress axis : x y z
#
# Youngs Moduli (GPa) = 88.11705 97.25607 47.83994
#
# Poissons Ratio (x) = 0.27575 0.33637
# Poissons Ratio (y) = 0.24984 0.11214
# Poissons Ratio (z) = 0.61956 0.22798
#
# Static dielectric constant tensor:
#      x y z
#    x 3.465380 0.000000 0.121290 
#    y 0.000000 3.707530 0.000000 
#    z 0.121290 0.000000 3.342810 
# 
# 
# High freq. dielectric constant tensor:
#      x y z
#    x 1.768460 0.000000 0.021370 
#    y 0.000000 1.778100 0.000000 
#    z 0.021370 0.000000 1.747790 
# 
# From -- ./inp_files/61960.got.cif
#   From: 2010.06.25/outbox.cif.g09.slc.cpg/sg13_31_cif.got.tgz:61960.got - 2010.06.28 04:50:58.
