data_PCOD8117020
_publ_section_title
;
Structure prediction by ZEFSAII (Michael W. Deem and Ramdas Pophale) SiO2 
 PCOD8117020
Probable space group: P 2/C
;
_chemical_formula_sum "Si O2"
_cell_formula_units_Z 24
_cell_length_a 12.178481
_cell_length_b 21.160915
_cell_length_c 5.013907
_cell_angle_alpha 90.000000
_cell_angle_beta 87.275875
_cell_angle_gamma 90.000000
_cell_volume 1290.662787
_symmetry_space_group_name_H-M "P 2/C"
_symmetry_group_IT_number 13
_symmetry_cell_setting 'monoclinic'
loop_
_space_group_symop_operation_xyz
x,y,z
-x,y,1/2-z
-x,-y,-z
x,-y,1/2+z
loop_
_atom_site_type_symbol
_atom_site_label
_atom_site_fract_x
_atom_site_fract_y
_atom_site_fract_z
Si Si1 0.744978 0.334129 0.767218
Si Si2 0.880955 0.219773 0.669413
Si Si3 0.628100 0.719458 0.784294
Si Si4 0.124321 0.541617 0.211855
Si Si5 0.777264 0.169610 0.183765
Si Si6 0.874629 0.958601 0.790148
O O1 0.855656 0.293531 0.710513
O O2 0.653413 0.313569 0.563272
O O3 0.782974 0.406244 0.739009
O O4 0.695047 0.321193 0.062274
O O5 0.869872 0.201654 0.361195
O O6 0.000000 0.201419 0.750000
O O7 0.798488 0.179637 0.867462
O O8 0.500000 0.715716 0.750000
O O9 0.663893 0.793935 0.774388
O O10 0.142392 0.483828 0.411985
O O11 0.000000 0.568983 0.250000
O O12 0.782304 0.094920 0.245145
O O13 0.000000 0.932085 0.750000
O O14 0.855936 0.016440 0.590292
#
# Coordination Sequence:
#
# PCOD8117020 Si02
#       6
#     4   4   4   4   4   4
#     4  10  20  34  54  78 102 132 170 210 256 305
#     4  10  18  29  48  74 103 128 158 205 254 304
#     4  10  21  37  57  76  97 130 172 224 269 296
#     4  10  20  34  54  80 112 145 170 197 241 305
#     4  10  20  32  49  73  99 132 169 205 251 302
#     4  10  19  30  46  69 101 137 165 193 237 300
#
# _framework density 18.595096999999999
#
# number of rings (size 3 to 8) (size 9 to 14) (size 15 to 20)
#    0.000    2.000    0.000    4.500    0.000    1.333 
#    0.000    5.000    0.000   11.000    0.000    0.000 
#    0.000    0.000    0.000    0.000    0.000    0.000 
#
# Total GULP energy -297517.498574 kJ/mol
# GULP energy per Si atom -12396.562441 kJ/mol
# Density = 1.855277 g / cm^3
# Si number density = 18.595097 Si / 1000 Ang^3
#
#
#
# Elastic Constant Matrix: (Units=GPa)
#
#
# Indices 1 2 3 4 5 6 
#
# 1 59.8651 31.8245 -0.5848 0.0000 10.1945 0.0000
# 2 31.8245 88.9099 6.4641 0.0000 2.1506 0.0000
# 3 -0.5848 6.4641 72.1263 0.0000 8.2835 0.0000
# 4 0.0000 0.0000 0.0000 16.3740 0.0000 3.9667
# 5 10.1945 2.1506 8.2835 0.0000 18.1376 0.0000
# 6 0.0000 0.0000 0.0000 3.9667 0.0000 18.5243
#
#
#
# Elastic Compliance Matrix: (Units=1/GPa)
#
#
# Indices 1 2 3 4 5 6 
#
# 1 0.023357 -0.008217 0.002450 0.000000 -0.013273 0.000000
# 2 -0.008217 0.014227 -0.001771 0.000000 0.003741 0.000000
# 3 0.002450 -0.001771 0.014962 0.000000 -0.008000 0.000000
# 4 0.000000 0.000000 0.000000 0.064414 0.000000 -0.013793
# 5 -0.013273 0.003741 -0.008000 0.000000 0.065804 0.000000
# 6 0.000000 0.000000 0.000000 -0.013793 0.000000 0.056937
#
#
# Mechanical properties :
#
#
# Convention : Reuss Voigt Hill
#
# Bulk Modulus (GPa) = 26.68898 32.92320 29.80609
# Shear Modulus (GPa) = 18.70785 22.82035 20.76410
#
# Velocity S-wave (km/s) = 3.17529 3.50698 3.34525
# Velocity P-wave (km/s) = 5.27515 5.84314 5.56639
#
# Compressibility (1/GPa) = 0.03746865
#
# Stress axis : x y z
#
# Youngs Moduli (GPa) = 42.81412 70.28888 66.83596
#
# Poissons Ratio (x) = 0.57759 -0.16376
# Poissons Ratio (y) = 0.35182 0.11839
# Poissons Ratio (z) = -0.10490 0.12450
#
# Static dielectric constant tensor:
#      x y z
#    x 3.122440 0.000000 0.069300 
#    y 0.000000 3.256690 0.000000 
#    z 0.069300 0.000000 3.628330 
# 
# 
# High freq. dielectric constant tensor:
#      x y z
#    x 1.679950 0.000000 0.008480 
#    y 0.000000 1.711340 0.000000 
#    z 0.008480 0.000000 1.747120 
# 
# From -- ./inp_files/3626.got.cif
#   From: 2010.06.25/outbox.cif.g09.slc.cpg/sg13_2_cif.got.tgz:3626.got - 2010.06.28 04:50:58.
