data_PCOD8117176
_publ_section_title
;
Structure prediction by ZEFSAII (Michael W. Deem and Ramdas Pophale) SiO2 
 PCOD8117176
Probable space group: P 2/C
;
_chemical_formula_sum "Si O2"
_cell_formula_units_Z 24
_cell_length_a 10.104307
_cell_length_b 9.038114
_cell_length_c 17.892694
_cell_angle_alpha 90.000000
_cell_angle_beta 46.403079
_cell_angle_gamma 90.000000
_cell_volume 1183.379256
_symmetry_space_group_name_H-M "P 2/C"
_symmetry_group_IT_number 13
_symmetry_cell_setting 'monoclinic'
loop_
_space_group_symop_operation_xyz
x,y,z
-x,y,1/2-z
-x,-y,-z
x,-y,1/2+z
loop_
_atom_site_type_symbol
_atom_site_label
_atom_site_fract_x
_atom_site_fract_y
_atom_site_fract_z
Si Si1 0.572471 0.180472 0.393144
Si Si2 0.492507 0.101416 0.670652
Si Si3 0.819023 0.693976 0.238562
Si Si4 0.892335 0.354555 0.214681
Si Si5 0.203109 0.155746 0.052781
Si Si6 0.178934 0.177147 0.595789
O O1 0.692983 0.278671 0.290482
O O2 0.644720 0.214766 0.448246
O O3 0.356797 0.220759 0.477167
O O4 0.592628 0.010139 0.358143
O O5 0.500000 0.027311 0.750000
O O6 0.367150 0.247907 0.726372
O O7 0.698429 0.142825 0.565741
O O8 0.847077 0.521341 0.212105
O O9 0.809901 0.740207 0.329001
O O10 0.994316 0.765052 0.128732
O O11 0.000000 0.340150 0.250000
O O12 0.030166 0.264891 0.106118
O O13 0.147490 0.999168 0.111511
#
# Coordination Sequence:
#
# PCOD8117176 Si02
#       6
#     4   4   4   4   4   4
#     4  10  19  36  57  86 111 149 191 242 284 329
#     4  11  22  39  60  83 112 155 198 232 278 342
#     4  11  20  34  52  90 117 146 183 236 286 340
#     4  10  21  32  57  89 121 143 184 238 293 336
#     4  10  19  36  58  85 114 150 187 242 287 325
#     4  10  18  32  57  81 115 140 189 233 289 321
#
# _framework density 20.280904
#
# number of rings (size 3 to 8) (size 9 to 14) (size 15 to 20)
#    0.000    1.667    5.000    2.000    4.667    2.000 
#    0.000    9.167    0.000    0.000    0.000    0.000 
#    0.000    0.000    0.000    0.000    0.000    0.000 
#
# Total GULP energy -297335.503661 kJ/mol
# GULP energy per Si atom -12388.979319 kJ/mol
# Density = 2.023474 g / cm^3
# Si number density = 20.280904 Si / 1000 Ang^3
#
#
#
# Elastic Constant Matrix: (Units=GPa)
#
#
# Indices 1 2 3 4 5 6 
#
# 1 27.8312 20.0837 39.0388 0.0000 -10.1349 0.0000
# 2 20.0837 120.0524 59.7225 0.0000 -29.0777 0.0000
# 3 39.0388 59.7225 145.1714 0.0000 -29.4963 0.0000
# 4 0.0000 0.0000 0.0000 16.7458 0.0000 -12.6845
# 5 -10.1349 -29.0777 -29.4963 0.0000 35.0339 0.0000
# 6 0.0000 0.0000 0.0000 -12.6845 0.0000 15.9793
#
#
#
# Elastic Compliance Matrix: (Units=1/GPa)
#
#
# Indices 1 2 3 4 5 6 
#
# 1 0.058553 -0.001873 -0.014295 0.000000 0.003349 0.000000
# 2 -0.001873 0.011742 -0.002964 0.000000 0.006709 0.000000
# 3 -0.014295 -0.002964 0.012802 0.000000 0.004183 0.000000
# 4 0.000000 0.000000 0.000000 0.149774 0.000000 0.118892
# 5 0.003349 0.006709 0.004183 0.000000 0.038602 0.000000
# 6 0.000000 0.000000 0.000000 0.118892 0.000000 0.156958
#
#
# Mechanical properties :
#
#
# Convention : Reuss Voigt Hill
#
# Bulk Modulus (GPa) = 22.30461 58.97166 40.63814
# Shear Modulus (GPa) = 10.38118 25.16580 17.77349
#
# Velocity S-wave (km/s) = 2.26491 3.52641 2.96356
# Velocity P-wave (km/s) = 4.22628 6.76175 5.63838
#
# Compressibility (1/GPa) = 0.04483378
#
# Stress axis : x y z
#
# Youngs Moduli (GPa) = 17.07841 85.16117 78.11410
#
# Poissons Ratio (x) = 0.15951 1.11664
# Poissons Ratio (y) = 0.03199 0.23153
# Poissons Ratio (z) = 0.24413 0.25242
#
# Static dielectric constant tensor:
#      x y z
#    x 3.395170 0.000000 -0.472880 
#    y 0.000000 3.613820 0.000000 
#    z -0.472880 0.000000 3.974700 
# 
# 
# High freq. dielectric constant tensor:
#      x y z
#    x 1.747010 0.000000 -0.036690 
#    y 0.000000 1.779380 0.000000 
#    z -0.036690 0.000000 1.801600 
# 
# From -- ./inp_files/53204.got.cif
#   From: 2010.06.25/outbox.cif.g09.slc.cpg/sg13_27_cif.got.tgz:53204.got - 2010.06.28 04:50:58.
