data_PCOD8117065
_publ_section_title
;
Structure prediction by ZEFSAII (Michael W. Deem and Ramdas Pophale) SiO2 
 PCOD8117065
Probable space group: P 2/C
;
_chemical_formula_sum "Si O2"
_cell_formula_units_Z 30
_cell_length_a 18.567030
_cell_length_b 10.699214
_cell_length_c 23.172738
_cell_angle_alpha 90.000000
_cell_angle_beta 162.937030
_cell_angle_gamma 90.000000
_cell_volume 1350.719394
_symmetry_space_group_name_H-M "P 2/C"
_symmetry_group_IT_number 13
_symmetry_cell_setting 'monoclinic'
loop_
_space_group_symop_operation_xyz
x,y,z
-x,y,1/2-z
-x,-y,-z
x,-y,1/2+z
loop_
_atom_site_type_symbol
_atom_site_label
_atom_site_fract_x
_atom_site_fract_y
_atom_site_fract_z
Si Si1 0.856050 0.440570 0.195859
Si Si2 0.919123 0.859379 0.514860
Si Si3 0.888703 0.413794 0.998931
Si Si4 0.324978 0.491965 0.771552
Si Si5 0.298090 0.839944 0.898875
Si Si6 0.774506 0.893786 0.961912
Si Si7 0.000000 0.982772 0.250000
Si Si8 0.157546 0.786675 0.170620
O O1 0.042020 0.482343 0.388752
O O2 0.787233 0.295871 0.144770
O O3 0.000000 0.480002 0.250000
O O4 0.600236 0.517251 0.004173
O O5 0.793098 0.727179 0.436933
O O6 0.185894 0.870458 0.749908
O O7 0.938094 0.859447 0.459962
O O8 0.757374 0.971336 0.416724
O O9 0.148264 0.401546 0.161925
O O10 0.687008 0.492340 0.808118
O O11 0.206495 0.359309 0.698895
O O12 0.208182 0.933957 0.879223
O O13 0.589647 0.852009 0.116125
O O14 0.500000 0.837296 0.750000
O O15 0.957078 0.803031 0.066901
O O16 0.867615 0.900044 0.099433
#
# Coordination Sequence:
#
# PCOD8117065 Si02
#       8
#     4   4   4   4   4   4   2   4
#     4  10  18  30  54  84 112 135 169 222 272 309
#     4   9  19  34  56  83 100 136 179 224 266 312
#     4   9  18  35  55  81 105 139 178 216 266 310
#     4   9  19  35  57  77 109 144 179 215 256 321
#     4   9  18  33  52  80 110 136 172 220 270 318
#     4  11  23  36  54  78 109 141 178 227 269 312
#     4  10  20  34  52  78 108 140 168 226 274 310
#     4  10  20  35  56  78 105 146 181 214 260 323
#
# _framework density 22.210387000000001
#
# number of rings (size 3 to 8) (size 9 to 14) (size 15 to 20)
#    0.000    2.400    0.667    1.600    0.000    3.733 
#    0.000    0.000   10.267    0.000    0.000    0.000 
#    0.000    0.000    0.000    0.000    0.000    0.000 
#
# Total GULP energy -371814.492169 kJ/mol
# GULP energy per Si atom -12393.816406 kJ/mol
# Density = 2.215984 g / cm^3
# Si number density = 22.210387 Si / 1000 Ang^3
#
#
#
# Elastic Constant Matrix: (Units=GPa)
#
#
# Indices 1 2 3 4 5 6 
#
# 1 123.7272 2.5358 40.7455 0.0000 -20.2343 0.0000
# 2 2.5358 21.9487 6.6550 0.0000 3.8190 0.0000
# 3 40.7455 6.6550 96.6015 0.0000 7.2182 0.0000
# 4 0.0000 0.0000 0.0000 17.6047 0.0000 1.2190
# 5 -20.2343 3.8190 7.2182 0.0000 39.4457 0.0000
# 6 0.0000 0.0000 0.0000 1.2190 0.0000 16.5731
#
#
#
# Elastic Compliance Matrix: (Units=1/GPa)
#
#
# Indices 1 2 3 4 5 6 
#
# 1 0.010814 -0.000875 -0.004990 0.000000 0.006545 0.000000
# 2 -0.000875 0.047226 -0.002544 0.000000 -0.004556 0.000000
# 3 -0.004990 -0.002544 0.012982 0.000000 -0.004689 0.000000
# 4 0.000000 0.000000 0.000000 0.057094 0.000000 -0.004200
# 5 0.006545 -0.004556 -0.004689 0.000000 0.030008 0.000000
# 6 0.000000 0.000000 0.000000 -0.004200 0.000000 0.060648
#
#
# Mechanical properties :
#
#
# Convention : Reuss Voigt Hill
#
# Bulk Modulus (GPa) = 18.44883 38.01665 28.23274
# Shear Modulus (GPa) = 19.71164 27.54745 23.62954
#
# Velocity S-wave (km/s) = 2.98232 3.52560 3.26528
# Velocity P-wave (km/s) = 4.49259 5.80749 5.19184
#
# Compressibility (1/GPa) = 0.05420397
#
# Stress axis : x y z
#
# Youngs Moduli (GPa) = 92.47387 21.17477 77.02898
#
# Poissons Ratio (x) = 0.01853 0.38437
# Poissons Ratio (y) = 0.08093 0.19595
# Poissons Ratio (z) = 0.46144 0.05387
#
# Static dielectric constant tensor:
#      x y z
#    x 4.098130 0.000000 -0.408370 
#    y 0.000000 3.649040 0.000000 
#    z -0.408370 0.000000 4.026510 
# 
# 
# High freq. dielectric constant tensor:
#      x y z
#    x 1.876840 0.000000 -0.026860 
#    y 0.000000 1.841050 0.000000 
#    z -0.026860 0.000000 1.870500 
# 
# From -- ./inp_files/80303.got.cif
#   From: 2010.06.25/outbox.cif.g09.slc.cpg/sg13_41_cif.got.tgz:80303.got - 2010.06.28 04:50:58.
