data_PCOD8117279
_publ_section_title
;
Structure prediction by ZEFSAII (Michael W. Deem and Ramdas Pophale) SiO2 
 PCOD8117279
Probable space group: P 2/C
;
_chemical_formula_sum "Si O2"
_cell_formula_units_Z 30
_cell_length_a 14.245968
_cell_length_b 13.957956
_cell_length_c 25.220845
_cell_angle_alpha 90.000000
_cell_angle_beta 160.477665
_cell_angle_gamma 90.000000
_cell_volume 1675.893673
_symmetry_space_group_name_H-M "P 2/C"
_symmetry_group_IT_number 13
_symmetry_cell_setting 'monoclinic'
loop_
_space_group_symop_operation_xyz
x,y,z
-x,y,1/2-z
-x,-y,-z
x,-y,1/2+z
loop_
_atom_site_type_symbol
_atom_site_label
_atom_site_fract_x
_atom_site_fract_y
_atom_site_fract_z
Si Si1 0.041019 0.710380 0.665492
Si Si2 0.665027 0.442562 0.765688
Si Si3 0.568306 0.588841 0.465470
Si Si4 0.343377 0.934278 0.374306
Si Si5 0.928014 0.907498 0.650480
Si Si6 0.911449 0.393035 0.998256
Si Si7 0.399204 0.375343 0.993828
Si Si8 0.000000 0.225464 0.750000
O O1 0.816535 0.661759 0.584793
O O2 0.060290 0.822658 0.686611
O O3 0.958705 0.700871 0.559447
O O4 0.329172 0.656309 0.829577
O O5 0.672417 0.406433 0.708689
O O6 0.825382 0.368176 0.891404
O O7 0.340017 0.455017 0.609333
O O8 0.806273 0.545338 0.848704
O O9 0.692813 0.480471 0.535025
O O10 0.437224 0.621584 0.450672
O O11 0.587227 0.910707 0.460895
O O12 0.224710 0.838020 0.337502
O O13 0.500000 0.000000 0.500000
O O14 0.078220 0.994470 0.210137
O O15 0.000000 0.888073 0.750000
O O16 0.162303 0.294802 0.877957
#
# Coordination Sequence:
#
# PCOD8117279 Si02
#       8
#     4   4   4   4   4   4   4   2
#     4  11  20  34  50  71 105 142 178 219 262 314
#     4   9  17  33  50  69  96 137 182 220 251 294
#     4  10  21  34  46  68 108 147 184 203 258 304
#     4  10  18  34  52  72  96 140 176 222 265 322
#     4  10  19  32  53  71 101 138 177 214 266 320
#     4   9  18  31  52  72  95 132 183 221 258 296
#     4  11  23  30  47  73 105 149 174 218 249 320
#     4  12  22  32  50  74 106 138 192 212 266 312
#
# _framework density 17.900898000000002
#
# number of rings (size 3 to 8) (size 9 to 14) (size 15 to 20)
#    0.000    1.867    3.333    3.600    3.733    0.000 
#    0.000    0.000    0.000    0.000    0.000    0.000 
#    0.000   26.667    0.000    1.067    0.000    0.267 
#
# Total GULP energy -371772.288042 kJ/mol
# GULP energy per Si atom -12392.409601 kJ/mol
# Density = 1.786015 g / cm^3
# Si number density = 17.900898 Si / 1000 Ang^3
#
#
#
# Elastic Constant Matrix: (Units=GPa)
#
#
# Indices 1 2 3 4 5 6 
#
# 1 53.8213 14.3330 22.9406 0.0000 -19.7063 0.0000
# 2 14.3330 85.4907 21.5258 0.0000 -2.3305 0.0000
# 3 22.9406 21.5258 81.0500 0.0000 -3.4452 0.0000
# 4 0.0000 0.0000 0.0000 31.0246 0.0000 5.3102
# 5 -19.7063 -2.3305 -3.4452 0.0000 27.5682 0.0000
# 6 0.0000 0.0000 0.0000 5.3102 0.0000 13.1205
#
#
#
# Elastic Compliance Matrix: (Units=1/GPa)
#
#
# Indices 1 2 3 4 5 6 
#
# 1 0.029525 -0.002694 -0.006790 0.000000 0.020029 0.000000
# 2 -0.002694 0.012793 -0.002685 0.000000 -0.001180 0.000000
# 3 -0.006790 -0.002685 0.014836 0.000000 -0.003226 0.000000
# 4 0.000000 0.000000 0.000000 0.034632 0.000000 -0.014016
# 5 0.020029 -0.001180 -0.003226 0.000000 0.050088 0.000000
# 6 0.000000 0.000000 0.000000 -0.014016 0.000000 0.081889
#
#
# Mechanical properties :
#
#
# Convention : Reuss Voigt Hill
#
# Bulk Modulus (GPa) = 30.47398 37.55120 34.01259
# Shear Modulus (GPa) = 19.30209 25.11350 22.20779
#
# Velocity S-wave (km/s) = 3.28727 3.74962 3.52603
# Velocity P-wave (km/s) = 5.60971 6.30627 5.96816
#
# Compressibility (1/GPa) = 0.03281488
#
# Stress axis : x y z
#
# Youngs Moduli (GPa) = 33.86957 78.16875 67.40421
#
# Poissons Ratio (x) = 0.21062 0.45767
# Poissons Ratio (y) = 0.09126 0.18099
# Poissons Ratio (z) = 0.22997 0.20989
#
# Static dielectric constant tensor:
#      x y z
#    x 3.364480 0.000000 0.194700 
#    y 0.000000 3.280160 0.000000 
#    z 0.194700 0.000000 4.287800 
# 
# 
# High freq. dielectric constant tensor:
#      x y z
#    x 1.659870 0.000000 0.013060 
#    y 0.000000 1.672540 0.000000 
#    z 0.013060 0.000000 1.705530 
# 
# From -- ./inp_files/92953.got.cif
#   From: 2010.06.25/outbox.cif.g09.slc.cpg/sg13_47_cif.got.tgz:92953.got - 2010.06.28 04:50:58.
