data_PCOD8117147
_publ_section_title
;
Structure prediction by ZEFSAII (Michael W. Deem and Ramdas Pophale) SiO2 
 PCOD8117147
Probable space group: P 2/C
;
_chemical_formula_sum "Si O2"
_cell_formula_units_Z 18
_cell_length_a 17.872843
_cell_length_b 8.559807
_cell_length_c 18.611721
_cell_angle_alpha 90.000000
_cell_angle_beta 21.146818
_cell_angle_gamma 90.000000
_cell_volume 1027.215012
_symmetry_space_group_name_H-M "P 2/C"
_symmetry_group_IT_number 13
_symmetry_cell_setting 'monoclinic'
loop_
_space_group_symop_operation_xyz
x,y,z
-x,y,1/2-z
-x,-y,-z
x,-y,1/2+z
loop_
_atom_site_type_symbol
_atom_site_label
_atom_site_fract_x
_atom_site_fract_y
_atom_site_fract_z
Si Si1 0.608723 0.955001 0.013629
Si Si2 0.324075 0.735104 0.356137
Si Si3 0.509346 0.245482 0.470322
Si Si4 0.766290 0.462458 0.696335
Si Si5 0.000000 0.126318 0.250000
O O1 0.637229 0.839993 0.919626
O O2 0.822897 0.972164 0.866736
O O3 0.420290 0.889808 0.231541
O O4 0.552176 0.126567 0.037200
O O5 0.500000 0.664286 0.250000
O O6 0.267360 0.597297 0.353547
O O7 0.115256 0.770569 0.586992
O O8 0.303973 0.328027 0.685312
O O9 0.647806 0.376132 0.310367
O O10 0.000000 0.500000 0.500000
#
# Coordination Sequence:
#
# PCOD8117147 Si02
#       5
#     4   4   4   4   2
#     4   9  18  34  54  75  99 129 166 208 249 291
#     4   9  19  34  52  72  99 134 168 204 246 293
#     4   9  19  34  52  76 103 127 162 211 251 289
#     4  10  19  33  53  76 101 132 166 201 248 300
#     4  10  18  32  54  74  96 132 172 202 242 298
#
# _framework density 17.523108000000001
#
# number of rings (size 3 to 8) (size 9 to 14) (size 15 to 20)
#    0.000    2.667    0.000    1.333    0.000    3.556 
#    0.000   12.222    0.000    4.000    0.000    0.000 
#    0.000    0.000    0.000    0.000    0.000    0.000 
#
# Total GULP energy -223136.951375 kJ/mol
# GULP energy per Si atom -12396.497299 kJ/mol
# Density = 1.748322 g / cm^3
# Si number density = 17.523108 Si / 1000 Ang^3
#
#
#
# Elastic Constant Matrix: (Units=GPa)
#
#
# Indices 1 2 3 4 5 6 
#
# 1 135.1736 71.6175 66.9023 0.0000 -4.7678 0.0000
# 2 71.6175 111.0774 50.3304 0.0000 1.0585 0.0000
# 3 66.9023 50.3304 118.4722 0.0000 1.5123 0.0000
# 4 0.0000 0.0000 0.0000 8.5397 0.0000 3.9685
# 5 -4.7678 1.0585 1.5123 0.0000 31.1066 0.0000
# 6 0.0000 0.0000 0.0000 3.9685 0.0000 30.5331
#
#
#
# Elastic Compliance Matrix: (Units=1/GPa)
#
#
# Indices 1 2 3 4 5 6 
#
# 1 0.013245 -0.006390 -0.004797 0.000000 0.002481 0.000000
# 2 -0.006390 0.014232 -0.002421 0.000000 -0.001346 0.000000
# 3 -0.004797 -0.002421 0.012194 0.000000 -0.001246 0.000000
# 4 0.000000 0.000000 0.000000 0.124629 0.000000 -0.016199
# 5 0.002481 -0.001346 -0.001246 0.000000 0.032634 0.000000
# 6 0.000000 0.000000 0.000000 -0.016199 0.000000 0.034857
#
#
# Mechanical properties :
#
#
# Convention : Reuss Voigt Hill
#
# Bulk Modulus (GPa) = 80.27854 82.49153 81.38504
# Shear Modulus (GPa) = 19.00007 25.76073 22.38040
#
# Velocity S-wave (km/s) = 3.29642 3.83835 3.57766
# Velocity P-wave (km/s) = 7.77181 8.17447 7.97568
#
# Compressibility (1/GPa) = 0.01245663
#
# Stress axis : x y z
#
# Youngs Moduli (GPa) = 75.50076 70.26252 82.00949
#
# Poissons Ratio (x) = 0.44898 0.39336
# Poissons Ratio (y) = 0.48245 0.19852
# Poissons Ratio (z) = 0.36214 0.17008
#
# Static dielectric constant tensor:
#      x y z
#    x 3.428220 0.000000 0.063060 
#    y 0.000000 3.191250 0.000000 
#    z 0.063060 0.000000 3.339440 
# 
# 
# High freq. dielectric constant tensor:
#      x y z
#    x 1.688740 0.000000 0.004880 
#    y 0.000000 1.661650 0.000000 
#    z 0.004880 0.000000 1.682950 
# 
# From -- ./inp_files/60339.got.cif
#   From: 2010.06.25/outbox.cif.g09.slc.cpg/sg13_31_cif.got.tgz:60339.got - 2010.06.28 04:50:58.
