data_PCOD8117986
_publ_section_title
;
Structure prediction by ZEFSAII (Michael W. Deem and Ramdas Pophale) SiO2 
 PCOD8117986
Probable space group: P 2/C
;
_chemical_formula_sum "Si O2"
_cell_formula_units_Z 16
_cell_length_a 7.844962
_cell_length_b 15.152793
_cell_length_c 8.237390
_cell_angle_alpha 90.000000
_cell_angle_beta 52.091069
_cell_angle_gamma 90.000000
_cell_volume 772.580494
_symmetry_space_group_name_H-M "P 2/C"
_symmetry_group_IT_number 13
_symmetry_cell_setting 'monoclinic'
loop_
_space_group_symop_operation_xyz
x,y,z
-x,y,1/2-z
-x,-y,-z
x,-y,1/2+z
loop_
_atom_site_type_symbol
_atom_site_label
_atom_site_fract_x
_atom_site_fract_y
_atom_site_fract_z
Si Si1 0.000000 0.453594 0.250000
Si Si2 0.689304 0.701675 0.523061
Si Si3 0.500000 0.039759 0.750000
Si Si4 0.861602 0.386091 0.640805
Si Si5 0.254452 0.102789 0.595019
O O1 0.144445 0.514431 0.283332
O O2 0.841641 0.393106 0.456378
O O3 0.500000 0.665110 0.750000
O O4 0.670927 0.668123 0.344513
O O5 0.682609 0.807127 0.531744
O O6 0.912505 0.663429 0.459260
O O7 0.360895 0.101623 0.711669
O O8 0.665971 0.980024 0.554004
O O9 0.000000 0.094495 0.750000
#
# Coordination Sequence:
#
# PCOD8117986 Si02
#       5
#     2   4   2   4   4
#     4   8  16  36  58  80 110 144 196 240 284 356
#     4  10  19  35  55  79 116 153 187 240 293 340
#     4  10  24  36  62  88 114 152 202 246 290 354
#     4   9  18  36  57  79 112 152 188 241 296 341
#     4  11  20  41  59  84 119 154 196 248 294 349
#
# _framework density 20.709814999999999
#
# number of rings (size 3 to 8) (size 9 to 14) (size 15 to 20)
#    0.000    2.500    3.750    0.750    0.000    0.000 
#    4.500   20.000    0.000    0.000    0.000    0.000 
#    0.000    0.000    0.000    0.000    0.000    0.000 
#
# Total GULP energy -198238.139197 kJ/mol
# GULP energy per Si atom -12389.883700 kJ/mol
# Density = 2.066268 g / cm^3
# Si number density = 20.709815 Si / 1000 Ang^3
#
#
#
# Elastic Constant Matrix: (Units=GPa)
#
#
# Indices 1 2 3 4 5 6 
#
# 1 74.3425 26.6002 50.0676 0.0000 4.1368 0.0000
# 2 26.6002 79.2990 42.1295 0.0000 2.1604 0.0000
# 3 50.0676 42.1295 193.8101 0.0000 3.9720 0.0000
# 4 0.0000 0.0000 0.0000 51.6257 0.0000 0.9856
# 5 4.1368 2.1604 3.9720 0.0000 31.2497 0.0000
# 6 0.0000 0.0000 0.0000 0.9856 0.0000 9.1199
#
#
#
# Elastic Compliance Matrix: (Units=1/GPa)
#
#
# Indices 1 2 3 4 5 6 
#
# 1 0.017352 -0.003859 -0.003611 0.000000 -0.001571 0.000000
# 2 -0.003859 0.015126 -0.002286 0.000000 -0.000244 0.000000
# 3 -0.003611 -0.002286 0.006594 0.000000 -0.000202 0.000000
# 4 0.000000 0.000000 0.000000 0.019410 0.000000 -0.002098
# 5 -0.001571 -0.000244 -0.000202 0.000000 0.032251 0.000000
# 6 0.000000 0.000000 0.000000 -0.002098 0.000000 0.109877
#
#
# Mechanical properties :
#
#
# Convention : Reuss Voigt Hill
#
# Bulk Modulus (GPa) = 51.12892 65.00514 58.06703
# Shear Modulus (GPa) = 22.06120 33.64268 27.85194
#
# Velocity S-wave (km/s) = 3.26736 4.03486 3.67122
# Velocity P-wave (km/s) = 6.24308 7.29133 6.78747
#
# Compressibility (1/GPa) = 0.01955840
#
# Stress axis : x y z
#
# Youngs Moduli (GPa) = 57.63135 66.11051 151.65884
#
# Poissons Ratio (x) = 0.25512 0.54771
# Poissons Ratio (y) = 0.22240 0.34672
# Poissons Ratio (z) = 0.20813 0.15114
#
# Static dielectric constant tensor:
#      x y z
#    x 3.415260 0.000000 0.368180 
#    y 0.000000 3.765630 0.000000 
#    z 0.368180 0.000000 4.429400 
# 
# 
# High freq. dielectric constant tensor:
#      x y z
#    x 1.766560 0.000000 0.013120 
#    y 0.000000 1.806790 0.000000 
#    z 0.013120 0.000000 1.836470 
# 
# From -- ./inp_files/12114.got.cif
#   From: 2010.06.25/outbox.cif.g09.slc.cpg/sg13_7_cif.got.tgz:12114.got - 2010.06.28 04:50:58.
