data_PCOD8117681
_publ_section_title
;
Structure prediction by ZEFSAII (Michael W. Deem and Ramdas Pophale) SiO2 
 PCOD8117681
Probable space group: P 2/C
;
_chemical_formula_sum "Si O2"
_cell_formula_units_Z 20
_cell_length_a 30.813863
_cell_length_b 5.285812
_cell_length_c 20.168505
_cell_angle_alpha 90.000000
_cell_angle_beta 16.652855
_cell_angle_gamma 90.000000
_cell_volume 941.381728
_symmetry_space_group_name_H-M "P 2/C"
_symmetry_group_IT_number 13
_symmetry_cell_setting 'monoclinic'
loop_
_space_group_symop_operation_xyz
x,y,z
-x,y,1/2-z
-x,-y,-z
x,-y,1/2+z
loop_
_atom_site_type_symbol
_atom_site_label
_atom_site_fract_x
_atom_site_fract_y
_atom_site_fract_z
Si Si1 0.823922 0.351295 0.497625
Si Si2 0.681035 0.160091 0.985579
Si Si3 0.709065 0.145281 0.094606
Si Si4 0.423298 0.406462 0.545578
Si Si5 0.363604 0.340512 0.002045
O O1 0.791703 0.620291 0.509741
O O2 0.746873 0.331328 0.683646
O O3 0.000000 0.314254 0.250000
O O4 0.759175 0.123259 0.548937
O O5 0.500000 0.187041 0.250000
O O6 0.751941 0.144117 0.954633
O O7 0.741072 0.416166 0.862227
O O8 0.732621 0.918052 0.865786
O O9 0.525501 0.172854 0.369472
O O10 0.500000 0.500000 0.500000
O O11 0.423085 0.627377 0.490270
O O12 0.500000 0.312418 0.750000
#
# Coordination Sequence:
#
# PCOD8117681 Si02
#       5
#     4   4   4   4   4
#     4  11  25  41  61  87 132 168 202 252 315 366
#     4  10  19  31  59  88 122 148 191 255 312 346
#     4  11  21  40  64  93 118 161 215 255 301 365
#     4  10  22  37  63  97 118 157 212 261 299 361
#     4  10  19  33  54  88 124 147 188 254 314 341
#
# _framework density 21.245363999999999
#
# number of rings (size 3 to 8) (size 9 to 14) (size 15 to 20)
#    0.000    1.600    4.000    2.400    8.400    3.200 
#    0.000    0.000    0.000    7.200    0.000    0.000 
#    0.000    0.000    0.000    0.000    0.000    0.000 
#
# Total GULP energy -247816.100457 kJ/mol
# GULP energy per Si atom -12390.805023 kJ/mol
# Density = 2.119701 g / cm^3
# Si number density = 21.245364 Si / 1000 Ang^3
#
#
#
# Elastic Constant Matrix: (Units=GPa)
#
#
# Indices 1 2 3 4 5 6 
#
# 1 113.9645 12.6590 14.8644 0.0000 18.7304 0.0000
# 2 12.6590 120.4009 0.2132 0.0000 1.9510 0.0000
# 3 14.8644 0.2132 83.6391 0.0000 -5.2565 0.0000
# 4 0.0000 0.0000 0.0000 1.3196 0.0000 -14.5365
# 5 18.7304 1.9510 -5.2565 0.0000 12.6247 0.0000
# 6 0.0000 0.0000 0.0000 -14.5365 0.0000 29.8022
#
#
#
# Elastic Compliance Matrix: (Units=1/GPa)
#
#
# Indices 1 2 3 4 5 6 
#
# 1 0.012639 -0.000998 -0.003504 0.000000 -0.020056 0.000000
# 2 -0.000998 0.008406 0.000172 0.000000 0.000253 0.000000
# 3 -0.003504 0.000172 0.013250 0.000000 0.010689 0.000000
# 4 0.000000 0.000000 0.000000 -0.173287 0.000000 -0.084523
# 5 -0.020056 0.000253 0.010689 0.000000 0.113377 0.000000
# 6 0.000000 0.000000 0.000000 -0.084523 0.000000 -0.007673
#
#
# Mechanical properties :
#
#
# Convention : Reuss Voigt Hill
#
# Bulk Modulus (GPa) = 39.00901 41.49752 40.25327
# Shear Modulus (GPa) = -310.89018 28.10050 -141.39484
#
# Velocity S-wave (km/s) = -12.10995 3.64079 -8.16687
# Velocity P-wave (km/s) = 13.30915 6.10317 8.36315
#
# Compressibility (1/GPa) = 0.02563510
#
# Stress axis : x y z
#
# Youngs Moduli (GPa) = 79.12157 118.96154 75.47043
#
# Poissons Ratio (x) = 0.11868 0.26446
# Poissons Ratio (y) = 0.07894 -0.01296
# Poissons Ratio (z) = 0.27725 -0.02043
#
# Static dielectric constant tensor:
#      x y z
#    x 4.055300 0.000000 0.410850 
#    y 0.000000 5.450490 0.000000 
#    z 0.410850 0.000000 3.854860 
# 
# 
# High freq. dielectric constant tensor:
#      x y z
#    x 1.846930 0.000000 0.014870 
#    y 0.000000 1.857660 0.000000 
#    z 0.014870 0.000000 1.763190 
# 
# From -- ./inp_files/65042.got.cif
#   From: 2010.06.25/outbox.cif.g09.slc.cpg/sg13_33_cif.got.tgz:65042.got - 2010.06.28 04:50:58.
