data_PCOD8117096
_publ_section_title
;
Structure prediction by ZEFSAII (Michael W. Deem and Ramdas Pophale) SiO2 
 PCOD8117096
Probable space group: P 2/C
;
_chemical_formula_sum "Si O2"
_cell_formula_units_Z 32
_cell_length_a 28.164035
_cell_length_b 11.061798
_cell_length_c 13.153331
_cell_angle_alpha 90.000000
_cell_angle_beta 153.608766
_cell_angle_gamma 90.000000
_cell_volume 1821.487898
_symmetry_space_group_name_H-M "P 2/C"
_symmetry_group_IT_number 13
_symmetry_cell_setting 'monoclinic'
loop_
_space_group_symop_operation_xyz
x,y,z
-x,y,1/2-z
-x,-y,-z
x,-y,1/2+z
loop_
_atom_site_type_symbol
_atom_site_label
_atom_site_fract_x
_atom_site_fract_y
_atom_site_fract_z
Si Si1 0.382445 0.693449 0.292604
Si Si2 0.732355 0.932156 0.377252
Si Si3 0.616074 0.639941 0.440691
Si Si4 0.124674 0.789307 0.005567
Si Si5 0.622242 0.088313 0.004953
Si Si6 0.568234 0.249258 0.289264
Si Si7 0.284483 0.587222 0.295529
Si Si8 0.750207 0.067720 0.602310
O O1 0.340945 0.830583 0.211970
O O2 0.380241 0.644324 0.174433
O O3 0.501276 0.695440 0.567705
O O4 0.311044 0.606884 0.227322
O O5 0.820293 0.867838 0.476860
O O6 0.791707 0.012081 0.576335
O O7 0.653539 0.024636 0.169931
O O8 0.500000 0.588301 0.250000
O O9 0.634658 0.767341 0.531894
O O10 0.711474 0.554330 0.667351
O O11 0.170710 0.652366 0.097890
O O12 0.150021 0.860056 0.158452
O O13 0.000000 0.780470 0.750000
O O14 0.500000 0.053357 0.750000
O O15 0.707707 0.043293 0.086985
O O16 0.500000 0.184497 0.250000
O O17 0.627730 0.355812 0.462077
O O18 0.650166 0.156728 0.396505
#
# Coordination Sequence:
#
# PCOD8117096 Si02
#       8
#     4   4   4   4   4   4   4   4
#     4  10  19  34  52  73 109 155 173 203 258 303
#     4  10  20  33  53  78 110 141 166 218 271 312
#     4  11  22  32  48  82 112 146 180 207 243 308
#     4   9  20  39  60  76  92 130 184 229 276 323
#     4  10  20  31  46  80 120 147 174 198 240 313
#     4   9  17  29  49  74 105 145 184 205 239 308
#     4   9  20  37  52  72 102 138 183 229 258 298
#     4  10  18  31  52  80 106 137 168 216 262 313
#
# _framework density 17.568055999999999
#
# number of rings (size 3 to 8) (size 9 to 14) (size 15 to 20)
#    0.000    2.250    1.250    4.500    3.500    3.500 
#    2.250    0.000    0.000    6.000    0.000    0.000 
#    0.000    0.000    0.000    0.000    0.000    0.000 
#
# Total GULP energy -396602.147505 kJ/mol
# GULP energy per Si atom -12393.817110 kJ/mol
# Density = 1.752807 g / cm^3
# Si number density = 17.568056 Si / 1000 Ang^3
#
#
#
# Elastic Constant Matrix: (Units=GPa)
#
#
# Indices 1 2 3 4 5 6 
#
# 1 68.9954 36.8826 47.6882 0.0000 -18.4336 0.0000
# 2 36.8826 96.7385 49.5105 0.0000 -4.5178 0.0000
# 3 47.6882 49.5105 112.3888 0.0000 6.2500 0.0000
# 4 0.0000 0.0000 0.0000 21.4631 0.0000 -6.0255
# 5 -18.4336 -4.5178 6.2500 0.0000 28.9535 0.0000
# 6 0.0000 0.0000 0.0000 -6.0255 0.0000 18.6815
#
#
#
# Elastic Compliance Matrix: (Units=1/GPa)
#
#
# Indices 1 2 3 4 5 6 
#
# 1 0.031540 -0.004538 -0.012613 0.000000 0.022095 0.000000
# 2 -0.004538 0.014337 -0.004407 0.000000 0.000299 0.000000
# 3 -0.012613 -0.004407 0.016878 0.000000 -0.012361 0.000000
# 4 0.000000 0.000000 0.000000 0.051230 0.000000 0.016524
# 5 0.022095 0.000299 -0.012361 0.000000 0.051320 0.000000
# 6 0.000000 0.000000 0.000000 0.016524 0.000000 0.058858
#
#
# Mechanical properties :
#
#
# Convention : Reuss Voigt Hill
#
# Bulk Modulus (GPa) = 50.91598 60.69838 55.80718
# Shear Modulus (GPa) = 18.25978 23.42240 20.84109
#
# Velocity S-wave (km/s) = 3.22743 3.65531 3.44802
# Velocity P-wave (km/s) = 6.55236 7.24158 6.90558
#
# Compressibility (1/GPa) = 0.01964020
#
# Stress axis : x y z
#
# Youngs Moduli (GPa) = 31.70527 69.75114 59.24839
#
# Poissons Ratio (x) = 0.31654 0.74728
# Poissons Ratio (y) = 0.14388 0.26109
# Poissons Ratio (z) = 0.39989 0.30737
#
# Static dielectric constant tensor:
#      x y z
#    x 3.197140 0.000000 -0.185970 
#    y 0.000000 3.306800 0.000000 
#    z -0.185970 0.000000 3.055130 
# 
# 
# High freq. dielectric constant tensor:
#      x y z
#    x 1.666510 0.000000 -0.023040 
#    y 0.000000 1.683770 0.000000 
#    z -0.023040 0.000000 1.649450 
# 
# From -- ./inp_files/42387.got.cif
#   From: 2010.06.25/outbox.cif.g09.slc.cpg/sg13_22_cif.got.tgz:42387.got - 2010.06.28 04:50:58.
