data_PCOD8117421
_publ_section_title
;
Structure prediction by ZEFSAII (Michael W. Deem and Ramdas Pophale) SiO2 
 PCOD8117421
Probable space group: P 2/C
;
_chemical_formula_sum "Si O2"
_cell_formula_units_Z 32
_cell_length_a 8.630672
_cell_length_b 10.376567
_cell_length_c 16.790998
_cell_angle_alpha 90.000000
_cell_angle_beta 82.593412
_cell_angle_gamma 90.000000
_cell_volume 1491.200402
_symmetry_space_group_name_H-M "P 2/C"
_symmetry_group_IT_number 13
_symmetry_cell_setting 'monoclinic'
loop_
_space_group_symop_operation_xyz
x,y,z
-x,y,1/2-z
-x,-y,-z
x,-y,1/2+z
loop_
_atom_site_type_symbol
_atom_site_label
_atom_site_fract_x
_atom_site_fract_y
_atom_site_fract_z
Si Si1 0.824127 0.834475 0.372369
Si Si2 0.171960 0.164860 0.911825
Si Si3 0.894694 0.534209 0.681804
Si Si4 0.162960 0.104459 0.195674
Si Si5 0.231868 0.873150 0.951702
Si Si6 0.346955 0.242937 0.298803
Si Si7 0.931610 0.717146 0.929696
Si Si8 0.681779 0.301349 0.730032
O O1 0.735169 0.816551 0.462539
O O2 0.758662 0.734287 0.310688
O O3 0.009955 0.822562 0.373171
O O4 0.783656 0.979005 0.353658
O O5 0.305329 0.187901 0.836335
O O6 0.212655 0.027754 0.949228
O O7 0.169316 0.275173 0.981883
O O8 0.794506 0.660172 0.704011
O O9 0.777926 0.415022 0.678877
O O10 0.000000 0.502250 0.750000
O O11 0.003374 0.572255 0.596828
O O12 0.299167 0.117924 0.251583
O O13 0.166437 0.230481 0.138847
O O14 0.000000 0.081626 0.250000
O O15 0.368133 0.809578 0.887876
O O16 0.067606 0.822084 0.930660
O O17 0.500000 0.306830 0.250000
O O18 0.500000 0.339518 0.750000
#
# Coordination Sequence:
#
# PCOD8117421 Si02
#       8
#     4   4   4   4   4   4   4   4
#     4  11  21  38  65  92 124 165 209 259 312 373
#     4  11  20  39  66  94 126 160 210 267 315 366
#     4  11  21  42  69  88 113 163 219 270 306 357
#     4  12  17  34  62  93 121 155 203 254 312 370
#     4  10  19  36  63  97 130 158 204 267 318 367
#     4  11  22  36  59  90 127 166 209 253 315 379
#     4  10  18  35  66  99 118 146 209 275 311 349
#     4  12  28  44  57  87 133 177 210 248 313 384
#
# _framework density 21.459222
#
# number of rings (size 3 to 8) (size 9 to 14) (size 15 to 20)
#    0.000    1.000    6.250    3.750    0.000    2.500 
#    2.250    2.500    0.000    8.250    0.000    0.000 
#    0.000    0.000    0.000    0.000    0.000    0.000 
#
# Total GULP energy -396478.346295 kJ/mol
# GULP energy per Si atom -12389.948322 kJ/mol
# Density = 2.141038 g / cm^3
# Si number density = 21.459222 Si / 1000 Ang^3
#
#
#
# Elastic Constant Matrix: (Units=GPa)
#
#
# Indices 1 2 3 4 5 6 
#
# 1 43.7217 15.2001 24.3981 0.0000 -10.1325 0.0000
# 2 15.2001 68.9790 36.8369 0.0000 0.0061 0.0000
# 3 24.3981 36.8369 141.3704 0.0000 -13.2701 0.0000
# 4 0.0000 0.0000 0.0000 26.1705 0.0000 -1.7481
# 5 -10.1325 0.0061 -13.2701 0.0000 24.6239 0.0000
# 6 0.0000 0.0000 0.0000 -1.7481 0.0000 -14.1136
#
#
#
# Elastic Compliance Matrix: (Units=1/GPa)
#
#
# Indices 1 2 3 4 5 6 
#
# 1 0.028425 -0.004831 -0.002685 0.000000 0.010251 0.000000
# 2 -0.004831 0.017808 -0.004206 0.000000 -0.004259 0.000000
# 3 -0.002685 -0.004206 0.008984 0.000000 0.003738 0.000000
# 4 0.000000 0.000000 0.000000 0.037897 0.000000 -0.004694
# 5 0.010251 -0.004259 0.003738 0.000000 0.046845 0.000000
# 6 0.000000 0.000000 0.000000 -0.004694 0.000000 -0.070272
#
#
# Mechanical properties :
#
#
# Convention : Reuss Voigt Hill
#
# Bulk Modulus (GPa) = 31.47272 45.21571 38.34422
# Shear Modulus (GPa) = 48.20545 19.17856 33.69201
#
# Velocity S-wave (km/s) = 4.74474 2.99276 3.96668
# Velocity P-wave (km/s) = 6.68691 5.74965 6.23591
#
# Compressibility (1/GPa) = 0.03177355
#
# Stress axis : x y z
#
# Youngs Moduli (GPa) = 35.17991 56.15317 111.31063
#
# Poissons Ratio (x) = 0.27127 0.29883
# Poissons Ratio (y) = 0.16995 0.46822
# Poissons Ratio (z) = 0.09445 0.23620
#
# Static dielectric constant tensor:
#      x y z
#    x 3.668350 0.000000 -0.190910 
#    y 0.000000 3.745580 0.000000 
#    z -0.190910 0.000000 4.414870 
# 
# 
# High freq. dielectric constant tensor:
#      x y z
#    x 1.802130 0.000000 -0.006370 
#    y 0.000000 1.827470 0.000000 
#    z -0.006370 0.000000 1.862760 
# 
# From -- ./inp_files/47265.got.cif
#   From: 2010.06.25/outbox.cif.g09.slc.cpg/sg13_24_cif.got.tgz:47265.got - 2010.06.28 04:50:58.
