data_PCOD8117535
_publ_section_title
;
Structure prediction by ZEFSAII (Michael W. Deem and Ramdas Pophale) SiO2 
 PCOD8117535
Probable space group: P 2/C
;
_chemical_formula_sum "Si O2"
_cell_formula_units_Z 18
_cell_length_a 19.075528
_cell_length_b 9.083573
_cell_length_c 13.172577
_cell_angle_alpha 90.000000
_cell_angle_beta 156.887367
_cell_angle_gamma 90.000000
_cell_volume 895.958409
_symmetry_space_group_name_H-M "P 2/C"
_symmetry_group_IT_number 13
_symmetry_cell_setting 'monoclinic'
loop_
_space_group_symop_operation_xyz
x,y,z
-x,y,1/2-z
-x,-y,-z
x,-y,1/2+z
loop_
_atom_site_type_symbol
_atom_site_label
_atom_site_fract_x
_atom_site_fract_y
_atom_site_fract_z
Si Si1 0.921268 0.323836 0.749754
Si Si2 0.426165 0.822090 0.796309
Si Si3 0.500000 0.920632 0.250000
Si Si4 0.349934 0.450239 0.974294
Si Si5 0.718489 0.753770 0.690250
O O1 0.755781 0.222083 0.500898
O O2 0.841033 0.442260 0.721470
O O3 0.000000 0.395463 0.750000
O O4 0.071265 0.225251 0.006541
O O5 0.399675 0.834642 0.881410
O O6 0.463332 0.981628 0.800036
O O7 0.587207 0.706435 0.988729
O O8 0.665302 0.817657 0.508291
O O9 0.322519 0.577900 0.854385
O O10 0.500000 0.509617 0.250000
#
# Coordination Sequence:
#
# PCOD8117535 Si02
#       5
#     4   4   2   4   4
#     4   9  19  36  61  85 114 146 188 234 290 329
#     4  10  21  40  59  81 116 158 184 229 292 338
#     4  12  22  38  58  82 124 150 192 226 282 346
#     4  10  18  38  61  85 114 146 191 240 285 330
#     4  11  22  35  62  87 111 147 198 237 275 337
#
# _framework density 20.090219000000001
#
# number of rings (size 3 to 8) (size 9 to 14) (size 15 to 20)
#    0.000    1.778    4.444    2.000    0.000    0.889 
#    0.000    0.000    0.000    0.000    0.000    0.000 
#    0.000    0.000    0.000    0.000    0.000    0.000 
#
# Total GULP energy -223004.584250 kJ/mol
# GULP energy per Si atom -12389.143569 kJ/mol
# Density = 2.004449 g / cm^3
# Si number density = 20.090219 Si / 1000 Ang^3
#
#
#
# Elastic Constant Matrix: (Units=GPa)
#
#
# Indices 1 2 3 4 5 6 
#
# 1 97.3973 37.5513 41.0730 0.0000 10.2477 0.0000
# 2 37.5513 81.0407 37.8798 0.0000 -3.3509 0.0000
# 3 41.0730 37.8798 81.4557 0.0000 6.2565 0.0000
# 4 0.0000 0.0000 0.0000 11.2220 0.0000 -6.8472
# 5 10.2477 -3.3509 6.2565 0.0000 32.8604 0.0000
# 6 0.0000 0.0000 0.0000 -6.8472 0.0000 28.9467
#
#
#
# Elastic Compliance Matrix: (Units=1/GPa)
#
#
# Indices 1 2 3 4 5 6 
#
# 1 0.014531 -0.004630 -0.004861 0.000000 -0.004078 0.000000
# 2 -0.004630 0.017548 -0.006165 0.000000 0.004407 0.000000
# 3 -0.004861 -0.006165 0.017786 0.000000 -0.002499 0.000000
# 4 0.000000 0.000000 0.000000 0.104141 0.000000 0.024634
# 5 -0.004078 0.004407 -0.002499 0.000000 0.032629 0.000000
# 6 0.000000 0.000000 0.000000 0.024634 0.000000 0.040373
#
#
# Mechanical properties :
#
#
# Convention : Reuss Voigt Hill
#
# Bulk Modulus (GPa) = 53.89277 54.76689 54.32983
# Shear Modulus (GPa) = 18.90321 24.16512 21.53417
#
# Velocity S-wave (km/s) = 3.07076 3.47195 3.27750
# Velocity P-wave (km/s) = 6.28143 6.58728 6.43617
#
# Compressibility (1/GPa) = 0.01855536
#
# Stress axis : x y z
#
# Youngs Moduli (GPa) = 68.81748 56.98516 56.22273
#
# Poissons Ratio (x) = 0.26383 0.27329
# Poissons Ratio (y) = 0.31861 0.34659
# Poissons Ratio (z) = 0.33452 0.35129
#
# Static dielectric constant tensor:
#      x y z
#    x 3.928850 0.000000 0.116220 
#    y 0.000000 3.358070 0.000000 
#    z 0.116220 0.000000 3.747130 
# 
# 
# High freq. dielectric constant tensor:
#      x y z
#    x 1.783200 0.000000 -0.008460 
#    y 0.000000 1.761110 0.000000 
#    z -0.008460 0.000000 1.790050 
# 
# From -- ./inp_files/45430.got.cif
#   From: 2010.06.25/outbox.cif.g09.slc.cpg/sg13_23_cif.got.tgz:45430.got - 2010.06.28 04:50:58.
