data_PCOD8117519
_publ_section_title
;
Structure prediction by ZEFSAII (Michael W. Deem and Ramdas Pophale) SiO2 
 PCOD8117519
Probable space group: P 2/C
;
_chemical_formula_sum "Si O2"
_cell_formula_units_Z 26
_cell_length_a 11.219644
_cell_length_b 8.767172
_cell_length_c 14.244599
_cell_angle_alpha 90.000000
_cell_angle_beta 61.231376
_cell_angle_gamma 90.000000
_cell_volume 1228.218445
_symmetry_space_group_name_H-M "P 2/C"
_symmetry_group_IT_number 13
_symmetry_cell_setting 'monoclinic'
loop_
_space_group_symop_operation_xyz
x,y,z
-x,y,1/2-z
-x,-y,-z
x,-y,1/2+z
loop_
_atom_site_type_symbol
_atom_site_label
_atom_site_fract_x
_atom_site_fract_y
_atom_site_fract_z
Si Si1 0.238799 0.157562 0.122343
Si Si2 0.000000 0.636832 0.750000
Si Si3 0.614779 0.748844 0.312494
Si Si4 0.761395 0.170551 0.933558
Si Si5 0.508012 0.091424 0.352828
Si Si6 0.327587 0.337530 0.911515
Si Si7 0.898359 0.447104 0.959171
O O1 0.376173 0.174294 0.130581
O O2 0.128628 0.254643 0.221903
O O3 0.180744 0.985231 0.133705
O O4 0.262469 0.217179 0.008150
O O5 0.034317 0.525402 0.654044
O O6 0.712147 0.723736 0.364773
O O7 0.699084 0.723959 0.184553
O O8 0.488134 0.631257 0.366809
O O9 0.541155 0.912651 0.340592
O O10 0.877101 0.265206 0.946976
O O11 0.636292 0.121988 0.045817
O O12 0.500000 0.155111 0.250000
O O13 0.252893 0.497630 0.956477
O O14 0.000000 0.500000 0.000000
#
# Coordination Sequence:
#
# PCOD8117519 Si02
#       7
#     4   2   4   4   4   4   4
#     4  10  20  42  66  94 128 168 222 266 326 376
#     4  10  26  48  62  86 136 178 216 276 308 386
#     4  10  18  37  68  96 124 160 207 266 335 379
#     4  11  22  40  68  97 127 165 219 271 325 390
#     4  11  19  35  66 103 133 155 214 282 323 375
#     4  10  19  41  63  89 130 166 202 271 328 379
#     4  11  28  46  60  90 136 176 223 262 320 398
#
# _framework density 21.168873000000001
#
# number of rings (size 3 to 8) (size 9 to 14) (size 15 to 20)
#    0.000    1.538    4.615    0.923    4.308    1.231 
#    5.538    1.538    0.000    0.000    0.000    0.000 
#    0.000    0.000    0.000    0.000    0.000    0.000 
#
# Total GULP energy -322271.564171 kJ/mol
# GULP energy per Si atom -12395.060160 kJ/mol
# Density = 2.112069 g / cm^3
# Si number density = 21.168873 Si / 1000 Ang^3
#
#
#
# Elastic Constant Matrix: (Units=GPa)
#
#
# Indices 1 2 3 4 5 6 
#
# 1 66.4327 29.1584 23.7951 0.0000 7.7219 0.0000
# 2 29.1584 83.0945 27.6486 0.0000 -5.6014 0.0000
# 3 23.7951 27.6486 115.8749 0.0000 -1.1636 0.0000
# 4 0.0000 0.0000 0.0000 15.5790 0.0000 -0.6974
# 5 7.7219 -5.6014 -1.1636 0.0000 36.3253 0.0000
# 6 0.0000 0.0000 0.0000 -0.6974 0.0000 27.1503
#
#
#
# Elastic Compliance Matrix: (Units=1/GPa)
#
#
# Indices 1 2 3 4 5 6 
#
# 1 0.019313 -0.006287 -0.002518 0.000000 -0.005156 0.000000
# 2 -0.006287 0.015254 -0.002312 0.000000 0.003615 0.000000
# 3 -0.002518 -0.002312 0.009704 0.000000 0.000489 0.000000
# 4 0.000000 0.000000 0.000000 0.064263 0.000000 0.001651
# 5 -0.005156 0.003615 0.000489 0.000000 0.029198 0.000000
# 6 0.000000 0.000000 0.000000 0.001651 0.000000 0.036874
#
#
# Mechanical properties :
#
#
# Convention : Reuss Voigt Hill
#
# Bulk Modulus (GPa) = 45.37877 47.40071 46.38974
# Shear Modulus (GPa) = 24.48753 28.13092 26.30922
#
# Velocity S-wave (km/s) = 3.40482 3.64934 3.52920
# Velocity P-wave (km/s) = 6.07784 6.34013 6.21037
#
# Compressibility (1/GPa) = 0.02203674
#
# Stress axis : x y z
#
# Youngs Moduli (GPa) = 51.77755 65.55795 103.05395
#
# Poissons Ratio (x) = 0.41216 0.25946
# Poissons Ratio (y) = 0.32553 0.23829
# Poissons Ratio (z) = 0.13036 0.15159
#
# Static dielectric constant tensor:
#      x y z
#    x 3.914010 0.000000 0.053480 
#    y 0.000000 3.726860 0.000000 
#    z 0.053480 0.000000 3.970630 
# 
# 
# High freq. dielectric constant tensor:
#      x y z
#    x 1.814860 0.000000 0.005560 
#    y 0.000000 1.813940 0.000000 
#    z 0.005560 0.000000 1.847050 
# 
# From -- ./inp_files/49880.got.cif
#   From: 2010.06.25/outbox.cif.g09.slc.cpg/sg13_25_cif.got.tgz:49880.got - 2010.06.28 04:50:58.
