data_PCOD8117646
_publ_section_title
;
Structure prediction by ZEFSAII (Michael W. Deem and Ramdas Pophale) SiO2 
 PCOD8117646
Probable space group: P 2/C
;
_chemical_formula_sum "Si O2"
_cell_formula_units_Z 32
_cell_length_a 17.969520
_cell_length_b 12.144491
_cell_length_c 9.279842
_cell_angle_alpha 90.000000
_cell_angle_beta 115.507143
_cell_angle_gamma 90.000000
_cell_volume 1827.758428
_symmetry_space_group_name_H-M "P 2/C"
_symmetry_group_IT_number 13
_symmetry_cell_setting 'monoclinic'
loop_
_space_group_symop_operation_xyz
x,y,z
-x,y,1/2-z
-x,-y,-z
x,-y,1/2+z
loop_
_atom_site_type_symbol
_atom_site_label
_atom_site_fract_x
_atom_site_fract_y
_atom_site_fract_z
Si Si1 0.681160 0.395500 0.249256
Si Si2 0.058183 0.552091 0.166393
Si Si3 0.893750 0.062947 0.017737
Si Si4 0.820041 0.724280 0.361753
Si Si5 0.166670 0.342302 0.301997
Si Si6 0.325913 0.373999 0.919032
Si Si7 0.496608 0.390266 0.410151
Si Si8 0.082139 0.125038 0.157936
O O1 0.753756 0.328788 0.233313
O O2 0.696899 0.401362 0.434108
O O3 0.680729 0.517668 0.184157
O O4 0.593226 0.333448 0.139600
O O5 0.103543 0.660953 0.147936
O O6 0.127799 0.463543 0.267085
O O7 0.000000 0.586493 0.250000
O O8 0.000000 0.500000 0.000000
O O9 0.835811 0.145268 0.879665
O O10 0.882379 0.937943 0.952756
O O11 0.874332 0.063598 0.170936
O O12 0.984806 0.112223 0.074763
O O13 0.807500 0.680218 0.513035
O O14 0.737588 0.713440 0.198485
O O15 0.101772 0.254621 0.182106
O O16 0.419352 0.321813 0.984999
O O17 0.500000 0.430421 0.250000
O O18 0.500000 0.500000 0.500000
#
# Coordination Sequence:
#
# PCOD8117646 Si02
#       8
#     4   4   4   4   4   4   4   4
#     4  10  19  31  48  72 100 133 168 201 245 298
#     4  12  24  36  48  67 100 140 171 198 242 299
#     4   9  19  37  53  72  95 127 169 214 251 293
#     4  11  22  36  50  74 103 132 168 208 250 293
#     4  11  22  35  52  72 104 134 165 209 252 294
#     4  10  19  31  48  71 101 133 167 204 243 296
#     4   8  16  30  46  66  96 131 164 200 241 289
#     4   9  19  36  55  70  95 128 168 213 255 289
#
# _framework density 17.507783
#
# number of rings (size 3 to 8) (size 9 to 14) (size 15 to 20)
#    0.000    2.000    2.500    1.500    3.500    2.000 
#    4.500    0.000    0.000    0.000    0.000    0.875 
#    0.000    0.000    0.000    0.000    0.000    0.000 
#
# Total GULP energy -396506.045088 kJ/mol
# GULP energy per Si atom -12390.813909 kJ/mol
# Density = 1.746793 g / cm^3
# Si number density = 17.507783 Si / 1000 Ang^3
#
#
#
# Elastic Constant Matrix: (Units=GPa)
#
#
# Indices 1 2 3 4 5 6 
#
# 1 95.4056 5.9116 37.3942 0.0000 2.7509 0.0000
# 2 5.9116 29.0902 12.6976 0.0000 -0.6286 0.0000
# 3 37.3942 12.6976 90.1498 0.0000 7.7768 0.0000
# 4 0.0000 0.0000 0.0000 22.9452 0.0000 -1.6953
# 5 2.7509 -0.6286 7.7768 0.0000 29.0937 0.0000
# 6 0.0000 0.0000 0.0000 -1.6953 0.0000 13.9010
#
#
#
# Elastic Compliance Matrix: (Units=1/GPa)
#
#
# Indices 1 2 3 4 5 6 
#
# 1 0.012520 -0.000283 -0.005170 0.000000 0.000192 0.000000
# 2 -0.000283 0.036775 -0.005254 0.000000 0.002226 0.000000
# 3 -0.005170 -0.005254 0.014274 0.000000 -0.003440 0.000000
# 4 0.000000 0.000000 0.000000 0.043978 0.000000 0.005363
# 5 0.000192 0.002226 -0.003440 0.000000 0.035321 0.000000
# 6 0.000000 0.000000 0.000000 0.005363 0.000000 0.072591
#
#
# Mechanical properties :
#
#
# Convention : Reuss Voigt Hill
#
# Bulk Modulus (GPa) = 23.72272 36.29473 30.00872
# Shear Modulus (GPa) = 19.92619 23.76413 21.84516
#
# Velocity S-wave (km/s) = 3.37728 3.68822 3.53617
# Velocity P-wave (km/s) = 5.36538 6.23802 5.81808
#
# Compressibility (1/GPa) = 0.04215369
#
# Stress axis : x y z
#
# Youngs Moduli (GPa) = 79.87261 27.19241 70.05767
#
# Poissons Ratio (x) = 0.00771 0.36219
# Poissons Ratio (y) = 0.02264 0.36810
# Poissons Ratio (z) = 0.41293 0.14287
#
# Static dielectric constant tensor:
#      x y z
#    x 3.685140 0.000000 0.136430 
#    y 0.000000 2.851080 0.000000 
#    z 0.136430 0.000000 3.551240 
# 
# 
# High freq. dielectric constant tensor:
#      x y z
#    x 1.678400 0.000000 -0.002680 
#    y 0.000000 1.625910 0.000000 
#    z -0.002680 0.000000 1.696490 
# 
# From -- ./inp_files/23252.got.cif
#   From: 2010.06.25/outbox.cif.g09.slc.cpg/sg13_12_cif.got.tgz:23252.got - 2010.06.28 04:50:58.
