data_PCOD8117975
_publ_section_title
;
Structure prediction by ZEFSAII (Michael W. Deem and Ramdas Pophale) SiO2 
 PCOD8117975
Probable space group: P 2/C
;
_chemical_formula_sum "Si O2"
_cell_formula_units_Z 24
_cell_length_a 15.511237
_cell_length_b 16.969621
_cell_length_c 5.330475
_cell_angle_alpha 90.000000
_cell_angle_beta 89.999486
_cell_angle_gamma 90.000000
_cell_volume 1403.086633
_symmetry_space_group_name_H-M "P 2/C"
_symmetry_group_IT_number 13
_symmetry_cell_setting 'monoclinic'
loop_
_space_group_symop_operation_xyz
x,y,z
-x,y,1/2-z
-x,-y,-z
x,-y,1/2+z
loop_
_atom_site_type_symbol
_atom_site_label
_atom_site_fract_x
_atom_site_fract_y
_atom_site_fract_z
Si Si1 0.401549 0.074094 0.249963
Si Si2 0.665744 0.901827 0.250037
Si Si3 0.155421 0.809309 0.249961
Si Si4 0.897668 0.276593 0.250033
Si Si5 0.898614 0.460112 0.249999
Si Si6 0.095040 0.969370 0.249997
O O1 0.500000 0.044446 0.250000
O O2 0.382572 0.127081 0.496500
O O3 0.338642 0.997650 0.249943
O O4 0.382588 0.127075 0.003404
O O5 0.759915 0.864123 0.249999
O O6 0.146889 0.757355 0.499959
O O7 0.081395 0.875305 0.249976
O O8 0.146908 0.757378 0.999910
O O9 0.876795 0.368452 0.250000
O O10 0.000000 0.259999 0.250000
O O11 0.858270 0.500001 0.499999
O O12 0.000000 0.475709 0.250000
O O13 0.000000 0.009418 0.250000
O O14 0.144907 0.999997 0.500000
#
# Coordination Sequence:
#
# PCOD8117975 Si02
#       6
#     4   4   4   4   4   4
#     4  10  19  35  54  72  90 117 164 208 251 300
#     4  10  20  30  49  72  92 119 154 203 251 289
#     4  12  23  33  49  68  98 128 166 205 258 298
#     4  11  22  36  51  69  98 134 167 206 252 300
#     4   9  17  31  52  74  91 114 159 210 246 285
#     4  10  21  33  45  57  78 118 170 216 243 266
#
# _framework density 17.105145
#
# number of rings (size 3 to 8) (size 9 to 14) (size 15 to 20)
#    0.000    1.667    0.000    7.000    4.667    4.000 
#    0.000    0.000    0.000    0.000    0.000    0.000 
#    0.000    0.000    0.000    0.000    0.000  343.333 
#
# Total GULP energy -297324.202687 kJ/mol
# GULP energy per Si atom -12388.508445 kJ/mol
# Density = 1.706621 g / cm^3
# Si number density = 17.105145 Si / 1000 Ang^3
#
#
#
# Elastic Constant Matrix: (Units=GPa)
#
#
# Indices 1 2 3 4 5 6 
#
# 1 77.3879 27.9082 37.5987 0.0000 -0.3824 0.0000
# 2 27.9082 91.7360 63.1122 0.0000 3.3567 0.0000
# 3 37.5987 63.1122 218.1682 0.0000 13.7919 0.0000
# 4 0.0000 0.0000 0.0000 31.6487 0.0000 2.0348
# 5 -0.3824 3.3567 13.7919 0.0000 19.1677 0.0000
# 6 0.0000 0.0000 0.0000 2.0348 0.0000 10.2384
#
#
#
# Elastic Compliance Matrix: (Units=1/GPa)
#
#
# Indices 1 2 3 4 5 6 
#
# 1 0.015018 -0.003462 -0.001722 0.000000 0.002145 0.000000
# 2 -0.003462 0.014412 -0.003571 0.000000 -0.000024 0.000000
# 3 -0.001722 -0.003571 0.006156 0.000000 -0.003839 0.000000
# 4 0.000000 0.000000 0.000000 0.032006 0.000000 -0.006361
# 5 0.002145 -0.000024 -0.003839 0.000000 0.054980 0.000000
# 6 0.000000 0.000000 0.000000 -0.006361 0.000000 0.098936
#
#
# Mechanical properties :
#
#
# Convention : Reuss Voigt Hill
#
# Bulk Modulus (GPa) = 55.32586 71.61448 63.47017
# Shear Modulus (GPa) = 20.40456 29.45582 24.93019
#
# Velocity S-wave (km/s) = 3.45757 4.15425 3.82182
# Velocity P-wave (km/s) = 6.95374 8.06031 7.52739
#
# Compressibility (1/GPa) = 0.01807473
#
# Stress axis : x y z
#
# Youngs Moduli (GPa) = 66.58735 69.38783 162.44160
#
# Poissons Ratio (x) = 0.24025 0.27974
# Poissons Ratio (y) = 0.23056 0.58006
# Poissons Ratio (z) = 0.11467 0.24777
#
# Static dielectric constant tensor:
#      x y z
#    x 2.860730 0.000000 0.139730 
#    y 0.000000 2.920250 0.000000 
#    z 0.139730 0.000000 4.331920 
# 
# 
# High freq. dielectric constant tensor:
#      x y z
#    x 1.618680 0.000000 0.008280 
#    y 0.000000 1.615630 0.000000 
#    z 0.008280 0.000000 1.705830 
# 
# From -- ./inp_files/4932.got.cif
#   From: 2010.06.25/outbox.cif.g09.slc.cpg/sg13_3_cif.got.tgz:4932.got - 2010.06.28 04:50:58.
