data_PCOD8117099
_publ_section_title
;
Structure prediction by ZEFSAII (Michael W. Deem and Ramdas Pophale) SiO2 
 PCOD8117099
Probable space group: P 2/C
;
_chemical_formula_sum "Si O2"
_cell_formula_units_Z 30
_cell_length_a 9.731259
_cell_length_b 11.164888
_cell_length_c 16.167796
_cell_angle_alpha 90.000000
_cell_angle_beta 92.809973
_cell_angle_gamma 90.000000
_cell_volume 1754.493331
_symmetry_space_group_name_H-M "P 2/C"
_symmetry_group_IT_number 13
_symmetry_cell_setting 'monoclinic'
loop_
_space_group_symop_operation_xyz
x,y,z
-x,y,1/2-z
-x,-y,-z
x,-y,1/2+z
loop_
_atom_site_type_symbol
_atom_site_label
_atom_site_fract_x
_atom_site_fract_y
_atom_site_fract_z
Si Si1 0.877681 0.283169 0.585912
Si Si2 0.713322 0.270336 0.733053
Si Si3 0.806155 0.721214 0.419054
Si Si4 0.356418 0.110361 0.910978
Si Si5 0.387132 0.852016 0.964115
Si Si6 0.500000 0.472834 0.750000
Si Si7 0.484374 0.621859 0.902987
Si Si8 0.275224 0.488889 0.996742
O O1 0.851759 0.298332 0.684253
O O2 0.773084 0.179132 0.549609
O O3 0.851088 0.408080 0.537575
O O4 0.033482 0.247163 0.574297
O O5 0.745399 0.238079 0.828622
O O6 0.631876 0.160871 0.683643
O O7 0.624213 0.390346 0.724078
O O8 0.741627 0.796918 0.491096
O O9 0.775830 0.579612 0.432568
O O10 0.331871 0.967720 0.913380
O O11 0.498278 0.129042 0.962686
O O12 0.452018 0.763498 0.896797
O O13 0.545208 0.563665 0.822708
O O14 0.602089 0.600697 0.974197
O O15 0.338041 0.563656 0.922824
#
# Coordination Sequence:
#
# PCOD8117099 Si02
#       8
#     4   4   4   4   4   2   4   4
#     4  10  20  35  53  81 113 140 177 230 267 324
#     4  10  20  33  53  82 107 139 178 227 267 323
#     4  11  21  32  57  83 111 141 182 216 286 328
#     4   9  20  36  56  72 109 138 184 228 262 309
#     4  10  20  37  54  79 104 145 181 225 268 319
#     4  12  18  32  56  80 102 140 178 216 282 326
#     4  10  18  31  53  78 106 135 176 222 267 328
#     4  10  18  32  52  81 111 138 170 223 272 326
#
# _framework density 17.098953999999999
#
# number of rings (size 3 to 8) (size 9 to 14) (size 15 to 20)
#    0.800    1.067    4.000    1.600    1.867    0.533 
#    0.000    3.333    0.000    0.000    0.000    0.000 
#    0.000    0.000    0.000    0.000    0.000    0.000 
#
# Total GULP energy -371678.374926 kJ/mol
# GULP energy per Si atom -12389.279164 kJ/mol
# Density = 1.706004 g / cm^3
# Si number density = 17.098954 Si / 1000 Ang^3
#
#
#
# Elastic Constant Matrix: (Units=GPa)
#
#
# Indices 1 2 3 4 5 6 
#
# 1 76.2894 27.6460 9.2708 0.0000 -5.8822 0.0000
# 2 27.6460 123.0511 46.3832 0.0000 -5.0503 0.0000
# 3 9.2708 46.3832 73.8964 0.0000 -2.4314 0.0000
# 4 0.0000 0.0000 0.0000 27.0278 0.0000 1.3071
# 5 -5.8822 -5.0503 -2.4314 0.0000 22.3110 0.0000
# 6 0.0000 0.0000 0.0000 1.3071 0.0000 17.8219
#
#
#
# Elastic Compliance Matrix: (Units=1/GPa)
#
#
# Indices 1 2 3 4 5 6 
#
# 1 0.014486 -0.003249 0.000325 0.000000 0.003119 0.000000
# 2 -0.003249 0.011438 -0.006739 0.000000 0.000998 0.000000
# 3 0.000325 -0.006739 0.017738 0.000000 0.000493 0.000000
# 4 0.000000 0.000000 0.000000 0.037131 0.000000 -0.002723
# 5 0.003119 0.000998 0.000493 0.000000 0.045923 0.000000
# 6 0.000000 0.000000 0.000000 -0.002723 0.000000 0.056311
#
#
# Mechanical properties :
#
#
# Convention : Reuss Voigt Hill
#
# Bulk Modulus (GPa) = 41.09230 48.87075 44.98153
# Shear Modulus (GPa) = 23.75699 26.09461 24.92580
#
# Velocity S-wave (km/s) = 3.73149 3.91076 3.82218
# Velocity P-wave (km/s) = 6.53066 7.00252 6.77070
#
# Compressibility (1/GPa) = 0.02433546
#
# Stress axis : x y z
#
# Youngs Moduli (GPa) = 69.03012 87.42978 56.37696
#
# Poissons Ratio (x) = 0.28406 -0.01830
# Poissons Ratio (y) = 0.22428 0.37991
# Poissons Ratio (z) = -0.02240 0.58917
#
# Static dielectric constant tensor:
#      x y z
#    x 3.010400 0.000000 -0.046960 
#    y 0.000000 3.266740 0.000000 
#    z -0.046960 0.000000 2.988420 
# 
# 
# High freq. dielectric constant tensor:
#      x y z
#    x 1.652580 0.000000 -0.003260 
#    y 0.000000 1.653480 0.000000 
#    z -0.003260 0.000000 1.641140 
# 
# From -- ./inp_files/64301.got.cif
#   From: 2010.06.25/outbox.cif.g09.slc.cpg/sg13_33_cif.got.tgz:64301.got - 2010.06.28 04:50:58.
