data_PCOD8117495
_publ_section_title
;
Structure prediction by ZEFSAII (Michael W. Deem and Ramdas Pophale) SiO2 
 PCOD8117495
Probable space group: P 2/C
;
_chemical_formula_sum "Si O2"
_cell_formula_units_Z 16
_cell_length_a 8.255268
_cell_length_b 9.632172
_cell_length_c 16.819872
_cell_angle_alpha 90.000000
_cell_angle_beta 145.537142
_cell_angle_gamma 90.000000
_cell_volume 756.826280
_symmetry_space_group_name_H-M "P 2/C"
_symmetry_group_IT_number 13
_symmetry_cell_setting 'monoclinic'
loop_
_space_group_symop_operation_xyz
x,y,z
-x,y,1/2-z
-x,-y,-z
x,-y,1/2+z
loop_
_atom_site_type_symbol
_atom_site_label
_atom_site_fract_x
_atom_site_fract_y
_atom_site_fract_z
Si Si1 0.200323 0.055624 0.406116
Si Si2 0.703477 0.433444 0.406285
Si Si3 0.588584 0.273907 0.900873
Si Si4 0.956285 0.194060 0.896197
O O1 0.249289 0.211657 0.457601
O O2 0.000000 0.065729 0.250000
O O3 0.500000 0.000000 0.500000
O O4 0.075776 0.960151 0.427714
O O5 0.500000 0.390055 0.250000
O O6 0.560059 0.559381 0.396818
O O7 0.000000 0.500000 0.500000
O O8 0.769432 0.298789 0.487448
O O9 0.768655 0.214041 0.899226
O O10 0.257794 0.225247 0.763715
#
# Coordination Sequence:
#
# PCOD8117495 Si02
#       4
#     4   4   4   4
#     4  12  25  42  61  87 131 169 202 250 306 363
#     4  10  18  36  64  95 122 150 198 264 311 351
#     4  10  20  41  65  92 124 158 205 258 303 363
#     4  10  21  40  65  93 123 157 207 258 303 361
#
# _framework density 21.140916000000001
#
# number of rings (size 3 to 8) (size 9 to 14) (size 15 to 20)
#    0.000    1.500    7.500    0.750    0.000    4.000 
#    4.500    2.500    0.000    0.000    0.000    0.000 
#    0.000    0.000    0.000    0.000    0.000    0.000 
#
# Total GULP energy -198214.412510 kJ/mol
# GULP energy per Si atom -12388.400782 kJ/mol
# Density = 2.109280 g / cm^3
# Si number density = 21.140916 Si / 1000 Ang^3
#
#
#
# Elastic Constant Matrix: (Units=GPa)
#
#
# Indices 1 2 3 4 5 6 
#
# 1 32.1353 9.6027 26.9493 0.0000 -5.4291 0.0000
# 2 9.6027 118.1066 67.3182 0.0000 -24.0175 0.0000
# 3 26.9493 67.3182 176.7686 0.0000 -12.1637 0.0000
# 4 0.0000 0.0000 0.0000 44.5045 0.0000 -3.1351
# 5 -5.4291 -24.0175 -12.1637 0.0000 29.1934 0.0000
# 6 0.0000 0.0000 0.0000 -3.1351 0.0000 17.2254
#
#
#
# Elastic Compliance Matrix: (Units=1/GPa)
#
#
# Indices 1 2 3 4 5 6 
#
# 1 0.036424 0.001427 -0.005713 0.000000 0.005567 0.000000
# 2 0.001427 0.012679 -0.004437 0.000000 0.008848 0.000000
# 3 -0.005713 -0.004437 0.008127 0.000000 -0.001327 0.000000
# 4 0.000000 0.000000 0.000000 0.022761 0.000000 0.004143
# 5 0.005567 0.008848 -0.001327 0.000000 0.042016 0.000000
# 6 0.000000 0.000000 0.000000 0.004143 0.000000 0.058808
#
#
# Mechanical properties :
#
#
# Convention : Reuss Voigt Hill
#
# Bulk Modulus (GPa) = 25.13650 59.41678 42.27664
# Shear Modulus (GPa) = 23.63804 33.06067 28.34935
#
# Velocity S-wave (km/s) = 3.34745 3.95881 3.66590
# Velocity P-wave (km/s) = 5.18232 7.00445 6.16112
#
# Compressibility (1/GPa) = 0.03978278
#
# Stress axis : x y z
#
# Youngs Moduli (GPa) = 27.45450 78.86835 123.05099
#
# Poissons Ratio (x) = -0.11256 0.70304
# Poissons Ratio (y) = -0.03918 0.54603
# Poissons Ratio (z) = 0.15686 0.34997
#
# Static dielectric constant tensor:
#      x y z
#    x 3.441090 0.000000 0.122740 
#    y 0.000000 4.484100 0.000000 
#    z 0.122740 0.000000 4.270710 
# 
# 
# High freq. dielectric constant tensor:
#      x y z
#    x 1.784620 0.000000 0.011390 
#    y 0.000000 1.830640 0.000000 
#    z 0.011390 0.000000 1.852380 
# 
# From -- ./inp_files/11100.got.cif
#   From: 2010.06.25/outbox.cif.g09.slc.cpg/sg13_6_cif.got.tgz:11100.got - 2010.06.28 04:50:58.
