data_PCOD8117514
_publ_section_title
;
Structure prediction by ZEFSAII (Michael W. Deem and Ramdas Pophale) SiO2 
 PCOD8117514
Probable space group: P 2/C
;
_chemical_formula_sum "Si O2"
_cell_formula_units_Z 20
_cell_length_a 7.838864
_cell_length_b 10.785318
_cell_length_c 10.680208
_cell_angle_alpha 90.000000
_cell_angle_beta 118.050009
_cell_angle_gamma 90.000000
_cell_volume 796.891068
_symmetry_space_group_name_H-M "P 2/C"
_symmetry_group_IT_number 13
_symmetry_cell_setting 'monoclinic'
loop_
_space_group_symop_operation_xyz
x,y,z
-x,y,1/2-z
-x,-y,-z
x,-y,1/2+z
loop_
_atom_site_type_symbol
_atom_site_label
_atom_site_fract_x
_atom_site_fract_y
_atom_site_fract_z
Si Si1 0.925440 0.765584 0.527701
Si Si2 0.304768 0.127263 0.756080
Si Si3 0.395090 0.303349 0.004212
Si Si4 0.718881 0.160181 0.211982
Si Si5 0.340908 0.550313 0.085010
O O1 0.877299 0.858762 0.398177
O O2 0.819690 0.809201 0.616081
O O3 0.854292 0.629617 0.455526
O O4 0.156703 0.779274 0.630525
O O5 0.500000 0.167127 0.750000
O O6 0.307266 0.986386 0.797650
O O7 0.277481 0.219401 0.865022
O O8 0.501487 0.213937 0.141056
O O9 0.267429 0.409237 0.029744
O O10 0.566500 0.384157 0.002785
O O11 0.500000 0.551046 0.250000
#
# Coordination Sequence:
#
# PCOD8117514 Si02
#       5
#     4   4   4   4   4
#     4  10  20  40  61  84 122 159 192 252 309 345
#     4  12  20  37  62  88 123 163 198 243 299 361
#     4  10  20  35  60  87 115 157 208 242 290 357
#     4  10  22  36  60  90 121 155 199 247 307 354
#     4  10  18  37  62  82 114 163 207 244 288 360
#
# _framework density 25.097532999999999
#
# number of rings (size 3 to 8) (size 9 to 14) (size 15 to 20)
#    0.000    1.600    6.000    1.200    0.000    0.800 
#    0.000    1.000    8.800    0.000    0.000    0.000 
#    0.000    0.000    0.000    0.000    0.000    0.000 
#
# Total GULP energy -247886.273464 kJ/mol
# GULP energy per Si atom -12394.313673 kJ/mol
# Density = 2.504041 g / cm^3
# Si number density = 25.097533 Si / 1000 Ang^3
#
#
#
# Elastic Constant Matrix: (Units=GPa)
#
#
# Indices 1 2 3 4 5 6 
#
# 1 41.1020 12.6369 17.4395 0.0000 23.5209 0.0000
# 2 12.6369 199.6316 70.9314 0.0000 11.6919 0.0000
# 3 17.4395 70.9314 186.6367 0.0000 30.0542 0.0000
# 4 0.0000 0.0000 0.0000 34.6780 0.0000 -7.6782
# 5 23.5209 11.6919 30.0542 0.0000 20.6623 0.0000
# 6 0.0000 0.0000 0.0000 -7.6782 0.0000 10.0295
#
#
#
# Elastic Compliance Matrix: (Units=1/GPa)
#
#
# Indices 1 2 3 4 5 6 
#
# 1 0.082145 -0.002691 0.010655 0.000000 -0.107486 0.000000
# 2 -0.002691 0.005880 -0.002534 0.000000 0.003422 0.000000
# 3 0.010655 -0.002534 0.009203 0.000000 -0.024082 0.000000
# 4 0.000000 0.000000 0.000000 0.034722 0.000000 0.026582
# 5 -0.107486 0.003422 -0.024082 0.000000 0.203846 0.000000
# 6 0.000000 0.000000 0.000000 0.026582 0.000000 0.120056
#
#
# Mechanical properties :
#
#
# Convention : Reuss Voigt Hill
#
# Bulk Modulus (GPa) = 9.25160 69.93177 39.59168
# Shear Modulus (GPa) = 10.39455 34.83147 22.61301
#
# Velocity S-wave (km/s) = 2.03731 3.72942 3.00493
# Velocity P-wave (km/s) = 3.03784 6.81684 5.27720
#
# Compressibility (1/GPa) = 0.10808946
#
# Stress axis : x y z
#
# Youngs Moduli (GPa) = 12.17354 170.08124 108.65506
#
# Poissons Ratio (x) = 0.45763 -1.15776
# Poissons Ratio (y) = 0.03276 0.27535
# Poissons Ratio (z) = -0.12971 0.43101
#
# Static dielectric constant tensor:
#      x y z
#    x 4.419060 0.000000 0.227670 
#    y 0.000000 4.941670 0.000000 
#    z 0.227670 0.000000 4.858090 
# 
# 
# High freq. dielectric constant tensor:
#      x y z
#    x 1.972050 0.000000 -0.006520 
#    y 0.000000 2.019270 0.000000 
#    z -0.006520 0.000000 2.014730 
# 
# From -- ./inp_files/32749.got.cif
#   From: 2010.06.25/outbox.cif.g09.slc.cpg/sg13_17_cif.got.tgz:32749.got - 2010.06.28 04:50:58.
