data_PCOD8117386
_publ_section_title
;
Structure prediction by ZEFSAII (Michael W. Deem and Ramdas Pophale) SiO2 
 PCOD8117386
Probable space group: P 2/C
;
_chemical_formula_sum "Si O2"
_cell_formula_units_Z 20
_cell_length_a 22.162500
_cell_length_b 7.937694
_cell_length_c 5.357691
_cell_angle_alpha 90.000000
_cell_angle_beta 96.582682
_cell_angle_gamma 90.000000
_cell_volume 936.306808
_symmetry_space_group_name_H-M "P 2/C"
_symmetry_group_IT_number 13
_symmetry_cell_setting 'monoclinic'
loop_
_space_group_symop_operation_xyz
x,y,z
-x,y,1/2-z
-x,-y,-z
x,-y,1/2+z
loop_
_atom_site_type_symbol
_atom_site_label
_atom_site_fract_x
_atom_site_fract_y
_atom_site_fract_z
Si Si1 0.662359 0.293375 0.577368
Si Si2 0.710024 0.659891 0.599961
Si Si3 0.066718 0.898986 0.750128
Si Si4 0.474866 0.191054 0.988082
Si Si5 0.850652 0.590889 0.667715
O O1 0.664478 0.498042 0.578611
O O2 0.696774 0.230061 0.342195
O O3 0.597123 0.206642 0.546005
O O4 0.696616 0.229918 0.845359
O O5 0.778217 0.594782 0.631504
O O6 0.121747 0.774973 0.828470
O O7 0.000000 0.813830 0.750000
O O8 0.073156 0.959775 0.467430
O O9 0.500000 0.282243 0.750000
O O10 0.500000 0.282242 0.250000
O O11 0.500000 0.000000 0.000000
O O12 0.874240 0.496643 0.431523
#
# Coordination Sequence:
#
# PCOD8117386 Si02
#       5
#     4   4   4   4   4
#     4  10  18  35  58  78 113 149 186 236 317 374
#     4  10  19  35  56  86 114 153 190 252 318 372
#     4  10  23  43  65  92 139 188 220 260 328 398
#     4  10  21  37  57  77 109 146 192 244 298 367
#     4  12  21  38  68  99 133 164 226 287 317 377
#
# _framework density 21.360520000000001
#
# number of rings (size 3 to 8) (size 9 to 14) (size 15 to 20)
#    0.000    1.600    4.000    2.400    0.000    0.800 
#    0.000   12.000   26.400    0.000    0.000    0.000 
#    0.000    0.000    0.000    0.000    0.000    0.000 
#
# Total GULP energy -247810.768065 kJ/mol
# GULP energy per Si atom -12390.538403 kJ/mol
# Density = 2.131190 g / cm^3
# Si number density = 21.360520 Si / 1000 Ang^3
#
#
#
# Elastic Constant Matrix: (Units=GPa)
#
#
# Indices 1 2 3 4 5 6 
#
# 1 65.5377 38.2604 32.3387 0.0000 5.4965 0.0000
# 2 38.2604 39.4382 9.6082 0.0000 7.0645 0.0000
# 3 32.3387 9.6082 228.2582 0.0000 -20.9594 0.0000
# 4 0.0000 0.0000 0.0000 11.7634 0.0000 3.4245
# 5 5.4965 7.0645 -20.9594 0.0000 25.5840 0.0000
# 6 0.0000 0.0000 0.0000 3.4245 0.0000 25.1194
#
#
#
# Elastic Compliance Matrix: (Units=1/GPa)
#
#
# Indices 1 2 3 4 5 6 
#
# 1 0.038412 -0.035973 -0.004080 0.000000 -0.001662 0.000000
# 2 -0.035973 0.061188 0.001816 0.000000 -0.007680 0.000000
# 3 -0.004080 0.001816 0.005317 0.000000 0.004731 0.000000
# 4 0.000000 0.000000 0.000000 0.088523 0.000000 -0.012068
# 5 -0.001662 -0.007680 0.004731 0.000000 0.045441 0.000000
# 6 0.000000 0.000000 0.000000 -0.012068 0.000000 0.041455
#
#
# Mechanical properties :
#
#
# Convention : Reuss Voigt Hill
#
# Bulk Modulus (GPa) = 35.15956 54.84984 45.00470
# Shear Modulus (GPa) = 13.65032 29.36181 21.50606
#
# Velocity S-wave (km/s) = 2.53068 3.71156 3.17648
# Velocity P-wave (km/s) = 5.00349 6.64089 5.87947
#
# Compressibility (1/GPa) = 0.02844176
#
# Stress axis : x y z
#
# Youngs Moduli (GPa) = 26.03355 16.34305 188.07181
#
# Poissons Ratio (x) = 0.58791 0.76742
# Poissons Ratio (y) = 0.93650 -0.34149
# Poissons Ratio (z) = 0.10623 -0.02967
#
# Static dielectric constant tensor:
#      x y z
#    x 3.754230 0.000000 -0.289210 
#    y 0.000000 3.240190 0.000000 
#    z -0.289210 0.000000 5.494520 
# 
# 
# High freq. dielectric constant tensor:
#      x y z
#    x 1.832250 0.000000 -0.008320 
#    y 0.000000 1.776940 0.000000 
#    z -0.008320 0.000000 1.889640 
# 
# From -- ./inp_files/6744.got.cif
#   From: 2010.06.25/outbox.cif.g09.slc.cpg/sg13_4_cif.got.tgz:6744.got - 2010.06.28 04:50:58.
