data_PCOD8117480
_publ_section_title
;
Structure prediction by ZEFSAII (Michael W. Deem and Ramdas Pophale) SiO2 
 PCOD8117480
Probable space group: P 2/C
;
_chemical_formula_sum "Si O2"
_cell_formula_units_Z 20
_cell_length_a 14.387942
_cell_length_b 8.796963
_cell_length_c 18.910933
_cell_angle_alpha 90.000000
_cell_angle_beta 22.927117
_cell_angle_gamma 90.000000
_cell_volume 932.435135
_symmetry_space_group_name_H-M "P 2/C"
_symmetry_group_IT_number 13
_symmetry_cell_setting 'monoclinic'
loop_
_space_group_symop_operation_xyz
x,y,z
-x,y,1/2-z
-x,-y,-z
x,-y,1/2+z
loop_
_atom_site_type_symbol
_atom_site_label
_atom_site_fract_x
_atom_site_fract_y
_atom_site_fract_z
Si Si1 0.000000 0.728418 0.250000
Si Si2 0.905025 0.206678 0.443371
Si Si3 0.075856 0.189381 0.483918
Si Si4 0.772657 0.033879 0.811713
Si Si5 0.500000 0.009838 0.250000
Si Si6 0.228242 0.548890 0.966675
O O1 0.181704 0.834080 0.164693
O O2 0.818839 0.632709 0.425818
O O3 0.867997 0.380999 0.451360
O O4 0.988024 0.193616 0.466199
O O5 0.673445 0.104499 0.586316
O O6 0.108630 0.129738 0.251990
O O7 0.342492 0.118112 0.308760
O O8 0.076972 0.361827 0.513176
O O9 0.881360 0.086430 0.660342
O O10 0.500000 0.000000 0.000000
O O11 0.500000 0.542542 0.750000
#
# Coordination Sequence:
#
# PCOD8117480 Si02
#       6
#     2   4   4   4   2   4
#     4  10  26  46  66  96 136 180 224 268 344 402
#     4  11  23  40  67 102 125 168 236 269 325 401
#     4  10  22  40  67  95 132 173 222 267 335 403
#     4  10  23  41  64  96 133 175 216 280 332 385
#     4  10  18  36  62  98 128 170 216 268 324 386
#     4  11  23  45  69  97 136 182 215 278 340 393
#
# _framework density 21.449211999999999
#
# number of rings (size 3 to 8) (size 9 to 14) (size 15 to 20)
#    0.000    1.600    2.000    3.000    2.800    5.600 
#    3.600    2.000    0.000    0.000    0.000    0.000 
#    0.000    0.000    0.000    0.000    0.000    0.000 
#
# Total GULP energy -247805.213436 kJ/mol
# GULP energy per Si atom -12390.260672 kJ/mol
# Density = 2.140039 g / cm^3
# Si number density = 21.449212 Si / 1000 Ang^3
#
#
#
# Elastic Constant Matrix: (Units=GPa)
#
#
# Indices 1 2 3 4 5 6 
#
# 1 82.0155 35.4738 38.7960 0.0000 5.5645 0.0000
# 2 35.4738 186.7194 72.7917 0.0000 4.8458 0.0000
# 3 38.7960 72.7917 169.5312 0.0000 -7.4896 0.0000
# 4 0.0000 0.0000 0.0000 19.5610 0.0000 -9.9090
# 5 5.5645 4.8458 -7.4896 0.0000 21.9080 0.0000
# 6 0.0000 0.0000 0.0000 -9.9090 0.0000 2.8434
#
#
#
# Elastic Compliance Matrix: (Units=1/GPa)
#
#
# Indices 1 2 3 4 5 6 
#
# 1 0.014496 -0.001531 -0.002851 0.000000 -0.004318 0.000000
# 2 -0.001531 0.006721 -0.002624 0.000000 -0.001995 0.000000
# 3 -0.002851 -0.002624 0.007854 0.000000 0.003989 0.000000
# 4 0.000000 0.000000 0.000000 -0.066796 0.000000 -0.232777
# 5 -0.004318 -0.001995 0.003989 0.000000 0.048547 0.000000
# 6 0.000000 0.000000 0.000000 -0.232777 0.000000 -0.459515
#
#
# Mechanical properties :
#
#
# Convention : Reuss Voigt Hill
#
# Bulk Modulus (GPa) = 66.39764 81.37655 73.88710
# Shear Modulus (GPa) = -11.63707 28.27613 8.31953
#
# Velocity S-wave (km/s) = -2.33178 3.63476 1.97158
# Velocity P-wave (km/s) = 4.87579 7.45901 6.30120
#
# Compressibility (1/GPa) = 0.01506078
#
# Stress axis : x y z
#
# Youngs Moduli (GPa) = 68.98260 148.78713 127.32669
#
# Poissons Ratio (x) = 0.22773 0.36301
# Poissons Ratio (y) = 0.10558 0.33406
# Poissons Ratio (z) = 0.19667 0.39037
#
# Static dielectric constant tensor:
#      x y z
#    x -98.841400 0.000000 46.922860 
#    y 0.000000 4.485170 0.000000 
#    z 46.922860 0.000000 -17.681720 
# 
# 
# High freq. dielectric constant tensor:
#      x y z
#    x 1.824320 0.000000 -0.002050 
#    y 0.000000 1.866070 0.000000 
#    z -0.002050 0.000000 1.842140 
# 
# From -- ./inp_files/54937.got.cif
#   From: 2010.06.25/outbox.cif.g09.slc.cpg/sg13_28_cif.got.tgz:54937.got - 2010.06.28 04:50:58.
