data_PCOD8117718
_publ_section_title
;
Structure prediction by ZEFSAII (Michael W. Deem and Ramdas Pophale) SiO2 
 PCOD8117718
Probable space group: P 2/C
;
_chemical_formula_sum "Si O2"
_cell_formula_units_Z 32
_cell_length_a 19.307240
_cell_length_b 11.566569
_cell_length_c 15.086821
_cell_angle_alpha 90.000000
_cell_angle_beta 152.916954
_cell_angle_gamma 90.000000
_cell_volume 1533.919121
_symmetry_space_group_name_H-M "P 2/C"
_symmetry_group_IT_number 13
_symmetry_cell_setting 'monoclinic'
loop_
_space_group_symop_operation_xyz
x,y,z
-x,y,1/2-z
-x,-y,-z
x,-y,1/2+z
loop_
_atom_site_type_symbol
_atom_site_label
_atom_site_fract_x
_atom_site_fract_y
_atom_site_fract_z
Si Si1 0.821190 0.519681 0.064371
Si Si2 0.472631 0.116585 0.576151
Si Si3 0.854780 0.263166 0.885842
Si Si4 0.733462 0.732321 0.439111
Si Si5 0.805971 0.261923 0.220635
Si Si6 0.734286 0.524051 0.161220
Si Si7 0.553573 0.649316 0.710779
Si Si8 0.584466 0.869911 0.012424
O O1 0.806897 0.557160 0.149632
O O2 0.000000 0.504721 0.250000
O O3 0.719806 0.406268 0.926925
O O4 0.732370 0.615503 0.904248
O O5 0.571017 0.199261 0.753949
O O6 0.311693 0.174036 0.370067
O O7 0.567741 0.099592 0.595962
O O8 0.435171 0.986416 0.569379
O O9 0.828586 0.232668 0.959914
O O10 0.825120 0.401199 0.838699
O O11 0.751241 0.190150 0.698409
O O12 0.026280 0.234512 0.053252
O O13 0.814215 0.761095 0.624027
O O14 0.752088 0.387374 0.193643
O O15 0.556735 0.561038 0.968088
O O16 0.500000 0.643609 0.750000
O O17 0.542636 0.779477 0.663079
#
# Coordination Sequence:
#
# PCOD8117718 Si02
#       8
#     4   4   4   4   4   4   4   4
#     4  10  19  32  53  80 111 137 169 222 270 311
#     4  10  21  36  55  74 101 138 179 224 263 308
#     4  10  20  35  55  77 111 145 174 216 273 318
#     4  10  20  35  53  79 110 142 174 217 271 319
#     4  11  20  32  55  84 108 136 179 225 263 314
#     4   9  19  34  50  78 111 143 176 209 263 327
#     4   9  18  33  53  72 100 140 175 210 258 319
#     4   9  21  39  53  73 103 139 179 219 263 316
#
# _framework density 20.861595000000001
#
# number of rings (size 3 to 8) (size 9 to 14) (size 15 to 20)
#    0.000    2.250    0.000    3.375    0.000    5.500 
#    0.000    3.750    0.000    5.250    0.000    0.000 
#    0.000    0.000    0.000    0.000    0.000    0.000 
#
# Total GULP energy -396459.943227 kJ/mol
# GULP energy per Si atom -12389.373226 kJ/mol
# Density = 2.081411 g / cm^3
# Si number density = 20.861595 Si / 1000 Ang^3
#
#
#
# Elastic Constant Matrix: (Units=GPa)
#
#
# Indices 1 2 3 4 5 6 
#
# 1 25.7128 16.7176 14.4417 0.0000 9.4503 0.0000
# 2 16.7176 149.1663 81.1555 0.0000 17.8722 0.0000
# 3 14.4417 81.1555 114.1516 0.0000 11.7302 0.0000
# 4 0.0000 0.0000 0.0000 17.3552 0.0000 -2.8199
# 5 9.4503 17.8722 11.7302 0.0000 19.1516 0.0000
# 6 0.0000 0.0000 0.0000 -2.8199 0.0000 18.9099
#
#
#
# Elastic Compliance Matrix: (Units=1/GPa)
#
#
# Indices 1 2 3 4 5 6 
#
# 1 0.049279 -0.001265 -0.003156 0.000000 -0.021203 0.000000
# 2 -0.001265 0.011606 -0.007515 0.000000 -0.005603 0.000000
# 3 -0.003156 -0.007515 0.014537 0.000000 -0.000333 0.000000
# 4 0.000000 0.000000 0.000000 0.059050 0.000000 0.008806
# 5 -0.021203 -0.005603 -0.000333 0.000000 0.068110 0.000000
# 6 0.000000 0.000000 0.000000 0.008806 0.000000 0.054196
#
#
# Mechanical properties :
#
#
# Convention : Reuss Voigt Hill
#
# Bulk Modulus (GPa) = 19.39929 57.07336 38.23632
# Shear Modulus (GPa) = 16.78788 22.86439 19.82614
#
# Velocity S-wave (km/s) = 2.83985 3.31419 3.08614
# Velocity P-wave (km/s) = 4.48020 6.48557 5.57381
#
# Compressibility (1/GPa) = 0.05154828
#
# Stress axis : x y z
#
# Youngs Moduli (GPa) = 20.29254 86.16371 68.79138
#
# Poissons Ratio (x) = 0.10904 0.21711
# Poissons Ratio (y) = 0.02568 0.51698
# Poissons Ratio (z) = 0.06404 0.64754
#
# Static dielectric constant tensor:
#      x y z
#    x 3.558940 0.000000 -0.032070 
#    y 0.000000 3.946530 0.000000 
#    z -0.032070 0.000000 3.911580 
# 
# 
# High freq. dielectric constant tensor:
#      x y z
#    x 1.798400 0.000000 -0.002270 
#    y 0.000000 1.802520 0.000000 
#    z -0.002270 0.000000 1.816950 
# 
# From -- ./inp_files/71485.got.cif
#   From: 2010.06.25/outbox.cif.g09.slc.cpg/sg13_36_cif.got.tgz:71485.got - 2010.06.28 04:50:58.
