data_PCOD8117799
_publ_section_title
;
Structure prediction by ZEFSAII (Michael W. Deem and Ramdas Pophale) SiO2 
 PCOD8117799
Probable space group: P 2/C
;
_chemical_formula_sum "Si O2"
_cell_formula_units_Z 20
_cell_length_a 4.891814
_cell_length_b 12.068138
_cell_length_c 17.101611
_cell_angle_alpha 90.000000
_cell_angle_beta 104.626615
_cell_angle_gamma 90.000000
_cell_volume 976.876101
_symmetry_space_group_name_H-M "P 2/C"
_symmetry_group_IT_number 13
_symmetry_cell_setting 'monoclinic'
loop_
_space_group_symop_operation_xyz
x,y,z
-x,y,1/2-z
-x,-y,-z
x,-y,1/2+z
loop_
_atom_site_type_symbol
_atom_site_label
_atom_site_fract_x
_atom_site_fract_y
_atom_site_fract_z
Si Si1 0.190471 0.893640 0.194286
Si Si2 0.156358 0.753402 0.040781
Si Si3 0.571180 0.254523 0.168742
Si Si4 0.599097 0.622560 0.988463
Si Si5 0.966573 0.124666 0.380340
O O1 0.500000 0.924128 0.250000
O O2 0.197022 0.797921 0.130489
O O3 0.000000 0.845986 0.250000
O O4 0.021660 0.998071 0.145664
O O5 0.458809 0.705407 0.039894
O O6 0.932083 0.651358 0.018301
O O7 0.094097 0.854395 0.975937
O O8 0.500000 0.299511 0.250000
O O9 0.362222 0.152983 0.136875
O O10 0.881645 0.203591 0.173819
O O11 0.512096 0.357002 0.107347
O O12 0.500000 0.500000 0.000000
#
# Coordination Sequence:
#
# PCOD8117799 Si02
#       5
#     4   4   4   4   4
#     4  12  23  36  56  85 119 154 183 220 274 339
#     4  10  22  39  58  82 113 147 190 233 276 337
#     4  10  19  33  55  85 111 138 185 239 277 318
#     4  10  21  39  61  81 108 150 190 233 286 333
#     4  10  20  35  57  81 113 149 182 223 276 331
#
# _framework density 20.473426
#
# number of rings (size 3 to 8) (size 9 to 14) (size 15 to 20)
#    0.000    1.600    0.000    6.000    0.000    0.000 
#    0.000   11.000    0.000    2.400    0.000    0.000 
#    0.000    0.000    0.000    0.000    0.000    0.000 
#
# Total GULP energy -247916.576874 kJ/mol
# GULP energy per Si atom -12395.828844 kJ/mol
# Density = 2.042683 g / cm^3
# Si number density = 20.473426 Si / 1000 Ang^3
#
#
#
# Elastic Constant Matrix: (Units=GPa)
#
#
# Indices 1 2 3 4 5 6 
#
# 1 77.7763 0.5142 22.6335 0.0000 -12.1110 0.0000
# 2 0.5142 67.3409 50.2992 0.0000 -4.7604 0.0000
# 3 22.6335 50.2992 133.2572 0.0000 -27.2858 0.0000
# 4 0.0000 0.0000 0.0000 24.1760 0.0000 -5.3658
# 5 -12.1110 -4.7604 -27.2858 0.0000 34.6176 0.0000
# 6 0.0000 0.0000 0.0000 -5.3658 0.0000 18.7018
#
#
#
# Elastic Compliance Matrix: (Units=1/GPa)
#
#
# Indices 1 2 3 4 5 6 
#
# 1 0.014068 0.001964 -0.002465 0.000000 0.003248 0.000000
# 2 0.001964 0.021417 -0.009151 0.000000 -0.003580 0.000000
# 3 -0.002465 -0.009151 0.013049 0.000000 0.008164 0.000000
# 4 0.000000 0.000000 0.000000 0.044176 0.000000 0.012675
# 5 0.003248 -0.003580 0.008164 0.000000 0.035966 0.000000
# 6 0.000000 0.000000 0.000000 0.012675 0.000000 0.057107
#
#
# Mechanical properties :
#
#
# Convention : Reuss Voigt Hill
#
# Bulk Modulus (GPa) = 34.21330 47.25206 40.73268
# Shear Modulus (GPa) = 23.27418 29.16091 26.21754
#
# Velocity S-wave (km/s) = 3.37530 3.77812 3.58238
# Velocity P-wave (km/s) = 5.65133 6.49323 6.08686
#
# Compressibility (1/GPa) = 0.02922840
#
# Stress axis : x y z
#
# Youngs Moduli (GPa) = 71.08487 46.69282 76.63594
#
# Poissons Ratio (x) = -0.09169 0.18894
# Poissons Ratio (y) = -0.13959 0.70126
# Poissons Ratio (z) = 0.17526 0.42727
#
# Static dielectric constant tensor:
#      x y z
#    x 3.934810 0.000000 -0.156500 
#    y 0.000000 3.290360 0.000000 
#    z -0.156500 0.000000 3.906540 
# 
# 
# High freq. dielectric constant tensor:
#      x y z
#    x 1.821150 0.000000 -0.015160 
#    y 0.000000 1.762690 0.000000 
#    z -0.015160 0.000000 1.807320 
# 
# From -- ./inp_files/43440.got.cif
#   From: 2010.06.25/outbox.cif.g09.slc.cpg/sg13_22_cif.got.tgz:43440.got - 2010.06.28 04:50:58.
