data_PCOD8117346
_publ_section_title
;
Structure prediction by ZEFSAII (Michael W. Deem and Ramdas Pophale) SiO2 
 PCOD8117346
Probable space group: P 2/C
;
_chemical_formula_sum "Si O2"
_cell_formula_units_Z 28
_cell_length_a 15.547670
_cell_length_b 8.622089
_cell_length_c 15.678896
_cell_angle_alpha 90.000000
_cell_angle_beta 135.392183
_cell_angle_gamma 90.000000
_cell_volume 1475.995931
_symmetry_space_group_name_H-M "P 2/C"
_symmetry_group_IT_number 13
_symmetry_cell_setting 'monoclinic'
loop_
_space_group_symop_operation_xyz
x,y,z
-x,y,1/2-z
-x,-y,-z
x,-y,1/2+z
loop_
_atom_site_type_symbol
_atom_site_label
_atom_site_fract_x
_atom_site_fract_y
_atom_site_fract_z
Si Si1 0.000000 0.586096 0.250000
Si Si2 0.156522 0.153339 0.289045
Si Si3 0.394634 0.389908 0.028090
Si Si4 0.100249 0.305215 0.416004
Si Si5 0.800777 0.794592 0.187943
Si Si6 0.500000 0.428022 0.750000
Si Si7 0.660281 0.626166 0.656205
Si Si8 0.722333 0.652879 0.304905
O O1 0.085471 0.479584 0.370081
O O2 0.079945 0.689189 0.242162
O O3 0.176971 0.206565 0.401140
O O4 0.265674 0.216446 0.307086
O O5 0.030403 0.222428 0.162928
O O6 0.155247 0.969526 0.286307
O O7 0.407616 0.461860 0.131300
O O8 0.524447 0.325688 0.087412
O O9 0.299095 0.246462 0.956487
O O10 0.341819 0.524667 0.930735
O O11 0.169485 0.309660 0.553883
O O12 0.738505 0.766266 0.235996
O O13 0.413215 0.321377 0.748825
O O14 0.726831 0.525990 0.777109
#
# Coordination Sequence:
#
# PCOD8117346 Si02
#       8
#     2   4   4   4   4   2   4   4
#     4  10  20  36  58  78 106 146 192 230 272 328
#     4  10  21  36  53  78 117 150 179 225 288 340
#     4   9  18  34  56  78 103 141 188 228 272 325
#     4  10  20  36  57  80 107 148 193 237 275 322
#     4  11  22  36  55  83 115 150 182 225 286 345
#     4  10  18  34  60  86 110 140 192 248 276 314
#     4   9  18  34  55  78 103 138 184 231 273 329
#     4  10  20  35  59  84 107 142 192 236 276 325
#
# _framework density 18.970241999999999
#
# number of rings (size 3 to 8) (size 9 to 14) (size 15 to 20)
#    0.000    2.286    0.000    6.857    0.000    3.429 
#    0.000    4.286    0.000    1.714    0.000    0.000 
#    0.000    0.000    0.000    0.000    0.000    0.000 
#
# Total GULP energy -347154.336295 kJ/mol
# GULP energy per Si atom -12398.369153 kJ/mol
# Density = 1.892707 g / cm^3
# Si number density = 18.970242 Si / 1000 Ang^3
#
#
#
# Elastic Constant Matrix: (Units=GPa)
#
#
# Indices 1 2 3 4 5 6 
#
# 1 111.6456 49.3151 23.1365 0.0000 -0.6098 0.0000
# 2 49.3151 116.5299 28.0675 0.0000 3.7392 0.0000
# 3 23.1365 28.0675 113.8246 0.0000 -9.5721 0.0000
# 4 0.0000 0.0000 0.0000 12.4050 0.0000 1.7466
# 5 -0.6098 3.7392 -9.5721 0.0000 23.2603 0.0000
# 6 0.0000 0.0000 0.0000 1.7466 0.0000 23.5636
#
#
#
# Elastic Compliance Matrix: (Units=1/GPa)
#
#
# Indices 1 2 3 4 5 6 
#
# 1 0.011168 -0.004474 -0.001121 0.000000 0.000551 0.000000
# 2 -0.004474 0.011056 -0.002047 0.000000 -0.002737 0.000000
# 3 -0.001121 -0.002047 0.009885 0.000000 0.004368 0.000000
# 4 0.000000 0.000000 0.000000 0.081463 0.000000 -0.006038
# 5 0.000551 -0.002737 0.004368 0.000000 0.045244 0.000000
# 6 0.000000 0.000000 0.000000 -0.006038 0.000000 0.042886
#
#
# Mechanical properties :
#
#
# Convention : Reuss Voigt Hill
#
# Bulk Modulus (GPa) = 59.43136 60.33762 59.88449
# Shear Modulus (GPa) = 22.46240 27.94450 25.20345
#
# Velocity S-wave (km/s) = 3.44479 3.84222 3.64892
# Velocity P-wave (km/s) = 6.87160 7.18047 7.02773
#
# Compressibility (1/GPa) = 0.01682613
#
# Stress axis : x y z
#
# Youngs Moduli (GPa) = 89.53785 90.45013 101.16082
#
# Poissons Ratio (x) = 0.40470 0.11335
# Poissons Ratio (y) = 0.40061 0.20707
# Poissons Ratio (z) = 0.10033 0.18514
#
# Static dielectric constant tensor:
#      x y z
#    x 3.633480 0.000000 0.015520 
#    y 0.000000 3.196610 0.000000 
#    z 0.015520 0.000000 3.472570 
# 
# 
# High freq. dielectric constant tensor:
#      x y z
#    x 1.752070 0.000000 0.006890 
#    y 0.000000 1.705630 0.000000 
#    z 0.006890 0.000000 1.732570 
# 
# From -- ./inp_files/53162.got.cif
#   From: 2010.06.25/outbox.cif.g09.slc.cpg/sg13_27_cif.got.tgz:53162.got - 2010.06.28 04:50:58.
