data_PCOD8117575
_publ_section_title
;
Structure prediction by ZEFSAII (Michael W. Deem and Ramdas Pophale) SiO2 
 PCOD8117575
Probable space group: P 2/C
;
_chemical_formula_sum "Si O2"
_cell_formula_units_Z 32
_cell_length_a 24.657646
_cell_length_b 8.883341
_cell_length_c 14.837688
_cell_angle_alpha 90.000000
_cell_angle_beta 25.854289
_cell_angle_gamma 90.000000
_cell_volume 1417.308232
_symmetry_space_group_name_H-M "P 2/C"
_symmetry_group_IT_number 13
_symmetry_cell_setting 'monoclinic'
loop_
_space_group_symop_operation_xyz
x,y,z
-x,y,1/2-z
-x,-y,-z
x,-y,1/2+z
loop_
_atom_site_type_symbol
_atom_site_label
_atom_site_fract_x
_atom_site_fract_y
_atom_site_fract_z
Si Si1 0.783311 0.801485 0.368291
Si Si2 0.525698 0.814290 0.316475
Si Si3 0.256283 0.828714 0.771810
Si Si4 0.727408 0.815004 0.254265
Si Si5 0.122586 0.638882 0.120924
Si Si6 0.217465 0.314696 0.012032
Si Si7 0.465304 0.145123 0.199318
Si Si8 0.121613 0.106428 0.300707
O O1 0.788038 0.750793 0.256646
O O2 0.899255 0.732851 0.252041
O O3 0.659012 0.751829 0.610588
O O4 0.774312 0.983709 0.381933
O O5 0.500000 0.810715 0.250000
O O6 0.395460 0.761926 0.555965
O O7 0.640666 0.705769 0.167472
O O8 0.558293 0.979770 0.307656
O O9 0.168185 0.796937 0.816867
O O10 0.255366 0.007905 0.784125
O O11 0.202814 0.747492 0.938439
O O12 0.798807 0.734946 0.067000
O O13 0.579335 0.774343 0.476470
O O14 0.000000 0.595429 0.250000
O O15 0.190260 0.490451 0.054378
O O16 0.116455 0.223724 0.224841
O O17 0.500000 0.112641 0.250000
O O18 0.000000 0.000000 0.500000
#
# Coordination Sequence:
#
# PCOD8117575 Si02
#       8
#     4   4   4   4   4   4   4   4
#     4  10  20  43  67  96 131 174 223 276 340 404
#     4  10  18  39  69 100 137 168 223 288 350 408
#     4  10  22  41  69 102 132 176 224 287 353 404
#     4   9  21  38  70 106 131 161 220 284 344 409
#     4  12  29  46  61  91 142 188 230 277 341 417
#     4  12  25  42  66 101 137 184 226 283 345 412
#     4   8  15  33  65 101 132 159 204 280 342 396
#     4  11  22  42  74 101 125 174 239 287 330 397
#
# _framework density 22.578012000000001
#
# number of rings (size 3 to 8) (size 9 to 14) (size 15 to 20)
#    0.000    1.750    2.500    3.000    1.750    4.500 
#    0.000    3.125    0.000    0.000    0.000    0.000 
#    0.000    0.000    0.000    0.000    0.000    0.000 
#
# Total GULP energy -396432.313170 kJ/mol
# GULP energy per Si atom -12388.509787 kJ/mol
# Density = 2.252662 g / cm^3
# Si number density = 22.578012 Si / 1000 Ang^3
#
#
#
# Elastic Constant Matrix: (Units=GPa)
#
#
# Indices 1 2 3 4 5 6 
#
# 1 144.5874 50.8626 36.5546 0.0000 6.2425 0.0000
# 2 50.8626 72.0831 19.3110 0.0000 7.9942 0.0000
# 3 36.5546 19.3110 93.7427 0.0000 1.5195 0.0000
# 4 0.0000 0.0000 0.0000 3.0468 0.0000 0.3919
# 5 6.2425 7.9942 1.5195 0.0000 38.5877 0.0000
# 6 0.0000 0.0000 0.0000 0.3919 0.0000 6.0147
#
#
#
# Elastic Compliance Matrix: (Units=1/GPa)
#
#
# Indices 1 2 3 4 5 6 
#
# 1 0.009733 -0.006170 -0.002521 0.000000 -0.000197 0.000000
# 2 -0.006170 0.018932 -0.001448 0.000000 -0.002867 0.000000
# 3 -0.002521 -0.001448 0.011945 0.000000 0.000237 0.000000
# 4 0.000000 0.000000 0.000000 0.330990 0.000000 -0.021565
# 5 -0.000197 -0.002867 0.000237 0.000000 0.026531 0.000000
# 6 0.000000 0.000000 0.000000 -0.021565 0.000000 0.167664
#
#
# Mechanical properties :
#
#
# Convention : Reuss Voigt Hill
#
# Bulk Modulus (GPa) = 49.18241 58.20773 53.69507
# Shear Modulus (GPa) = 8.43385 23.10885 15.77135
#
# Velocity S-wave (km/s) = 1.93482 3.20271 2.64583
# Velocity P-wave (km/s) = 5.17899 6.28595 5.75913
#
# Compressibility (1/GPa) = 0.02033247
#
# Stress axis : x y z
#
# Youngs Moduli (GPa) = 102.74717 52.81945 83.71798
#
# Poissons Ratio (x) = 0.32591 0.21105
# Poissons Ratio (y) = 0.63398 0.12119
# Poissons Ratio (z) = 0.25902 0.07646
#
# Static dielectric constant tensor:
#      x y z
#    x 4.302430 0.000000 -0.081630 
#    y 0.000000 3.597430 0.000000 
#    z -0.081630 0.000000 4.515100 
# 
# 
# High freq. dielectric constant tensor:
#      x y z
#    x 1.905580 0.000000 0.004260 
#    y 0.000000 1.843000 0.000000 
#    z 0.004260 0.000000 1.896950 
# 
# From -- ./inp_files/58783.got.cif
#   From: 2010.06.25/outbox.cif.g09.slc.cpg/sg13_30_cif.got.tgz:58783.got - 2010.06.28 04:50:58.
