data_PCOD8117676
_publ_section_title
;
Structure prediction by ZEFSAII (Michael W. Deem and Ramdas Pophale) SiO2 
 PCOD8117676
Probable space group: P 2/C
;
_chemical_formula_sum "Si O2"
_cell_formula_units_Z 32
_cell_length_a 24.112948
_cell_length_b 8.825211
_cell_length_c 18.683903
_cell_angle_alpha 90.000000
_cell_angle_beta 156.286314
_cell_angle_gamma 90.000000
_cell_volume 1599.001559
_symmetry_space_group_name_H-M "P 2/C"
_symmetry_group_IT_number 13
_symmetry_cell_setting 'monoclinic'
loop_
_space_group_symop_operation_xyz
x,y,z
-x,y,1/2-z
-x,-y,-z
x,-y,1/2+z
loop_
_atom_site_type_symbol
_atom_site_label
_atom_site_fract_x
_atom_site_fract_y
_atom_site_fract_z
Si Si1 0.608075 0.056392 0.187396
Si Si2 0.821672 0.583139 0.224753
Si Si3 0.560760 0.901147 0.397628
Si Si4 0.082550 0.423095 0.498656
Si Si5 0.838056 0.924861 0.237575
Si Si6 0.664709 0.590272 0.744300
Si Si7 0.884174 0.918127 0.460254
Si Si8 0.430838 0.423033 0.526879
O O1 0.636972 0.233572 0.220201
O O2 0.541889 0.020230 0.186147
O O3 0.756019 0.978131 0.354479
O O4 0.500000 0.000000 0.000000
O O5 0.874599 0.579974 0.368165
O O6 0.814921 0.752523 0.185347
O O7 0.927679 0.482797 0.304061
O O8 0.670992 0.508232 0.038479
O O9 0.500000 0.851772 0.250000
O O10 0.568839 0.754806 0.457859
O O11 0.711298 0.971378 0.563382
O O12 0.176569 0.537234 0.562500
O O13 0.090084 0.250876 0.480391
O O14 0.845007 0.930585 0.331157
O O15 0.977129 0.984511 0.363915
O O16 0.582764 0.497271 0.709175
O O17 0.621001 0.540562 0.613659
#
# Coordination Sequence:
#
# PCOD8117676 Si02
#       8
#     4   4   4   4   4   4   4   4
#     4  12  21  36  60  89 116 154 199 250 294 345
#     4   9  17  29  50  77 115 150 186 234 292 349
#     4  12  25  40  57  85 125 163 198 242 305 371
#     4   9  17  28  47  84 119 145 178 240 303 343
#     4  10  19  35  57  88 119 156 195 247 300 351
#     4  10  19  31  56  83 113 141 193 249 289 337
#     4  10  19  32  60  89 119 149 197 250 300 347
#     4  10  19  33  53  80 112 152 189 241 291 340
#
# _framework density 20.012488000000001
#
# number of rings (size 3 to 8) (size 9 to 14) (size 15 to 20)
#    0.000    1.750    2.500    3.000    3.500    4.000 
#    0.000    3.125    0.000    0.000    0.000    1.750 
#    0.000    0.000    0.000    0.000    0.000    0.000 
#
# Total GULP energy -396727.308886 kJ/mol
# GULP energy per Si atom -12397.728403 kJ/mol
# Density = 1.996694 g / cm^3
# Si number density = 20.012488 Si / 1000 Ang^3
#
#
#
# Elastic Constant Matrix: (Units=GPa)
#
#
# Indices 1 2 3 4 5 6 
#
# 1 54.6189 24.8299 47.2795 0.0000 33.0493 0.0000
# 2 24.8299 155.5919 47.2083 0.0000 34.3031 0.0000
# 3 47.2795 47.2083 89.8297 0.0000 44.6503 0.0000
# 4 0.0000 0.0000 0.0000 29.4974 0.0000 21.9087
# 5 33.0493 34.3031 44.6503 0.0000 41.5916 0.0000
# 6 0.0000 0.0000 0.0000 21.9087 0.0000 24.9944
#
#
#
# Elastic Compliance Matrix: (Units=1/GPa)
#
#
# Indices 1 2 3 4 5 6 
#
# 1 0.040315 0.001730 -0.011783 0.000000 -0.020812 0.000000
# 2 0.001730 0.008092 -0.002492 0.000000 -0.005373 0.000000
# 3 -0.011783 -0.002492 0.027805 0.000000 -0.018431 0.000000
# 4 0.000000 0.000000 0.000000 0.097149 0.000000 -0.085156
# 5 -0.020812 -0.005373 -0.018431 0.000000 0.064799 0.000000
# 6 0.000000 0.000000 0.000000 -0.085156 0.000000 0.114652
#
#
# Mechanical properties :
#
#
# Convention : Reuss Voigt Hill
#
# Bulk Modulus (GPa) = 19.56162 59.85287 39.70725
# Shear Modulus (GPa) = 12.66005 31.26486 21.96246
#
# Velocity S-wave (km/s) = 2.51790 3.95684 3.31635
# Velocity P-wave (km/s) = 4.27188 7.13079 5.87780
#
# Compressibility (1/GPa) = 0.05112052
#
# Stress axis : x y z
#
# Youngs Moduli (GPa) = 24.80449 123.58281 35.96462
#
# Poissons Ratio (x) = -0.21379 0.42378
# Poissons Ratio (y) = -0.04291 0.08964
# Poissons Ratio (z) = 0.29228 0.30803
#
# Static dielectric constant tensor:
#      x y z
#    x 3.508960 0.000000 0.565900 
#    y 0.000000 3.751820 0.000000 
#    z 0.565900 0.000000 3.557250 
# 
# 
# High freq. dielectric constant tensor:
#      x y z
#    x 1.747910 0.000000 0.053420 
#    y 0.000000 1.797560 0.000000 
#    z 0.053420 0.000000 1.760450 
# 
# From -- ./inp_files/82525.got.cif
#   From: 2010.06.25/outbox.cif.g09.slc.cpg/sg13_42_cif.got.tgz:82525.got - 2010.06.28 04:50:58.
