data_PCOD8117621
_publ_section_title
;
Structure prediction by ZEFSAII (Michael W. Deem and Ramdas Pophale) SiO2 
 PCOD8117621
Probable space group: P 2/C
;
_chemical_formula_sum "Si O2"
_cell_formula_units_Z 26
_cell_length_a 17.326335
_cell_length_b 5.189300
_cell_length_c 21.647921
_cell_angle_alpha 90.000000
_cell_angle_beta 51.347155
_cell_angle_gamma 90.000000
_cell_volume 1520.029355
_symmetry_space_group_name_H-M "P 2/C"
_symmetry_group_IT_number 13
_symmetry_cell_setting 'monoclinic'
loop_
_space_group_symop_operation_xyz
x,y,z
-x,y,1/2-z
-x,-y,-z
x,-y,1/2+z
loop_
_atom_site_type_symbol
_atom_site_label
_atom_site_fract_x
_atom_site_fract_y
_atom_site_fract_z
Si Si1 0.272254 0.251905 0.790564
Si Si2 0.389199 0.247301 0.232072
Si Si3 0.058958 0.759835 0.338571
Si Si4 0.727659 0.251910 0.562798
Si Si5 0.059061 0.239903 0.102453
Si Si6 0.610714 0.752706 0.621284
Si Si7 0.000000 0.000123 0.750000
O O1 0.334965 0.495908 0.736121
O O2 0.166250 0.266188 0.812864
O O3 0.259089 0.251233 0.870490
O O4 0.328672 0.998872 0.738367
O O5 0.394941 0.242844 0.302544
O O6 0.499941 0.240338 0.149067
O O7 0.999990 0.499797 0.381783
O O8 0.067421 0.817440 0.260451
O O9 0.999896 0.999808 0.399722
O O10 0.833618 0.266185 0.479070
O O11 0.664932 0.495931 0.571090
O O12 0.671204 0.998892 0.567053
O O13 0.067462 0.182317 0.172145
#
# Coordination Sequence:
#
# PCOD8117621 Si02
#       7
#     4   4   4   4   4   4   2
#     4  10  19  30  48  76 103 131 161 192 244 292
#     4   9  17  30  47  70 103 135 163 193 229 287
#     4  10  20  34  51  71  99 126 167 203 240 288
#     4  10  19  30  48  76 103 131 161 192 244 292
#     4  10  20  34  51  71  99 126 167 203 240 288
#     4   9  17  30  47  70 103 135 163 193 229 287
#     4   8  22  36  52  68  92 128 174 206 238 284
#
# _framework density 17.104932999999999
#
# number of rings (size 3 to 8) (size 9 to 14) (size 15 to 20)
#    0.923    1.538    0.000    3.231    0.000    4.923 
#    0.000    0.000    0.000    0.000    0.000    6.462 
#    0.000    0.000    0.000    0.000    0.000    0.000 
#
# Total GULP energy -322252.684928 kJ/mol
# GULP energy per Si atom -12394.334036 kJ/mol
# Density = 1.706600 g / cm^3
# Si number density = 17.104933 Si / 1000 Ang^3
#
#
#
# Elastic Constant Matrix: (Units=GPa)
#
#
# Indices 1 2 3 4 5 6 
#
# 1 59.4851 57.6631 82.8851 0.0000 -36.1022 0.0000
# 2 57.6631 176.2269 58.1208 0.0000 -32.5322 0.0000
# 3 82.8851 58.1208 60.5581 0.0000 -36.5202 0.0000
# 4 0.0000 0.0000 0.0000 20.3603 0.0000 -15.8001
# 5 -36.1022 -32.5322 -36.5202 0.0000 32.9171 0.0000
# 6 0.0000 0.0000 0.0000 -15.8001 0.0000 20.2706
#
#
#
# Elastic Compliance Matrix: (Units=1/GPa)
#
#
# Indices 1 2 3 4 5 6 
#
# 1 -0.013003 -0.002722 0.030783 0.000000 0.017201 0.000000
# 2 -0.002722 0.007773 -0.002725 0.000000 0.001673 0.000000
# 3 0.030783 -0.002725 -0.012896 0.000000 0.016761 0.000000
# 4 0.000000 0.000000 0.000000 0.124304 0.000000 0.096890
# 5 0.017201 0.001673 0.016761 0.000000 0.069493 0.000000
# 6 0.000000 0.000000 0.000000 0.096890 0.000000 0.124854
#
#
# Mechanical properties :
#
#
# Convention : Reuss Voigt Hill
#
# Bulk Modulus (GPa) = 30.72717 77.06758 53.89738
# Shear Modulus (GPa) = 19.17899 21.21635 20.19767
#
# Velocity S-wave (km/s) = 3.35215 3.52570 3.44002
# Velocity P-wave (km/s) = 5.74330 7.85670 6.88161
#
# Compressibility (1/GPa) = 0.03254449
#
# Stress axis : x y z
#
# Youngs Moduli (GPa) = -76.90457 128.65266 -77.54329
#
# Poissons Ratio (x) = 0.35024 2.38701
# Poissons Ratio (y) = -0.20937 -0.21132
# Poissons Ratio (z) = 2.36735 0.35060
#
# Static dielectric constant tensor:
#      x y z
#    x 2.980610 0.000000 -0.250230 
#    y 0.000000 3.655040 0.000000 
#    z -0.250230 0.000000 2.982680 
# 
# 
# High freq. dielectric constant tensor:
#      x y z
#    x 1.633600 0.000000 -0.031820 
#    y 0.000000 1.684810 0.000000 
#    z -0.031820 0.000000 1.633830 
# 
# From -- ./inp_files/86839.got.cif
#   From: 2010.06.25/outbox.cif.g09.slc.cpg/sg13_44_cif.got.tgz:86839.got - 2010.06.28 04:50:58.
