data_PCOD8117860
_publ_section_title
;
Structure prediction by ZEFSAII (Michael W. Deem and Ramdas Pophale) SiO2 
 PCOD8117860
Probable space group: P 2/C
;
_chemical_formula_sum "Si O2"
_cell_formula_units_Z 30
_cell_length_a 11.217569
_cell_length_b 11.314645
_cell_length_c 11.960291
_cell_angle_alpha 90.000000
_cell_angle_beta 74.836385
_cell_angle_gamma 90.000000
_cell_volume 1465.180069
_symmetry_space_group_name_H-M "P 2/C"
_symmetry_group_IT_number 13
_symmetry_cell_setting 'monoclinic'
loop_
_space_group_symop_operation_xyz
x,y,z
-x,y,1/2-z
-x,-y,-z
x,-y,1/2+z
loop_
_atom_site_type_symbol
_atom_site_label
_atom_site_fract_x
_atom_site_fract_y
_atom_site_fract_z
Si Si1 0.524498 0.154912 0.368286
Si Si2 0.699525 0.632186 0.792112
Si Si3 0.877865 0.337415 0.051026
Si Si4 0.500000 0.792609 0.250000
Si Si5 0.364784 0.075603 0.593278
Si Si6 0.870161 0.207893 0.838792
Si Si7 0.861451 0.416003 0.462500
Si Si8 0.723669 0.371149 0.717410
O O1 0.500000 0.108079 0.250000
O O2 0.578051 0.288920 0.348127
O O3 0.396091 0.144092 0.468891
O O4 0.618884 0.066225 0.409992
O O5 0.770541 0.687106 0.667789
O O6 0.780744 0.637063 0.883370
O O7 0.665723 0.497290 0.768839
O O8 0.000101 0.368855 0.091765
O O9 0.892255 0.224729 0.966319
O O10 0.851623 0.442497 0.968632
O O11 0.533830 0.873223 0.346266
O O12 0.384372 0.709337 0.304975
O O13 0.221709 0.097184 0.657637
O O14 0.798814 0.319688 0.803628
O O15 0.000000 0.178843 0.750000
O O16 0.822080 0.375222 0.594826
#
# Coordination Sequence:
#
# PCOD8117860 Si02
#       8
#     4   4   4   2   4   4   4   4
#     4  11  23  43  64  86 120 159 205 256 305 357
#     4  11  22  35  57  90 122 156 198 253 302 358
#     4  10  20  33  57  85 121 161 196 236 299 365
#     4  10  20  40  58  84 116 152 206 242 294 364
#     4  10  23  42  67  87 112 166 210 248 302 363
#     4  11  20  39  62  89 119 152 205 251 295 358
#     4  10  19  34  53  82 122 160 196 227 295 375
#     4  10  21  34  57  86 119 156 192 245 302 360
#
# _framework density 20.475299
#
# number of rings (size 3 to 8) (size 9 to 14) (size 15 to 20)
#    0.000    1.600    3.333    2.000    0.933    0.000 
#    0.000    3.333    0.000    2.400    0.000    0.000 
#    0.000    0.000    0.000    0.000    0.000    0.000 
#
# Total GULP energy -371837.248702 kJ/mol
# GULP energy per Si atom -12394.574957 kJ/mol
# Density = 2.042870 g / cm^3
# Si number density = 20.475299 Si / 1000 Ang^3
#
#
#
# Elastic Constant Matrix: (Units=GPa)
#
#
# Indices 1 2 3 4 5 6 
#
# 1 79.1240 21.1413 25.0013 0.0000 -9.6042 0.0000
# 2 21.1413 69.0499 16.0882 0.0000 -12.6210 0.0000
# 3 25.0013 16.0882 64.1093 0.0000 9.2382 0.0000
# 4 0.0000 0.0000 0.0000 25.0102 0.0000 -2.8310
# 5 -9.6042 -12.6210 9.2382 0.0000 33.6749 0.0000
# 6 0.0000 0.0000 0.0000 -2.8310 0.0000 15.8719
#
#
#
# Elastic Compliance Matrix: (Units=1/GPa)
#
#
# Indices 1 2 3 4 5 6 
#
# 1 0.015960 -0.002408 -0.006398 0.000000 0.005405 0.000000
# 2 -0.002408 0.017571 -0.004498 0.000000 0.007133 0.000000
# 3 -0.006398 -0.004498 0.020540 0.000000 -0.009146 0.000000
# 4 0.000000 0.000000 0.000000 0.040808 0.000000 0.007279
# 5 0.005405 0.007133 -0.009146 0.000000 0.036420 0.000000
# 6 0.000000 0.000000 0.000000 0.007279 0.000000 0.064303
#
#
# Mechanical properties :
#
#
# Convention : Reuss Voigt Hill
#
# Bulk Modulus (GPa) = 36.41390 37.41609 36.91499
# Shear Modulus (GPa) = 21.61093 24.91487 23.26290
#
# Velocity S-wave (km/s) = 3.25231 3.49209 3.37433
# Velocity P-wave (km/s) = 5.65034 5.87988 5.76625
#
# Compressibility (1/GPa) = 0.02746204
#
# Stress axis : x y z
#
# Youngs Moduli (GPa) = 62.65852 56.91085 48.68447
#
# Poissons Ratio (x) = 0.13703 0.31151
# Poissons Ratio (y) = 0.15086 0.21900
# Poissons Ratio (z) = 0.40092 0.25601
#
# Static dielectric constant tensor:
#      x y z
#    x 3.559590 0.000000 -0.011580 
#    y 0.000000 3.516340 0.000000 
#    z -0.011580 0.000000 3.739990 
# 
# 
# High freq. dielectric constant tensor:
#      x y z
#    x 1.793350 0.000000 0.004490 
#    y 0.000000 1.778350 0.000000 
#    z 0.004490 0.000000 1.812650 
# 
# From -- ./inp_files/33789.got.cif
#   From: 2010.06.25/outbox.cif.g09.slc.cpg/sg13_17_cif.got.tgz:33789.got - 2010.06.28 04:50:58.
