data_PCOD8117725
_publ_section_title
;
Structure prediction by ZEFSAII (Michael W. Deem and Ramdas Pophale) SiO2 
 PCOD8117725
Probable space group: P 2/C
;
_chemical_formula_sum "Si O2"
_cell_formula_units_Z 32
_cell_length_a 18.400083
_cell_length_b 13.425687
_cell_length_c 21.117487
_cell_angle_alpha 90.000000
_cell_angle_beta 160.673663
_cell_angle_gamma 90.000000
_cell_volume 1726.468062
_symmetry_space_group_name_H-M "P 2/C"
_symmetry_group_IT_number 13
_symmetry_cell_setting 'monoclinic'
loop_
_space_group_symop_operation_xyz
x,y,z
-x,y,1/2-z
-x,-y,-z
x,-y,1/2+z
loop_
_atom_site_type_symbol
_atom_site_label
_atom_site_fract_x
_atom_site_fract_y
_atom_site_fract_z
Si Si1 0.173652 0.374271 0.511929
Si Si2 0.616325 0.135957 0.108689
Si Si3 0.147375 0.496541 0.682716
Si Si4 0.516276 0.356027 0.001147
Si Si5 0.406974 0.966863 0.324055
Si Si6 0.746650 0.125131 0.023767
Si Si7 0.895611 0.150340 0.013932
Si Si8 0.610393 0.338414 0.934891
O O1 0.100939 0.270818 0.485850
O O2 0.404946 0.397079 0.736023
O O3 0.186926 0.365037 0.446013
O O4 0.006054 0.464819 0.386215
O O5 0.539084 0.249461 0.052593
O O6 0.851062 0.122937 0.267539
O O7 0.631470 0.083698 0.190691
O O8 0.437938 0.085352 0.917204
O O9 0.356132 0.569732 0.846920
O O10 0.000000 0.500000 0.500000
O O11 0.256857 0.387253 0.784004
O O12 0.635011 0.364170 0.029235
O O13 0.625448 0.965626 0.459293
O O14 0.197340 0.909045 0.122920
O O15 0.000000 0.141682 0.250000
O O16 0.742331 0.110735 0.944917
O O17 0.590109 0.218424 0.914750
#
# Coordination Sequence:
#
# PCOD8117725 Si02
#       8
#     4   4   4   4   4   4   4   4
#     4  10  19  33  56  83 117 140 181 235 289 345
#     4  11  22  36  54  83 118 151 189 232 274 342
#     4  11  23  36  54  83 111 149 187 231 285 345
#     4  11  21  37  57  81 114 151 187 228 286 340
#     4  11  22  34  52  85 117 153 190 225 279 344
#     4  11  19  32  54  84 118 145 183 233 284 342
#     4  11  19  35  56  81 117 153 181 235 295 337
#     4  10  19  32  54  87 112 144 174 228 297 342
#
# _framework density 18.534951
#
# number of rings (size 3 to 8) (size 9 to 14) (size 15 to 20)
#    0.000    1.250    6.250    0.750    1.750    0.000 
#    0.000    0.000    0.000    0.000    6.500    0.000 
#    0.000    0.000    0.000    0.000    0.000    0.000 
#
# Total GULP energy -396512.634422 kJ/mol
# GULP energy per Si atom -12391.019826 kJ/mol
# Density = 1.849276 g / cm^3
# Si number density = 18.534951 Si / 1000 Ang^3
#
#
#
# Elastic Constant Matrix: (Units=GPa)
#
#
# Indices 1 2 3 4 5 6 
#
# 1 80.5533 50.3768 20.9554 0.0000 2.0179 0.0000
# 2 50.3768 93.9903 39.0356 0.0000 4.8580 0.0000
# 3 20.9554 39.0356 85.6633 0.0000 -4.8047 0.0000
# 4 0.0000 0.0000 0.0000 23.6588 0.0000 -0.0724
# 5 2.0179 4.8580 -4.8047 0.0000 30.3516 0.0000
# 6 0.0000 0.0000 0.0000 -0.0724 0.0000 28.8680
#
#
#
# Elastic Compliance Matrix: (Units=1/GPa)
#
#
# Indices 1 2 3 4 5 6 
#
# 1 0.018677 -0.010041 0.000027 0.000000 0.000370 0.000000
# 2 -0.010041 0.018812 -0.006303 0.000000 -0.003341 0.000000
# 3 0.000027 -0.006303 0.014727 0.000000 0.003338 0.000000
# 4 0.000000 0.000000 0.000000 0.042268 0.000000 0.000106
# 5 0.000370 -0.003341 0.003338 0.000000 0.033986 0.000000
# 6 0.000000 0.000000 0.000000 0.000106 0.000000 0.034641
#
#
# Mechanical properties :
#
#
# Convention : Reuss Voigt Hill
#
# Bulk Modulus (GPa) = 51.06878 53.43803 52.25340
# Shear Modulus (GPa) = 24.71927 26.56496 25.64212
#
# Velocity S-wave (km/s) = 3.65589 3.78992 3.72351
# Velocity P-wave (km/s) = 6.74042 6.93144 6.83659
#
# Compressibility (1/GPa) = 0.01958144
#
# Stress axis : x y z
#
# Youngs Moduli (GPa) = 53.54095 53.15819 67.90477
#
# Poissons Ratio (x) = 0.53377 -0.00186
# Poissons Ratio (y) = 0.53761 0.42803
# Poissons Ratio (z) = -0.00147 0.33508
#
# Static dielectric constant tensor:
#      x y z
#    x 3.493480 0.000000 -0.004870 
#    y 0.000000 3.366030 0.000000 
#    z -0.004870 0.000000 3.562200 
# 
# 
# High freq. dielectric constant tensor:
#      x y z
#    x 1.702500 0.000000 -0.007180 
#    y 0.000000 1.680590 0.000000 
#    z -0.007180 0.000000 1.741530 
# 
# From -- ./inp_files/81147.got.cif
#   From: 2010.06.25/outbox.cif.g09.slc.cpg/sg13_41_cif.got.tgz:81147.got - 2010.06.28 04:50:58.
