data_PCOD8117328
_publ_section_title
;
Structure prediction by ZEFSAII (Michael W. Deem and Ramdas Pophale) SiO2 
 PCOD8117328
Probable space group: P 2/C
;
_chemical_formula_sum "Si O2"
_cell_formula_units_Z 18
_cell_length_a 20.578100
_cell_length_b 6.360487
_cell_length_c 13.763555
_cell_angle_alpha 90.000000
_cell_angle_beta 152.415883
_cell_angle_gamma 90.000000
_cell_volume 834.169841
_symmetry_space_group_name_H-M "P 2/C"
_symmetry_group_IT_number 13
_symmetry_cell_setting 'monoclinic'
loop_
_space_group_symop_operation_xyz
x,y,z
-x,y,1/2-z
-x,-y,-z
x,-y,1/2+z
loop_
_atom_site_type_symbol
_atom_site_label
_atom_site_fract_x
_atom_site_fract_y
_atom_site_fract_z
Si Si1 0.637284 0.756698 0.871840
Si Si2 0.000000 0.325076 0.750000
Si Si3 0.764174 0.012782 0.380899
Si Si4 0.204386 0.635393 0.934627
Si Si5 0.165754 0.984836 0.737088
O O1 0.500000 0.815196 0.750000
O O2 0.631735 0.876352 0.759830
O O3 0.653171 0.506035 0.877739
O O4 0.779018 0.843403 0.112331
O O5 0.074492 0.476139 0.770564
O O6 0.893227 0.175342 0.552278
O O7 0.797588 0.790587 0.475613
O O8 0.740406 0.976331 0.235057
O O9 0.196345 0.755351 0.821875
O O10 0.000000 0.000000 0.500000
#
# Coordination Sequence:
#
# PCOD8117328 Si02
#       5
#     4   2   4   4   4
#     4  10  24  42  59  85 122 163 203 243 295 357
#     4  10  18  34  58  88 124 156 190 240 302 360
#     4  10  21  37  59  88 121 156 198 247 297 352
#     4  10  21  37  59  85 122 158 193 244 303 355
#     4  11  22  38  64  95 120 151 199 252 301 354
#
# _framework density 21.578340000000001
#
# number of rings (size 3 to 8) (size 9 to 14) (size 15 to 20)
#    0.000    1.778    0.000    6.000    0.000   11.556 
#    0.000    2.222    0.000    0.000    0.000    0.000 
#    0.000    0.000    0.000    0.000    0.000    0.000 
#
# Total GULP energy -223107.750274 kJ/mol
# GULP energy per Si atom -12394.875015 kJ/mol
# Density = 2.152923 g / cm^3
# Si number density = 21.578340 Si / 1000 Ang^3
#
#
#
# Elastic Constant Matrix: (Units=GPa)
#
#
# Indices 1 2 3 4 5 6 
#
# 1 143.4882 39.9391 14.0463 0.0000 -1.6168 0.0000
# 2 39.9391 132.1130 16.9101 0.0000 0.5196 0.0000
# 3 14.0463 16.9101 29.6174 0.0000 6.4758 0.0000
# 4 0.0000 0.0000 0.0000 12.1897 0.0000 -1.5480
# 5 -1.6168 0.5196 6.4758 0.0000 37.1251 0.0000
# 6 0.0000 0.0000 0.0000 -1.5480 0.0000 25.6801
#
#
#
# Elastic Compliance Matrix: (Units=1/GPa)
#
#
# Indices 1 2 3 4 5 6 
#
# 1 0.007807 -0.002013 -0.002738 0.000000 0.000846 0.000000
# 2 -0.002013 0.008704 -0.004126 0.000000 0.000510 0.000000
# 3 -0.002738 -0.004126 0.038916 0.000000 -0.006850 0.000000
# 4 0.000000 0.000000 0.000000 0.082669 0.000000 0.004983
# 5 0.000846 0.000510 -0.006850 0.000000 0.028160 0.000000
# 6 0.000000 0.000000 0.000000 0.004983 0.000000 0.039241
#
#
# Mechanical properties :
#
#
# Convention : Reuss Voigt Hill
#
# Bulk Modulus (GPa) = 26.54488 49.66773 38.10631
# Shear Modulus (GPa) = 21.20346 30.62054 25.91200
#
# Velocity S-wave (km/s) = 3.13809 3.77110 3.46906
# Velocity P-wave (km/s) = 5.04564 6.48298 5.80894
#
# Compressibility (1/GPa) = 0.03767204
#
# Stress axis : x y z
#
# Youngs Moduli (GPa) = 128.08858 114.88971 25.69621
#
# Poissons Ratio (x) = 0.23127 0.07036
# Poissons Ratio (y) = 0.25784 0.10603
# Poissons Ratio (z) = 0.35073 0.47409
#
# Static dielectric constant tensor:
#      x y z
#    x 4.178140 0.000000 0.008280 
#    y 0.000000 4.144160 0.000000 
#    z 0.008280 0.000000 3.406270 
# 
# 
# High freq. dielectric constant tensor:
#      x y z
#    x 1.868720 0.000000 0.008220 
#    y 0.000000 1.864060 0.000000 
#    z 0.008220 0.000000 1.797460 
# 
# From -- ./inp_files/48603.got.cif
#   From: 2010.06.25/outbox.cif.g09.slc.cpg/sg13_25_cif.got.tgz:48603.got - 2010.06.28 04:50:58.
