data_PCOD8117033
_publ_section_title
;
Structure prediction by ZEFSAII (Michael W. Deem and Ramdas Pophale) SiO2 
 PCOD8117033
Probable space group: P 2/C
;
_chemical_formula_sum "Si O2"
_cell_formula_units_Z 32
_cell_length_a 18.585909
_cell_length_b 9.442999
_cell_length_c 19.166482
_cell_angle_alpha 90.000000
_cell_angle_beta 147.318980
_cell_angle_gamma 90.000000
_cell_volume 1816.347641
_symmetry_space_group_name_H-M "P 2/C"
_symmetry_group_IT_number 13
_symmetry_cell_setting 'monoclinic'
loop_
_space_group_symop_operation_xyz
x,y,z
-x,y,1/2-z
-x,-y,-z
x,-y,1/2+z
loop_
_atom_site_type_symbol
_atom_site_label
_atom_site_fract_x
_atom_site_fract_y
_atom_site_fract_z
Si Si1 0.152824 0.086032 0.053025
Si Si2 0.445220 0.831775 0.095366
Si Si3 0.409696 0.086623 0.978829
Si Si4 0.116218 0.662493 0.054644
Si Si5 0.710037 0.837897 0.396457
Si Si6 0.557713 0.657463 0.549342
Si Si7 0.854434 0.901514 0.317422
Si Si8 0.181709 0.639308 0.650017
O O1 0.199475 0.247686 0.101621
O O2 0.244771 0.003022 0.072569
O O3 0.167992 0.019420 0.142242
O O4 0.999966 0.079026 0.901983
O O5 0.590645 0.808693 0.245421
O O6 0.331835 0.796072 0.059727
O O7 0.431925 0.727210 0.018864
O O8 0.425407 0.999803 0.063388
O O9 0.254839 0.083007 0.831653
O O10 0.463758 0.247878 0.023922
O O11 0.500000 0.000000 0.000000
O O12 0.165990 0.740125 0.025170
O O13 0.160345 0.747368 0.159767
O O14 0.185755 0.510743 0.114771
O O15 0.956468 0.657032 0.920730
O O16 0.500000 0.500000 0.500000
O O17 0.704932 0.653286 0.700065
#
# Coordination Sequence:
#
# PCOD8117033 Si02
#       8
#     4   4   4   4   4   4   4   4
#     4   9  16  28  49  69  91 123 160 200 226 273
#     4  10  21  33  50  71  98 131 162 196 244 297
#     4  10  18  30  47  69  96 122 153 199 241 274
#     4   9  18  32  51  72 101 132 156 201 244 284
#     4  10  19  35  49  68  99 133 164 193 242 296
#     4  11  20  32  52  76  99 124 160 206 246 286
#     4   9  16  28  46  70  94 122 160 193 237 277
#     4  10  18  30  51  78  97 122 169 203 239 282
#
# _framework density 17.617771999999999
#
# number of rings (size 3 to 8) (size 9 to 14) (size 15 to 20)
#    0.000    2.250    0.000    7.500    0.000    0.000 
#    0.000    3.750    0.000    4.500    0.000    7.000 
#    0.000    0.000    0.000    0.000    0.000    0.000 
#
# Total GULP energy -396675.881148 kJ/mol
# GULP energy per Si atom -12396.121286 kJ/mol
# Density = 1.757767 g / cm^3
# Si number density = 17.617772 Si / 1000 Ang^3
#
#
#
# Elastic Constant Matrix: (Units=GPa)
#
#
# Indices 1 2 3 4 5 6 
#
# 1 82.1261 34.1731 30.6236 0.0000 4.5476 0.0000
# 2 34.1731 124.5035 29.1981 0.0000 -0.5629 0.0000
# 3 30.6236 29.1981 92.0558 0.0000 4.5714 0.0000
# 4 0.0000 0.0000 0.0000 21.8434 0.0000 3.7169
# 5 4.5476 -0.5629 4.5714 0.0000 17.9005 0.0000
# 6 0.0000 0.0000 0.0000 3.7169 0.0000 19.6454
#
#
#
# Elastic Compliance Matrix: (Units=1/GPa)
#
#
# Indices 1 2 3 4 5 6 
#
# 1 0.015135 -0.003264 -0.003852 0.000000 -0.002964 0.000000
# 2 -0.003264 0.009399 -0.001976 0.000000 0.001629 0.000000
# 3 -0.003852 -0.001976 0.012889 0.000000 -0.002375 0.000000
# 4 0.000000 0.000000 0.000000 0.047303 0.000000 -0.008950
# 5 -0.002964 0.001629 -0.002375 0.000000 0.057275 0.000000
# 6 0.000000 0.000000 0.000000 -0.008950 0.000000 0.052596
#
#
# Mechanical properties :
#
#
# Convention : Reuss Voigt Hill
#
# Bulk Modulus (GPa) = 51.98114 54.07499 53.02806
# Shear Modulus (GPa) = 22.81066 25.52388 24.16727
#
# Velocity S-wave (km/s) = 3.60217 3.81038 3.70774
# Velocity P-wave (km/s) = 6.84616 7.07946 6.96379
#
# Compressibility (1/GPa) = 0.01923775
#
# Stress axis : x y z
#
# Youngs Moduli (GPa) = 66.07075 106.39848 77.58402
#
# Poissons Ratio (x) = 0.34731 0.29889
# Poissons Ratio (y) = 0.21567 0.15331
# Poissons Ratio (z) = 0.25453 0.21025
#
# Static dielectric constant tensor:
#      x y z
#    x 3.170900 0.000000 0.190420 
#    y 0.000000 3.605360 0.000000 
#    z 0.190420 0.000000 3.333020 
# 
# 
# High freq. dielectric constant tensor:
#      x y z
#    x 1.642670 0.000000 0.025760 
#    y 0.000000 1.690840 0.000000 
#    z 0.025760 0.000000 1.684740 
# 
# From -- ./inp_files/81710.got.cif
#   From: 2010.06.25/outbox.cif.g09.slc.cpg/sg13_41_cif.got.tgz:81710.got - 2010.06.28 04:50:58.
