data_PCOD8117583
_publ_section_title
;
Structure prediction by ZEFSAII (Michael W. Deem and Ramdas Pophale) SiO2 
 PCOD8117583
Probable space group: P 2/C
;
_chemical_formula_sum "Si O2"
_cell_formula_units_Z 30
_cell_length_a 11.664526
_cell_length_b 13.738128
_cell_length_c 9.149447
_cell_angle_alpha 90.000000
_cell_angle_beta 72.968558
_cell_angle_gamma 90.000000
_cell_volume 1401.886586
_symmetry_space_group_name_H-M "P 2/C"
_symmetry_group_IT_number 13
_symmetry_cell_setting 'monoclinic'
loop_
_space_group_symop_operation_xyz
x,y,z
-x,y,1/2-z
-x,-y,-z
x,-y,1/2+z
loop_
_atom_site_type_symbol
_atom_site_label
_atom_site_fract_x
_atom_site_fract_y
_atom_site_fract_z
Si Si1 0.718983 0.928176 0.133856
Si Si2 0.777586 0.323760 0.992671
Si Si3 0.477328 0.600789 0.931020
Si Si4 0.828629 0.230689 0.245103
Si Si5 0.057371 0.817100 0.515681
Si Si6 0.000000 0.296809 0.750000
Si Si7 0.587585 0.199931 0.463150
Si Si8 0.331839 0.883064 0.019449
O O1 0.631967 0.842791 0.101883
O O2 0.700392 0.927900 0.312731
O O3 0.857793 0.910970 0.034497
O O4 0.686168 0.034467 0.093023
O O5 0.888614 0.360755 0.851436
O O6 0.754287 0.208388 0.976656
O O7 0.663795 0.385392 0.991257
O O8 0.815784 0.329022 0.150571
O O9 0.500000 0.599097 0.750000
O O10 0.500000 0.500000 0.000000
O O11 0.555919 0.684417 0.981523
O O12 0.877869 0.255247 0.389300
O O13 0.695693 0.182757 0.306111
O O14 0.924525 0.157676 0.128614
O O15 0.051316 0.767443 0.361701
O O16 0.470992 0.144523 0.451492
#
# Coordination Sequence:
#
# PCOD8117583 Si02
#       8
#     4   4   4   4   4   2   4   4
#     4  11  23  39  58  92 125 171 220 264 318 371
#     4  10  21  40  66  89 130 167 213 256 317 371
#     4  11  24  43  67 102 127 168 207 260 321 386
#     4   9  18  37  64  87 116 166 212 251 316 375
#     4   9  19  35  62  89 121 163 214 261 311 368
#     4  10  18  40  66  92 126 166 216 266 312 374
#     4  10  22  40  66  85 127 163 215 257 322 375
#     4  11  24  37  59  90 126 172 215 265 313 373
#
# _framework density 21.399733000000001
#
# number of rings (size 3 to 8) (size 9 to 14) (size 15 to 20)
#    0.000    1.867    2.667    0.800    3.733    2.133 
#    0.000    5.333    0.000    4.000    0.000    0.000 
#    0.000    0.000    0.000    0.000    0.000    0.000 
#
# Total GULP energy -371728.284832 kJ/mol
# GULP energy per Si atom -12390.942828 kJ/mol
# Density = 2.135103 g / cm^3
# Si number density = 21.399733 Si / 1000 Ang^3
#
#
#
# Elastic Constant Matrix: (Units=GPa)
#
#
# Indices 1 2 3 4 5 6 
#
# 1 137.7780 39.0133 48.0613 0.0000 -27.6084 0.0000
# 2 39.0133 100.7099 26.2119 0.0000 1.3804 0.0000
# 3 48.0613 26.2119 104.4263 0.0000 -3.4736 0.0000
# 4 0.0000 0.0000 0.0000 16.4170 0.0000 5.7592
# 5 -27.6084 1.3804 -3.4736 0.0000 48.7013 0.0000
# 6 0.0000 0.0000 0.0000 5.7592 0.0000 22.7204
#
#
#
# Elastic Compliance Matrix: (Units=1/GPa)
#
#
# Indices 1 2 3 4 5 6 
#
# 1 0.010718 -0.003209 -0.003931 0.000000 0.005886 0.000000
# 2 -0.003209 0.011596 -0.001509 0.000000 -0.002256 0.000000
# 3 -0.003931 -0.001509 0.011719 0.000000 -0.001350 0.000000
# 4 0.000000 0.000000 0.000000 0.066858 0.000000 -0.016947
# 5 0.005886 -0.002256 -0.001350 0.000000 0.023838 0.000000
# 6 0.000000 0.000000 0.000000 -0.016947 0.000000 0.048309
#
#
# Mechanical properties :
#
#
# Convention : Reuss Voigt Hill
#
# Bulk Modulus (GPa) = 59.75677 63.27634 61.51656
# Shear Modulus (GPa) = 25.52125 32.87625 29.19875
#
# Velocity S-wave (km/s) = 3.45715 3.92381 3.69785
# Velocity P-wave (km/s) = 6.62725 7.08246 6.85864
#
# Compressibility (1/GPa) = 0.01673450
#
# Stress axis : x y z
#
# Youngs Moduli (GPa) = 93.30338 86.23409 85.32920
#
# Poissons Ratio (x) = 0.27675 0.33546
# Poissons Ratio (y) = 0.29944 0.12874
# Poissons Ratio (z) = 0.36681 0.13011
#
# Static dielectric constant tensor:
#      x y z
#    x 4.394940 0.000000 -0.054450 
#    y 0.000000 3.391650 0.000000 
#    z -0.054450 0.000000 4.158200 
# 
# 
# High freq. dielectric constant tensor:
#      x y z
#    x 1.870230 0.000000 -0.004450 
#    y 0.000000 1.771830 0.000000 
#    z -0.004450 0.000000 1.861680 
# 
# From -- ./inp_files/16752.got.cif
#   From: 2010.06.25/outbox.cif.g09.slc.cpg/sg13_9_cif.got.tgz:16752.got - 2010.06.28 04:50:58.
