data_PCOD8117790
_publ_section_title
;
Structure prediction by ZEFSAII (Michael W. Deem and Ramdas Pophale) SiO2 
 PCOD8117790
Probable space group: P 2/C
;
_chemical_formula_sum "Si O2"
_cell_formula_units_Z 20
_cell_length_a 8.718287
_cell_length_b 22.083389
_cell_length_c 5.019074
_cell_angle_alpha 90.000000
_cell_angle_beta 84.655604
_cell_angle_gamma 90.000000
_cell_volume 962.118163
_symmetry_space_group_name_H-M "P 2/C"
_symmetry_group_IT_number 13
_symmetry_cell_setting 'monoclinic'
loop_
_space_group_symop_operation_xyz
x,y,z
-x,y,1/2-z
-x,-y,-z
x,-y,1/2+z
loop_
_atom_site_type_symbol
_atom_site_label
_atom_site_fract_x
_atom_site_fract_y
_atom_site_fract_z
Si Si1 0.600819 0.144615 0.986320
Si Si2 0.316583 0.335353 0.793417
Si Si3 0.829500 0.040805 0.832580
Si Si4 0.180977 0.463402 0.737564
Si Si5 0.680862 0.733191 0.699890
O O1 0.500000 0.170156 0.750000
O O2 0.706453 0.094199 0.830845
O O3 0.500000 0.118025 0.250000
O O4 0.706932 0.197111 0.103487
O O5 0.500000 0.334430 0.750000
O O6 0.261256 0.403559 0.836650
O O7 0.244849 0.310471 0.531846
O O8 0.249668 0.289436 0.030875
O O9 0.000000 0.067877 0.750000
O O10 0.803764 0.987333 0.626938
O O11 0.232602 0.483803 0.435035
O O12 0.000000 0.452045 0.750000
O O13 0.500000 0.723397 0.750000
#
# Coordination Sequence:
#
# PCOD8117790 Si02
#       5
#     4   4   4   4   4
#     4  11  21  35  59  86 112 144 188 234 275 330
#     4  10  19  33  55  77 103 137 175 216 263 321
#     4  10  22  39  57  80 116 155 186 227 284 333
#     4  10  21  36  53  75 106 140 173 216 268 315
#     4   9  18  33  52  78 107 137 171 219 276 315
#
# _framework density 20.787466999999999
#
# number of rings (size 3 to 8) (size 9 to 14) (size 15 to 20)
#    0.000    2.000    0.000    5.400    0.000    3.200 
#    0.000    1.000    0.000    7.200    0.000    0.000 
#    0.000    0.000    0.000    0.000    0.000    0.000 
#
# Total GULP energy -247809.164502 kJ/mol
# GULP energy per Si atom -12390.458225 kJ/mol
# Density = 2.074015 g / cm^3
# Si number density = 20.787467 Si / 1000 Ang^3
#
#
#
# Elastic Constant Matrix: (Units=GPa)
#
#
# Indices 1 2 3 4 5 6 
#
# 1 30.9627 34.8046 23.6564 0.0000 1.9645 0.0000
# 2 34.8046 98.9799 22.5307 0.0000 -9.1822 0.0000
# 3 23.6564 22.5307 104.7327 0.0000 1.4206 0.0000
# 4 0.0000 0.0000 0.0000 29.1063 0.0000 3.7170
# 5 1.9645 -9.1822 1.4206 0.0000 19.3399 0.0000
# 6 0.0000 0.0000 0.0000 3.7170 0.0000 -6.5158
#
#
#
# Elastic Compliance Matrix: (Units=1/GPa)
#
#
# Indices 1 2 3 4 5 6 
#
# 1 0.066369 -0.022641 -0.009893 0.000000 -0.016765 0.000000
# 2 -0.022641 0.018900 0.000896 0.000000 0.011207 0.000000
# 3 -0.009893 0.000896 0.011582 0.000000 0.000580 0.000000
# 4 0.000000 0.000000 0.000000 0.032024 0.000000 0.018269
# 5 -0.016765 0.011207 0.000580 0.000000 0.058688 0.000000
# 6 0.000000 0.000000 0.000000 0.018269 0.000000 -0.143052
#
#
# Mechanical properties :
#
#
# Convention : Reuss Voigt Hill
#
# Bulk Modulus (GPa) = 29.78345 44.07316 36.92830
# Shear Modulus (GPa) = 42.02429 18.63166 30.32798
#
# Velocity S-wave (km/s) = 4.50112 2.99706 3.82377
# Velocity P-wave (km/s) = 6.43212 5.76406 6.10723
#
# Compressibility (1/GPa) = 0.03357570
#
# Stress axis : x y z
#
# Youngs Moduli (GPa) = 15.06722 52.90989 86.34044
#
# Poissons Ratio (x) = 1.19793 0.85417
# Poissons Ratio (y) = 0.34113 -0.07737
# Poissons Ratio (z) = 0.14906 -0.04741
#
# Static dielectric constant tensor:
#      x y z
#    x 3.364740 0.000000 0.075740 
#    y 0.000000 3.653020 0.000000 
#    z 0.075740 0.000000 4.290250 
# 
# 
# High freq. dielectric constant tensor:
#      x y z
#    x 1.764020 0.000000 0.004140 
#    y 0.000000 1.811790 0.000000 
#    z 0.004140 0.000000 1.843490 
# 
# From -- ./inp_files/2095.got.cif
#   From: 2010.06.25/outbox.cif.g09.slc.cpg/sg13_2_cif.got.tgz:2095.got - 2010.06.28 04:50:58.
