data_PCOD8117204
_publ_section_title
;
Structure prediction by ZEFSAII (Michael W. Deem and Ramdas Pophale) SiO2 
 PCOD8117204
Probable space group: P 2/C
;
_chemical_formula_sum "Si O2"
_cell_formula_units_Z 28
_cell_length_a 5.356525
_cell_length_b 8.680612
_cell_length_c 29.616220
_cell_angle_alpha 90.000000
_cell_angle_beta 108.578484
_cell_angle_gamma 90.000000
_cell_volume 1305.329608
_symmetry_space_group_name_H-M "P 2/C"
_symmetry_group_IT_number 13
_symmetry_cell_setting 'monoclinic'
loop_
_space_group_symop_operation_xyz
x,y,z
-x,y,1/2-z
-x,-y,-z
x,-y,1/2+z
loop_
_atom_site_type_symbol
_atom_site_label
_atom_site_fract_x
_atom_site_fract_y
_atom_site_fract_z
Si Si1 0.190489 0.173234 0.647971
Si Si2 0.983546 0.379466 0.936199
Si Si3 0.000000 0.920226 0.750000
Si Si4 0.099423 0.871864 0.850187
Si Si5 0.400446 0.967723 0.580581
Si Si6 0.987521 0.264926 0.065959
Si Si7 0.548483 0.764056 0.477344
Si Si8 0.500000 0.117354 0.750000
O O1 0.066085 0.327937 0.618951
O O2 0.330486 0.091846 0.614465
O O3 0.384143 0.217261 0.701206
O O4 0.971258 0.054745 0.654040
O O5 0.938468 0.560346 0.939390
O O6 0.285851 0.337635 0.965196
O O7 0.781975 0.306218 0.959917
O O8 0.049228 0.810997 0.796525
O O9 0.266081 0.016826 0.757863
O O10 0.396673 0.853152 0.883554
O O11 0.939518 0.771278 0.877373
O O12 0.164704 0.858888 0.548335
O O13 0.518372 0.064724 0.545081
O O14 0.681024 0.229615 0.035012
#
# Coordination Sequence:
#
# PCOD8117204 Si02
#       8
#     4   4   2   4   4   4   4   2
#     4   9  19  37  58  88 113 154 196 249 291 359
#     4  11  24  41  61  86 124 162 205 248 304 364
#     4  10  20  36  62  92 114 152 196 252 296 366
#     4  10  20  37  62  85 121 149 202 244 309 349
#     4  10  20  38  59  90 116 158 196 256 297 356
#     4  11  25  37  60  90 123 164 199 254 307 369
#     4  11  24  42  61  86 122 165 209 246 297 368
#     4  10  18  32  64  88 112 146 202 246 298 344
#
# _framework density 21.450520000000001
#
# number of rings (size 3 to 8) (size 9 to 14) (size 15 to 20)
#    0.000    1.714    2.857    1.286    4.000    0.571 
#    0.000    0.000    3.143    0.857    0.000    0.000 
#    0.000    0.000    0.000    0.000    0.000    0.000 
#
# Total GULP energy -346907.199413 kJ/mol
# GULP energy per Si atom -12389.542836 kJ/mol
# Density = 2.140170 g / cm^3
# Si number density = 21.450520 Si / 1000 Ang^3
#
#
#
# Elastic Constant Matrix: (Units=GPa)
#
#
# Indices 1 2 3 4 5 6 
#
# 1 82.5175 8.0701 11.5590 0.0000 7.4615 0.0000
# 2 8.0701 73.1576 28.9693 0.0000 -0.4305 0.0000
# 3 11.5590 28.9693 158.3460 0.0000 5.7410 0.0000
# 4 0.0000 0.0000 0.0000 18.9722 0.0000 1.6970
# 5 7.4615 -0.4305 5.7410 0.0000 29.5906 0.0000
# 6 0.0000 0.0000 0.0000 1.6970 0.0000 11.6540
#
#
#
# Elastic Compliance Matrix: (Units=1/GPa)
#
#
# Indices 1 2 3 4 5 6 
#
# 1 0.012595 -0.001173 -0.000593 0.000000 -0.003078 0.000000
# 2 -0.001173 0.014862 -0.002671 0.000000 0.001030 0.000000
# 3 -0.000593 -0.002671 0.006892 0.000000 -0.001226 0.000000
# 4 0.000000 0.000000 0.000000 0.053404 0.000000 -0.007777
# 5 -0.003078 0.001030 -0.001226 0.000000 0.034824 0.000000
# 6 0.000000 0.000000 0.000000 -0.007777 0.000000 0.086940
#
#
# Mechanical properties :
#
#
# Convention : Reuss Voigt Hill
#
# Bulk Modulus (GPa) = 39.25362 45.69088 42.47225
# Shear Modulus (GPa) = 22.03793 29.73818 25.88806
#
# Velocity S-wave (km/s) = 3.20876 3.72743 3.47778
# Velocity P-wave (km/s) = 5.66282 6.31441 5.99747
#
# Compressibility (1/GPa) = 0.02547536
#
# Stress axis : x y z
#
# Youngs Moduli (GPa) = 79.39828 67.28524 145.10272
#
# Poissons Ratio (x) = 0.07889 0.08609
# Poissons Ratio (y) = 0.09310 0.38754
# Poissons Ratio (z) = 0.04711 0.17970
#
# Static dielectric constant tensor:
#      x y z
#    x 3.900830 0.000000 0.013540 
#    y 0.000000 3.563070 0.000000 
#    z 0.013540 0.000000 4.517770 
# 
# 
# High freq. dielectric constant tensor:
#      x y z
#    x 1.850810 0.000000 -0.000930 
#    y 0.000000 1.793860 0.000000 
#    z -0.000930 0.000000 1.860740 
# 
# From -- ./inp_files/90266.got.cif
#   From: 2010.06.25/outbox.cif.g09.slc.cpg/sg13_46_cif.got.tgz:90266.got - 2010.06.28 04:50:58.
