data_PCOD8117343
_publ_section_title
;
Structure prediction by ZEFSAII (Michael W. Deem and Ramdas Pophale) SiO2 
 PCOD8117343
Probable space group: P 2/C
;
_chemical_formula_sum "Si O2"
_cell_formula_units_Z 28
_cell_length_a 11.287185
_cell_length_b 6.326313
_cell_length_c 23.078655
_cell_angle_alpha 90.000000
_cell_angle_beta 48.573186
_cell_angle_gamma 90.000000
_cell_volume 1235.643297
_symmetry_space_group_name_H-M "P 2/C"
_symmetry_group_IT_number 13
_symmetry_cell_setting 'monoclinic'
loop_
_space_group_symop_operation_xyz
x,y,z
-x,y,1/2-z
-x,-y,-z
x,-y,1/2+z
loop_
_atom_site_type_symbol
_atom_site_label
_atom_site_fract_x
_atom_site_fract_y
_atom_site_fract_z
Si Si1 0.770341 0.057665 0.124335
Si Si2 0.393960 0.328602 0.874207
Si Si3 0.109006 0.107359 0.297262
Si Si4 0.000000 0.536893 0.750000
Si Si5 0.166017 0.194090 0.633018
Si Si6 0.283853 0.282761 0.470076
Si Si7 0.590487 0.016181 0.369956
Si Si8 0.500000 0.365760 0.250000
O O1 0.910835 0.080360 0.126148
O O2 0.811423 0.140949 0.046584
O O3 0.647390 0.216456 0.193527
O O4 0.706175 0.817585 0.138480
O O5 0.278560 0.474644 0.950427
O O6 0.514645 0.480722 0.800751
O O7 0.491941 0.190216 0.886813
O O8 0.291095 0.067987 0.220911
O O9 0.055129 0.330790 0.288279
O O10 0.998371 0.928508 0.305996
O O11 0.149984 0.398210 0.679837
O O12 0.191183 0.268829 0.559604
O O13 0.309173 0.037220 0.604824
O O14 0.466776 0.207212 0.418747
#
# Coordination Sequence:
#
# PCOD8117343 Si02
#       8
#     4   4   4   2   4   4   4   2
#     4  10  22  39  65  95 132 174 216 275 335 391
#     4  10  21  38  64 100 131 165 223 269 339 393
#     4  12  24  45  69  95 135 173 227 279 329 393
#     4  12  26  44  66  98 128 184 226 276 334 396
#     4  12  26  45  65  98 137 176 227 270 331 402
#     4  10  25  43  66 101 135 174 217 274 340 398
#     4  11  22  42  69 100 131 174 218 282 331 385
#     4  10  18  34  60 100 130 166 212 276 326 390
#
# _framework density 22.660260000000001
#
# number of rings (size 3 to 8) (size 9 to 14) (size 15 to 20)
#    0.000    1.143    2.857    4.286    4.000    5.714 
#    0.000    1.429    0.000    0.000    0.000    0.000 
#    0.000    0.000    0.000    0.000    0.000    0.000 
#
# Total GULP energy -347043.961949 kJ/mol
# GULP energy per Si atom -12394.427212 kJ/mol
# Density = 2.260868 g / cm^3
# Si number density = 22.660260 Si / 1000 Ang^3
#
#
#
# Elastic Constant Matrix: (Units=GPa)
#
#
# Indices 1 2 3 4 5 6 
#
# 1 91.4515 38.0047 25.0400 0.0000 28.4599 0.0000
# 2 38.0047 131.2971 43.0048 0.0000 7.8248 0.0000
# 3 25.0400 43.0048 112.8971 0.0000 23.3950 0.0000
# 4 0.0000 0.0000 0.0000 7.5271 0.0000 -1.5535
# 5 28.4599 7.8248 23.3950 0.0000 35.6271 0.0000
# 6 0.0000 0.0000 0.0000 -1.5535 0.0000 16.4410
#
#
#
# Elastic Compliance Matrix: (Units=1/GPa)
#
#
# Indices 1 2 3 4 5 6 
#
# 1 0.016438 -0.004191 0.000557 0.000000 -0.012576 0.000000
# 2 -0.004191 0.009773 -0.003521 0.000000 0.003514 0.000000
# 3 0.000557 -0.003521 0.011584 0.000000 -0.007278 0.000000
# 4 0.000000 0.000000 0.000000 0.135497 0.000000 0.012803
# 5 -0.012576 0.003514 -0.007278 0.000000 0.042122 0.000000
# 6 0.000000 0.000000 0.000000 0.012803 0.000000 0.062033
#
#
# Mechanical properties :
#
#
# Convention : Reuss Voigt Hill
#
# Bulk Modulus (GPa) = 42.58339 60.86051 51.72195
# Shear Modulus (GPa) = 16.68972 27.22543 21.95758
#
# Velocity S-wave (km/s) = 2.71683 3.46997 3.11624
# Velocity P-wave (km/s) = 5.35485 6.55518 5.98518
#
# Compressibility (1/GPa) = 0.02348334
#
# Stress axis : x y z
#
# Youngs Moduli (GPa) = 60.83630 102.31868 86.32804
#
# Poissons Ratio (x) = 0.42879 -0.04805
# Poissons Ratio (y) = 0.25495 0.30400
# Poissons Ratio (z) = -0.03386 0.36031
#
# Static dielectric constant tensor:
#      x y z
#    x 4.051070 0.000000 0.328190 
#    y 0.000000 4.349040 0.000000 
#    z 0.328190 0.000000 4.048230 
# 
# 
# High freq. dielectric constant tensor:
#      x y z
#    x 1.879530 0.000000 0.022510 
#    y 0.000000 1.904270 0.000000 
#    z 0.022510 0.000000 1.889390 
# 
# From -- ./inp_files/77285.got.cif
#   From: 2010.06.25/outbox.cif.g09.slc.cpg/sg13_39_cif.got.tgz:77285.got - 2010.06.28 04:50:58.
