data_PCOD8117281
_publ_section_title
;
Structure prediction by ZEFSAII (Michael W. Deem and Ramdas Pophale) SiO2 
 PCOD8117281
Probable space group: P 2/C
;
_chemical_formula_sum "Si O2"
_cell_formula_units_Z 32
_cell_length_a 29.311272
_cell_length_b 15.227784
_cell_length_c 9.548380
_cell_angle_alpha 90.000000
_cell_angle_beta 26.332123
_cell_angle_gamma 90.000000
_cell_volume 1890.457393
_symmetry_space_group_name_H-M "P 2/C"
_symmetry_group_IT_number 13
_symmetry_cell_setting 'monoclinic'
loop_
_space_group_symop_operation_xyz
x,y,z
-x,y,1/2-z
-x,-y,-z
x,-y,1/2+z
loop_
_atom_site_type_symbol
_atom_site_label
_atom_site_fract_x
_atom_site_fract_y
_atom_site_fract_z
Si Si1 0.713958 0.352156 0.876165
Si Si2 0.708227 0.339052 0.214806
Si Si3 0.448189 0.205018 0.246777
Si Si4 0.881060 0.415554 0.920869
Si Si5 0.112689 0.592780 0.772195
Si Si6 0.593408 0.831303 0.098910
Si Si7 0.573074 0.498306 0.668804
Si Si8 0.425624 0.981513 0.828977
O O1 0.815360 0.333528 0.501527
O O2 0.742624 0.360135 0.961133
O O3 0.626937 0.280111 0.098444
O O4 0.672834 0.443969 0.926484
O O5 0.676826 0.237354 0.314572
O O6 0.612086 0.400744 0.521562
O O7 0.802898 0.349793 0.060451
O O8 0.500000 0.231271 0.250000
O O9 0.376037 0.115646 0.443950
O O10 0.547536 0.197515 0.873474
O O11 0.876307 0.507849 0.855898
O O12 0.995139 0.374182 0.594786
O O13 0.851286 0.426911 0.167168
O O14 0.500000 0.838395 0.250000
O O15 0.645467 0.930645 0.959183
O O16 0.500000 0.537717 0.750000
O O17 0.500000 0.500000 0.000000
O O18 0.500000 0.962550 0.750000
O O19 0.500000 0.000000 0.500000
#
# Coordination Sequence:
#
# PCOD8117281 Si02
#       8
#     4   4   4   4   4   4   4   4
#     4  12  23  35  52  75 102 139 175 214 254 299
#     4  12  23  35  52  76 100 140 178 209 256 303
#     4  10  20  33  49  78 107 138 175 213 252 303
#     4  10  22  39  57  75  97 128 173 219 266 307
#     4  10  22  39  57  75  97 129 170 223 264 305
#     4  10  18  34  52  73 107 142 172 211 250 305
#     4  12  24  35  45  68 106 144 173 201 238 296
#     4   8  16  30  51  71  99 137 173 210 254 292
#
# _framework density 16.927119999999999
#
# number of rings (size 3 to 8) (size 9 to 14) (size 15 to 20)
#    0.000    1.500    3.750    2.250    3.500    1.500 
#    0.000    0.000    0.000    0.000    0.000    0.875 
#    0.000    0.000    0.000    0.000    0.000    0.000 
#
# Total GULP energy -396456.709528 kJ/mol
# GULP energy per Si atom -12389.272173 kJ/mol
# Density = 1.688859 g / cm^3
# Si number density = 16.927120 Si / 1000 Ang^3
#
#
#
# Elastic Constant Matrix: (Units=GPa)
#
#
# Indices 1 2 3 4 5 6 
#
# 1 116.7898 8.6143 35.5959 0.0000 16.1630 0.0000
# 2 8.6143 70.7816 11.9600 0.0000 -1.6659 0.0000
# 3 35.5959 11.9600 75.6882 0.0000 12.4371 0.0000
# 4 0.0000 0.0000 0.0000 5.7072 0.0000 12.6523
# 5 16.1630 -1.6659 12.4371 0.0000 31.4454 0.0000
# 6 0.0000 0.0000 0.0000 12.6523 0.0000 9.3425
#
#
#
# Elastic Compliance Matrix: (Units=1/GPa)
#
#
# Indices 1 2 3 4 5 6 
#
# 1 0.010399 -0.000648 -0.004176 0.000000 -0.003728 0.000000
# 2 -0.000648 0.014651 -0.002345 0.000000 0.002037 0.000000
# 3 -0.004176 -0.002345 0.016272 0.000000 -0.004414 0.000000
# 4 0.000000 0.000000 0.000000 -0.087507 0.000000 0.118509
# 5 -0.003728 0.002037 -0.004414 0.000000 0.035571 0.000000
# 6 0.000000 0.000000 0.000000 0.118509 0.000000 -0.053457
#
#
# Mechanical properties :
#
#
# Convention : Reuss Voigt Hill
#
# Bulk Modulus (GPa) = 37.05832 41.73334 39.39583
# Shear Modulus (GPa) = -122.73069 23.10497 -49.81286
#
# Velocity S-wave (km/s) = -8.52425 3.69855 -5.43063
# Velocity P-wave (km/s) = 8.65698 6.55342 3.99975
#
# Compressibility (1/GPa) = 0.02698450
#
# Stress axis : x y z
#
# Youngs Moduli (GPa) = 96.16561 68.25479 61.45647
#
# Poissons Ratio (x) = 0.04421 0.25662
# Poissons Ratio (y) = 0.06229 0.14412
# Poissons Ratio (z) = 0.40155 0.16007
#
# Static dielectric constant tensor:
#      x y z
#    x 3.344840 0.000000 0.303760 
#    y 0.000000 3.590840 0.000000 
#    z 0.303760 0.000000 3.274890 
# 
# 
# High freq. dielectric constant tensor:
#      x y z
#    x 1.670540 0.000000 0.028560 
#    y 0.000000 1.640400 0.000000 
#    z 0.028560 0.000000 1.628990 
# 
# From -- ./inp_files/24745.got.cif
#   From: 2010.06.25/outbox.cif.g09.slc.cpg/sg13_13_cif.got.tgz:24745.got - 2010.06.28 04:50:58.
