data_PCOD8117081
_publ_section_title
;
Structure prediction by ZEFSAII (Michael W. Deem and Ramdas Pophale) SiO2 
 PCOD8117081
Probable space group: P 2/C
;
_chemical_formula_sum "Si O2"
_cell_formula_units_Z 26
_cell_length_a 25.791334
_cell_length_b 12.705545
_cell_length_c 25.418967
_cell_angle_alpha 90.000000
_cell_angle_beta 11.534218
_cell_angle_gamma 90.000000
_cell_volume 1665.532841
_symmetry_space_group_name_H-M "P 2/C"
_symmetry_group_IT_number 13
_symmetry_cell_setting 'monoclinic'
loop_
_space_group_symop_operation_xyz
x,y,z
-x,y,1/2-z
-x,-y,-z
x,-y,1/2+z
loop_
_atom_site_type_symbol
_atom_site_label
_atom_site_fract_x
_atom_site_fract_y
_atom_site_fract_z
Si Si1 0.726907 0.155387 0.423906
Si Si2 0.500000 0.776903 0.250000
Si Si3 0.263706 0.875874 0.769125
Si Si4 0.247651 0.281925 0.901014
Si Si5 0.227793 0.988106 0.203206
Si Si6 0.253405 0.423665 0.803183
Si Si7 0.742723 0.361180 0.251248
O O1 0.682073 0.149110 0.531986
O O2 0.468130 0.207039 0.655397
O O3 0.764282 0.039685 0.362619
O O4 0.970977 0.228347 0.168356
O O5 0.679355 0.703066 0.109534
O O6 0.235061 0.917074 0.738070
O O7 0.248633 0.750492 0.785919
O O8 0.534368 0.909632 0.525384
O O9 0.034824 0.922127 0.032243
O O10 0.253722 0.393590 0.864766
O O11 0.492190 0.368699 0.536787
O O12 0.266266 0.549685 0.785319
O O13 0.995156 0.375783 0.035337
#
# Coordination Sequence:
#
# PCOD8117081 Si02
#       7
#     4   2   4   4   4   4   4
#     4  10  19  32  48  71 101 121 156 198 246 290
#     4   8  22  30  50  74  98 116 160 202 254 292
#     4  10  19  30  43  68  97 128 165 188 217 287
#     4  10  18  31  49  71 100 120 153 198 248 291
#     4  10  19  29  46  66  94 133 157 186 238 270
#     4  10  19  31  50  70  96 136 158 192 249 281
#     4  10  20  32  46  71 101 130 168 193 224 296
#
# _framework density 15.610621
#
# number of rings (size 3 to 8) (size 9 to 14) (size 15 to 20)
#    0.923    1.231    0.000    5.077    0.000    2.462 
#    0.000    0.000    0.000    0.000    0.000    1.077 
#    0.000    0.000    0.000    0.000    0.000    0.000 
#
# Total GULP energy -322247.877601 kJ/mol
# GULP energy per Si atom -12394.149139 kJ/mol
# Density = 1.557509 g / cm^3
# Si number density = 15.610621 Si / 1000 Ang^3
#
#
#
# Elastic Constant Matrix: (Units=GPa)
#
#
# Indices 1 2 3 4 5 6 
#
# 1 85.5915 45.6795 19.5695 0.0000 17.5703 0.0000
# 2 45.6795 100.6153 26.5695 0.0000 18.5220 0.0000
# 3 19.5695 26.5695 112.2142 0.0000 13.1221 0.0000
# 4 0.0000 0.0000 0.0000 22.5006 0.0000 0.4802
# 5 17.5703 18.5220 13.1221 0.0000 9.5592 0.0000
# 6 0.0000 0.0000 0.0000 0.4802 0.0000 23.0492
#
#
#
# Elastic Compliance Matrix: (Units=1/GPa)
#
#
# Indices 1 2 3 4 5 6 
#
# 1 0.019621 -0.003545 0.000991 0.000000 -0.030557 0.000000
# 2 -0.003545 0.016093 -0.000367 0.000000 -0.024164 0.000000
# 3 0.000991 -0.000367 0.010668 0.000000 -0.015754 0.000000
# 4 0.000000 0.000000 0.000000 0.044463 0.000000 -0.000926
# 5 -0.030557 -0.024164 -0.015754 0.000000 0.229221 0.000000
# 6 0.000000 0.000000 0.000000 -0.000926 0.000000 0.043405
#
#
# Mechanical properties :
#
#
# Convention : Reuss Voigt Hill
#
# Bulk Modulus (GPa) = 24.66634 53.56200 39.11417
# Shear Modulus (GPa) = 13.06077 24.79531 18.92804
#
# Velocity S-wave (km/s) = 2.89564 3.98975 3.48589
# Velocity P-wave (km/s) = 5.19759 7.45720 6.42747
#
# Compressibility (1/GPa) = 0.04054107
#
# Stress axis : x y z
#
# Youngs Moduli (GPa) = 50.96497 62.13829 93.73952
#
# Poissons Ratio (x) = 0.22026 -0.09286
# Poissons Ratio (y) = 0.18065 0.03437
# Poissons Ratio (z) = -0.05049 0.02278
#
# Static dielectric constant tensor:
#      x y z
#    x 2.807440 0.000000 -0.003130 
#    y 0.000000 2.821050 0.000000 
#    z -0.003130 0.000000 3.214450 
# 
# 
# High freq. dielectric constant tensor:
#      x y z
#    x 1.571570 0.000000 -0.003250 
#    y 0.000000 1.574350 0.000000 
#    z -0.003250 0.000000 1.628070 
# 
# From -- ./inp_files/98143.got.cif
#   From: 2010.06.25/outbox.cif.g09.slc.cpg/sg13_50_cif.got.tgz:98143.got - 2010.06.28 04:50:58.
