data_PCOD8117402
_publ_section_title
;
Structure prediction by ZEFSAII (Michael W. Deem and Ramdas Pophale) SiO2 
 PCOD8117402
Probable space group: P 2/C
;
_chemical_formula_sum "Si O2"
_cell_formula_units_Z 20
_cell_length_a 7.199883
_cell_length_b 11.227991
_cell_length_c 18.416297
_cell_angle_alpha 90.000000
_cell_angle_beta 132.358234
_cell_angle_gamma 90.000000
_cell_volume 1100.127212
_symmetry_space_group_name_H-M "P 2/C"
_symmetry_group_IT_number 13
_symmetry_cell_setting 'monoclinic'
loop_
_space_group_symop_operation_xyz
x,y,z
-x,y,1/2-z
-x,-y,-z
x,-y,1/2+z
loop_
_atom_site_type_symbol
_atom_site_label
_atom_site_fract_x
_atom_site_fract_y
_atom_site_fract_z
Si Si1 0.774193 0.561520 0.983440
Si Si2 0.852187 0.834818 0.011755
Si Si3 0.742701 0.172181 0.645302
Si Si4 0.253543 0.449257 0.854681
Si Si5 0.644073 0.960270 0.361216
O O1 0.494775 0.519303 0.885533
O O2 0.804578 0.700365 0.974932
O O3 0.794235 0.528182 0.073137
O O4 0.000000 0.500000 0.000000
O O5 0.722874 0.857391 0.055048
O O6 0.145427 0.862064 0.100963
O O7 0.750043 0.916672 0.920361
O O8 0.699716 0.311026 0.649911
O O9 0.524928 0.095761 0.621875
O O10 0.000000 0.129323 0.750000
O O11 0.000000 0.496516 0.750000
O O12 0.500000 0.992058 0.250000
#
# Coordination Sequence:
#
# PCOD8117402 Si02
#       5
#     4   4   4   4   4
#     4  10  20  38  58  82 113 147 182 227 279 326
#     4  10  22  37  56  82 112 145 181 226 276 328
#     4  10  18  35  60  81 107 146 183 222 272 319
#     4   9  20  36  57  85 112 141 188 230 268 331
#     4  11  21  36  56  82 112 143 185 228 268 326
#
# _framework density 18.179717
#
# number of rings (size 3 to 8) (size 9 to 14) (size 15 to 20)
#    0.000    2.000    2.000    1.800    0.000    0.800 
#    3.600    1.000    0.000    0.000    0.000    0.000 
#    0.000    0.000    0.000    0.000    0.000    0.000 
#
# Total GULP energy -247999.946768 kJ/mol
# GULP energy per Si atom -12399.997338 kJ/mol
# Density = 1.813834 g / cm^3
# Si number density = 18.179717 Si / 1000 Ang^3
#
#
#
# Elastic Constant Matrix: (Units=GPa)
#
#
# Indices 1 2 3 4 5 6 
#
# 1 116.0731 54.1588 34.3889 0.0000 17.8245 0.0000
# 2 54.1588 74.3360 27.2688 0.0000 19.0692 0.0000
# 3 34.3889 27.2688 97.1312 0.0000 25.2652 0.0000
# 4 0.0000 0.0000 0.0000 27.7065 0.0000 -2.6897
# 5 17.8245 19.0692 25.2652 0.0000 24.7441 0.0000
# 6 0.0000 0.0000 0.0000 -2.6897 0.0000 34.3522
#
#
#
# Elastic Compliance Matrix: (Units=1/GPa)
#
#
# Indices 1 2 3 4 5 6 
#
# 1 0.013487 -0.008868 -0.002091 0.000000 -0.000746 0.000000
# 2 -0.008868 0.022841 -0.000484 0.000000 -0.010720 0.000000
# 3 -0.002091 -0.000484 0.014546 0.000000 -0.012973 0.000000
# 4 0.000000 0.000000 0.000000 0.036369 0.000000 0.002848
# 5 -0.000746 -0.010720 -0.012973 0.000000 0.062458 0.000000
# 6 0.000000 0.000000 0.000000 0.002848 0.000000 0.029333
#
#
# Mechanical properties :
#
#
# Convention : Reuss Voigt Hill
#
# Bulk Modulus (GPa) = 35.73089 57.68593 46.70841
# Shear Modulus (GPa) = 23.66860 28.80882 26.23871
#
# Velocity S-wave (km/s) = 3.61213 3.98511 3.80319
# Velocity P-wave (km/s) = 6.09045 7.27836 6.71074
#
# Compressibility (1/GPa) = 0.02798699
#
# Stress axis : x y z
#
# Youngs Moduli (GPa) = 74.14542 43.78142 68.74661
#
# Poissons Ratio (x) = 0.38824 0.14378
# Poissons Ratio (y) = 0.65749 0.03330
# Poissons Ratio (z) = 0.15507 0.02121
#
# Static dielectric constant tensor:
#      x y z
#    x 3.339840 0.000000 0.140160 
#    y 0.000000 3.278310 0.000000 
#    z 0.140160 0.000000 3.413850 
# 
# 
# High freq. dielectric constant tensor:
#      x y z
#    x 1.717160 0.000000 0.003580 
#    y 0.000000 1.698140 0.000000 
#    z 0.003580 0.000000 1.706820 
# 
# From -- ./inp_files/37014.got.cif
#   From: 2010.06.25/outbox.cif.g09.slc.cpg/sg13_19_cif.got.tgz:37014.got - 2010.06.28 04:50:58.
