data_PCOD8117510
_publ_section_title
;
Structure prediction by ZEFSAII (Michael W. Deem and Ramdas Pophale) SiO2 
 PCOD8117510
Probable space group: P 2/C
;
_chemical_formula_sum "Si O2"
_cell_formula_units_Z 26
_cell_length_a 10.080395
_cell_length_b 8.275071
_cell_length_c 22.261961
_cell_angle_alpha 90.000000
_cell_angle_beta 135.056547
_cell_angle_gamma 90.000000
_cell_volume 1311.803111
_symmetry_space_group_name_H-M "P 2/C"
_symmetry_group_IT_number 13
_symmetry_cell_setting 'monoclinic'
loop_
_space_group_symop_operation_xyz
x,y,z
-x,y,1/2-z
-x,-y,-z
x,-y,1/2+z
loop_
_atom_site_type_symbol
_atom_site_label
_atom_site_fract_x
_atom_site_fract_y
_atom_site_fract_z
Si Si1 0.127895 0.890403 0.928207
Si Si2 0.909705 0.622772 0.925290
Si Si3 0.853635 0.929739 0.255312
Si Si4 0.336597 0.820523 0.878046
Si Si5 0.000000 0.410177 0.250000
Si Si6 0.069246 0.617702 0.161279
Si Si7 0.751047 0.787256 0.981436
O O1 0.295541 0.853733 0.934993
O O2 0.072653 0.731463 0.947527
O O3 0.945755 0.950028 0.833274
O O4 0.203401 0.022679 0.999428
O O5 0.763939 0.735182 0.915228
O O6 0.814066 0.509178 0.843096
O O7 0.000000 0.500000 0.000000
O O8 0.000000 0.885748 0.250000
O O9 0.796968 0.761538 0.270488
O O10 0.675590 0.015536 0.166690
O O11 0.184037 0.699105 0.801650
O O12 0.543135 0.747194 0.938277
O O13 0.972851 0.519981 0.183581
O O14 0.895610 0.691123 0.069036
#
# Coordination Sequence:
#
# PCOD8117510 Si02
#       7
#     4   4   4   4   2   4   4
#     4  10  18  37  59  81 115 154 194 233 291 347
#     4  10  20  38  57  83 119 157 190 231 302 356
#     4   9  17  33  59  84 111 147 194 234 293 347
#     4  11  20  37  60  91 114 153 198 251 288 344
#     4  12  20  36  62  82 124 154 186 240 310 348
#     4  10  20  37  59  85 116 159 191 240 296 359
#     4  10  23  36  60  90 118 151 204 246 280 349
#
# _framework density 19.820048
#
# number of rings (size 3 to 8) (size 9 to 14) (size 15 to 20)
#    0.000    1.846    4.615    0.923    0.000    0.615 
#    0.000    3.077    0.000    5.538    0.000    0.000 
#    0.000    0.000    0.000    0.000    0.000    0.000 
#
# Total GULP energy -322242.292777 kJ/mol
# GULP energy per Si atom -12393.934338 kJ/mol
# Density = 1.977494 g / cm^3
# Si number density = 19.820048 Si / 1000 Ang^3
#
#
#
# Elastic Constant Matrix: (Units=GPa)
#
#
# Indices 1 2 3 4 5 6 
#
# 1 111.6860 59.6977 37.6161 0.0000 -18.2949 0.0000
# 2 59.6977 120.1514 39.2474 0.0000 -18.5426 0.0000
# 3 37.6161 39.2474 49.9090 0.0000 -12.6801 0.0000
# 4 0.0000 0.0000 0.0000 26.4806 0.0000 -22.2016
# 5 -18.2949 -18.5426 -12.6801 0.0000 30.0404 0.0000
# 6 0.0000 0.0000 0.0000 -22.2016 0.0000 33.9809
#
#
#
# Elastic Compliance Matrix: (Units=1/GPa)
#
#
# Indices 1 2 3 4 5 6 
#
# 1 0.013916 -0.004393 -0.006238 0.000000 0.003130 0.000000
# 2 -0.004393 0.012941 -0.006178 0.000000 0.002705 0.000000
# 3 -0.006238 -0.006178 0.030985 0.000000 0.005466 0.000000
# 4 0.000000 0.000000 0.000000 0.083506 0.000000 0.054559
# 5 0.003130 0.002705 0.005466 0.000000 0.039171 0.000000
# 6 0.000000 0.000000 0.000000 0.054559 0.000000 0.065075
#
#
# Mechanical properties :
#
#
# Convention : Reuss Voigt Hill
#
# Bulk Modulus (GPa) = 41.28363 61.65208 51.46786
# Shear Modulus (GPa) = 17.40408 27.77939 22.59174
#
# Velocity S-wave (km/s) = 2.96650 3.74783 3.37982
# Velocity P-wave (km/s) = 5.71034 7.06412 6.42299
#
# Compressibility (1/GPa) = 0.02422268
#
# Stress axis : x y z
#
# Youngs Moduli (GPa) = 71.86127 77.27244 32.27324
#
# Poissons Ratio (x) = 0.33949 0.20133
# Poissons Ratio (y) = 0.31571 0.19939
# Poissons Ratio (z) = 0.44828 0.47741
#
# Static dielectric constant tensor:
#      x y z
#    x 3.656180 0.000000 -0.582790 
#    y 0.000000 4.090270 0.000000 
#    z -0.582790 0.000000 3.617220 
# 
# 
# High freq. dielectric constant tensor:
#      x y z
#    x 1.747510 0.000000 -0.039930 
#    y 0.000000 1.793050 0.000000 
#    z -0.039930 0.000000 1.752310 
# 
# From -- ./inp_files/63734.got.cif
#   From: 2010.06.25/outbox.cif.g09.slc.cpg/sg13_32_cif.got.tgz:63734.got - 2010.06.28 04:50:58.
