data_PCOD8117330
_publ_section_title
;
Structure prediction by ZEFSAII (Michael W. Deem and Ramdas Pophale) SiO2 
 PCOD8117330
Probable space group: P 2/C
;
_chemical_formula_sum "Si O2"
_cell_formula_units_Z 32
_cell_length_a 16.841051
_cell_length_b 8.180833
_cell_length_c 22.451956
_cell_angle_alpha 90.000000
_cell_angle_beta 28.977868
_cell_angle_gamma 90.000000
_cell_volume 1498.612494
_symmetry_space_group_name_H-M "P 2/C"
_symmetry_group_IT_number 13
_symmetry_cell_setting 'monoclinic'
loop_
_space_group_symop_operation_xyz
x,y,z
-x,y,1/2-z
-x,-y,-z
x,-y,1/2+z
loop_
_atom_site_type_symbol
_atom_site_label
_atom_site_fract_x
_atom_site_fract_y
_atom_site_fract_z
Si Si1 0.427445 0.223387 0.435497
Si Si2 0.530289 0.859669 0.096278
Si Si3 0.331062 0.249545 0.883259
Si Si4 0.255887 0.607632 0.937597
Si Si5 0.783238 0.254661 0.159156
Si Si6 0.402006 0.659031 0.078690
Si Si7 0.832635 0.112844 0.612740
Si Si8 0.903914 0.581629 0.138789
O O1 0.341070 0.327141 0.440813
O O2 0.624811 0.245920 0.305827
O O3 0.348949 0.268147 0.550429
O O4 0.385811 0.034995 0.456691
O O5 0.662011 0.757522 0.049297
O O6 0.520382 0.784181 0.036678
O O7 0.348125 0.861211 0.242250
O O8 0.500000 0.167711 0.750000
O O9 0.331651 0.438767 0.864639
O O10 0.182911 0.149077 0.948438
O O11 0.283603 0.731975 0.864522
O O12 0.063681 0.571085 0.075658
O O13 0.885498 0.415203 0.111932
O O14 0.888237 0.078030 0.092771
O O15 0.247707 0.611225 0.219344
O O16 0.500000 0.500000 0.000000
O O17 0.939954 0.259043 0.572560
#
# Coordination Sequence:
#
# PCOD8117330 Si02
#       8
#     4   4   4   4   4   4   4   4
#     4  11  22  39  63  92 117 158 210 251 298 362
#     4   9  20  36  60  93 115 151 206 259 294 351
#     4  10  18  34  58  89 125 157 201 248 304 359
#     4  12  24  36  61  91 127 162 192 253 313 365
#     4  11  21  40  64  90 119 160 209 243 303 369
#     4  11  21  40  67  84 115 160 208 253 297 352
#     4   9  20  36  61  86 122 161 196 253 298 359
#     4  11  24  42  57  92 126 159 203 248 311 363
#
# _framework density 21.353086000000001
#
# number of rings (size 3 to 8) (size 9 to 14) (size 15 to 20)
#    0.000    1.500    2.500    3.375    1.750    3.000 
#    2.250    0.000    0.000    1.500    0.000    0.000 
#    0.000    0.000    0.000    0.000    0.000    0.000 
#
# Total GULP energy -396630.688985 kJ/mol
# GULP energy per Si atom -12394.709031 kJ/mol
# Density = 2.130449 g / cm^3
# Si number density = 21.353086 Si / 1000 Ang^3
#
#
#
# Elastic Constant Matrix: (Units=GPa)
#
#
# Indices 1 2 3 4 5 6 
#
# 1 115.7287 49.7094 29.8889 0.0000 6.7306 0.0000
# 2 49.7094 143.0464 40.2897 0.0000 -7.3938 0.0000
# 3 29.8889 40.2897 56.8458 0.0000 5.7721 0.0000
# 4 0.0000 0.0000 0.0000 34.6981 0.0000 -3.5089
# 5 6.7306 -7.3938 5.7721 0.0000 31.4609 0.0000
# 6 0.0000 0.0000 0.0000 -3.5089 0.0000 42.4492
#
#
#
# Elastic Compliance Matrix: (Units=1/GPa)
#
#
# Indices 1 2 3 4 5 6 
#
# 1 0.010934 -0.002966 -0.003402 0.000000 -0.002412 0.000000
# 2 -0.002966 0.009878 -0.005850 0.000000 0.004029 0.000000
# 3 -0.003402 -0.005850 0.024040 0.000000 -0.005058 0.000000
# 4 0.000000 0.000000 0.000000 0.029063 0.000000 0.002402
# 5 -0.002412 0.004029 -0.005058 0.000000 0.034176 0.000000
# 6 0.000000 0.000000 0.000000 0.002402 0.000000 0.023756
#
#
# Mechanical properties :
#
#
# Convention : Reuss Voigt Hill
#
# Bulk Modulus (GPa) = 48.98344 61.71076 55.34710
# Shear Modulus (GPa) = 30.65828 34.77049 32.71439
#
# Velocity S-wave (km/s) = 3.79328 4.03967 3.91841
# Velocity P-wave (km/s) = 6.49421 7.12190 6.81529
#
# Compressibility (1/GPa) = 0.02041506
#
# Stress axis : x y z
#
# Youngs Moduli (GPa) = 91.45972 101.24009 41.59736
#
# Poissons Ratio (x) = 0.30029 0.14150
# Poissons Ratio (y) = 0.27128 0.24336
# Poissons Ratio (z) = 0.31112 0.59228
#
# Static dielectric constant tensor:
#      x y z
#    x 3.809680 0.000000 -0.396640 
#    y 0.000000 4.041350 0.000000 
#    z -0.396640 0.000000 3.702090 
# 
# 
# High freq. dielectric constant tensor:
#      x y z
#    x 1.836700 0.000000 -0.010580 
#    y 0.000000 1.859130 0.000000 
#    z -0.010580 0.000000 1.823420 
# 
# From -- ./inp_files/79801.got.cif
#   From: 2010.06.25/outbox.cif.g09.slc.cpg/sg13_40_cif.got.tgz:79801.got - 2010.06.28 04:50:58.
