data_PCOD8117582
_publ_section_title
;
Structure prediction by ZEFSAII (Michael W. Deem and Ramdas Pophale) SiO2 
 PCOD8117582
Probable space group: P 2/C
;
_chemical_formula_sum "Si O2"
_cell_formula_units_Z 30
_cell_length_a 12.565393
_cell_length_b 12.844600
_cell_length_c 9.140491
_cell_angle_alpha 90.000000
_cell_angle_beta 114.132466
_cell_angle_gamma 90.000000
_cell_volume 1346.318811
_symmetry_space_group_name_H-M "P 2/C"
_symmetry_group_IT_number 13
_symmetry_cell_setting 'monoclinic'
loop_
_space_group_symop_operation_xyz
x,y,z
-x,y,1/2-z
-x,-y,-z
x,-y,1/2+z
loop_
_atom_site_type_symbol
_atom_site_label
_atom_site_fract_x
_atom_site_fract_y
_atom_site_fract_z
Si Si1 0.734468 0.973304 0.237250
Si Si2 0.749151 0.565805 0.297856
Si Si3 0.768567 0.794240 0.778515
Si Si4 0.473897 0.763382 0.994563
Si Si5 0.500000 0.400841 0.750000
Si Si6 0.134741 0.392832 0.328748
Si Si7 0.738052 0.233514 0.589730
Si Si8 0.584742 0.968065 0.407233
O O1 0.792517 0.868129 0.205943
O O2 0.710607 0.961361 0.396336
O O3 0.799255 0.084569 0.253686
O O4 0.607887 0.978359 0.077433
O O5 0.615134 0.535743 0.264874
O O6 0.797909 0.464475 0.248199
O O7 0.820305 0.592375 0.482625
O O8 0.765279 0.663541 0.197769
O O9 0.631374 0.770560 0.679957
O O10 0.847222 0.725816 0.714316
O O11 0.798475 0.766581 0.964244
O O12 0.459568 0.660638 0.083543
O O13 0.598910 0.771620 0.985893
O O14 0.464358 0.852985 0.109145
O O15 0.000000 0.422557 0.250000
O O16 0.500000 0.034264 0.250000
#
# Coordination Sequence:
#
# PCOD8117582 Si02
#       8
#     4   4   4   4   2   4   4   4
#     4  11  22  31  55  89 136 178 222 268 323 394
#     4  11  25  45  75 100 133 176 214 283 338 400
#     4  11  24  39  61  95 132 180 229 274 326 386
#     4  10  19  33  57  89 142 183 219 256 329 401
#     4  10  18  40  64 102 138 170 210 266 348 418
#     4  12  27  51  75  98 127 172 235 281 331 394
#     4  11  22  38  61  99 140 178 219 267 333 409
#     4  11  18  28  46  80 131 186 226 254 304 386
#
# _framework density 22.282985
#
# number of rings (size 3 to 8) (size 9 to 14) (size 15 to 20)
#    0.000    1.067    4.667    2.800    3.733    0.533 
#    2.400    0.000    0.000    4.000    0.000    0.000 
#    0.000    0.000    0.000    0.000    0.000    0.000 
#
# Total GULP energy -371726.067029 kJ/mol
# GULP energy per Si atom -12390.868901 kJ/mol
# Density = 2.223227 g / cm^3
# Si number density = 22.282985 Si / 1000 Ang^3
#
#
#
# Elastic Constant Matrix: (Units=GPa)
#
#
# Indices 1 2 3 4 5 6 
#
# 1 61.2719 34.6420 29.1240 0.0000 3.5161 0.0000
# 2 34.6420 98.0500 21.3165 0.0000 -8.1585 0.0000
# 3 29.1240 21.3165 115.0734 0.0000 -18.9428 0.0000
# 4 0.0000 0.0000 0.0000 18.7279 0.0000 4.2275
# 5 3.5161 -8.1585 -18.9428 0.0000 24.3152 0.0000
# 6 0.0000 0.0000 0.0000 4.2275 0.0000 -7.9487
#
#
#
# Elastic Compliance Matrix: (Units=1/GPa)
#
#
# Indices 1 2 3 4 5 6 
#
# 1 0.024831 -0.008288 -0.006651 0.000000 -0.011553 0.000000
# 2 -0.008288 0.013510 0.000618 0.000000 0.006213 0.000000
# 3 -0.006651 0.000618 0.011989 0.000000 0.010509 0.000000
# 4 0.000000 0.000000 0.000000 0.047673 0.000000 0.025355
# 5 -0.011553 0.006213 0.010509 0.000000 0.053069 0.000000
# 6 0.000000 0.000000 0.000000 0.025355 0.000000 -0.112322
#
#
# Mechanical properties :
#
#
# Convention : Reuss Voigt Hill
#
# Bulk Modulus (GPa) = 46.11099 49.39558 47.75329
# Shear Modulus (GPa) = 67.00476 19.63975 43.32226
#
# Velocity S-wave (km/s) = 5.48955 2.97202 4.41408
# Velocity P-wave (km/s) = 7.80503 5.83033 6.88881
#
# Compressibility (1/GPa) = 0.02168680
#
# Stress axis : x y z
#
# Youngs Moduli (GPa) = 40.27190 74.01974 83.41049
#
# Poissons Ratio (x) = 0.61351 0.55476
# Poissons Ratio (y) = 0.33379 -0.05154
# Poissons Ratio (z) = 0.26785 -0.04573
#
# Static dielectric constant tensor:
#      x y z
#    x 3.578180 0.000000 -0.223860 
#    y 0.000000 4.087280 0.000000 
#    z -0.223860 0.000000 4.157040 
# 
# 
# High freq. dielectric constant tensor:
#      x y z
#    x 1.826020 0.000000 -0.032790 
#    y 0.000000 1.879560 0.000000 
#    z -0.032790 0.000000 1.893710 
# 
# From -- ./inp_files/19067.got.cif
#   From: 2010.06.25/outbox.cif.g09.slc.cpg/sg13_10_cif.got.tgz:19067.got - 2010.06.28 04:50:58.
