data_PCOD8117789
_publ_section_title
;
Structure prediction by ZEFSAII (Michael W. Deem and Ramdas Pophale) SiO2 
 PCOD8117789
Probable space group: P 2/C
;
_chemical_formula_sum "Si O2"
_cell_formula_units_Z 32
_cell_length_a 12.109264
_cell_length_b 12.416439
_cell_length_c 10.980551
_cell_angle_alpha 90.000000
_cell_angle_beta 77.292813
_cell_angle_gamma 90.000000
_cell_volume 1610.531829
_symmetry_space_group_name_H-M "P 2/C"
_symmetry_group_IT_number 13
_symmetry_cell_setting 'monoclinic'
loop_
_space_group_symop_operation_xyz
x,y,z
-x,y,1/2-z
-x,-y,-z
x,-y,1/2+z
loop_
_atom_site_type_symbol
_atom_site_label
_atom_site_fract_x
_atom_site_fract_y
_atom_site_fract_z
Si Si1 0.037968 0.133530 0.608066
Si Si2 0.706052 0.163245 0.935959
Si Si3 0.683732 0.917047 0.967730
Si Si4 0.631498 0.438070 0.604292
Si Si5 0.393169 0.466202 0.148420
Si Si6 0.632492 0.793408 0.196710
Si Si7 0.063168 0.883076 0.617344
Si Si8 0.495152 0.229410 0.119210
O O1 0.166326 0.168265 0.546628
O O2 0.000000 0.182145 0.750000
O O3 0.966422 0.174110 0.506398
O O4 0.022903 0.005900 0.618546
O O5 0.702621 0.213338 0.803145
O O6 0.660797 0.040834 0.943717
O O7 0.623431 0.235002 0.038733
O O8 0.803519 0.876534 0.886070
O O9 0.581484 0.845439 0.944581
O O10 0.681224 0.897518 0.113768
O O11 0.680082 0.477920 0.459688
O O12 0.677271 0.508201 0.709537
O O13 0.494672 0.446377 0.624592
O O14 0.661625 0.313481 0.612795
O O15 0.445128 0.348093 0.142099
O O16 0.500000 0.806783 0.250000
O O17 0.000000 0.829234 0.750000
O O18 0.500000 0.175105 0.250000
#
# Coordination Sequence:
#
# PCOD8117789 Si02
#       8
#     4   4   4   4   4   4   4   4
#     4   9  18  37  56  77  98 138 198 244 272 304
#     4  11  25  35  55  80 116 156 187 225 272 340
#     4  11  24  37  52  79 116 157 188 219 273 338
#     4  10  19  33  55  74 104 146 184 234 280 315
#     4  10  19  35  54  75 103 150 180 234 273 322
#     4  12  21  36  54  77 114 158 185 219 271 348
#     4   9  19  35  58  74  99 142 194 245 275 304
#     4  12  24  35  50  83 120 148 179 222 277 351
#
# _framework density 19.869215000000001
#
# number of rings (size 3 to 8) (size 9 to 14) (size 15 to 20)
#    0.000    1.500    5.000    1.125    5.250    2.000 
#    0.000    0.000    0.000    0.000    0.000    0.000 
#    0.000   20.000    0.000    0.000    0.000    0.000 
#
# Total GULP energy -396566.713536 kJ/mol
# GULP energy per Si atom -12392.709798 kJ/mol
# Density = 1.982399 g / cm^3
# Si number density = 19.869215 Si / 1000 Ang^3
#
#
#
# Elastic Constant Matrix: (Units=GPa)
#
#
# Indices 1 2 3 4 5 6 
#
# 1 50.2031 10.2401 26.0450 0.0000 3.5030 0.0000
# 2 10.2401 52.5272 12.5114 0.0000 0.9843 0.0000
# 3 26.0450 12.5114 161.1490 0.0000 23.2105 0.0000
# 4 0.0000 0.0000 0.0000 15.4205 0.0000 10.2849
# 5 3.5030 0.9843 23.2105 0.0000 32.2439 0.0000
# 6 0.0000 0.0000 0.0000 10.2849 0.0000 4.1710
#
#
#
# Elastic Compliance Matrix: (Units=1/GPa)
#
#
# Indices 1 2 3 4 5 6 
#
# 1 0.022380 -0.003566 -0.003353 0.000000 0.000091 0.000000
# 2 -0.003566 0.019973 -0.001051 0.000000 0.000535 0.000000
# 3 -0.003353 -0.001051 0.007555 0.000000 -0.005042 0.000000
# 4 0.000000 0.000000 0.000000 -0.100601 0.000000 0.248064
# 5 0.000091 0.000535 -0.005042 0.000000 0.034617 0.000000
# 6 0.000000 0.000000 0.000000 0.248064 0.000000 -0.371930
#
#
# Mechanical properties :
#
#
# Convention : Reuss Voigt Hill
#
# Bulk Modulus (GPa) = 29.44019 40.16358 34.80188
# Shear Modulus (GPa) = -13.86030 24.70594 5.42282
#
# Velocity S-wave (km/s) = -2.64403 3.53005 1.65384
# Velocity P-wave (km/s) = 2.35116 6.07231 4.60439
#
# Compressibility (1/GPa) = 0.03396717
#
# Stress axis : x y z
#
# Youngs Moduli (GPa) = 44.68326 50.06682 132.35809
#
# Poissons Ratio (x) = 0.17853 0.44384
# Poissons Ratio (y) = 0.15933 0.13916
# Poissons Ratio (z) = 0.14984 0.05264
#
# Static dielectric constant tensor:
#      x y z
#    x 3.401700 0.000000 0.408580 
#    y 0.000000 3.334740 0.000000 
#    z 0.408580 0.000000 4.473100 
# 
# 
# High freq. dielectric constant tensor:
#      x y z
#    x 1.734640 0.000000 0.024740 
#    y 0.000000 1.737830 0.000000 
#    z 0.024740 0.000000 1.800810 
# 
# From -- ./inp_files/34153.got.cif
#   From: 2010.06.25/outbox.cif.g09.slc.cpg/sg13_18_cif.got.tgz:34153.got - 2010.06.28 04:50:58.
