data_PCOD8117263
_publ_section_title
;
Structure prediction by ZEFSAII (Michael W. Deem and Ramdas Pophale) SiO2 
 PCOD8117263
Probable space group: P 2/C
;
_chemical_formula_sum "Si O2"
_cell_formula_units_Z 26
_cell_length_a 10.724583
_cell_length_b 10.817782
_cell_length_c 13.307561
_cell_angle_alpha 90.000000
_cell_angle_beta 122.094154
_cell_angle_gamma 90.000000
_cell_volume 1307.949028
_symmetry_space_group_name_H-M "P 2/C"
_symmetry_group_IT_number 13
_symmetry_cell_setting 'monoclinic'
loop_
_space_group_symop_operation_xyz
x,y,z
-x,y,1/2-z
-x,-y,-z
x,-y,1/2+z
loop_
_atom_site_type_symbol
_atom_site_label
_atom_site_fract_x
_atom_site_fract_y
_atom_site_fract_z
Si Si1 0.861569 0.133090 0.404282
Si Si2 0.941495 0.893217 0.336854
Si Si3 0.624442 0.144183 0.642877
Si Si4 0.582634 0.930712 0.908724
Si Si5 0.552409 0.617653 0.461411
Si Si6 0.500000 0.487966 0.250000
Si Si7 0.341345 0.284521 0.303830
O O1 0.710550 0.074253 0.381536
O O2 0.815118 0.242045 0.307930
O O3 0.961086 0.183633 0.539810
O O4 0.953688 0.035907 0.377022
O O5 0.772627 0.851601 0.271450
O O6 0.000000 0.872799 0.250000
O O7 0.657185 0.076744 0.550366
O O8 0.579943 0.285529 0.608455
O O9 0.498347 0.062228 0.642694
O O10 0.468067 0.818564 0.844730
O O11 0.500000 0.500000 0.500000
O O12 0.597069 0.573262 0.368513
O O13 0.677530 0.683727 0.584560
O O14 0.384745 0.407176 0.262290
#
# Coordination Sequence:
#
# PCOD8117263 Si02
#       7
#     4   4   4   4   4   2   4
#     4  11  21  35  57  83 116 162 189 228 302 369
#     4  11  23  35  50  83 127 155 192 233 287 367
#     4  10  20  35  55  84 122 149 191 250 290 341
#     4  10  18  33  60  86 110 151 191 239 302 349
#     4   9  21  34  54  85 115 146 192 247 283 329
#     4  10  18  34  56  88 116 146 188 250 296 336
#     4  10  18  34  59  87 114 144 190 239 296 349
#
# _framework density 19.878450000000001
#
# number of rings (size 3 to 8) (size 9 to 14) (size 15 to 20)
#    0.000    1.846    4.615    0.000    0.000    1.231 
#    0.000    1.538    0.000    3.692    0.000   19.385 
#    0.000    0.000    0.000    0.000    0.000    0.000 
#
# Total GULP energy -322156.950923 kJ/mol
# GULP energy per Si atom -12390.651959 kJ/mol
# Density = 1.983321 g / cm^3
# Si number density = 19.878450 Si / 1000 Ang^3
#
#
#
# Elastic Constant Matrix: (Units=GPa)
#
#
# Indices 1 2 3 4 5 6 
#
# 1 24.8285 17.0767 28.1569 0.0000 -1.0891 0.0000
# 2 17.0767 89.4943 52.2826 0.0000 3.5059 0.0000
# 3 28.1569 52.2826 202.7436 0.0000 0.1155 0.0000
# 4 0.0000 0.0000 0.0000 35.3483 0.0000 -6.8105
# 5 -1.0891 3.5059 0.1155 0.0000 29.7954 0.0000
# 6 0.0000 0.0000 0.0000 -6.8105 0.0000 15.7978
#
#
#
# Elastic Compliance Matrix: (Units=1/GPa)
#
#
# Indices 1 2 3 4 5 6 
#
# 1 0.051101 -0.006721 -0.005365 0.000000 0.002680 0.000000
# 2 -0.006721 0.014110 -0.002704 0.000000 -0.001896 0.000000
# 3 -0.005365 -0.002704 0.006375 0.000000 0.000097 0.000000
# 4 0.000000 0.000000 0.000000 0.030852 0.000000 0.013301
# 5 0.002680 -0.001896 0.000097 0.000000 0.033883 0.000000
# 6 0.000000 0.000000 0.000000 0.013301 0.000000 0.069034
#
#
# Mechanical properties :
#
#
# Convention : Reuss Voigt Hill
#
# Bulk Modulus (GPa) = 23.80678 56.89984 40.35331
# Shear Modulus (GPa) = 20.08529 30.82500 25.45515
#
# Velocity S-wave (km/s) = 3.18214 3.94213 3.58235
# Velocity P-wave (km/s) = 5.05010 7.02898 6.12005
#
# Compressibility (1/GPa) = 0.04200484
#
# Stress axis : x y z
#
# Youngs Moduli (GPa) = 19.56905 70.86927 156.86933
#
# Poissons Ratio (x) = 0.47634 0.84162
# Poissons Ratio (y) = 0.13153 0.42421
# Poissons Ratio (z) = 0.10499 0.19164
#
# Static dielectric constant tensor:
#      x y z
#    x 3.240390 0.000000 -0.299760 
#    y 0.000000 3.631190 0.000000 
#    z -0.299760 0.000000 4.415500 
# 
# 
# High freq. dielectric constant tensor:
#      x y z
#    x 1.727290 0.000000 -0.025550 
#    y 0.000000 1.755420 0.000000 
#    z -0.025550 0.000000 1.810180 
# 
# From -- ./inp_files/50910.got.cif
#   From: 2010.06.25/outbox.cif.g09.slc.cpg/sg13_26_cif.got.tgz:50910.got - 2010.06.28 04:50:58.
