data_PCOD8117038
_publ_section_title
;
Structure prediction by ZEFSAII (Michael W. Deem and Ramdas Pophale) SiO2 
 PCOD8117038
Probable space group: P 2/C
;
_chemical_formula_sum "Si O2"
_cell_formula_units_Z 26
_cell_length_a 19.777801
_cell_length_b 8.658544
_cell_length_c 9.053517
_cell_angle_alpha 90.000000
_cell_angle_beta 48.004708
_cell_angle_gamma 90.000000
_cell_volume 1152.247514
_symmetry_space_group_name_H-M "P 2/C"
_symmetry_group_IT_number 13
_symmetry_cell_setting 'monoclinic'
loop_
_space_group_symop_operation_xyz
x,y,z
-x,y,1/2-z
-x,-y,-z
x,-y,1/2+z
loop_
_atom_site_type_symbol
_atom_site_label
_atom_site_fract_x
_atom_site_fract_y
_atom_site_fract_z
Si Si1 0.373503 0.105740 0.177654
Si Si2 0.500000 0.246655 0.750000
Si Si3 0.115767 0.583501 0.187107
Si Si4 0.784318 0.912833 0.804062
Si Si5 0.933704 0.310666 0.051240
Si Si6 0.346211 0.768090 0.285328
Si Si7 0.717766 0.250436 0.939918
O O1 0.270141 0.111393 0.267873
O O2 0.369684 0.222251 0.324299
O O3 0.397994 0.932443 0.191332
O O4 0.442609 0.145802 0.948477
O O5 0.577487 0.336677 0.735871
O O6 0.086149 0.410073 0.272918
O O7 0.217513 0.613987 0.097089
O O8 0.041983 0.704087 0.365282
O O9 0.113885 0.595723 0.013536
O O10 0.889083 0.859914 0.629562
O O11 0.777299 0.093067 0.853230
O O12 0.744503 0.798015 0.988105
O O13 0.320270 0.697037 0.164729
#
# Coordination Sequence:
#
# PCOD8117038 Si02
#       7
#     4   2   4   4   4   4   4
#     4   9  17  31  49  77 111 146 180 225 272 328
#     4  10  18  30  48  78 116 152 170 224 282 336
#     4  10  22  37  58  81 112 142 192 232 272 323
#     4   9  18  34  54  76 116 149 180 224 280 324
#     4  10  21  39  56  81 110 149 186 234 270 325
#     4   9  19  29  49  79 111 146 179 220 274 329
#     4  10  19  34  54  83 113 145 186 231 273 329
#
# _framework density 22.564596000000002
#
# number of rings (size 3 to 8) (size 9 to 14) (size 15 to 20)
#    0.000    2.462    1.538    1.385    2.154    1.231 
#    0.000    0.000    0.000    0.000    0.000   17.231 
#    0.000    0.000    0.000    0.000    0.000    0.000 
#
# Total GULP energy -322095.054281 kJ/mol
# GULP energy per Si atom -12388.271319 kJ/mol
# Density = 2.251324 g / cm^3
# Si number density = 22.564596 Si / 1000 Ang^3
#
#
#
# Elastic Constant Matrix: (Units=GPa)
#
#
# Indices 1 2 3 4 5 6 
#
# 1 103.5381 -3.5690 20.0842 0.0000 8.4526 0.0000
# 2 -3.5690 16.9068 5.2526 0.0000 -3.2268 0.0000
# 3 20.0842 5.2526 71.9872 0.0000 11.8607 0.0000
# 4 0.0000 0.0000 0.0000 14.8597 0.0000 0.3231
# 5 8.4526 -3.2268 11.8607 0.0000 40.2751 0.0000
# 6 0.0000 0.0000 0.0000 0.3231 0.0000 16.5857
#
#
#
# Elastic Compliance Matrix: (Units=1/GPa)
#
#
# Indices 1 2 3 4 5 6 
#
# 1 0.010417 0.002904 -0.002939 0.000000 -0.001088 0.000000
# 2 0.002904 0.062974 -0.006449 0.000000 0.006335 0.000000
# 3 -0.002939 -0.006449 0.015939 0.000000 -0.004594 0.000000
# 4 0.000000 0.000000 0.000000 0.067325 0.000000 -0.001312
# 5 -0.001088 0.006335 -0.004594 0.000000 0.026918 0.000000
# 6 0.000000 0.000000 0.000000 -0.001312 0.000000 0.060319
#
#
# Mechanical properties :
#
#
# Convention : Reuss Voigt Hill
#
# Bulk Modulus (GPa) = 13.09543 26.21862 19.65702
# Shear Modulus (GPa) = 17.71090 25.72172 21.71631
#
# Velocity S-wave (km/s) = 2.80464 3.37993 3.10563
# Velocity P-wave (km/s) = 4.03784 5.18425 4.64654
#
# Compressibility (1/GPa) = 0.07636254
#
# Stress axis : x y z
#
# Youngs Moduli (GPa) = 95.99380 15.87969 62.74013
#
# Poissons Ratio (x) = -0.04612 0.18440
# Poissons Ratio (y) = -0.27881 0.40461
# Poissons Ratio (z) = 0.28213 0.10241
#
# Static dielectric constant tensor:
#      x y z
#    x 4.300850 0.000000 0.178270 
#    y 0.000000 3.297590 0.000000 
#    z 0.178270 0.000000 4.132480 
# 
# 
# High freq. dielectric constant tensor:
#      x y z
#    x 1.894920 0.000000 0.013510 
#    y 0.000000 1.818490 0.000000 
#    z 0.013510 0.000000 1.902930 
# 
# From -- ./inp_files/22836.got.cif
#   From: 2010.06.25/outbox.cif.g09.slc.cpg/sg13_12_cif.got.tgz:22836.got - 2010.06.28 04:50:58.
