data_PCOD8117208
_publ_section_title
;
Structure prediction by ZEFSAII (Michael W. Deem and Ramdas Pophale) SiO2 
 PCOD8117208
Probable space group: P 2/C
;
_chemical_formula_sum "Si O2"
_cell_formula_units_Z 28
_cell_length_a 21.375439
_cell_length_b 11.104123
_cell_length_c 24.724146
_cell_angle_alpha 90.000000
_cell_angle_beta 15.103993
_cell_angle_gamma 90.000000
_cell_volume 1529.142670
_symmetry_space_group_name_H-M "P 2/C"
_symmetry_group_IT_number 13
_symmetry_cell_setting 'monoclinic'
loop_
_space_group_symop_operation_xyz
x,y,z
-x,y,1/2-z
-x,-y,-z
x,-y,1/2+z
loop_
_atom_site_type_symbol
_atom_site_label
_atom_site_fract_x
_atom_site_fract_y
_atom_site_fract_z
Si Si1 0.202015 0.837154 0.321012
Si Si2 0.355973 0.471900 0.316085
Si Si3 0.183085 0.505625 0.244323
Si Si4 0.287385 0.804123 0.890206
Si Si5 0.590338 0.586388 0.340465
Si Si6 0.232806 0.772326 0.171948
Si Si7 0.318926 0.905746 0.751721
O O1 0.312700 0.718558 0.256324
O O2 0.220214 0.825603 0.241970
O O3 0.925274 0.853676 0.572079
O O4 0.358006 0.954023 0.206046
O O5 0.500000 0.511350 0.250000
O O6 0.345921 0.328587 0.318635
O O7 0.473131 0.519848 0.162768
O O8 0.089606 0.527279 0.541436
O O9 0.218412 0.515210 0.280266
O O10 0.268419 0.629302 0.144570
O O11 0.348155 0.402862 0.079088
O O12 0.500000 0.850761 0.750000
O O13 0.283367 0.898264 0.845218
O O14 0.028524 0.801904 0.136912
O O15 0.448638 0.830500 0.959081
#
# Coordination Sequence:
#
# PCOD8117208 Si02
#       7
#     4   4   4   4   4   4   4
#     4   9  20  32  49  75  98 124 164 202 241 294
#     4  10  20  34  52  74 103 135 164 203 252 298
#     4   9  19  32  52  78  99 128 168 206 250 298
#     4   9  19  33  49  73  98 123 164 203 236 292
#     4  10  19  33  51  75 103 130 165 208 248 297
#     4   9  17  31  51  74  96 122 158 202 248 289
#     4  10  18  33  52  71  98 129 158 202 250 284
#
# _framework density 18.310915000000001
#
# number of rings (size 3 to 8) (size 9 to 14) (size 15 to 20)
#    0.000    2.571    0.000    2.571    0.000    4.571 
#    0.000    5.000    0.000    1.714    0.000    0.000 
#    0.000    0.000    0.000    0.000    0.000    0.000 
#
# Total GULP energy -347046.827599 kJ/mol
# GULP energy per Si atom -12394.529557 kJ/mol
# Density = 1.826924 g / cm^3
# Si number density = 18.310915 Si / 1000 Ang^3
#
#
#
# Elastic Constant Matrix: (Units=GPa)
#
#
# Indices 1 2 3 4 5 6 
#
# 1 77.9067 17.6779 27.5129 0.0000 -10.9218 0.0000
# 2 17.6779 59.4237 17.3361 0.0000 6.3268 0.0000
# 3 27.5129 17.3361 87.4804 0.0000 -1.9612 0.0000
# 4 0.0000 0.0000 0.0000 25.4065 0.0000 1.1250
# 5 -10.9218 6.3268 -1.9612 0.0000 26.1892 0.0000
# 6 0.0000 0.0000 0.0000 1.1250 0.0000 18.0346
#
#
#
# Elastic Compliance Matrix: (Units=1/GPa)
#
#
# Indices 1 2 3 4 5 6 
#
# 1 0.016362 -0.004485 -0.004087 0.000000 0.007601 0.000000
# 2 -0.004485 0.019658 -0.002638 0.000000 -0.006817 0.000000
# 3 -0.004087 -0.002638 0.013238 0.000000 -0.000076 0.000000
# 4 0.000000 0.000000 0.000000 0.039469 0.000000 -0.002462
# 5 0.007601 -0.006817 -0.000076 0.000000 0.042995 0.000000
# 6 0.000000 0.000000 0.000000 -0.002462 0.000000 0.055603
#
#
# Mechanical properties :
#
#
# Convention : Reuss Voigt Hill
#
# Bulk Modulus (GPa) = 37.25963 38.87385 38.06674
# Shear Modulus (GPa) = 22.86350 24.74500 23.80425
#
# Velocity S-wave (km/s) = 3.53742 3.68010 3.60947
# Velocity P-wave (km/s) = 6.08909 6.27164 6.18104
#
# Compressibility (1/GPa) = 0.02683870
#
# Stress axis : x y z
#
# Youngs Moduli (GPa) = 61.11589 50.87038 75.54265
#
# Poissons Ratio (x) = 0.22813 0.30874
# Poissons Ratio (y) = 0.27408 0.19928
# Poissons Ratio (z) = 0.24977 0.13420
#
# Static dielectric constant tensor:
#      x y z
#    x 3.258820 0.000000 -0.194460 
#    y 0.000000 3.214200 0.000000 
#    z -0.194460 0.000000 3.526460 
# 
# 
# High freq. dielectric constant tensor:
#      x y z
#    x 1.688350 0.000000 -0.002390 
#    y 0.000000 1.686990 0.000000 
#    z -0.002390 0.000000 1.719170 
# 
# From -- ./inp_files/81026.got.cif
#   From: 2010.06.25/outbox.cif.g09.slc.cpg/sg13_41_cif.got.tgz:81026.got - 2010.06.28 04:50:58.
