data_PCOD8117928
_publ_section_title
;
Structure prediction by ZEFSAII (Michael W. Deem and Ramdas Pophale) SiO2 
 PCOD8117928
Probable space group: P 2/C
;
_chemical_formula_sum "Si O2"
_cell_formula_units_Z 32
_cell_length_a 8.701693
_cell_length_b 13.594199
_cell_length_c 14.586166
_cell_angle_alpha 90.000000
_cell_angle_beta 109.232209
_cell_angle_gamma 90.000000
_cell_volume 1629.140530
_symmetry_space_group_name_H-M "P 2/C"
_symmetry_group_IT_number 13
_symmetry_cell_setting 'monoclinic'
loop_
_space_group_symop_operation_xyz
x,y,z
-x,y,1/2-z
-x,-y,-z
x,-y,1/2+z
loop_
_atom_site_type_symbol
_atom_site_label
_atom_site_fract_x
_atom_site_fract_y
_atom_site_fract_z
Si Si1 0.609906 0.311119 0.002482
Si Si2 0.416990 0.662294 0.642085
Si Si3 0.587706 0.974324 0.363665
Si Si4 0.659236 0.831839 0.118687
Si Si5 0.137958 0.714952 0.203879
Si Si6 0.652918 0.442394 0.840720
Si Si7 0.136981 0.172954 0.524785
Si Si8 0.216834 0.157680 0.045619
O O1 0.455141 0.257390 0.931081
O O2 0.646706 0.402313 0.943380
O O3 0.764585 0.236037 0.032368
O O4 0.562086 0.347628 0.094823
O O5 0.500000 0.703754 0.750000
O O6 0.328948 0.559121 0.646237
O O7 0.271397 0.733398 0.584175
O O8 0.500000 0.960658 0.250000
O O9 0.445067 0.933076 0.400992
O O10 0.753159 0.913375 0.412122
O O11 0.639395 0.086647 0.389420
O O12 0.737454 0.796605 0.229937
O O13 0.794076 0.850806 0.067204
O O14 0.204968 0.607191 0.191213
O O15 0.077078 0.758325 0.096135
O O16 0.000000 0.694292 0.250000
O O17 0.500000 0.412639 0.750000
O O18 0.964059 0.133645 0.449326
#
# Coordination Sequence:
#
# PCOD8117928 Si02
#       8
#     4   4   4   4   4   4   4   4
#     4   9  19  35  60  85 113 148 198 246 301 353
#     4  10  22  40  58  81 116 162 204 244 293 365
#     4  11  21  35  59  87 115 157 207 249 295 357
#     4  10  19  34  58  85 114 151 197 248 297 357
#     4  11  19  34  58  92 123 148 192 255 322 350
#     4  10  19  34  61  90 114 151 202 250 300 363
#     4  10  21  35  59  88 118 156 195 253 306 356
#     4  11  22  38  55  82 124 161 197 244 303 362
#
# _framework density 19.642258999999999
#
# number of rings (size 3 to 8) (size 9 to 14) (size 15 to 20)
#    0.000    1.750    3.750    1.500    0.000    0.000 
#    0.000    5.625    0.000    0.000    0.000    0.000 
#    0.000    0.000    0.000    0.000    0.000    0.000 
#
# Total GULP energy -396487.298096 kJ/mol
# GULP energy per Si atom -12390.228066 kJ/mol
# Density = 1.959755 g / cm^3
# Si number density = 19.642259 Si / 1000 Ang^3
#
#
#
# Elastic Constant Matrix: (Units=GPa)
#
#
# Indices 1 2 3 4 5 6 
#
# 1 113.4913 39.0457 27.1727 0.0000 3.2914 0.0000
# 2 39.0457 85.5990 15.5476 0.0000 5.5242 0.0000
# 3 27.1727 15.5476 63.9567 0.0000 -0.5441 0.0000
# 4 0.0000 0.0000 0.0000 18.9501 0.0000 -4.1511
# 5 3.2914 5.5242 -0.5441 0.0000 26.9338 0.0000
# 6 0.0000 0.0000 0.0000 -4.1511 0.0000 19.1728
#
#
#
# Elastic Compliance Matrix: (Units=1/GPa)
#
#
# Indices 1 2 3 4 5 6 
#
# 1 0.011233 -0.004416 -0.003704 0.000000 -0.000542 0.000000
# 2 -0.004416 0.014138 -0.001581 0.000000 -0.002392 0.000000
# 3 -0.003704 -0.001581 0.017603 0.000000 0.001132 0.000000
# 4 0.000000 0.000000 0.000000 0.055397 0.000000 0.011994
# 5 -0.000542 -0.002392 0.001132 0.000000 0.037708 0.000000
# 6 0.000000 0.000000 0.000000 0.011994 0.000000 0.054754
#
#
# Mechanical properties :
#
#
# Convention : Reuss Voigt Hill
#
# Bulk Modulus (GPa) = 42.42172 47.39767 44.90969
# Shear Modulus (GPa) = 22.92602 25.09675 24.01139
#
# Velocity S-wave (km/s) = 3.42011 3.57836 3.50013
# Velocity P-wave (km/s) = 6.10248 6.42306 6.26482
#
# Compressibility (1/GPa) = 0.02357283
#
# Stress axis : x y z
#
# Youngs Moduli (GPa) = 89.02294 70.72933 56.80840
#
# Poissons Ratio (x) = 0.31236 0.21039
# Poissons Ratio (y) = 0.39315 0.08982
# Poissons Ratio (z) = 0.32970 0.11183
#
# Static dielectric constant tensor:
#      x y z
#    x 3.700460 0.000000 -0.182820 
#    y 0.000000 3.471510 0.000000 
#    z -0.182820 0.000000 3.604300 
# 
# 
# High freq. dielectric constant tensor:
#      x y z
#    x 1.764760 0.000000 -0.004590 
#    y 0.000000 1.760740 0.000000 
#    z -0.004590 0.000000 1.752830 
# 
# From -- ./inp_files/47715.got.cif
#   From: 2010.06.25/outbox.cif.g09.slc.cpg/sg13_24_cif.got.tgz:47715.got - 2010.06.28 04:50:58.
