data_PCOD8117430
_publ_section_title
;
Structure prediction by ZEFSAII (Michael W. Deem and Ramdas Pophale) SiO2 
 PCOD8117430
Probable space group: P 2/C
;
_chemical_formula_sum "Si O2"
_cell_formula_units_Z 26
_cell_length_a 8.286604
_cell_length_b 9.389720
_cell_length_c 22.241842
_cell_angle_alpha 90.000000
_cell_angle_beta 129.125019
_cell_angle_gamma 90.000000
_cell_volume 1342.559325
_symmetry_space_group_name_H-M "P 2/C"
_symmetry_group_IT_number 13
_symmetry_cell_setting 'monoclinic'
loop_
_space_group_symop_operation_xyz
x,y,z
-x,y,1/2-z
-x,-y,-z
x,-y,1/2+z
loop_
_atom_site_type_symbol
_atom_site_label
_atom_site_fract_x
_atom_site_fract_y
_atom_site_fract_z
Si Si1 0.433883 0.782672 0.517473
Si Si2 0.264844 0.066639 0.491332
Si Si3 0.067079 0.124430 0.169322
Si Si4 0.000000 0.654078 0.750000
Si Si5 0.418255 0.738641 0.382340
Si Si6 0.500000 0.259540 0.250000
Si Si7 0.000000 0.112658 0.750000
Si Si8 0.549476 0.566627 0.647570
O O1 0.629373 0.887865 0.548459
O O2 0.358178 0.707018 0.437987
O O3 0.477984 0.659338 0.574439
O O4 0.264676 0.896246 0.503091
O O5 0.387592 0.148063 0.574001
O O6 0.026692 0.113609 0.420971
O O7 0.311604 0.154878 0.221554
O O8 0.960910 0.251739 0.181578
O O9 0.023466 0.978978 0.194998
O O10 0.201410 0.557448 0.788340
O O11 0.210067 0.793233 0.301123
O O12 0.515666 0.597586 0.374765
O O13 0.554481 0.363497 0.318318
#
# Coordination Sequence:
#
# PCOD8117430 Si02
#       8
#     4   4   4   2   4   2   2   4
#     4   9  17  31  57  85 106 141 194 249 290 328
#     4   9  17  33  56  87 109 141 190 254 290 327
#     4  10  18  36  55  84 111 150 199 236 286 347
#     4   9  17  28  58  72 104 154 190 246 276 324
#     4  10  20  31  59  91 113 141 190 262 298 321
#     4  10  26  34  58  80 128 168 188 226 294 364
#     4  11  19  34  66  90 114 140 200 262 292 324
#     4  11  20  37  52  86 119 154 197 232 290 361
#
# _framework density 19.365998000000001
#
# number of rings (size 3 to 8) (size 9 to 14) (size 15 to 20)
#    0.923    1.231    3.077    0.923    4.308    0.000 
#    0.000    2.308    0.000    0.000    0.000    0.000 
#    0.000    0.000    0.000    0.000    0.000    0.000 
#
# Total GULP energy -322091.215461 kJ/mol
# GULP energy per Si atom -12388.123672 kJ/mol
# Density = 1.932192 g / cm^3
# Si number density = 19.365998 Si / 1000 Ang^3
#
#
#
# Elastic Constant Matrix: (Units=GPa)
#
#
# Indices 1 2 3 4 5 6 
#
# 1 33.4446 13.5870 0.0367 0.0000 3.6211 0.0000
# 2 13.5870 98.1824 31.0650 0.0000 7.1523 0.0000
# 3 0.0367 31.0650 94.9784 0.0000 12.2062 0.0000
# 4 0.0000 0.0000 0.0000 25.5014 0.0000 3.2294
# 5 3.6211 7.1523 12.2062 0.0000 16.0754 0.0000
# 6 0.0000 0.0000 0.0000 3.2294 0.0000 12.3582
#
#
#
# Elastic Compliance Matrix: (Units=1/GPa)
#
#
# Indices 1 2 3 4 5 6 
#
# 1 0.032604 -0.004774 0.002460 0.000000 -0.007088 0.000000
# 2 -0.004774 0.012149 -0.003785 0.000000 -0.001456 0.000000
# 3 0.002460 -0.003785 0.012877 0.000000 -0.008648 0.000000
# 4 0.000000 0.000000 0.000000 0.040556 0.000000 -0.010598
# 5 -0.007088 -0.001456 -0.008648 0.000000 0.071018 0.000000
# 6 0.000000 0.000000 0.000000 -0.010598 0.000000 0.083687
#
#
# Mechanical properties :
#
#
# Convention : Reuss Voigt Hill
#
# Bulk Modulus (GPa) = 22.01044 35.10918 28.55981
# Shear Modulus (GPa) = 17.84225 22.91477 20.37851
#
# Velocity S-wave (km/s) = 3.03862 3.44357 3.24741
# Velocity P-wave (km/s) = 4.86838 5.82920 5.37032
#
# Compressibility (1/GPa) = 0.04543299
#
# Stress axis : x y z
#
# Youngs Moduli (GPa) = 30.67075 82.30896 77.65773
#
# Poissons Ratio (x) = 0.39293 -0.19102
# Poissons Ratio (y) = 0.14642 0.29391
# Poissons Ratio (z) = -0.07544 0.31152
#
# Static dielectric constant tensor:
#      x y z
#    x 3.122150 0.000000 0.078190 
#    y 0.000000 3.368720 0.000000 
#    z 0.078190 0.000000 3.571970 
# 
# 
# High freq. dielectric constant tensor:
#      x y z
#    x 1.702500 0.000000 0.010380 
#    y 0.000000 1.748010 0.000000 
#    z 0.010380 0.000000 1.762450 
# 
# From -- ./inp_files/84874.got.cif
#   From: 2010.06.25/outbox.cif.g09.slc.cpg/sg13_43_cif.got.tgz:84874.got - 2010.06.28 04:50:58.
