data_PCOD8117196
_publ_section_title
;
Structure prediction by ZEFSAII (Michael W. Deem and Ramdas Pophale) SiO2 
 PCOD8117196
Probable space group: P 2/C
;
_chemical_formula_sum "Si O2"
_cell_formula_units_Z 26
_cell_length_a 17.808085
_cell_length_b 11.485968
_cell_length_c 18.629392
_cell_angle_alpha 90.000000
_cell_angle_beta 20.235310
_cell_angle_gamma 90.000000
_cell_volume 1317.967083
_symmetry_space_group_name_H-M "P 2/C"
_symmetry_group_IT_number 13
_symmetry_cell_setting 'monoclinic'
loop_
_space_group_symop_operation_xyz
x,y,z
-x,y,1/2-z
-x,-y,-z
x,-y,1/2+z
loop_
_atom_site_type_symbol
_atom_site_label
_atom_site_fract_x
_atom_site_fract_y
_atom_site_fract_z
Si Si1 0.410424 0.675149 0.207519
Si Si2 0.428702 0.558331 0.639179
Si Si3 0.689797 0.209514 0.899833
Si Si4 0.985396 0.705327 0.497908
Si Si5 0.500000 0.167551 0.750000
Si Si6 0.676908 0.161278 0.373541
Si Si7 0.218572 0.001307 0.097718
O O1 0.470846 0.538410 0.163883
O O2 0.356202 0.744587 0.329795
O O3 0.199792 0.666351 0.347027
O O4 0.615598 0.735004 0.983847
O O5 0.500000 0.500000 0.500000
O O6 0.571874 0.671217 0.527574
O O7 0.175060 0.595831 0.868413
O O8 0.929644 0.238486 0.653211
O O9 0.713159 0.133133 0.951688
O O10 0.544158 0.135533 0.972915
O O11 0.864077 0.804573 0.650805
O O12 0.618785 0.079758 0.591906
O O13 0.784234 0.053286 0.319190
O O14 0.000000 0.007825 0.250000
#
# Coordination Sequence:
#
# PCOD8117196 Si02
#       7
#     4   4   4   4   2   4   4
#     4  10  19  35  58  88 114 147 200 229 292 348
#     4  11  19  35  59  88 120 144 183 247 293 345
#     4  10  22  35  56  89 115 150 194 240 296 349
#     4  10  18  32  60  90 112 147 183 241 299 333
#     4  10  24  42  60  76 114 166 192 244 286 348
#     4   9  19  35  58  86 114 146 194 246 283 342
#     4  11  23  40  57  80 117 156 200 239 291 354
#
# _framework density 19.727352
#
# number of rings (size 3 to 8) (size 9 to 14) (size 15 to 20)
#    0.000    1.846    4.615    1.846    0.000    3.077 
#    0.000    2.308    0.000    0.000    0.000    0.000 
#    0.000    0.000    0.000    0.000    0.000    0.000 
#
# Total GULP energy -322106.467576 kJ/mol
# GULP energy per Si atom -12388.710291 kJ/mol
# Density = 1.968245 g / cm^3
# Si number density = 19.727352 Si / 1000 Ang^3
#
#
#
# Elastic Constant Matrix: (Units=GPa)
#
#
# Indices 1 2 3 4 5 6 
#
# 1 54.3821 50.4265 31.0435 0.0000 3.6806 0.0000
# 2 50.4265 131.0818 54.2983 0.0000 3.0844 0.0000
# 3 31.0435 54.2983 93.1535 0.0000 -2.4254 0.0000
# 4 0.0000 0.0000 0.0000 25.1368 0.0000 2.5737
# 5 3.6806 3.0844 -2.4254 0.0000 23.3883 0.0000
# 6 0.0000 0.0000 0.0000 2.5737 0.0000 39.9104
#
#
#
# Elastic Compliance Matrix: (Units=1/GPa)
#
#
# Indices 1 2 3 4 5 6 
#
# 1 0.030186 -0.009637 -0.004545 0.000000 -0.003951 0.000000
# 2 -0.009637 0.013222 -0.004514 0.000000 -0.000695 0.000000
# 3 -0.004545 -0.004514 0.014955 0.000000 0.002861 0.000000
# 4 0.000000 0.000000 0.000000 0.040047 0.000000 -0.002583
# 5 -0.003951 -0.000695 0.002861 0.000000 0.043767 0.000000
# 6 0.000000 0.000000 0.000000 -0.002583 0.000000 0.025223
#
#
# Mechanical properties :
#
#
# Convention : Reuss Voigt Hill
#
# Bulk Modulus (GPa) = 47.68244 61.12822 54.40533
# Shear Modulus (GPa) = 23.60923 27.21038 25.40981
#
# Velocity S-wave (km/s) = 3.46320 3.71795 3.59283
# Velocity P-wave (km/s) = 6.34152 7.03454 6.69700
#
# Compressibility (1/GPa) = 0.02097208
#
# Stress axis : x y z
#
# Youngs Moduli (GPa) = 33.12772 75.63097 66.86643
#
# Poissons Ratio (x) = 0.72883 0.30393
# Poissons Ratio (y) = 0.31924 0.30182
# Poissons Ratio (z) = 0.15058 0.34138
#
# Static dielectric constant tensor:
#      x y z
#    x 3.688690 0.000000 0.086920 
#    y 0.000000 3.861690 0.000000 
#    z 0.086920 0.000000 3.692440 
# 
# 
# High freq. dielectric constant tensor:
#      x y z
#    x 1.736290 0.000000 -0.001000 
#    y 0.000000 1.783430 0.000000 
#    z -0.001000 0.000000 1.764560 
# 
# From -- ./inp_files/69915.got.cif
#   From: 2010.06.25/outbox.cif.g09.slc.cpg/sg13_35_cif.got.tgz:69915.got - 2010.06.28 04:50:58.
