data_PCOD8117071
_publ_section_title
;
Structure prediction by ZEFSAII (Michael W. Deem and Ramdas Pophale) SiO2 
 PCOD8117071
Probable space group: P 2/C
;
_chemical_formula_sum "Si O2"
_cell_formula_units_Z 30
_cell_length_a 10.317669
_cell_length_b 8.875376
_cell_length_c 18.343261
_cell_angle_alpha 90.000000
_cell_angle_beta 59.174089
_cell_angle_gamma 90.000000
_cell_volume 1442.449595
_symmetry_space_group_name_H-M "P 2/C"
_symmetry_group_IT_number 13
_symmetry_cell_setting 'monoclinic'
loop_
_space_group_symop_operation_xyz
x,y,z
-x,y,1/2-z
-x,-y,-z
x,-y,1/2+z
loop_
_atom_site_type_symbol
_atom_site_label
_atom_site_fract_x
_atom_site_fract_y
_atom_site_fract_z
Si Si1 0.495447 0.297020 0.934942
Si Si2 0.092231 0.937238 0.323453
Si Si3 0.623501 0.764381 0.652531
Si Si4 0.156415 0.282093 0.294406
Si Si5 0.414408 0.619891 0.612869
Si Si6 0.000000 0.516903 0.250000
Si Si7 0.365046 0.107707 0.845227
Si Si8 0.185731 0.209461 0.649918
O O1 0.576921 0.441514 0.875068
O O2 0.386257 0.215959 0.908561
O O3 0.637849 0.195713 0.921555
O O4 0.393641 0.342822 0.033371
O O5 0.200013 0.871532 0.356130
O O6 0.167171 0.887918 0.227150
O O7 0.924710 0.862793 0.380381
O O8 0.080540 0.117590 0.320169
O O9 0.500000 0.741833 0.750000
O O10 0.775484 0.694032 0.644069
O O11 0.578792 0.677489 0.592319
O O12 0.633039 0.937847 0.627311
O O13 0.283467 0.294180 0.194382
O O14 0.037015 0.411515 0.309327
O O15 0.861573 0.617764 0.318394
O O16 0.500000 0.141418 0.750000
#
# Coordination Sequence:
#
# PCOD8117071 Si02
#       8
#     4   4   4   4   4   2   4   4
#     4  11  22  36  55  80 121 144 183 220 276 334
#     4   9  19  34  57  81 109 134 186 230 279 309
#     4   8  18  34  54  80 106 131 188 230 272 309
#     4  10  18  36  58  82 107 141 183 235 269 324
#     4  10  22  36  53  81 115 149 177 224 276 330
#     4  10  18  30  56  80 106 144 186 226 270 322
#     4  10  18  33  57  82 104 143 186 237 264 323
#     4  10  20  34  51  86 111 144 179 230 273 328
#
# _framework density 20.797954000000001
#
# number of rings (size 3 to 8) (size 9 to 14) (size 15 to 20)
#    0.000    2.400    2.667    1.600    0.000    4.267 
#    0.000    0.000    2.933    4.000    0.000    0.000 
#    0.000    0.000    0.000    0.000    0.000    0.000 
#
# Total GULP energy -371689.316880 kJ/mol
# GULP energy per Si atom -12389.643896 kJ/mol
# Density = 2.075062 g / cm^3
# Si number density = 20.797954 Si / 1000 Ang^3
#
#
#
# Elastic Constant Matrix: (Units=GPa)
#
#
# Indices 1 2 3 4 5 6 
#
# 1 108.0459 44.8443 18.7636 0.0000 26.0644 0.0000
# 2 44.8443 69.0647 5.2719 0.0000 20.2873 0.0000
# 3 18.7636 5.2719 30.7449 0.0000 16.4555 0.0000
# 4 0.0000 0.0000 0.0000 18.8399 0.0000 14.8083
# 5 26.0644 20.2873 16.4555 0.0000 28.1191 0.0000
# 6 0.0000 0.0000 0.0000 14.8083 0.0000 15.6428
#
#
#
# Elastic Compliance Matrix: (Units=1/GPa)
#
#
# Indices 1 2 3 4 5 6 
#
# 1 0.014443 -0.007485 -0.004741 0.000000 -0.005213 0.000000
# 2 -0.007485 0.022976 0.008426 0.000000 -0.014570 0.000000
# 3 -0.004741 0.008426 0.050782 0.000000 -0.031403 0.000000
# 4 0.000000 0.000000 0.000000 0.207398 0.000000 -0.196334
# 5 -0.005213 -0.014570 -0.031403 0.000000 0.069284 0.000000
# 6 0.000000 0.000000 0.000000 -0.196334 0.000000 0.249788
#
#
# Mechanical properties :
#
#
# Convention : Reuss Voigt Hill
#
# Bulk Modulus (GPa) = 12.40665 38.40168 25.40417
# Shear Modulus (GPa) = 7.70255 21.78542 14.74399
#
# Velocity S-wave (km/s) = 1.92654 3.23999 2.66543
# Velocity P-wave (km/s) = 3.30560 5.70096 4.65983
#
# Compressibility (1/GPa) = 0.08060193
#
# Stress axis : x y z
#
# Youngs Moduli (GPa) = 69.23945 43.52457 19.69209
#
# Poissons Ratio (x) = 0.32576 0.09336
# Poissons Ratio (y) = 0.51823 -0.16593
# Poissons Ratio (z) = 0.32825 -0.36675
#
# Static dielectric constant tensor:
#      x y z
#    x 4.355090 0.000000 0.317290 
#    y 0.000000 3.832880 0.000000 
#    z 0.317290 0.000000 3.256860 
# 
# 
# High freq. dielectric constant tensor:
#      x y z
#    x 1.829490 0.000000 0.019850 
#    y 0.000000 1.817380 0.000000 
#    z 0.019850 0.000000 1.763140 
# 
# From -- ./inp_files/66006.got.cif
#   From: 2010.06.25/outbox.cif.g09.slc.cpg/sg13_34_cif.got.tgz:66006.got - 2010.06.28 04:50:58.
