data_PCOD8117299
_publ_section_title
;
Structure prediction by ZEFSAII (Michael W. Deem and Ramdas Pophale) SiO2 
 PCOD8117299
Probable space group: P 2/C
;
_chemical_formula_sum "Si O2"
_cell_formula_units_Z 28
_cell_length_a 24.684324
_cell_length_b 6.360143
_cell_length_c 13.799439
_cell_angle_alpha 90.000000
_cell_angle_beta 137.920856
_cell_angle_gamma 90.000000
_cell_volume 1451.863469
_symmetry_space_group_name_H-M "P 2/C"
_symmetry_group_IT_number 13
_symmetry_cell_setting 'monoclinic'
loop_
_space_group_symop_operation_xyz
x,y,z
-x,y,1/2-z
-x,-y,-z
x,-y,1/2+z
loop_
_atom_site_type_symbol
_atom_site_label
_atom_site_fract_x
_atom_site_fract_y
_atom_site_fract_z
Si Si1 0.887994 0.770437 0.100842
Si Si2 0.001176 0.008020 0.387034
Si Si3 0.709611 0.747571 0.924367
Si Si4 0.635233 0.019526 0.483666
Si Si5 0.000000 0.611426 0.750000
Si Si6 0.500000 0.664968 0.750000
Si Si7 0.596205 0.988477 0.142845
Si Si8 0.383711 0.357668 0.682838
O O1 0.917823 0.893978 0.044810
O O2 0.923584 0.883220 0.243538
O O3 0.919294 0.530659 0.140179
O O4 0.791592 0.782035 0.974591
O O5 0.998664 0.247123 0.345280
O O6 0.000000 0.000000 0.500000
O O7 0.697860 0.499085 0.927839
O O8 0.711837 0.874242 0.030132
O O9 0.630564 0.835657 0.762174
O O10 0.613252 0.799338 0.404350
O O11 0.562594 0.186300 0.387434
O O12 0.649073 0.979554 0.615636
O O13 0.459194 0.515511 0.776039
O O14 0.614250 0.760937 0.212327
O O15 0.500000 0.000000 0.000000
#
# Coordination Sequence:
#
# PCOD8117299 Si02
#       8
#     4   4   4   4   2   2   4   4
#     4   9  20  37  56  85 119 149 184 223 274 335
#     4   9  19  37  64  90 113 145 183 224 272 330
#     4  10  23  38  54  81 116 151 187 231 282 336
#     4  10  21  36  53  77 107 141 184 234 284 333
#     4   8  18  36  58  82 116 150 180 222 272 330
#     4  10  18  34  56  76 102 138 182 234 290 340
#     4  11  22  37  57  81 108 146 197 245 285 329
#     4  10  21  36  55  76 106 144 185 236 290 336
#
# _framework density 19.28556
#
# number of rings (size 3 to 8) (size 9 to 14) (size 15 to 20)
#    0.000    2.571    0.000    3.857    0.000   12.571 
#    0.000    2.857    0.000    0.000    0.000    0.000 
#    0.000    0.000    0.000    0.000    0.000    0.000 
#
# Total GULP energy -347041.234521 kJ/mol
# GULP energy per Si atom -12394.329804 kJ/mol
# Density = 1.924166 g / cm^3
# Si number density = 19.285560 Si / 1000 Ang^3
#
#
#
# Elastic Constant Matrix: (Units=GPa)
#
#
# Indices 1 2 3 4 5 6 
#
# 1 136.9508 52.5465 54.3598 0.0000 -10.7152 0.0000
# 2 52.5465 136.0931 35.0947 0.0000 -3.9860 0.0000
# 3 54.3598 35.0947 61.3735 0.0000 -8.4332 0.0000
# 4 0.0000 0.0000 0.0000 12.0815 0.0000 -3.5019
# 5 -10.7152 -3.9860 -8.4332 0.0000 49.7042 0.0000
# 6 0.0000 0.0000 0.0000 -3.5019 0.0000 17.2070
#
#
#
# Elastic Compliance Matrix: (Units=1/GPa)
#
#
# Indices 1 2 3 4 5 6 
#
# 1 0.011821 -0.002193 -0.009103 0.000000 0.000828 0.000000
# 2 -0.002193 0.009027 -0.003261 0.000000 -0.000302 0.000000
# 3 -0.009103 -0.003261 0.026534 0.000000 0.002278 0.000000
# 4 0.000000 0.000000 0.000000 0.087960 0.000000 0.017901
# 5 0.000828 -0.000302 0.002278 0.000000 0.020660 0.000000
# 6 0.000000 0.000000 0.000000 0.017901 0.000000 0.061759
#
#
# Mechanical properties :
#
#
# Convention : Reuss Voigt Hill
#
# Bulk Modulus (GPa) = 54.73778 68.71328 61.72553
# Shear Modulus (GPa) = 19.76577 28.62631 24.19604
#
# Velocity S-wave (km/s) = 3.20488 3.85689 3.54590
# Velocity P-wave (km/s) = 6.49149 7.45258 6.98857
#
# Compressibility (1/GPa) = 0.01826892
#
# Stress axis : x y z
#
# Youngs Moduli (GPa) = 84.59481 110.78384 37.68783
#
# Poissons Ratio (x) = 0.24291 0.34306
# Poissons Ratio (y) = 0.18549 0.12290
# Poissons Ratio (z) = 0.77003 0.36127
#
# Static dielectric constant tensor:
#      x y z
#    x 3.607810 0.000000 -0.116520 
#    y 0.000000 3.806970 0.000000 
#    z -0.116520 0.000000 3.153770 
# 
# 
# High freq. dielectric constant tensor:
#      x y z
#    x 1.756470 0.000000 -0.007650 
#    y 0.000000 1.769820 0.000000 
#    z -0.007650 0.000000 1.709490 
# 
# From -- ./inp_files/54302.got.cif
#   From: 2010.06.25/outbox.cif.g09.slc.cpg/sg13_28_cif.got.tgz:54302.got - 2010.06.28 04:50:58.
