data_PCOD8117839
_publ_section_title
;
Structure prediction by ZEFSAII (Michael W. Deem and Ramdas Pophale) SiO2 
 PCOD8117839
Probable space group: P 2/C
;
_chemical_formula_sum "Si O2"
_cell_formula_units_Z 20
_cell_length_a 12.359465
_cell_length_b 9.120373
_cell_length_c 19.451566
_cell_angle_alpha 90.000000
_cell_angle_beta 26.780525
_cell_angle_gamma 90.000000
_cell_volume 987.945730
_symmetry_space_group_name_H-M "P 2/C"
_symmetry_group_IT_number 13
_symmetry_cell_setting 'monoclinic'
loop_
_space_group_symop_operation_xyz
x,y,z
-x,y,1/2-z
-x,-y,-z
x,-y,1/2+z
loop_
_atom_site_type_symbol
_atom_site_label
_atom_site_fract_x
_atom_site_fract_y
_atom_site_fract_z
Si Si1 0.481045 0.300706 0.840537
Si Si2 0.450666 0.568903 0.600674
Si Si3 0.630433 0.051150 0.837877
Si Si4 0.727625 0.835476 0.423038
Si Si5 0.967556 0.792003 0.686711
O O1 0.500000 0.333866 0.750000
O O2 0.559473 0.449504 0.833826
O O3 0.664946 0.167980 0.756588
O O4 0.217824 0.246855 0.009935
O O5 0.500000 0.500000 0.500000
O O6 0.675779 0.678624 0.487155
O O7 0.204338 0.658572 0.737244
O O8 0.580908 0.149698 0.934434
O O9 0.859436 0.943972 0.716793
O O10 0.381245 0.961582 0.965580
O O11 0.000000 0.861496 0.250000
O O12 0.000000 0.807064 0.750000
#
# Coordination Sequence:
#
# PCOD8117839 Si02
#       5
#     4   4   4   4   4
#     4  12  26  42  61  93 133 169 203 258 320 369
#     4  11  22  39  62  93 121 162 214 252 307 375
#     4  10  20  38  59  92 123 159 212 252 305 376
#     4  10  19  33  62  93 118 151 208 265 302 354
#     4  11  22  41  68  92 126 161 211 268 304 364
#
# _framework density 20.244028
#
# number of rings (size 3 to 8) (size 9 to 14) (size 15 to 20)
#    0.000    1.200    4.000    4.200    2.800    1.600 
#    0.000    4.000    0.000    0.000    0.000    0.000 
#    0.000    0.000    0.000    0.000    0.000    0.000 
#
# Total GULP energy -247884.232524 kJ/mol
# GULP energy per Si atom -12394.211626 kJ/mol
# Density = 2.019795 g / cm^3
# Si number density = 20.244028 Si / 1000 Ang^3
#
#
#
# Elastic Constant Matrix: (Units=GPa)
#
#
# Indices 1 2 3 4 5 6 
#
# 1 107.4078 80.7170 45.8297 0.0000 12.4511 0.0000
# 2 80.7170 168.7346 43.7020 0.0000 3.5098 0.0000
# 3 45.8297 43.7020 80.9836 0.0000 -6.0892 0.0000
# 4 0.0000 0.0000 0.0000 13.7785 0.0000 2.2130
# 5 12.4511 3.5098 -6.0892 0.0000 42.0632 0.0000
# 6 0.0000 0.0000 0.0000 2.2130 0.0000 33.8069
#
#
#
# Elastic Compliance Matrix: (Units=1/GPa)
#
#
# Indices 1 2 3 4 5 6 
#
# 1 0.017983 -0.006665 -0.007015 0.000000 -0.005782 0.000000
# 2 -0.006665 0.009413 -0.001232 0.000000 0.001009 0.000000
# 3 -0.007015 -0.001232 0.017335 0.000000 0.004689 0.000000
# 4 0.000000 0.000000 0.000000 0.073348 0.000000 -0.004801
# 5 -0.005782 0.001009 0.004689 0.000000 0.026080 0.000000
# 6 0.000000 0.000000 0.000000 -0.004801 0.000000 0.029894
#
#
# Mechanical properties :
#
#
# Convention : Reuss Voigt Hill
#
# Bulk Modulus (GPa) = 67.08035 77.51370 72.29703
# Shear Modulus (GPa) = 23.94121 30.38819 27.16470
#
# Velocity S-wave (km/s) = 3.44267 3.87860 3.66712
# Velocity P-wave (km/s) = 7.00075 7.64401 7.32944
#
# Compressibility (1/GPa) = 0.01490750
#
# Stress axis : x y z
#
# Youngs Moduli (GPa) = 55.60946 106.23687 57.68669
#
# Poissons Ratio (x) = 0.70809 0.40464
# Poissons Ratio (y) = 0.37065 0.07106
# Poissons Ratio (z) = 0.39007 0.13086
#
# Static dielectric constant tensor:
#      x y z
#    x 3.844650 0.000000 -0.280750 
#    y 0.000000 4.166570 0.000000 
#    z -0.280750 0.000000 3.565010 
# 
# 
# High freq. dielectric constant tensor:
#      x y z
#    x 1.765790 0.000000 -0.029520 
#    y 0.000000 1.820730 0.000000 
#    z -0.029520 0.000000 1.771020 
# 
# From -- ./inp_files/28276.got.cif
#   From: 2010.06.25/outbox.cif.g09.slc.cpg/sg13_15_cif.got.tgz:28276.got - 2010.06.28 04:50:58.
