data_PCOD8117593
_publ_section_title
;
Structure prediction by ZEFSAII (Michael W. Deem and Ramdas Pophale) SiO2 
 PCOD8117593
Probable space group: P 2/C
;
_chemical_formula_sum "Si O2"
_cell_formula_units_Z 14
_cell_length_a 7.149083
_cell_length_b 9.199932
_cell_length_c 10.067427
_cell_angle_alpha 90.000000
_cell_angle_beta 124.469810
_cell_angle_gamma 90.000000
_cell_volume 545.889005
_symmetry_space_group_name_H-M "P 2/C"
_symmetry_group_IT_number 13
_symmetry_cell_setting 'monoclinic'
loop_
_space_group_symop_operation_xyz
x,y,z
-x,y,1/2-z
-x,-y,-z
x,-y,1/2+z
loop_
_atom_site_type_symbol
_atom_site_label
_atom_site_fract_x
_atom_site_fract_y
_atom_site_fract_z
Si Si1 0.687086 0.739482 0.032717
Si Si2 0.147963 0.440358 0.441011
Si Si3 0.500000 0.071700 0.250000
Si Si4 0.184515 0.186090 0.633930
O O1 0.661834 0.565090 0.005105
O O2 0.664629 0.766519 0.179674
O O3 0.921708 0.801259 0.065645
O O4 0.485435 0.822818 0.873579
O O5 0.248168 0.285793 0.530496
O O6 0.000000 0.417973 0.250000
O O7 0.000000 0.500000 0.500000
O O8 0.731901 0.978396 0.358769
#
# Coordination Sequence:
#
# PCOD8117593 Si02
#       4
#     4   4   2   4
#     4  10  21  43  67  90 131 164 212 267 315 374
#     4  10  18  41  70  93 120 169 218 264 315 369
#     4  12  24  40  60 100 130 168 208 256 324 386
#     4  10  22  43  65  94 126 168 214 259 319 380
#
# _framework density 25.646235999999998
#
# number of rings (size 3 to 8) (size 9 to 14) (size 15 to 20)
#    0.000    1.714    5.714    1.714    0.000    1.143 
#   25.714    2.857    0.000    0.000    0.000    0.000 
#    0.000    0.000    0.000    0.000    0.000    0.000 
#
# Total GULP energy -173455.722789 kJ/mol
# GULP energy per Si atom -12389.694485 kJ/mol
# Density = 2.558786 g / cm^3
# Si number density = 25.646236 Si / 1000 Ang^3
#
#
#
# Elastic Constant Matrix: (Units=GPa)
#
#
# Indices 1 2 3 4 5 6 
#
# 1 22.6239 20.7081 6.4517 0.0000 17.2638 0.0000
# 2 20.7081 170.4098 124.3474 0.0000 1.7852 0.0000
# 3 6.4517 124.3474 208.6982 0.0000 -29.0741 0.0000
# 4 0.0000 0.0000 0.0000 62.1115 0.0000 16.6177
# 5 17.2638 1.7852 -29.0741 0.0000 32.0329 0.0000
# 6 0.0000 0.0000 0.0000 16.6177 0.0000 22.5520
#
#
#
# Elastic Compliance Matrix: (Units=1/GPa)
#
#
# Indices 1 2 3 4 5 6 
#
# 1 0.096185 -0.005153 -0.008110 0.000000 -0.058911 0.000000
# 2 -0.005153 0.012285 -0.007863 0.000000 -0.005044 0.000000
# 3 -0.008110 -0.007863 0.011902 0.000000 0.015612 0.000000
# 4 0.000000 0.000000 0.000000 0.020054 0.000000 -0.014777
# 5 -0.058911 -0.005044 0.015612 0.000000 0.077418 0.000000
# 6 0.000000 0.000000 0.000000 -0.014777 0.000000 0.055230
#
#
# Mechanical properties :
#
#
# Convention : Reuss Voigt Hill
#
# Bulk Modulus (GPa) = 12.80098 78.30515 45.55307
# Shear Modulus (GPa) = 14.64702 40.02093 27.33398
#
# Velocity S-wave (km/s) = 2.39240 3.95460 3.26821
# Velocity P-wave (km/s) = 3.55438 7.17293 5.66059
#
# Compressibility (1/GPa) = 0.07811903
#
# Stress axis : x y z
#
# Youngs Moduli (GPa) = 10.39667 81.40091 84.01805
#
# Poissons Ratio (x) = 0.41948 0.68139
# Poissons Ratio (y) = 0.05358 0.66063
# Poissons Ratio (z) = 0.08432 0.64006
#
# Static dielectric constant tensor:
#      x y z
#    x 4.311020 0.000000 -0.352170 
#    y 0.000000 5.545920 0.000000 
#    z -0.352170 0.000000 4.941350 
# 
# 
# High freq. dielectric constant tensor:
#      x y z
#    x 2.009790 0.000000 -0.011830 
#    y 0.000000 2.036970 0.000000 
#    z -0.011830 0.000000 2.034170 
# 
# From -- ./inp_files/10798.got.cif
#   From: 2010.06.25/outbox.cif.g09.slc.cpg/sg13_6_cif.got.tgz:10798.got - 2010.06.28 04:50:58.
