data_PCOD8117742
_publ_section_title
;
Structure prediction by ZEFSAII (Michael W. Deem and Ramdas Pophale) SiO2 
 PCOD8117742
Probable space group: P 2/C
;
_chemical_formula_sum "Si O2"
_cell_formula_units_Z 30
_cell_length_a 22.061333
_cell_length_b 13.858405
_cell_length_c 8.859133
_cell_angle_alpha 90.000000
_cell_angle_beta 142.214577
_cell_angle_gamma 90.000000
_cell_volume 1659.542419
_symmetry_space_group_name_H-M "P 2/C"
_symmetry_group_IT_number 13
_symmetry_cell_setting 'monoclinic'
loop_
_space_group_symop_operation_xyz
x,y,z
-x,y,1/2-z
-x,-y,-z
x,-y,1/2+z
loop_
_atom_site_type_symbol
_atom_site_label
_atom_site_fract_x
_atom_site_fract_y
_atom_site_fract_z
Si Si1 0.274377 0.246688 0.546315
Si Si2 0.395019 0.629213 0.487234
Si Si3 0.127871 0.592487 0.749121
Si Si4 0.672098 0.523423 0.848144
Si Si5 0.609407 0.688751 0.517753
Si Si6 0.365849 0.061826 0.635433
Si Si7 0.412071 0.888618 0.895691
Si Si8 0.000000 0.500344 0.750000
O O1 0.327357 0.279517 0.807686
O O2 0.164826 0.295043 0.326574
O O3 0.332475 0.286084 0.517011
O O4 0.278962 0.129806 0.537973
O O5 0.348318 0.563371 0.526251
O O6 0.404833 0.560792 0.356939
O O7 0.500000 0.669170 0.750000
O O8 0.071428 0.571485 0.482420
O O9 0.057614 0.572765 0.752884
O O10 0.219391 0.520392 0.942246
O O11 0.668330 0.605157 0.714828
O O12 0.608820 0.774989 0.640424
O O13 0.500000 0.659190 0.250000
O O14 0.370503 0.064248 0.466138
O O15 0.351396 0.948974 0.650465
O O16 0.471100 0.100516 0.904480
#
# Coordination Sequence:
#
# PCOD8117742 Si02
#       8
#     4   4   4   4   4   4   4   2
#     4  10  19  33  49  70 101 127 171 207 244 277
#     4  11  21  31  42  66  95 139 172 199 231 280
#     4  10  20  35  52  74  94 126 154 207 254 313
#     4  11  21  32  48  66 100 127 169 207 243 282
#     4  11  18  31  47  69 100 142 174 206 230 276
#     4   9  17  31  46  66  96 133 167 212 230 277
#     4   9  17  30  46  66  95 135 176 196 241 261
#     4  10  20  36  56  70  96 120 158 198 276 322
#
# _framework density 18.077273000000002
#
# number of rings (size 3 to 8) (size 9 to 14) (size 15 to 20)
#    0.000    1.867    2.667    5.600    0.000    1.067 
#    2.400    0.000    0.000    0.000    0.000    0.000 
#    0.000   36.267    0.000    0.000    0.000    0.000 
#
# Total GULP energy -371724.312015 kJ/mol
# GULP energy per Si atom -12390.810400 kJ/mol
# Density = 1.803613 g / cm^3
# Si number density = 18.077273 Si / 1000 Ang^3
#
#
#
# Elastic Constant Matrix: (Units=GPa)
#
#
# Indices 1 2 3 4 5 6 
#
# 1 38.8587 5.2059 9.7411 0.0000 2.6236 0.0000
# 2 5.2059 55.0752 28.6096 0.0000 4.2343 0.0000
# 3 9.7411 28.6096 79.7441 0.0000 1.0030 0.0000
# 4 0.0000 0.0000 0.0000 13.8622 0.0000 2.4680
# 5 2.6236 4.2343 1.0030 0.0000 17.9762 0.0000
# 6 0.0000 0.0000 0.0000 2.4680 0.0000 21.5589
#
#
#
# Elastic Compliance Matrix: (Units=1/GPa)
#
#
# Indices 1 2 3 4 5 6 
#
# 1 0.026817 -0.000715 -0.002974 0.000000 -0.003580 0.000000
# 2 -0.000715 0.022759 -0.008017 0.000000 -0.004809 0.000000
# 3 -0.002974 -0.008017 0.015762 0.000000 0.001443 0.000000
# 4 0.000000 0.000000 0.000000 0.073640 0.000000 -0.008430
# 5 -0.003580 -0.004809 0.001443 0.000000 0.057204 0.000000
# 6 0.000000 0.000000 0.000000 -0.008430 0.000000 0.047350
#
#
# Mechanical properties :
#
#
# Convention : Reuss Voigt Hill
#
# Bulk Modulus (GPa) = 23.85203 28.97680 26.41442
# Shear Modulus (GPa) = 17.79874 19.35423 18.57649
#
# Velocity S-wave (km/s) = 3.14123 3.27561 3.20912
# Velocity P-wave (km/s) = 5.13610 5.51093 5.32681
#
# Compressibility (1/GPa) = 0.04192515
#
# Stress axis : x y z
#
# Youngs Moduli (GPa) = 37.28938 43.93864 63.44502
#
# Poissons Ratio (x) = 0.03140 0.18871
# Poissons Ratio (y) = 0.02665 0.50866
# Poissons Ratio (z) = 0.11092 0.35227
#
# Static dielectric constant tensor:
#      x y z
#    x 3.393470 0.000000 -0.208200 
#    y 0.000000 3.731710 0.000000 
#    z -0.208200 0.000000 3.428130 
# 
# 
# High freq. dielectric constant tensor:
#      x y z
#    x 1.694280 0.000000 -0.031420 
#    y 0.000000 1.691070 0.000000 
#    z -0.031420 0.000000 1.673000 
# 
# From -- ./inp_files/23500.got.cif
#   From: 2010.06.25/outbox.cif.g09.slc.cpg/sg13_12_cif.got.tgz:23500.got - 2010.06.28 04:50:58.
