data_PCOD8117387
_publ_section_title
;
Structure prediction by ZEFSAII (Michael W. Deem and Ramdas Pophale) SiO2 
 PCOD8117387
Probable space group: P 2/C
;
_chemical_formula_sum "Si O2"
_cell_formula_units_Z 22
_cell_length_a 14.070108
_cell_length_b 5.073385
_cell_length_c 17.142300
_cell_angle_alpha 90.000000
_cell_angle_beta 53.111636
_cell_angle_gamma 90.000000
_cell_volume 978.699384
_symmetry_space_group_name_H-M "P 2/C"
_symmetry_group_IT_number 13
_symmetry_cell_setting 'monoclinic'
loop_
_space_group_symop_operation_xyz
x,y,z
-x,y,1/2-z
-x,-y,-z
x,-y,1/2+z
loop_
_atom_site_type_symbol
_atom_site_label
_atom_site_fract_x
_atom_site_fract_y
_atom_site_fract_z
Si Si1 0.156007 0.252744 0.905900
Si Si2 0.934783 0.758499 0.625881
Si Si3 0.542491 0.750312 0.433077
Si Si4 0.324231 0.256254 0.953537
Si Si5 0.238900 0.244096 0.587455
Si Si6 0.000000 0.503812 0.250000
O O1 0.147824 0.539151 0.872777
O O2 0.134465 0.035106 0.849445
O O3 0.285324 0.220954 0.882499
O O4 0.061914 0.221177 0.022205
O O5 0.950884 0.691950 0.708298
O O6 0.500000 0.500000 0.500000
O O7 0.470061 0.762156 0.386413
O O8 0.687111 0.743683 0.365587
O O9 0.500000 0.000000 0.500000
O O10 0.285563 0.543032 0.002506
O O11 0.256706 0.042255 0.040756
O O12 0.100857 0.297239 0.670110
#
# Coordination Sequence:
#
# PCOD8117387 Si02
#       6
#     4   4   4   4   4   2
#     4  10  20  38  54  79 107 152 192 228 274 333
#     4  10  23  34  54  77 117 148 186 227 280 345
#     4   8  16  31  51  79 106 136 184 234 270 315
#     4  10  18  35  58  79 107 144 193 239 274 326
#     4  10  21  32  53  84 114 146 181 231 289 341
#     4  12  24  38  54  86 124 154 182 238 306 350
#
# _framework density 22.478812000000001
#
# number of rings (size 3 to 8) (size 9 to 14) (size 15 to 20)
#    0.000    2.182    1.818    1.091    5.091    2.909 
#    0.000    0.000    0.000    1.091    0.000    2.545 
#    0.000    0.000    0.000    0.000    0.000    0.000 
#
# Total GULP energy -272584.434923 kJ/mol
# GULP energy per Si atom -12390.201587 kJ/mol
# Density = 2.242765 g / cm^3
# Si number density = 22.478812 Si / 1000 Ang^3
#
#
#
# Elastic Constant Matrix: (Units=GPa)
#
#
# Indices 1 2 3 4 5 6 
#
# 1 187.1174 8.4715 12.3599 0.0000 16.1863 0.0000
# 2 8.4715 91.8375 -9.2099 0.0000 0.2889 0.0000
# 3 12.3599 -9.2099 21.4937 0.0000 6.4601 0.0000
# 4 0.0000 0.0000 0.0000 11.6577 0.0000 3.3049
# 5 16.1863 0.2889 6.4601 0.0000 26.6199 0.0000
# 6 0.0000 0.0000 0.0000 3.3049 0.0000 28.5137
#
#
#
# Elastic Compliance Matrix: (Units=1/GPa)
#
#
# Indices 1 2 3 4 5 6 
#
# 1 0.005814 -0.000812 -0.002838 0.000000 -0.002838 0.000000
# 2 -0.000812 0.011540 0.005718 0.000000 -0.001019 0.000000
# 3 -0.002838 0.005718 0.054050 0.000000 -0.011453 0.000000
# 4 0.000000 0.000000 0.000000 0.088694 0.000000 -0.010280
# 5 -0.002838 -0.001019 -0.011453 0.000000 0.042082 0.000000
# 6 0.000000 0.000000 0.000000 -0.010280 0.000000 0.036262
#
#
# Mechanical properties :
#
#
# Convention : Reuss Voigt Hill
#
# Bulk Modulus (GPa) = 13.23802 35.96572 24.60187
# Shear Modulus (GPa) = 19.26876 32.61339 25.94108
#
# Velocity S-wave (km/s) = 2.93097 3.81314 3.40078
# Velocity P-wave (km/s) = 4.16605 5.95157 5.13699
#
# Compressibility (1/GPa) = 0.07554000
#
# Stress axis : x y z
#
# Youngs Moduli (GPa) = 172.00012 86.65240 18.50136
#
# Poissons Ratio (x) = 0.07036 0.05251
# Poissons Ratio (y) = 0.13967 -0.10580
# Poissons Ratio (z) = 0.48820 -0.49550
#
# Static dielectric constant tensor:
#      x y z
#    x 5.109850 0.000000 -0.038030 
#    y 0.000000 4.209870 0.000000 
#    z -0.038030 0.000000 3.320950 
# 
# 
# High freq. dielectric constant tensor:
#      x y z
#    x 1.920380 0.000000 0.010030 
#    y 0.000000 1.908210 0.000000 
#    z 0.010030 0.000000 1.806290 
# 
# From -- ./inp_files/67096.got.cif
#   From: 2010.06.25/outbox.cif.g09.slc.cpg/sg13_34_cif.got.tgz:67096.got - 2010.06.28 04:50:58.
