data_PCOD8117686
_publ_section_title
;
Structure prediction by ZEFSAII (Michael W. Deem and Ramdas Pophale) SiO2 
 PCOD8117686
Probable space group: P 2/C
;
_chemical_formula_sum "Si O2"
_cell_formula_units_Z 32
_cell_length_a 22.155273
_cell_length_b 6.523361
_cell_length_c 24.565089
_cell_angle_alpha 90.000000
_cell_angle_beta 31.676800
_cell_angle_gamma 90.000000
_cell_volume 1864.366508
_symmetry_space_group_name_H-M "P 2/C"
_symmetry_group_IT_number 13
_symmetry_cell_setting 'monoclinic'
loop_
_space_group_symop_operation_xyz
x,y,z
-x,y,1/2-z
-x,-y,-z
x,-y,1/2+z
loop_
_atom_site_type_symbol
_atom_site_label
_atom_site_fract_x
_atom_site_fract_y
_atom_site_fract_z
Si Si1 0.460423 0.281049 0.856813
Si Si2 0.748569 0.942277 0.211697
Si Si3 0.323581 0.589195 0.157430
Si Si4 0.549830 0.854335 0.794724
Si Si5 0.346211 0.496095 0.844414
Si Si6 0.124671 0.669540 0.852508
Si Si7 0.870194 0.605046 0.048391
Si Si8 0.456886 0.553199 0.950919
O O1 0.378373 0.403333 0.878189
O O2 0.591877 0.362321 0.750147
O O3 0.424547 0.334532 0.946587
O O4 0.466433 0.039363 0.838979
O O5 0.652197 0.066553 0.253800
O O6 0.834692 0.096166 0.176446
O O7 0.687834 0.808329 0.305085
O O8 0.822573 0.808013 0.113433
O O9 0.205419 0.463263 0.251049
O O10 0.422602 0.455792 0.110023
O O11 0.355641 0.619693 0.069461
O O12 0.606046 0.729770 0.700327
O O13 0.465664 0.714212 0.895141
O O14 0.210178 0.471949 0.939670
O O15 0.125974 0.582416 0.912612
O O16 0.995538 0.655511 0.927837
#
# Coordination Sequence:
#
# PCOD8117686 Si02
#       8
#     4   4   4   4   4   4   4   4
#     4  10  20  33  50  72 103 136 170 208 251 310
#     4  11  17  31  50  75 105 135 165 202 260 314
#     4  10  20  32  50  75 103 134 170 213 259 306
#     4  11  18  33  52  74 104 138 165 208 257 307
#     4  10  20  33  50  74 104 134 171 207 255 309
#     4  10  19  32  51  73 104 135 166 210 259 303
#     4  10  19  32  49  76 104 132 169 209 255 309
#     4  10  20  33  48  74 105 132 172 212 256 310
#
# _framework density 17.164007999999999
#
# number of rings (size 3 to 8) (size 9 to 14) (size 15 to 20)
#    0.000    1.750    5.000    1.875    0.000    5.500 
#    0.000    0.000    0.000    0.750    0.000    0.000 
#    0.000    0.000    0.000    0.000    0.000    0.000 
#
# Total GULP energy -396688.627758 kJ/mol
# GULP energy per Si atom -12396.519617 kJ/mol
# Density = 1.712494 g / cm^3
# Si number density = 17.164008 Si / 1000 Ang^3
#
#
#
# Elastic Constant Matrix: (Units=GPa)
#
#
# Indices 1 2 3 4 5 6 
#
# 1 78.5652 27.0881 43.6967 0.0000 -10.7727 0.0000
# 2 27.0881 94.9107 28.5016 0.0000 -3.8454 0.0000
# 3 43.6967 28.5016 96.3340 0.0000 -7.9982 0.0000
# 4 0.0000 0.0000 0.0000 14.7736 0.0000 0.2276
# 5 -10.7727 -3.8454 -7.9982 0.0000 24.5533 0.0000
# 6 0.0000 0.0000 0.0000 0.2276 0.0000 21.6739
#
#
#
# Elastic Compliance Matrix: (Units=1/GPa)
#
#
# Indices 1 2 3 4 5 6 
#
# 1 0.018372 -0.002917 -0.007029 0.000000 0.005314 0.000000
# 2 -0.002917 0.012039 -0.002249 0.000000 -0.000127 0.000000
# 3 -0.007029 -0.002249 0.014337 0.000000 0.001234 0.000000
# 4 0.000000 0.000000 0.000000 0.067699 0.000000 -0.000711
# 5 0.005314 -0.000127 0.001234 0.000000 0.043441 0.000000
# 6 0.000000 0.000000 0.000000 -0.000711 0.000000 0.046146
#
#
# Mechanical properties :
#
#
# Convention : Reuss Voigt Hill
#
# Bulk Modulus (GPa) = 49.12381 52.04255 50.58318
# Shear Modulus (GPa) = 21.43969 23.56839 22.50404
#
# Velocity S-wave (km/s) = 3.53811 3.70959 3.62486
# Velocity P-wave (km/s) = 6.73597 6.98102 6.85959
#
# Compressibility (1/GPa) = 0.02035673
#
# Stress axis : x y z
#
# Youngs Moduli (GPa) = 54.42947 83.06244 69.75014
#
# Poissons Ratio (x) = 0.24233 0.49029
# Poissons Ratio (y) = 0.15879 0.15688
# Poissons Ratio (z) = 0.38260 0.18682
#
# Static dielectric constant tensor:
#      x y z
#    x 3.011570 0.000000 -0.079400 
#    y 0.000000 3.424450 0.000000 
#    z -0.079400 0.000000 3.156880 
# 
# 
# High freq. dielectric constant tensor:
#      x y z
#    x 1.641840 0.000000 -0.007060 
#    y 0.000000 1.675520 0.000000 
#    z -0.007060 0.000000 1.632930 
# 
# From -- ./inp_files/93677.got.cif
#   From: 2010.06.25/outbox.cif.g09.slc.cpg/sg13_47_cif.got.tgz:93677.got - 2010.06.28 04:50:58.
