data_PCOD8117662
_publ_section_title
;
Structure prediction by ZEFSAII (Michael W. Deem and Ramdas Pophale) SiO2 
 PCOD8117662
Probable space group: P 2/C
;
_chemical_formula_sum "Si O2"
_cell_formula_units_Z 28
_cell_length_a 8.447163
_cell_length_b 31.870708
_cell_length_c 5.183471
_cell_angle_alpha 90.000000
_cell_angle_beta 112.036158
_cell_angle_gamma 90.000000
_cell_volume 1293.535304
_symmetry_space_group_name_H-M "P 2/C"
_symmetry_group_IT_number 13
_symmetry_cell_setting 'monoclinic'
loop_
_space_group_symop_operation_xyz
x,y,z
-x,y,1/2-z
-x,-y,-z
x,-y,1/2+z
loop_
_atom_site_type_symbol
_atom_site_label
_atom_site_fract_x
_atom_site_fract_y
_atom_site_fract_z
Si Si1 0.297646 0.523623 0.142271
Si Si2 0.702960 0.838799 0.876080
Si Si3 0.703040 0.695493 0.374990
Si Si4 0.195238 0.980173 0.924783
Si Si5 0.702819 0.111875 0.878740
Si Si6 0.703483 0.255419 0.376918
Si Si7 0.112147 0.608698 0.065343
O O1 0.500000 0.524116 0.250000
O O2 0.227995 0.492373 0.323513
O O3 0.237719 0.569812 0.182445
O O4 0.500000 0.837068 0.750000
O O5 0.767291 0.858873 0.650061
O O6 0.777253 0.791748 0.937975
O O7 0.768993 0.866814 0.155648
O O8 0.500000 0.692678 0.250000
O O9 0.771385 0.721074 0.664082
O O10 0.774971 0.649049 0.426037
O O11 0.771959 0.719475 0.165694
O O12 0.000000 0.992861 0.750000
O O13 0.282676 0.990399 0.700863
O O14 0.209839 0.932716 0.027412
O O15 0.500000 0.106123 0.750000
O O16 0.500000 0.254037 0.250000
O O17 0.000000 0.616259 0.250000
O O18 0.000000 0.598281 0.750000
#
# Coordination Sequence:
#
# PCOD8117662 Si02
#       7
#     4   4   4   4   4   4   4
#     4  10  22  41  64  88 115 149 191 238 282 330
#     4   9  17  30  50  80 109 131 165 215 269 315
#     4  10  20  36  58  82 108 145 192 232 267 318
#     4  10  21  36  52  70  96 133 173 212 253 303
#     4  10  19  31  51  77 105 133 163 210 265 317
#     4   9  17  31  55  82 107 139 181 227 269 317
#     4  12  25  39  58  85 119 155 187 229 285 337
#
# _framework density 21.646101999999999
#
# number of rings (size 3 to 8) (size 9 to 14) (size 15 to 20)
#    0.000    2.000    0.000    3.857    0.000    5.714 
#    0.000    5.714    0.000    8.571    0.000    0.000 
#    0.000    0.000    0.000    0.000    0.000    0.000 
#
# Total GULP energy -347202.510142 kJ/mol
# GULP energy per Si atom -12400.089648 kJ/mol
# Density = 2.159683 g / cm^3
# Si number density = 21.646102 Si / 1000 Ang^3
#
#
#
# Elastic Constant Matrix: (Units=GPa)
#
#
# Indices 1 2 3 4 5 6 
#
# 1 25.1844 21.4374 31.6334 0.0000 -18.1603 0.0000
# 2 21.4374 171.8755 64.5405 0.0000 -14.2917 0.0000
# 3 31.6334 64.5405 161.4122 0.0000 -42.8499 0.0000
# 4 0.0000 0.0000 0.0000 37.3962 0.0000 -16.1224
# 5 -18.1603 -14.2917 -42.8499 0.0000 20.7236 0.0000
# 6 0.0000 0.0000 0.0000 -16.1224 0.0000 11.3951
#
#
#
# Elastic Compliance Matrix: (Units=1/GPa)
#
#
# Indices 1 2 3 4 5 6 
#
# 1 0.127586 -0.010330 0.015331 0.000000 0.136380 0.000000
# 2 -0.010330 0.007723 -0.004551 0.000000 -0.013135 0.000000
# 3 0.015331 -0.004551 0.017167 0.000000 0.045791 0.000000
# 4 0.000000 0.000000 0.000000 0.068562 0.000000 0.097005
# 5 0.136380 -0.013135 0.045791 0.000000 0.253388 0.000000
# 6 0.000000 0.000000 0.000000 0.097005 0.000000 0.225004
#
#
# Mechanical properties :
#
#
# Convention : Reuss Voigt Hill
#
# Bulk Modulus (GPa) = 6.51991 65.96607 36.24299
# Shear Modulus (GPa) = 6.66974 29.96039 18.31506
#
# Velocity S-wave (km/s) = 1.75726 3.72439 2.91196
# Velocity P-wave (km/s) = 2.67130 7.00255 5.29960
#
# Compressibility (1/GPa) = 0.15337632
#
# Stress axis : x y z
#
# Youngs Moduli (GPa) = 7.83785 129.48054 58.25287
#
# Poissons Ratio (x) = 1.33753 -0.89308
# Poissons Ratio (y) = 0.08096 0.26509
# Poissons Ratio (z) = -0.12016 0.58923
#
# Static dielectric constant tensor:
#      x y z
#    x 3.586670 0.000000 -0.350110 
#    y 0.000000 3.926830 0.000000 
#    z -0.350110 0.000000 4.348520 
# 
# 
# High freq. dielectric constant tensor:
#      x y z
#    x 1.820130 0.000000 -0.018960 
#    y 0.000000 1.862010 0.000000 
#    z -0.018960 0.000000 1.867860 
# 
# From -- ./inp_files/2643.got.cif
#   From: 2010.06.25/outbox.cif.g09.slc.cpg/sg13_2_cif.got.tgz:2643.got - 2010.06.28 04:50:58.
