data_PCOD8117887
_publ_section_title
;
Structure prediction by ZEFSAII (Michael W. Deem and Ramdas Pophale) SiO2 
 PCOD8117887
Probable space group: P 2/C
;
_chemical_formula_sum "Si O2"
_cell_formula_units_Z 20
_cell_length_a 11.034981
_cell_length_b 18.922165
_cell_length_c 13.350453
_cell_angle_alpha 90.000000
_cell_angle_beta 21.302556
_cell_angle_gamma 90.000000
_cell_volume 1012.733556
_symmetry_space_group_name_H-M "P 2/C"
_symmetry_group_IT_number 13
_symmetry_cell_setting 'monoclinic'
loop_
_space_group_symop_operation_xyz
x,y,z
-x,y,1/2-z
-x,-y,-z
x,-y,1/2+z
loop_
_atom_site_type_symbol
_atom_site_label
_atom_site_fract_x
_atom_site_fract_y
_atom_site_fract_z
Si Si1 0.897390 0.388149 0.037474
Si Si2 0.750436 0.059556 0.150632
Si Si3 0.757547 0.147004 0.845039
Si Si4 0.683256 0.697909 0.422759
Si Si5 0.858978 0.529860 0.966129
O O1 0.609374 0.331570 0.281149
O O2 0.915059 0.433087 0.125486
O O3 0.821879 0.445340 0.008937
O O4 0.231752 0.348069 0.742322
O O5 0.500000 0.037069 0.250000
O O6 0.523664 0.087725 0.416549
O O7 0.003528 0.122770 0.928679
O O8 0.000000 0.000000 0.000000
O O9 0.589523 0.223525 0.954830
O O10 0.000000 0.156320 0.750000
O O11 0.000000 0.699436 0.250000
O O12 0.000000 0.547121 0.750000
O O13 0.500000 0.566128 0.250000
#
# Coordination Sequence:
#
# PCOD8117887 Si02
#       5
#     4   4   4   4   4
#     4  11  22  34  55  79  99 137 179 218 271 322
#     4  10  19  34  56  82 111 143 178 216 264 317
#     4   9  19  33  53  81 109 137 170 217 269 313
#     4  11  20  34  55  80 109 136 173 224 271 313
#     4  11  22  37  53  74 105 135 175 224 268 319
#
# _framework density 19.748531
#
# number of rings (size 3 to 8) (size 9 to 14) (size 15 to 20)
#    0.000    1.600    0.000    6.600    0.000    6.400 
#    0.000    0.000    0.000   12.000    0.000    0.000 
#    0.000    0.000    0.000    0.000    0.000    0.000 
#
# Total GULP energy -247797.513437 kJ/mol
# GULP energy per Si atom -12389.875672 kJ/mol
# Density = 1.970358 g / cm^3
# Si number density = 19.748531 Si / 1000 Ang^3
#
#
#
# Elastic Constant Matrix: (Units=GPa)
#
#
# Indices 1 2 3 4 5 6 
#
# 1 50.2471 19.4356 21.4459 0.0000 12.3286 0.0000
# 2 19.4356 96.3572 26.6937 0.0000 -2.6651 0.0000
# 3 21.4459 26.6937 113.4061 0.0000 16.5971 0.0000
# 4 0.0000 0.0000 0.0000 19.2880 0.0000 -12.5814
# 5 12.3286 -2.6651 16.5971 0.0000 32.4026 0.0000
# 6 0.0000 0.0000 0.0000 -12.5814 0.0000 0.6445
#
#
#
# Elastic Compliance Matrix: (Units=1/GPa)
#
#
# Indices 1 2 3 4 5 6 
#
# 1 0.024790 -0.004588 -0.002349 0.000000 -0.008607 0.000000
# 2 -0.004588 0.012131 -0.002583 0.000000 0.004066 0.000000
# 3 -0.002349 -0.002583 0.010562 0.000000 -0.004729 0.000000
# 4 0.000000 0.000000 0.000000 -0.004419 0.000000 -0.086257
# 5 -0.008607 0.004066 -0.004729 0.000000 0.036893 0.000000
# 6 0.000000 0.000000 0.000000 -0.086257 0.000000 -0.132237
#
#
# Mechanical properties :
#
#
# Convention : Reuss Voigt Hill
#
# Bulk Modulus (GPa) = 35.15541 43.90674 39.53107
# Shear Modulus (GPa) = -210.45396 23.29603 -93.57896
#
# Velocity S-wave (km/s) = -10.33432 3.43831 -6.89116
# Velocity P-wave (km/s) = 11.16053 6.16796 6.57699
#
# Compressibility (1/GPa) = 0.02844513
#
# Stress axis : x y z
#
# Youngs Moduli (GPa) = 40.33836 82.43019 94.67821
#
# Poissons Ratio (x) = 0.37817 0.22236
# Poissons Ratio (y) = 0.18506 0.24456
# Poissons Ratio (z) = 0.09474 0.21292
#
# Static dielectric constant tensor:
#      x y z
#    x 3.127070 0.000000 -0.095420 
#    y 0.000000 3.864530 0.000000 
#    z -0.095420 0.000000 3.485760 
# 
# 
# High freq. dielectric constant tensor:
#      x y z
#    x 1.734650 0.000000 0.022110 
#    y 0.000000 1.766520 0.000000 
#    z 0.022110 0.000000 1.788510 
# 
# From -- ./inp_files/26400.got.cif
#   From: 2010.06.25/outbox.cif.g09.slc.cpg/sg13_14_cif.got.tgz:26400.got - 2010.06.28 04:50:58.
