data_PCOD8117968
_publ_section_title
;
Structure prediction by ZEFSAII (Michael W. Deem and Ramdas Pophale) SiO2 
 PCOD8117968
Probable space group: P 2/C
;
_chemical_formula_sum "Si O2"
_cell_formula_units_Z 18
_cell_length_a 10.713181
_cell_length_b 17.773197
_cell_length_c 5.246767
_cell_angle_alpha 90.000000
_cell_angle_beta 128.034818
_cell_angle_gamma 90.000000
_cell_volume 786.867480
_symmetry_space_group_name_H-M "P 2/C"
_symmetry_group_IT_number 13
_symmetry_cell_setting 'monoclinic'
loop_
_space_group_symop_operation_xyz
x,y,z
-x,y,1/2-z
-x,-y,-z
x,-y,1/2+z
loop_
_atom_site_type_symbol
_atom_site_label
_atom_site_fract_x
_atom_site_fract_y
_atom_site_fract_z
Si Si1 0.500000 0.449823 0.250000
Si Si2 0.500000 0.230131 0.750000
Si Si3 0.702136 0.684244 0.125908
Si Si4 0.000000 0.258015 0.250000
Si Si5 0.205985 0.811591 0.620589
Si Si6 0.684507 0.954186 0.985591
O O1 0.500000 0.500000 0.500000
O O2 0.659417 0.399100 0.474070
O O3 0.454738 0.282909 0.933198
O O4 0.351631 0.174869 0.503358
O O5 0.850843 0.687489 0.508949
O O6 0.754137 0.732306 0.952119
O O7 0.039730 0.201299 0.061874
O O8 0.205667 0.880696 0.422038
O O9 0.500000 0.930770 0.750000
O O10 0.728098 0.012799 0.816040
#
# Coordination Sequence:
#
# PCOD8117968 Si02
#       6
#     2   2   4   2   4   4
#     4  12  27  46  76 113 142 174 224 288 357 422
#     4  10  19  34  70  99 124 170 242 288 337 392
#     4  11  22  44  69 103 135 182 229 289 339 420
#     4  10  26  40  72  96 142 178 256 274 348 402
#     4  11  22  40  67  98 132 188 239 296 337 419
#     4  10  23  38  61  99 142 183 233 300 363 408
#
# _framework density 22.875515
#
# number of rings (size 3 to 8) (size 9 to 14) (size 15 to 20)
#    0.000    1.333    2.222    2.667   14.000    0.000 
#    0.000    2.222    0.000    0.000    0.000    0.000 
#    0.000    0.000    0.000    0.000    0.000    0.000 
#
# Total GULP energy -223187.123838 kJ/mol
# GULP energy per Si atom -12399.284658 kJ/mol
# Density = 2.282345 g / cm^3
# Si number density = 22.875515 Si / 1000 Ang^3
#
#
#
# Elastic Constant Matrix: (Units=GPa)
#
#
# Indices 1 2 3 4 5 6 
#
# 1 158.6769 66.1414 32.6407 0.0000 -18.5097 0.0000
# 2 66.1414 132.8614 31.6864 0.0000 -4.9921 0.0000
# 3 32.6407 31.6864 56.3748 0.0000 1.1113 0.0000
# 4 0.0000 0.0000 0.0000 25.5017 0.0000 -14.0206
# 5 -18.5097 -4.9921 1.1113 0.0000 48.1866 0.0000
# 6 0.0000 0.0000 0.0000 -14.0206 0.0000 33.9935
#
#
#
# Elastic Compliance Matrix: (Units=1/GPa)
#
#
# Indices 1 2 3 4 5 6 
#
# 1 0.008771 -0.003493 -0.003176 0.000000 0.003080 0.000000
# 2 -0.003493 0.010133 -0.003669 0.000000 -0.000207 0.000000
# 3 -0.003176 -0.003669 0.021680 0.000000 -0.002100 0.000000
# 4 0.000000 0.000000 0.000000 0.050713 0.000000 0.020917
# 5 0.003080 -0.000207 -0.002100 0.000000 0.021963 0.000000
# 6 0.000000 0.000000 0.000000 0.020917 0.000000 0.038044
#
#
# Mechanical properties :
#
#
# Convention : Reuss Voigt Hill
#
# Bulk Modulus (GPa) = 50.22801 67.65001 58.93901
# Shear Modulus (GPa) = 27.99312 36.03267 32.01290
#
# Velocity S-wave (km/s) = 3.50196 3.97314 3.74497
# Velocity P-wave (km/s) = 6.19325 7.11935 6.67239
#
# Compressibility (1/GPa) = 0.01990921
#
# Stress axis : x y z
#
# Youngs Moduli (GPa) = 114.01556 98.68951 46.12446
#
# Poissons Ratio (x) = 0.34474 0.14647
# Poissons Ratio (y) = 0.39828 0.16922
# Poissons Ratio (z) = 0.36206 0.36206
#
# Static dielectric constant tensor:
#      x y z
#    x 4.232490 0.000000 0.002180 
#    y 0.000000 3.802260 0.000000 
#    z 0.002180 0.000000 4.409220 
# 
# 
# High freq. dielectric constant tensor:
#      x y z
#    x 1.910340 0.000000 -0.012600 
#    y 0.000000 1.867140 0.000000 
#    z -0.012600 0.000000 1.921380 
# 
# From -- ./inp_files/1350.got.cif
#   From: 2010.06.25/outbox.cif.g09.slc.cpg/sg13_1_cif.got.tgz:1350.got - 2010.06.28 04:50:58.
