data_PCOD8117965
_publ_section_title
;
Structure prediction by ZEFSAII (Michael W. Deem and Ramdas Pophale) SiO2 
 PCOD8117965
Probable space group: P 2/C
;
_chemical_formula_sum "Si O2"
_cell_formula_units_Z 24
_cell_length_a 19.987697
_cell_length_b 11.702345
_cell_length_c 11.059781
_cell_angle_alpha 90.000000
_cell_angle_beta 152.993745
_cell_angle_gamma 90.000000
_cell_volume 1174.686522
_symmetry_space_group_name_H-M "P 2/C"
_symmetry_group_IT_number 13
_symmetry_cell_setting 'monoclinic'
loop_
_space_group_symop_operation_xyz
x,y,z
-x,y,1/2-z
-x,-y,-z
x,-y,1/2+z
loop_
_atom_site_type_symbol
_atom_site_label
_atom_site_fract_x
_atom_site_fract_y
_atom_site_fract_z
Si Si1 0.208529 0.175898 0.006230
Si Si2 0.870124 0.070778 0.137603
Si Si3 0.846355 0.554997 0.709037
Si Si4 0.336446 0.657549 0.535519
Si Si5 0.168126 0.288930 0.527586
Si Si6 0.104716 0.787522 0.590033
O O1 0.333447 0.254027 0.143116
O O2 0.056371 0.237001 0.722741
O O3 0.223274 0.044210 0.989031
O O4 0.219337 0.176556 0.169431
O O5 0.759473 0.173094 0.911910
O O6 0.922515 0.113297 0.354594
O O7 0.000000 0.036098 0.250000
O O8 0.709801 0.470157 0.503664
O O9 0.831252 0.590970 0.543269
O O10 0.824011 0.671914 0.744478
O O11 0.000000 0.500000 0.000000
O O12 0.500000 0.653319 0.750000
O O13 0.221465 0.696497 0.248584
O O14 0.000000 0.244997 0.250000
#
# Coordination Sequence:
#
# PCOD8117965 Si02
#       6
#     4   4   4   4   4   4
#     4  11  21  35  61  90 130 161 207 269 319 383
#     4  10  19  34  62  97 127 158 206 275 326 370
#     4  11  21  39  64  90 124 164 217 267 319 382
#     4  12  27  42  62  93 132 174 217 266 327 390
#     4  10  21  39  66  93 123 166 212 267 325 380
#     4  10  21  34  60  99 120 159 213 270 320 375
#
# _framework density 20.430980999999999
#
# number of rings (size 3 to 8) (size 9 to 14) (size 15 to 20)
#    0.000    1.333    5.000    2.500    4.667    0.667 
#    0.000    0.833    0.000    0.000    0.000    0.000 
#    0.000    0.000    0.000    0.000    0.000    0.000 
#
# Total GULP energy -297324.154595 kJ/mol
# GULP energy per Si atom -12388.506441 kJ/mol
# Density = 2.038448 g / cm^3
# Si number density = 20.430981 Si / 1000 Ang^3
#
#
#
# Elastic Constant Matrix: (Units=GPa)
#
#
# Indices 1 2 3 4 5 6 
#
# 1 132.5327 56.8383 30.7470 0.0000 -5.9837 0.0000
# 2 56.8383 158.6294 20.4212 0.0000 8.3734 0.0000
# 3 30.7470 20.4212 31.3112 0.0000 -0.9728 0.0000
# 4 0.0000 0.0000 0.0000 21.7559 0.0000 -10.2329
# 5 -5.9837 8.3734 -0.9728 0.0000 32.7407 0.0000
# 6 0.0000 0.0000 0.0000 -10.2329 0.0000 32.6220
#
#
#
# Elastic Compliance Matrix: (Units=1/GPa)
#
#
# Indices 1 2 3 4 5 6 
#
# 1 0.010945 -0.002925 -0.008763 0.000000 0.002488 0.000000
# 2 -0.002925 0.007783 -0.002284 0.000000 -0.002593 0.000000
# 3 -0.008763 -0.002284 0.042039 0.000000 0.000232 0.000000
# 4 0.000000 0.000000 0.000000 0.053920 0.000000 0.016913
# 5 0.002488 -0.002593 0.000232 0.000000 0.031668 0.000000
# 6 0.000000 0.000000 0.000000 0.016913 0.000000 0.035960
#
#
# Mechanical properties :
#
#
# Convention : Reuss Voigt Hill
#
# Bulk Modulus (GPa) = 30.46633 59.83181 45.14907
# Shear Modulus (GPa) = 22.60402 31.72154 27.16278
#
# Velocity S-wave (km/s) = 3.32981 3.94460 3.65017
# Velocity P-wave (km/s) = 5.45231 7.07778 6.31754
#
# Compressibility (1/GPa) = 0.03282312
#
# Stress axis : x y z
#
# Youngs Moduli (GPa) = 91.36635 128.48548 23.78719
#
# Poissons Ratio (x) = 0.37581 0.20844
# Poissons Ratio (y) = 0.26724 0.05434
# Poissons Ratio (z) = 0.80062 0.29351
#
# Static dielectric constant tensor:
#      x y z
#    x 3.844450 0.000000 -0.246590 
#    y 0.000000 4.038880 0.000000 
#    z -0.246590 0.000000 3.061110 
# 
# 
# High freq. dielectric constant tensor:
#      x y z
#    x 1.802320 0.000000 -0.036530 
#    y 0.000000 1.827310 0.000000 
#    z -0.036530 0.000000 1.735320 
# 
# From -- ./inp_files/39235.got.cif
#   From: 2010.06.25/outbox.cif.g09.slc.cpg/sg13_20_cif.got.tgz:39235.got - 2010.06.28 04:50:58.
