data_PCOD8117239
_publ_section_title
;
Structure prediction by ZEFSAII (Michael W. Deem and Ramdas Pophale) SiO2 
 PCOD8117239
Probable space group: P 2/C
;
_chemical_formula_sum "Si O2"
_cell_formula_units_Z 26
_cell_length_a 34.145046
_cell_length_b 5.290747
_cell_length_c 23.660089
_cell_angle_alpha 90.000000
_cell_angle_beta 164.628906
_cell_angle_gamma 90.000000
_cell_volume 1132.977135
_symmetry_space_group_name_H-M "P 2/C"
_symmetry_group_IT_number 13
_symmetry_cell_setting 'monoclinic'
loop_
_space_group_symop_operation_xyz
x,y,z
-x,y,1/2-z
-x,-y,-z
x,-y,1/2+z
loop_
_atom_site_type_symbol
_atom_site_label
_atom_site_fract_x
_atom_site_fract_y
_atom_site_fract_z
Si Si1 0.277718 0.207065 0.780311
Si Si2 0.656933 0.795295 0.000478
Si Si3 0.673733 0.293271 0.976542
Si Si4 0.000000 0.507992 0.250000
Si Si5 0.812457 0.710289 0.893174
Si Si6 0.710468 0.279318 0.895844
Si Si7 0.585816 0.233105 0.170686
O O1 0.182836 0.461644 0.639927
O O2 0.171316 0.964308 0.622007
O O3 0.357536 0.206089 0.952089
O O4 0.410256 0.191834 0.918608
O O5 0.500000 0.805364 0.750000
O O6 0.746030 0.548362 0.102992
O O7 0.745674 0.048766 0.106995
O O8 0.500000 0.304413 0.750000
O O9 0.713114 0.268663 0.966510
O O10 0.056116 0.692226 0.378157
O O11 0.128714 0.326475 0.407001
O O12 0.654542 0.719631 0.704884
O O13 0.604820 0.513408 0.734144
O O14 0.657424 0.008768 0.800399
#
# Coordination Sequence:
#
# PCOD8117239 Si02
#       7
#     4   4   4   2   4   4   4
#     4  12  22  38  62  94 128 159 199 262 323 363
#     4  10  20  34  56  87 123 153 191 240 310 379
#     4  10  18  33  56  89 118 152 196 248 304 351
#     4  10  26  46  62  88 122 174 220 240 300 370
#     4  11  24  39  61  86 125 168 209 256 298 371
#     4  11  22  38  65  90 126 164 207 256 296 376
#     4  11  21  37  59  94 126 157 198 256 328 372
#
# _framework density 22.948388999999999
#
# number of rings (size 3 to 8) (size 9 to 14) (size 15 to 20)
#    0.000    1.231    0.000    9.231    0.000    5.538 
#    0.000    0.000    0.000    5.538    0.000    0.000 
#    0.000    0.000    0.000    0.000    0.000    0.000 
#
# Total GULP energy -322314.504141 kJ/mol
# GULP energy per Si atom -12396.711698 kJ/mol
# Density = 2.289616 g / cm^3
# Si number density = 22.948389 Si / 1000 Ang^3
#
#
#
# Elastic Constant Matrix: (Units=GPa)
#
#
# Indices 1 2 3 4 5 6 
#
# 1 73.1986 39.3960 9.8588 0.0000 -23.3653 0.0000
# 2 39.3960 223.0512 26.6941 0.0000 -24.9424 0.0000
# 3 9.8588 26.6941 67.7015 0.0000 -19.7703 0.0000
# 4 0.0000 0.0000 0.0000 17.4305 0.0000 -14.8833
# 5 -23.3653 -24.9424 -19.7703 0.0000 39.3422 0.0000
# 6 0.0000 0.0000 0.0000 -14.8833 0.0000 34.2866
#
#
#
# Elastic Compliance Matrix: (Units=1/GPa)
#
#
# Indices 1 2 3 4 5 6 
#
# 1 0.017799 -0.002188 0.001116 0.000000 0.009745 0.000000
# 2 -0.002188 0.005176 -0.001340 0.000000 0.001309 0.000000
# 3 0.001116 -0.001340 0.017676 0.000000 0.008696 0.000000
# 4 0.000000 0.000000 0.000000 0.091159 0.000000 0.039571
# 5 0.009745 0.001309 0.008696 0.000000 0.036405 0.000000
# 6 0.000000 0.000000 0.000000 0.039571 0.000000 0.046343
#
#
# Mechanical properties :
#
#
# Convention : Reuss Voigt Hill
#
# Bulk Modulus (GPa) = 27.91060 57.31659 42.61360
# Shear Modulus (GPa) = 21.61467 37.41202 29.51334
#
# Velocity S-wave (km/s) = 3.07234 4.04204 3.59008
# Velocity P-wave (km/s) = 4.97739 6.84212 5.98285
#
# Compressibility (1/GPa) = 0.03582868
#
# Stress axis : x y z
#
# Youngs Moduli (GPa) = 56.18252 193.18310 56.57397
#
# Poissons Ratio (x) = 0.42261 -0.06316
# Poissons Ratio (y) = 0.12291 0.07582
# Poissons Ratio (z) = -0.06272 0.25890
#
# Static dielectric constant tensor:
#      x y z
#    x 3.983640 0.000000 -0.138920 
#    y 0.000000 5.790630 0.000000 
#    z -0.138920 0.000000 3.653100 
# 
# 
# High freq. dielectric constant tensor:
#      x y z
#    x 1.897890 0.000000 -0.023930 
#    y 0.000000 1.947490 0.000000 
#    z -0.023930 0.000000 1.855280 
# 
# From -- ./inp_files/82685.got.cif
#   From: 2010.06.25/outbox.cif.g09.slc.cpg/sg13_42_cif.got.tgz:82685.got - 2010.06.28 04:50:58.
