data_PCOD8117668
_publ_section_title
;
Structure prediction by ZEFSAII (Michael W. Deem and Ramdas Pophale) SiO2 
 PCOD8117668
Probable space group: P 2/C
;
_chemical_formula_sum "Si O2"
_cell_formula_units_Z 28
_cell_length_a 7.866660
_cell_length_b 7.592444
_cell_length_c 26.657676
_cell_angle_alpha 90.000000
_cell_angle_beta 104.978668
_cell_angle_gamma 90.000000
_cell_volume 1538.088533
_symmetry_space_group_name_H-M "P 2/C"
_symmetry_group_IT_number 13
_symmetry_cell_setting 'monoclinic'
loop_
_space_group_symop_operation_xyz
x,y,z
-x,y,1/2-z
-x,-y,-z
x,-y,1/2+z
loop_
_atom_site_type_symbol
_atom_site_label
_atom_site_fract_x
_atom_site_fract_y
_atom_site_fract_z
Si Si1 0.004174 0.158297 0.149305
Si Si2 0.114698 0.506264 0.308861
Si Si3 0.618715 0.130178 0.306373
Si Si4 0.580502 0.166120 0.880870
Si Si5 0.051884 0.045872 0.559742
Si Si6 0.506967 0.512372 0.307639
Si Si7 0.804495 0.166163 0.620050
O O1 0.177876 0.094484 0.192940
O O2 0.952128 0.355573 0.158591
O O3 0.057072 0.133628 0.093900
O O4 0.846118 0.022427 0.149868
O O5 0.312366 0.462587 0.309672
O O6 0.106452 0.688400 0.337899
O O7 0.000000 0.516819 0.250000
O O8 0.500000 0.090494 0.250000
O O9 0.617038 0.334353 0.322712
O O10 0.549638 0.005823 0.345070
O O11 0.758085 0.143873 0.926874
O O12 0.600227 0.337809 0.847556
O O13 0.406413 0.188500 0.902463
O O14 0.902217 0.173503 0.573183
O O15 0.000000 0.000000 0.500000
O O16 0.500000 0.580269 0.250000
#
# Coordination Sequence:
#
# PCOD8117668 Si02
#       7
#     4   4   4   4   4   4   4
#     4   9  21  36  55  82 116 146 189 235 271 336
#     4  11  21  33  56  83 118 153 180 223 279 338
#     4  10  19  31  53  79 112 152 183 221 272 332
#     4  10  20  36  58  79 113 143 182 238 275 333
#     4   9  21  41  62  81 107 149 193 241 288 321
#     4  10  21  32  52  81 113 154 184 217 273 334
#     4   9  22  37  56  85 113 144 189 229 279 339
#
# _framework density 18.204412000000001
#
# number of rings (size 3 to 8) (size 9 to 14) (size 15 to 20)
#    0.857    1.429    0.000    3.000    4.000    3.429 
#    0.000    0.714    0.000    1.714    0.000    0.000 
#    0.000    0.000    0.000    0.000    0.000    0.000 
#
# Total GULP energy -346955.483608 kJ/mol
# GULP energy per Si atom -12391.267272 kJ/mol
# Density = 1.816298 g / cm^3
# Si number density = 18.204412 Si / 1000 Ang^3
#
#
#
# Elastic Constant Matrix: (Units=GPa)
#
#
# Indices 1 2 3 4 5 6 
#
# 1 104.1773 17.3236 36.4270 0.0000 3.6161 0.0000
# 2 17.3236 70.3595 30.8118 0.0000 -0.0862 0.0000
# 3 36.4270 30.8118 91.6101 0.0000 4.0207 0.0000
# 4 0.0000 0.0000 0.0000 13.5315 0.0000 -8.4566
# 5 3.6161 -0.0862 4.0207 0.0000 22.8914 0.0000
# 6 0.0000 0.0000 0.0000 -8.4566 0.0000 11.3445
#
#
#
# Elastic Compliance Matrix: (Units=1/GPa)
#
#
# Indices 1 2 3 4 5 6 
#
# 1 0.011228 -0.000975 -0.004090 0.000000 -0.001059 0.000000
# 2 -0.000975 0.016778 -0.005306 0.000000 0.001149 0.000000
# 3 -0.004090 -0.005306 0.014410 0.000000 -0.001905 0.000000
# 4 0.000000 0.000000 0.000000 0.138358 0.000000 0.103137
# 5 -0.001059 0.001149 -0.001905 0.000000 0.044191 0.000000
# 6 0.000000 0.000000 0.000000 0.103137 0.000000 0.165031
#
#
# Mechanical properties :
#
#
# Convention : Reuss Voigt Hill
#
# Bulk Modulus (GPa) = 46.13701 48.36353 47.25027
# Shear Modulus (GPa) = 11.96280 21.65911 16.81096
#
# Velocity S-wave (km/s) = 2.56625 3.45305 3.04214
# Velocity P-wave (km/s) = 5.84634 6.52094 6.19284
#
# Compressibility (1/GPa) = 0.02167458
#
# Stress axis : x y z
#
# Youngs Moduli (GPa) = 89.06231 59.60324 69.39415
#
# Poissons Ratio (x) = 0.05809 0.28385
# Poissons Ratio (y) = 0.08680 0.36819
# Poissons Ratio (z) = 0.36430 0.31624
#
# Static dielectric constant tensor:
#      x y z
#    x 3.574760 0.000000 0.012750 
#    y 0.000000 3.341970 0.000000 
#    z 0.012750 0.000000 3.032690 
# 
# 
# High freq. dielectric constant tensor:
#      x y z
#    x 1.725150 0.000000 0.006590 
#    y 0.000000 1.703840 0.000000 
#    z 0.006590 0.000000 1.667690 
# 
# From -- ./inp_files/91035.got.cif
#   From: 2010.06.25/outbox.cif.g09.slc.cpg/sg13_46_cif.got.tgz:91035.got - 2010.06.28 04:50:58.
