data_PCOD8117378
_publ_section_title
;
Structure prediction by ZEFSAII (Michael W. Deem and Ramdas Pophale) SiO2 
 PCOD8117378
Probable space group: P 2/C
;
_chemical_formula_sum "Si O2"
_cell_formula_units_Z 24
_cell_length_a 24.185548
_cell_length_b 9.568534
_cell_length_c 15.726534
_cell_angle_alpha 90.000000
_cell_angle_beta 22.161560
_cell_angle_gamma 90.000000
_cell_volume 1372.867189
_symmetry_space_group_name_H-M "P 2/C"
_symmetry_group_IT_number 13
_symmetry_cell_setting 'monoclinic'
loop_
_space_group_symop_operation_xyz
x,y,z
-x,y,1/2-z
-x,-y,-z
x,-y,1/2+z
loop_
_atom_site_type_symbol
_atom_site_label
_atom_site_fract_x
_atom_site_fract_y
_atom_site_fract_z
Si Si1 0.010511 0.253323 0.413605
Si Si2 0.136173 0.042001 0.997690
Si Si3 0.804898 0.473119 0.642531
Si Si4 0.818746 0.771437 0.665150
Si Si5 0.550709 0.612906 0.085263
Si Si6 0.254977 0.286728 0.927622
O O1 0.056265 0.203275 0.442320
O O2 0.907386 0.390830 0.564058
O O3 0.155228 0.287885 0.153055
O O4 0.917024 0.128220 0.507778
O O5 0.205746 0.899386 0.864204
O O6 0.000000 0.001314 0.250000
O O7 0.253176 0.133208 0.885542
O O8 0.863792 0.632043 0.547980
O O9 0.815102 0.397356 0.537715
O O10 0.636825 0.482365 0.918292
O O11 0.662981 0.743668 0.933997
O O12 0.500000 0.563069 0.250000
O O13 0.417851 0.665098 0.216441
#
# Coordination Sequence:
#
# PCOD8117378 Si02
#       6
#     4   4   4   4   4   4
#     4  10  18  35  56  77 104 137 171 211 258 312
#     4   9  20  33  52  77 104 134 171 214 261 300
#     4   9  20  31  54  79 100 135 173 214 255 301
#     4  10  20  32  53  80 102 135 172 216 253 303
#     4  10  20  34  53  76 105 138 176 209 256 310
#     4  10  18  36  55  75 105 139 170 209 259 314
#
# _framework density 17.481662
#
# number of rings (size 3 to 8) (size 9 to 14) (size 15 to 20)
#    1.000    1.333    1.667    3.000    0.000    2.000 
#    0.000    0.000    0.000    4.000    0.000    0.000 
#    0.000    0.000    0.000    0.000    0.000    0.000 
#
# Total GULP energy -297409.018251 kJ/mol
# GULP energy per Si atom -12392.042427 kJ/mol
# Density = 1.744187 g / cm^3
# Si number density = 17.481662 Si / 1000 Ang^3
#
#
#
# Elastic Constant Matrix: (Units=GPa)
#
#
# Indices 1 2 3 4 5 6 
#
# 1 74.6748 25.8343 11.2738 0.0000 -6.4419 0.0000
# 2 25.8343 96.5243 26.2135 0.0000 8.5090 0.0000
# 3 11.2738 26.2135 47.7555 0.0000 -8.3110 0.0000
# 4 0.0000 0.0000 0.0000 20.7064 0.0000 6.3261
# 5 -6.4419 8.5090 -8.3110 0.0000 29.3813 0.0000
# 6 0.0000 0.0000 0.0000 6.3261 0.0000 19.0462
#
#
#
# Elastic Compliance Matrix: (Units=1/GPa)
#
#
# Indices 1 2 3 4 5 6 
#
# 1 0.015367 -0.004395 -0.000428 0.000000 0.004521 0.000000
# 2 -0.004395 0.014412 -0.008169 0.000000 -0.007448 0.000000
# 3 -0.000428 -0.008169 0.027263 0.000000 0.009984 0.000000
# 4 0.000000 0.000000 0.000000 0.053748 0.000000 -0.017852
# 5 0.004521 -0.007448 0.009984 0.000000 0.040008 0.000000
# 6 0.000000 0.000000 0.000000 -0.017852 0.000000 0.058434
#
#
# Mechanical properties :
#
#
# Convention : Reuss Voigt Hill
#
# Bulk Modulus (GPa) = 32.20045 38.39974 35.30010
# Shear Modulus (GPa) = 20.36099 24.20229 22.28164
#
# Velocity S-wave (km/s) = 3.41648 3.72484 3.57399
# Velocity P-wave (km/s) = 5.83290 6.36496 6.10473
#
# Compressibility (1/GPa) = 0.03105547
#
# Stress axis : x y z
#
# Youngs Moduli (GPa) = 65.07646 69.38891 36.68000
#
# Poissons Ratio (x) = 0.30496 0.01572
# Poissons Ratio (y) = 0.28601 0.29965
# Poissons Ratio (z) = 0.02788 0.56686
#
# Static dielectric constant tensor:
#      x y z
#    x 3.157410 0.000000 -0.125820 
#    y 0.000000 3.118770 0.000000 
#    z -0.125820 0.000000 3.097700 
# 
# 
# High freq. dielectric constant tensor:
#      x y z
#    x 1.678760 0.000000 -0.007160 
#    y 0.000000 1.664000 0.000000 
#    z -0.007160 0.000000 1.660560 
# 
# From -- ./inp_files/71807.got.cif
#   From: 2010.06.25/outbox.cif.g09.slc.cpg/sg13_36_cif.got.tgz:71807.got - 2010.06.28 04:50:58.
