data_PCOD8117533
_publ_section_title
;
Structure prediction by ZEFSAII (Michael W. Deem and Ramdas Pophale) SiO2 
 PCOD8117533
Probable space group: P 2/C
;
_chemical_formula_sum "Si O2"
_cell_formula_units_Z 18
_cell_length_a 11.316666
_cell_length_b 5.349782
_cell_length_c 19.771991
_cell_angle_alpha 90.000000
_cell_angle_beta 136.284611
_cell_angle_gamma 90.000000
_cell_volume 827.239293
_symmetry_space_group_name_H-M "P 2/C"
_symmetry_group_IT_number 13
_symmetry_cell_setting 'monoclinic'
loop_
_space_group_symop_operation_xyz
x,y,z
-x,y,1/2-z
-x,-y,-z
x,-y,1/2+z
loop_
_atom_site_type_symbol
_atom_site_label
_atom_site_fract_x
_atom_site_fract_y
_atom_site_fract_z
Si Si1 0.230199 0.552179 0.914601
Si Si2 0.562217 0.188162 0.580728
Si Si3 0.070850 0.523690 0.603831
Si Si4 0.000000 0.927023 0.750000
Si Si5 0.203168 0.959424 0.212758
O O1 0.268325 0.318571 0.880897
O O2 0.085967 0.498184 0.909723
O O3 0.168504 0.764117 0.836838
O O4 0.404948 0.620502 0.027396
O O5 0.613858 0.051905 0.672485
O O6 0.500000 0.000000 0.500000
O O7 0.195528 0.284540 0.662254
O O8 0.000000 0.500000 0.500000
O O9 0.176942 0.781461 0.660445
O O10 0.949643 0.080368 0.795861
#
# Coordination Sequence:
#
# PCOD8117533 Si02
#       5
#     4   4   4   2   4
#     4  10  22  36  63  91 133 158 206 255 320 372
#     4  11  21  37  62  98 129 154 195 264 334 370
#     4  11  25  44  65  88 124 174 220 249 293 369
#     4  10  18  38  60  96 116 164 198 266 314 362
#     4  11  22  39  65  91 126 160 210 260 310 368
#
# _framework density 21.759122999999999
#
# number of rings (size 3 to 8) (size 9 to 14) (size 15 to 20)
#    0.000    1.333    2.222    4.667    6.222    0.889 
#    0.000    1.111    0.000    0.000    0.000    0.000 
#    0.000    0.000    0.000    0.000    0.000    0.000 
#
# Total GULP energy -223093.378390 kJ/mol
# GULP energy per Si atom -12394.076577 kJ/mol
# Density = 2.170960 g / cm^3
# Si number density = 21.759123 Si / 1000 Ang^3
#
#
#
# Elastic Constant Matrix: (Units=GPa)
#
#
# Indices 1 2 3 4 5 6 
#
# 1 25.7264 11.1028 19.8228 0.0000 -1.5907 0.0000
# 2 11.1028 149.7114 75.1459 0.0000 -17.1571 0.0000
# 3 19.8228 75.1459 178.1408 0.0000 -20.2149 0.0000
# 4 0.0000 0.0000 0.0000 51.1120 0.0000 -0.2301
# 5 -1.5907 -17.1571 -20.2149 0.0000 34.4318 0.0000
# 6 0.0000 0.0000 0.0000 -0.2301 0.0000 18.9669
#
#
#
# Elastic Compliance Matrix: (Units=1/GPa)
#
#
# Indices 1 2 3 4 5 6 
#
# 1 0.042674 -0.001076 -0.004427 0.000000 -0.001164 0.000000
# 2 -0.001076 0.008671 -0.003271 0.000000 0.002350 0.000000
# 3 -0.004427 -0.003271 0.007797 0.000000 0.002743 0.000000
# 4 0.000000 0.000000 0.000000 0.019566 0.000000 0.000237
# 5 -0.001164 0.002350 0.002743 0.000000 0.031771 0.000000
# 6 0.000000 0.000000 0.000000 0.000237 0.000000 0.052726
#
#
# Mechanical properties :
#
#
# Convention : Reuss Voigt Hill
#
# Bulk Modulus (GPa) = 24.04200 62.85796 43.44998
# Shear Modulus (GPa) = 25.69142 37.40261 31.54701
#
# Velocity S-wave (km/s) = 3.43989 4.15051 3.81179
# Velocity P-wave (km/s) = 5.18172 7.20554 6.27575
#
# Compressibility (1/GPa) = 0.04159389
#
# Stress axis : x y z
#
# Youngs Moduli (GPa) = 23.43349 115.33277 128.24994
#
# Poissons Ratio (x) = 0.12412 0.56772
# Poissons Ratio (y) = 0.02522 0.41952
# Poissons Ratio (z) = 0.10373 0.37726
#
# Static dielectric constant tensor:
#      x y z
#    x 3.607980 0.000000 0.287690 
#    y 0.000000 4.523200 0.000000 
#    z 0.287690 0.000000 4.374210 
# 
# 
# High freq. dielectric constant tensor:
#      x y z
#    x 1.805420 0.000000 0.007210 
#    y 0.000000 1.870080 0.000000 
#    z 0.007210 0.000000 1.875950 
# 
# From -- ./inp_files/58094.got.cif
#   From: 2010.06.25/outbox.cif.g09.slc.cpg/sg13_30_cif.got.tgz:58094.got - 2010.06.28 04:50:58.
