data_PCOD8117329
_publ_section_title
;
Structure prediction by ZEFSAII (Michael W. Deem and Ramdas Pophale) SiO2 
 PCOD8117329
Probable space group: P 2/C
;
_chemical_formula_sum "Si O2"
_cell_formula_units_Z 24
_cell_length_a 22.235722
_cell_length_b 9.217784
_cell_length_c 9.041305
_cell_angle_alpha 90.000000
_cell_angle_beta 134.716234
_cell_angle_gamma 90.000000
_cell_volume 1316.843536
_symmetry_space_group_name_H-M "P 2/C"
_symmetry_group_IT_number 13
_symmetry_cell_setting 'monoclinic'
loop_
_space_group_symop_operation_xyz
x,y,z
-x,y,1/2-z
-x,-y,-z
x,-y,1/2+z
loop_
_atom_site_type_symbol
_atom_site_label
_atom_site_fract_x
_atom_site_fract_y
_atom_site_fract_z
Si Si1 0.165030 0.159934 0.869414
Si Si2 0.281962 0.369991 0.925307
Si Si3 0.728896 0.652423 0.436842
Si Si4 0.005405 0.652373 0.088162
Si Si5 0.849056 0.142727 0.305696
Si Si6 0.561942 0.542046 0.234309
O O1 0.254789 0.224273 0.966274
O O2 0.094319 0.275743 0.701721
O O3 0.138134 0.016310 0.736564
O O4 0.169924 0.132716 0.052902
O O5 0.234218 0.507477 0.919444
O O6 0.252568 0.356471 0.705184
O O7 0.383453 0.400848 0.114405
O O8 0.769499 0.792581 0.580542
O O9 0.627748 0.664264 0.292219
O O10 0.000000 0.619135 0.250000
O O11 0.931052 0.761500 0.910410
O O12 0.000000 0.500000 0.000000
O O13 0.500000 0.608007 0.250000
O O14 0.500000 0.500000 0.000000
#
# Coordination Sequence:
#
# PCOD8117329 Si02
#       6
#     4   4   4   4   4   4
#     4  11  23  39  58  83 118 158 196 236 290 344
#     4  10  20  34  57  87 117 147 192 238 287 337
#     4  10  20  34  57  87 117 147 192 237 289 335
#     4  10  23  40  60  86 116 150 197 242 282 333
#     4  11  23  39  58  83 118 158 196 237 289 344
#     4  10  18  34  58  89 114 147 188 241 289 342
#
# _framework density 18.225401000000002
#
# number of rings (size 3 to 8) (size 9 to 14) (size 15 to 20)
#    1.000    0.667    1.667    3.500    2.333    5.333 
#    0.000    0.000    0.000    2.000    0.000    0.000 
#    0.000    0.000    0.000    0.000    0.000    0.000 
#
# Total GULP energy -297462.374808 kJ/mol
# GULP energy per Si atom -12394.265617 kJ/mol
# Density = 1.818392 g / cm^3
# Si number density = 18.225401 Si / 1000 Ang^3
#
#
#
# Elastic Constant Matrix: (Units=GPa)
#
#
# Indices 1 2 3 4 5 6 
#
# 1 95.5615 43.6354 46.2440 0.0000 -12.4056 0.0000
# 2 43.6354 114.3796 50.1516 0.0000 -7.9913 0.0000
# 3 46.2440 50.1516 113.5165 0.0000 -10.7107 0.0000
# 4 0.0000 0.0000 0.0000 30.9105 0.0000 -9.9338
# 5 -12.4056 -7.9913 -10.7107 0.0000 35.3886 0.0000
# 6 0.0000 0.0000 0.0000 -9.9338 0.0000 19.2939
#
#
#
# Elastic Compliance Matrix: (Units=1/GPa)
#
#
# Indices 1 2 3 4 5 6 
#
# 1 0.014417 -0.003520 -0.004031 0.000000 0.003039 0.000000
# 2 -0.003520 0.011739 -0.003725 0.000000 0.000289 0.000000
# 3 -0.004031 -0.003725 0.012234 0.000000 0.001448 0.000000
# 4 0.000000 0.000000 0.000000 0.038766 0.000000 0.019959
# 5 0.003039 0.000289 0.001448 0.000000 0.029827 0.000000
# 6 0.000000 0.000000 0.000000 0.019959 0.000000 0.062106
#
#
# Mechanical properties :
#
#
# Convention : Reuss Voigt Hill
#
# Bulk Modulus (GPa) = 63.14186 67.05773 65.09980
# Shear Modulus (GPa) = 25.39086 29.34705 27.36895
#
# Velocity S-wave (km/s) = 3.73655 4.01712 3.87937
# Velocity P-wave (km/s) = 7.30315 7.64132 7.47415
#
# Compressibility (1/GPa) = 0.01583735
#
# Stress axis : x y z
#
# Youngs Moduli (GPa) = 69.36165 85.18399 81.73992
#
# Poissons Ratio (x) = 0.29987 0.32952
# Poissons Ratio (y) = 0.24417 0.30449
# Poissons Ratio (z) = 0.27962 0.31731
#
# Static dielectric constant tensor:
#      x y z
#    x 3.434880 0.000000 -0.081650 
#    y 0.000000 3.146600 0.000000 
#    z -0.081650 0.000000 3.456770 
# 
# 
# High freq. dielectric constant tensor:
#      x y z
#    x 1.715770 0.000000 -0.009170 
#    y 0.000000 1.683560 0.000000 
#    z -0.009170 0.000000 1.715080 
# 
# From -- ./inp_files/22816.got.cif
#   From: 2010.06.25/outbox.cif.g09.slc.cpg/sg13_12_cif.got.tgz:22816.got - 2010.06.28 04:50:58.
