data_PCOD8117520
_publ_section_title
;
Structure prediction by ZEFSAII (Michael W. Deem and Ramdas Pophale) SiO2 
 PCOD8117520
Probable space group: P 2/C
;
_chemical_formula_sum "Si O2"
_cell_formula_units_Z 30
_cell_length_a 10.922985
_cell_length_b 12.123216
_cell_length_c 13.024562
_cell_angle_alpha 90.000000
_cell_angle_beta 127.113113
_cell_angle_gamma 90.000000
_cell_volume 1375.382558
_symmetry_space_group_name_H-M "P 2/C"
_symmetry_group_IT_number 13
_symmetry_cell_setting 'monoclinic'
loop_
_space_group_symop_operation_xyz
x,y,z
-x,y,1/2-z
-x,-y,-z
x,-y,1/2+z
loop_
_atom_site_type_symbol
_atom_site_label
_atom_site_fract_x
_atom_site_fract_y
_atom_site_fract_z
Si Si1 0.199196 0.980065 0.216311
Si Si2 0.214230 0.854999 0.899856
Si Si3 0.541740 0.179218 0.658091
Si Si4 0.002062 0.148969 0.484535
Si Si5 0.320113 0.631260 0.396596
Si Si6 0.129798 0.330550 0.196758
Si Si7 0.443750 0.429832 0.329857
Si Si8 0.000000 0.474337 0.750000
O O1 0.373071 0.938601 0.285571
O O2 0.189346 0.031858 0.324239
O O3 0.079631 0.877529 0.134258
O O4 0.150521 0.074119 0.109068
O O5 0.129245 0.878585 0.962571
O O6 0.139372 0.751157 0.801037
O O7 0.392449 0.831027 0.011453
O O8 0.500000 0.225582 0.750000
O O9 0.664529 0.258648 0.663528
O O10 0.957093 0.276489 0.445225
O O11 0.394473 0.533191 0.370870
O O12 0.419092 0.640957 0.550205
O O13 0.145497 0.604922 0.342072
O O14 0.300877 0.349041 0.244229
O O15 0.038889 0.443725 0.174815
O O16 0.500000 0.475732 0.250000
#
# Coordination Sequence:
#
# PCOD8117520 Si02
#       8
#     4   4   4   4   4   4   4   2
#     4  10  22  38  60  91 127 155 213 266 315 369
#     4  11  20  40  66  92 120 170 215 262 318 385
#     4  12  23  41  65  92 127 175 219 258 321 396
#     4  10  20  39  63  94 122 163 213 262 315 388
#     4  10  23  42  64  91 132 162 218 268 318 369
#     4  10  18  37  69  90 125 168 215 252 318 394
#     4  10  21  41  61  90 126 169 207 260 315 383
#     4  10  20  40  66  96 128 170 210 270 320 374
#
# _framework density 21.812113
#
# number of rings (size 3 to 8) (size 9 to 14) (size 15 to 20)
#    0.000    1.600    4.000    2.000    0.000    0.000 
#    7.200    6.667    0.000    0.000    0.000    0.000 
#    0.000    0.000    0.000    0.000    0.000    0.000 
#
# Total GULP energy -371783.475398 kJ/mol
# GULP energy per Si atom -12392.782513 kJ/mol
# Density = 2.176247 g / cm^3
# Si number density = 21.812113 Si / 1000 Ang^3
#
#
#
# Elastic Constant Matrix: (Units=GPa)
#
#
# Indices 1 2 3 4 5 6 
#
# 1 108.7906 43.0963 50.6854 0.0000 24.2027 0.0000
# 2 43.0963 69.7766 39.7420 0.0000 14.3927 0.0000
# 3 50.6854 39.7420 111.2678 0.0000 20.0011 0.0000
# 4 0.0000 0.0000 0.0000 26.0544 0.0000 1.1514
# 5 24.2027 14.3927 20.0011 0.0000 33.0742 0.0000
# 6 0.0000 0.0000 0.0000 1.1514 0.0000 6.3936
#
#
#
# Elastic Compliance Matrix: (Units=1/GPa)
#
#
# Indices 1 2 3 4 5 6 
#
# 1 0.014377 -0.005687 -0.003446 0.000000 -0.005962 0.000000
# 2 -0.005687 0.020837 -0.004454 0.000000 -0.002212 0.000000
# 3 -0.003446 -0.004454 0.012730 0.000000 -0.003238 0.000000
# 4 0.000000 0.000000 0.000000 0.038689 0.000000 -0.006967
# 5 -0.005962 -0.002212 -0.003238 0.000000 0.037519 0.000000
# 6 0.000000 0.000000 0.000000 -0.006967 0.000000 0.157662
#
#
# Mechanical properties :
#
#
# Convention : Reuss Voigt Hill
#
# Bulk Modulus (GPa) = 48.14775 61.87582 55.01179
# Shear Modulus (GPa) = 15.82723 23.52518 19.67621
#
# Velocity S-wave (km/s) = 2.69665 3.28767 3.00672
# Velocity P-wave (km/s) = 5.64072 6.54530 6.10977
#
# Compressibility (1/GPa) = 0.02076940
#
# Stress axis : x y z
#
# Youngs Moduli (GPa) = 69.55746 47.99092 78.55388
#
# Poissons Ratio (x) = 0.27293 0.27070
# Poissons Ratio (y) = 0.39558 0.34990
# Poissons Ratio (z) = 0.23970 0.21376
#
# Static dielectric constant tensor:
#      x y z
#    x 3.838950 0.000000 0.251730 
#    y 0.000000 3.881440 0.000000 
#    z 0.251730 0.000000 4.127930 
# 
# 
# High freq. dielectric constant tensor:
#      x y z
#    x 1.845170 0.000000 0.020820 
#    y 0.000000 1.844410 0.000000 
#    z 0.020820 0.000000 1.861220 
# 
# From -- ./inp_files/51212.got.cif
#   From: 2010.06.25/outbox.cif.g09.slc.cpg/sg13_26_cif.got.tgz:51212.got - 2010.06.28 04:50:58.
