data_PCOD8117807
_publ_section_title
;
Structure prediction by ZEFSAII (Michael W. Deem and Ramdas Pophale) SiO2 
 PCOD8117807
Probable space group: P 2/C
;
_chemical_formula_sum "Si O2"
_cell_formula_units_Z 32
_cell_length_a 21.308483
_cell_length_b 11.183504
_cell_length_c 9.598450
_cell_angle_alpha 90.000000
_cell_angle_beta 47.493270
_cell_angle_gamma 90.000000
_cell_volume 1686.225572
_symmetry_space_group_name_H-M "P 2/C"
_symmetry_group_IT_number 13
_symmetry_cell_setting 'monoclinic'
loop_
_space_group_symop_operation_xyz
x,y,z
-x,y,1/2-z
-x,-y,-z
x,-y,1/2+z
loop_
_atom_site_type_symbol
_atom_site_label
_atom_site_fract_x
_atom_site_fract_y
_atom_site_fract_z
Si Si1 0.295499 0.120751 0.641314
Si Si2 0.000000 0.382020 0.910097
Si Si3 0.704501 0.120751 0.527812
Si Si4 0.180885 0.715579 0.135640
Si Si5 0.577535 0.676637 0.231277
Si Si6 0.577535 0.323363 0.036117
Si Si7 0.711680 0.500000 0.932480
Si Si8 0.819115 0.715579 0.678294
O O1 0.215109 0.190717 0.697603
O O2 0.380960 0.196678 0.484404
O O3 0.308442 1.000000 0.537337
O O4 0.280605 0.099894 0.829092
O O5 0.082227 0.302285 0.821218
O O6 0.000000 0.423117 0.750000
O O7 0.000000 0.500000 0.000000
O O8 0.917773 0.302285 0.067900
O O9 0.619040 0.196678 0.627285
O O10 0.784891 0.190718 0.342929
O O11 0.229274 0.588407 0.067054
O O12 0.191652 0.766778 0.962521
O O13 0.500000 0.640846 0.250000
O O14 0.537234 0.684939 0.444149
O O15 0.651111 0.576771 0.124131
O O16 0.500000 0.359154 0.250000
O O17 0.651111 0.423230 0.922536
O O18 0.770726 0.588407 0.754877
#
# Coordination Sequence:
#
# PCOD8117807 Si02
#       8
#     4   4   4   4   4   4   4   4
#     4  10  22  40  60  81 107 142 187 232 280 331
#     4  10  20  34  55  86 119 152 185 223 269 323
#     4  10  22  40  60  81 107 142 187 232 280 331
#     4  10  20  35  57  84 115 149 186 227 274 325
#     4  10  22  36  53  80 110 144 182 226 276 329
#     4  10  22  36  53  80 110 144 182 226 276 329
#     4  10  19  33  56  80 114 148 186 225 271 326
#     4  10  20  35  57  84 115 149 186 227 274 325
#
# _framework density 18.977294000000001
#
# number of rings (size 3 to 8) (size 9 to 14) (size 15 to 20)
#    0.000    2.000    1.250    1.875    0.000    9.500 
#    0.000    3.125    0.000    0.000    0.000    0.000 
#    0.000    0.000    0.000    0.000    0.000    0.000 
#
# Total GULP energy -396762.262536 kJ/mol
# GULP energy per Si atom -12398.820704 kJ/mol
# Density = 1.893410 g / cm^3
# Si number density = 18.977294 Si / 1000 Ang^3
#
#
#
# Elastic Constant Matrix: (Units=GPa)
#
#
# Indices 1 2 3 4 5 6 
#
# 1 107.1276 34.2402 49.8760 0.0000 -7.0719 0.0000
# 2 34.2402 97.0918 34.7755 0.0000 1.5185 0.0000
# 3 49.8760 34.7755 102.8099 0.0000 -5.1810 0.0000
# 4 0.0000 0.0000 0.0000 22.1462 0.0000 6.9194
# 5 -7.0719 1.5185 -5.1810 0.0000 32.7444 0.0000
# 6 0.0000 0.0000 0.0000 6.9194 0.0000 19.7072
#
#
#
# Elastic Compliance Matrix: (Units=1/GPa)
#
#
# Indices 1 2 3 4 5 6 
#
# 1 0.012730 -0.002670 -0.005169 0.000000 0.002055 0.000000
# 2 -0.002670 0.012325 -0.002955 0.000000 -0.001616 0.000000
# 3 -0.005169 -0.002955 0.013290 0.000000 0.001124 0.000000
# 4 0.000000 0.000000 0.000000 0.050718 0.000000 -0.017808
# 5 0.002055 -0.001616 0.001124 0.000000 0.031236 0.000000
# 6 0.000000 0.000000 0.000000 -0.017808 0.000000 0.056995
#
#
# Mechanical properties :
#
#
# Convention : Reuss Voigt Hill
#
# Bulk Modulus (GPa) = 59.67554 60.53475 60.10514
# Shear Modulus (GPa) = 24.45348 27.46207 25.95778
#
# Velocity S-wave (km/s) = 3.59355 3.80821 3.70244
# Velocity P-wave (km/s) = 6.98084 7.16270 7.07236
#
# Compressibility (1/GPa) = 0.01675729
#
# Stress axis : x y z
#
# Youngs Moduli (GPa) = 78.55209 81.13698 75.24181
#
# Poissons Ratio (x) = 0.21665 0.38893
# Poissons Ratio (y) = 0.20975 0.22233
# Poissons Ratio (z) = 0.40604 0.23975
#
# Static dielectric constant tensor:
#      x y z
#    x 3.548010 0.000000 -0.005770 
#    y 0.000000 3.417280 0.000000 
#    z -0.005770 0.000000 3.545990 
# 
# 
# High freq. dielectric constant tensor:
#      x y z
#    x 1.741280 0.000000 0.002310 
#    y 0.000000 1.728610 0.000000 
#    z 0.002310 0.000000 1.742090 
# 
# From -- ./inp_files/23356.got.cif
#   From: 2010.06.25/outbox.cif.g09.slc.cpg/sg13_12_cif.got.tgz:23356.got - 2010.06.28 04:50:58.
