data_PCOD8117053
_publ_section_title
;
Structure prediction by ZEFSAII (Michael W. Deem and Ramdas Pophale) SiO2 
 PCOD8117053
Probable space group: P 2/C
;
_chemical_formula_sum "Si O2"
_cell_formula_units_Z 32
_cell_length_a 15.296433
_cell_length_b 22.108824
_cell_length_c 8.920561
_cell_angle_alpha 90.000000
_cell_angle_beta 31.884281
_cell_angle_gamma 90.000000
_cell_volume 1593.495407
_symmetry_space_group_name_H-M "P 2/C"
_symmetry_group_IT_number 13
_symmetry_cell_setting 'monoclinic'
loop_
_space_group_symop_operation_xyz
x,y,z
-x,y,1/2-z
-x,-y,-z
x,-y,1/2+z
loop_
_atom_site_type_symbol
_atom_site_label
_atom_site_fract_x
_atom_site_fract_y
_atom_site_fract_z
Si Si1 0.168569 0.835454 0.090425
Si Si2 0.813004 0.520328 0.292092
Si Si3 0.637917 0.041431 0.732531
Si Si4 0.498882 0.829051 0.415314
Si Si5 0.332912 0.755679 0.085729
Si Si6 0.378788 0.622617 0.065618
Si Si7 0.833645 0.037279 0.736298
Si Si8 0.373567 0.551602 0.647147
O O1 0.190020 0.785920 0.191830
O O2 0.159155 0.902293 0.174076
O O3 0.000000 0.820006 0.250000
O O4 0.319139 0.829974 0.754332
O O5 0.766938 0.572497 0.235911
O O6 0.774988 0.546368 0.512683
O O7 0.704246 0.460207 0.404556
O O8 0.000000 0.500000 0.000000
O O9 0.561698 0.104069 0.795246
O O10 0.787084 0.052754 0.633462
O O11 0.696996 0.008302 0.497343
O O12 0.500000 0.000000 0.000000
O O13 0.500000 0.797189 0.250000
O O14 0.637301 0.795836 0.311833
O O15 0.288469 0.687714 0.202810
O O16 0.500000 0.753079 0.750000
O O17 0.500000 0.613775 0.750000
O O18 0.511382 0.612470 0.010577
O O19 0.000000 0.000000 0.500000
O O20 0.500000 0.500000 0.500000
#
# Coordination Sequence:
#
# PCOD8117053 Si02
#       8
#     4   4   4   4   4   4   4   4
#     4  11  23  41  61  85 116 148 194 242 296 354
#     4  10  18  30  51  86 120 148 182 234 288 327
#     4  12  23  38  60  85 118 146 189 237 288 353
#     4  11  23  40  61  87 112 151 194 241 291 349
#     4   9  19  40  64  80 110 157 203 239 286 345
#     4   8  16  33  57  82 110 152 199 235 273 344
#     4  12  25  40  56  90 117 148 185 238 299 354
#     4   9  17  31  52  79 112 150 191 227 276 332
#
# _framework density 20.081638000000002
#
# number of rings (size 3 to 8) (size 9 to 14) (size 15 to 20)
#    0.000    1.750    2.500    3.750    1.750    0.000 
#    0.000    8.125    0.000    3.000    0.000    0.000 
#    0.000    0.000    0.000    0.000    0.000    0.000 
#
# Total GULP energy -396503.290036 kJ/mol
# GULP energy per Si atom -12390.727814 kJ/mol
# Density = 2.003593 g / cm^3
# Si number density = 20.081638 Si / 1000 Ang^3
#
#
#
# Elastic Constant Matrix: (Units=GPa)
#
#
# Indices 1 2 3 4 5 6 
#
# 1 125.4195 42.9777 16.8941 0.0000 -13.5580 0.0000
# 2 42.9777 120.2768 28.6911 0.0000 -12.5952 0.0000
# 3 16.8941 28.6911 61.7731 0.0000 -12.8797 0.0000
# 4 0.0000 0.0000 0.0000 18.9112 0.0000 -3.7216
# 5 -13.5580 -12.5952 -12.8797 0.0000 33.6270 0.0000
# 6 0.0000 0.0000 0.0000 -3.7216 0.0000 28.7167
#
#
#
# Elastic Compliance Matrix: (Units=1/GPa)
#
#
# Indices 1 2 3 4 5 6 
#
# 1 0.009325 -0.002915 -0.000696 0.000000 0.002402 0.000000
# 2 -0.002915 0.010386 -0.003761 0.000000 0.001275 0.000000
# 3 -0.000696 -0.003761 0.019316 0.000000 0.005709 0.000000
# 4 0.000000 0.000000 0.000000 0.054263 0.000000 0.007032
# 5 0.002402 0.001275 0.005709 0.000000 0.033370 0.000000
# 6 0.000000 0.000000 0.000000 0.007032 0.000000 0.035734
#
#
# Mechanical properties :
#
#
# Convention : Reuss Voigt Hill
#
# Bulk Modulus (GPa) = 41.17925 53.84391 47.51158
# Shear Modulus (GPa) = 26.99306 30.84475 28.91890
#
# Velocity S-wave (km/s) = 3.67026 3.92339 3.79894
# Velocity P-wave (km/s) = 6.20577 6.88438 6.55387
#
# Compressibility (1/GPa) = 0.02428407
#
# Stress axis : x y z
#
# Youngs Moduli (GPa) = 107.23429 96.28067 51.77111
#
# Poissons Ratio (x) = 0.28063 0.03603
# Poissons Ratio (y) = 0.31255 0.19472
# Poissons Ratio (z) = 0.07462 0.36213
#
# Static dielectric constant tensor:
#      x y z
#    x 4.988190 0.000000 0.273370 
#    y 0.000000 4.482800 0.000000 
#    z 0.273370 0.000000 3.597180 
# 
# 
# High freq. dielectric constant tensor:
#      x y z
#    x 1.797230 0.000000 -0.003130 
#    y 0.000000 1.768350 0.000000 
#    z -0.003130 0.000000 1.762860 
# 
# From -- ./inp_files/20231.got.cif
#   From: 2010.06.25/outbox.cif.g09.slc.cpg/sg13_11_cif.got.tgz:20231.got - 2010.06.28 04:50:58.
