data_PCOD8117565
_publ_section_title
;
Structure prediction by ZEFSAII (Michael W. Deem and Ramdas Pophale) SiO2 
 PCOD8117565
Probable space group: P 2/C
;
_chemical_formula_sum "Si O2"
_cell_formula_units_Z 26
_cell_length_a 20.857284
_cell_length_b 8.245756
_cell_length_c 17.711417
_cell_angle_alpha 90.000000
_cell_angle_beta 158.756633
_cell_angle_gamma 90.000000
_cell_volume 1103.687194
_symmetry_space_group_name_H-M "P 2/C"
_symmetry_group_IT_number 13
_symmetry_cell_setting 'monoclinic'
loop_
_space_group_symop_operation_xyz
x,y,z
-x,y,1/2-z
-x,-y,-z
x,-y,1/2+z
loop_
_atom_site_type_symbol
_atom_site_label
_atom_site_fract_x
_atom_site_fract_y
_atom_site_fract_z
Si Si1 0.874643 0.628354 0.747299
Si Si2 0.483082 0.420111 0.820167
Si Si3 0.117582 0.847048 0.114647
Si Si4 0.910416 0.276082 0.758229
Si Si5 0.714545 0.753199 0.890074
Si Si6 0.689844 0.913741 0.316063
Si Si7 0.000000 0.820062 0.750000
O O1 0.681378 0.594034 0.570912
O O2 0.964621 0.461965 0.823830
O O3 0.866538 0.720316 0.657809
O O4 0.997762 0.710871 0.944238
O O5 0.500000 0.436824 0.750000
O O6 0.383138 0.583853 0.740365
O O7 0.394812 0.251715 0.747092
O O8 0.182953 0.787064 0.268036
O O9 0.286800 0.894910 0.248879
O O10 0.000000 0.000000 0.000000
O O11 0.762642 0.247571 0.531660
O O12 0.105472 0.206420 0.958116
O O13 0.595628 0.914762 0.737085
O O14 0.883312 0.929883 0.566965
#
# Coordination Sequence:
#
# PCOD8117565 Si02
#       7
#     4   4   4   4   4   4   2
#     4  11  23  41  68  97 135 179 222 282 344 399
#     4  12  24  44  65 101 144 176 222 281 345 411
#     4  11  24  44  68 100 137 176 236 280 340 402
#     4  11  21  42  70  99 129 175 235 289 334 395
#     4  11  23  41  72 104 129 174 237 286 337 406
#     4  11  23  42  69  99 137 178 224 287 340 400
#     4  10  18  38  68  96 124 170 232 286 330 386
#
# _framework density 23.557400000000001
#
# number of rings (size 3 to 8) (size 9 to 14) (size 15 to 20)
#    0.000    0.923    4.615    4.154    2.154    0.615 
#    2.769    3.846    0.000    0.000    0.000    0.000 
#    0.000    0.000    0.000    0.000    0.000    0.000 
#
# Total GULP energy -322115.470228 kJ/mol
# GULP energy per Si atom -12389.056547 kJ/mol
# Density = 2.350378 g / cm^3
# Si number density = 23.557400 Si / 1000 Ang^3
#
#
#
# Elastic Constant Matrix: (Units=GPa)
#
#
# Indices 1 2 3 4 5 6 
#
# 1 125.3282 50.2336 19.5184 0.0000 -7.8204 0.0000
# 2 50.2336 198.7273 24.7762 0.0000 7.7543 0.0000
# 3 19.5184 24.7762 52.6731 0.0000 9.6501 0.0000
# 4 0.0000 0.0000 0.0000 9.7538 0.0000 7.1494
# 5 -7.8204 7.7543 9.6501 0.0000 25.9972 0.0000
# 6 0.0000 0.0000 0.0000 7.1494 0.0000 36.7996
#
#
#
# Elastic Compliance Matrix: (Units=1/GPa)
#
#
# Indices 1 2 3 4 5 6 
#
# 1 0.009706 -0.002213 -0.003446 0.000000 0.004859 0.000000
# 2 -0.002213 0.005863 -0.001604 0.000000 -0.001819 0.000000
# 3 -0.003446 -0.001604 0.022660 0.000000 -0.008969 0.000000
# 4 0.000000 0.000000 0.000000 0.119548 0.000000 -0.023226
# 5 0.004859 -0.001819 -0.008969 0.000000 0.043799 0.000000
# 6 0.000000 0.000000 0.000000 -0.023226 0.000000 0.031686
#
#
# Mechanical properties :
#
#
# Convention : Reuss Voigt Hill
#
# Bulk Modulus (GPa) = 42.19115 62.86498 52.52806
# Shear Modulus (GPa) = 19.55501 33.32348 26.43925
#
# Velocity S-wave (km/s) = 2.88427 3.76515 3.35376
# Velocity P-wave (km/s) = 5.38896 6.75615 6.11091
#
# Compressibility (1/GPa) = 0.02370166
#
# Stress axis : x y z
#
# Youngs Moduli (GPa) = 103.02828 170.57553 44.13135
#
# Poissons Ratio (x) = 0.37756 0.15206
# Poissons Ratio (y) = 0.22805 0.07079
# Poissons Ratio (z) = 0.35500 0.27362
#
# Static dielectric constant tensor:
#      x y z
#    x 4.658680 0.000000 0.151680 
#    y 0.000000 4.617910 0.000000 
#    z 0.151680 0.000000 4.087170 
# 
# 
# High freq. dielectric constant tensor:
#      x y z
#    x 1.929130 0.000000 0.003780 
#    y 0.000000 1.963040 0.000000 
#    z 0.003780 0.000000 1.900870 
# 
# From -- ./inp_files/69704.got.cif
#   From: 2010.06.25/outbox.cif.g09.slc.cpg/sg13_35_cif.got.tgz:69704.got - 2010.06.28 04:50:58.
