data_PCOD8117920
_publ_section_title
;
Structure prediction by ZEFSAII (Michael W. Deem and Ramdas Pophale) SiO2 
 PCOD8117920
Probable space group: P 2/C
;
_chemical_formula_sum "Si O2"
_cell_formula_units_Z 32
_cell_length_a 27.572439
_cell_length_b 9.275663
_cell_length_c 11.417563
_cell_angle_alpha 90.000000
_cell_angle_beta 31.463096
_cell_angle_gamma 90.000000
_cell_volume 1524.129471
_symmetry_space_group_name_H-M "P 2/C"
_symmetry_group_IT_number 13
_symmetry_cell_setting 'monoclinic'
loop_
_space_group_symop_operation_xyz
x,y,z
-x,y,1/2-z
-x,-y,-z
x,-y,1/2+z
loop_
_atom_site_type_symbol
_atom_site_label
_atom_site_fract_x
_atom_site_fract_y
_atom_site_fract_z
Si Si1 0.349185 0.246877 0.311182
Si Si2 0.252022 0.572476 0.822849
Si Si3 0.584439 0.449164 0.134505
Si Si4 0.012512 0.901570 0.590784
Si Si5 0.533275 0.761805 0.303758
Si Si6 0.211028 0.099985 0.746139
Si Si7 0.746162 0.790511 0.880380
Si Si8 0.165222 0.281878 0.056165
O O1 0.276628 0.301192 0.362948
O O2 0.357566 0.375818 0.384592
O O3 0.299405 0.115634 0.479058
O O4 0.451680 0.194369 0.062059
O O5 0.346670 0.483455 0.613794
O O6 0.227856 0.650681 0.750406
O O7 0.172824 0.456219 0.022899
O O8 0.500000 0.356200 0.250000
O O9 0.535714 0.589364 0.290716
O O10 0.118344 0.846431 0.369231
O O11 0.000000 0.973011 0.750000
O O12 0.942863 0.765342 0.725575
O O13 0.000000 0.000000 0.500000
O O14 0.500000 0.831108 0.250000
O O15 0.635714 0.817143 0.125262
O O16 0.207420 0.928731 0.779059
O O17 0.222856 0.193416 0.839356
O O18 0.791810 0.765713 0.910759
#
# Coordination Sequence:
#
# PCOD8117920 Si02
#       8
#     4   4   4   4   4   4   4   4
#     4  12  22  37  64  92 139 179 232 278 346 402
#     4  11  22  40  67  97 134 181 225 293 334 405
#     4  10  19  34  57  92 127 176 236 269 338 398
#     4  10  22  47  76 101 137 176 230 285 352 429
#     4  10  20  37  58  94 132 185 226 282 330 402
#     4  11  26  43  69 102 133 183 222 285 354 422
#     4  11  24  41  69  97 142 179 235 273 347 411
#     4  11  24  44  72 102 135 173 240 289 343 414
#
# _framework density 20.995591999999998
#
# number of rings (size 3 to 8) (size 9 to 14) (size 15 to 20)
#    0.000    1.250    6.250    1.875    3.500    0.500 
#    0.000    1.250    2.750    0.000    0.000    0.000 
#    0.000    0.000    0.000    0.000    0.000    0.000 
#
# Total GULP energy -396481.641483 kJ/mol
# GULP energy per Si atom -12390.051296 kJ/mol
# Density = 2.094781 g / cm^3
# Si number density = 20.995592 Si / 1000 Ang^3
#
#
#
# Elastic Constant Matrix: (Units=GPa)
#
#
# Indices 1 2 3 4 5 6 
#
# 1 123.3098 28.6097 20.5195 0.0000 -0.4215 0.0000
# 2 28.6097 65.0948 26.0681 0.0000 -5.3329 0.0000
# 3 20.5195 26.0681 89.5676 0.0000 -13.3843 0.0000
# 4 0.0000 0.0000 0.0000 33.7281 0.0000 -0.4066
# 5 -0.4215 -5.3329 -13.3843 0.0000 36.2802 0.0000
# 6 0.0000 0.0000 0.0000 -0.4066 0.0000 25.9567
#
#
#
# Elastic Compliance Matrix: (Units=1/GPa)
#
#
# Indices 1 2 3 4 5 6 
#
# 1 0.009141 -0.003620 -0.001169 0.000000 -0.000857 0.000000
# 2 -0.003620 0.018841 -0.004494 0.000000 0.001069 0.000000
# 3 -0.001169 -0.004494 0.013377 0.000000 0.004261 0.000000
# 4 0.000000 0.000000 0.000000 0.029654 0.000000 0.000465
# 5 -0.000857 0.001069 0.004261 0.000000 0.029282 0.000000
# 6 0.000000 0.000000 0.000000 0.000465 0.000000 0.038533
#
#
# Mechanical properties :
#
#
# Convention : Reuss Voigt Hill
#
# Bulk Modulus (GPa) = 43.87278 47.59631 45.73455
# Shear Modulus (GPa) = 30.30447 32.71132 31.50789
#
# Velocity S-wave (km/s) = 3.80330 3.95144 3.87808
# Velocity P-wave (km/s) = 6.34258 6.59829 6.47170
#
# Compressibility (1/GPa) = 0.02279318
#
# Stress axis : x y z
#
# Youngs Moduli (GPa) = 109.39664 53.07697 74.75365
#
# Poissons Ratio (x) = 0.19213 0.08737
# Poissons Ratio (y) = 0.39599 0.33597
# Poissons Ratio (z) = 0.12786 0.23855
#
# Static dielectric constant tensor:
#      x y z
#    x 4.036790 0.000000 -0.031230 
#    y 0.000000 3.528770 0.000000 
#    z -0.031230 0.000000 4.017730 
# 
# 
# High freq. dielectric constant tensor:
#      x y z
#    x 1.836070 0.000000 0.001500 
#    y 0.000000 1.790200 0.000000 
#    z 0.001500 0.000000 1.821990 
# 
# From -- ./inp_files/42757.got.cif
#   From: 2010.06.25/outbox.cif.g09.slc.cpg/sg13_22_cif.got.tgz:42757.got - 2010.06.28 04:50:58.
