data_PCOD8117179
_publ_section_title
;
Structure prediction by ZEFSAII (Michael W. Deem and Ramdas Pophale) SiO2 
 PCOD8117179
Probable space group: P 2/C
;
_chemical_formula_sum "Si O2"
_cell_formula_units_Z 32
_cell_length_a 7.497862
_cell_length_b 22.456745
_cell_length_c 10.088719
_cell_angle_alpha 90.000000
_cell_angle_beta 85.427529
_cell_angle_gamma 90.000000
_cell_volume 1693.307537
_symmetry_space_group_name_H-M "P 2/C"
_symmetry_group_IT_number 13
_symmetry_cell_setting 'monoclinic'
loop_
_space_group_symop_operation_xyz
x,y,z
-x,y,1/2-z
-x,-y,-z
x,-y,1/2+z
loop_
_atom_site_type_symbol
_atom_site_label
_atom_site_fract_x
_atom_site_fract_y
_atom_site_fract_z
Si Si1 0.289252 0.944510 0.764307
Si Si2 0.690952 0.543811 0.687509
Si Si3 0.711420 0.076250 0.737932
Si Si4 0.967637 0.639145 0.600276
Si Si5 0.010473 0.770811 0.906957
Si Si6 0.710587 0.138169 0.002782
Si Si7 0.287378 0.140381 0.027520
Si Si8 0.822896 0.467096 0.466444
O O1 0.500000 0.950660 0.750000
O O2 0.221828 0.899988 0.654209
O O3 0.203557 0.010150 0.751312
O O4 0.236331 0.917865 0.909319
O O5 0.500000 0.566440 0.750000
O O6 0.786723 0.599038 0.606290
O O7 0.671411 0.489986 0.579451
O O8 0.790533 0.518865 0.812784
O O9 0.500000 0.070071 0.750000
O O10 0.773083 0.119649 0.852413
O O11 0.775035 0.104655 0.597729
O O12 0.000000 0.652395 0.750000
O O13 0.959508 0.704259 0.534414
O O14 0.135627 0.603646 0.524556
O O15 0.822219 0.797886 0.968537
O O16 0.000000 0.772475 0.750000
O O17 0.182351 0.804978 0.952932
O O18 0.499094 0.153846 0.021347
O O19 0.000000 0.500000 0.500000
#
# Coordination Sequence:
#
# PCOD8117179 Si02
#       8
#     4   4   4   4   4   4   4   4
#     4   9  16  31  54  82 104 132 174 221 279 335
#     4  10  18  32  57  91 115 140 175 226 269 316
#     4   9  18  33  55  78 109 135 168 225 282 343
#     4   8  18  35  52  77 108 147 183 217 265 314
#     4  11  21  37  55  76 106 142 190 232 256 310
#     4  10  20  35  55  79 103 138 181 220 276 329
#     4  10  20  35  56  77 103 143 176 221 281 324
#     4   9  17  33  57  80 115 149 177 211 269 324
#
# _framework density 18.897926999999999
#
# number of rings (size 3 to 8) (size 9 to 14) (size 15 to 20)
#    0.000    2.500    1.250    2.250    0.000    3.500 
#    6.750    3.750   11.000    0.750    0.000    0.000 
#    0.000    0.000    0.000    0.000    0.000    0.000 
#
# Total GULP energy -396478.059087 kJ/mol
# GULP energy per Si atom -12389.939346 kJ/mol
# Density = 1.885491 g / cm^3
# Si number density = 18.897927 Si / 1000 Ang^3
#
#
#
# Elastic Constant Matrix: (Units=GPa)
#
#
# Indices 1 2 3 4 5 6 
#
# 1 68.6351 46.2618 23.5075 0.0000 0.7401 0.0000
# 2 46.2618 155.4433 50.5248 0.0000 -1.5353 0.0000
# 3 23.5075 50.5248 100.5615 0.0000 6.9792 0.0000
# 4 0.0000 0.0000 0.0000 23.9227 0.0000 -9.4087
# 5 0.7401 -1.5353 6.9792 0.0000 22.6587 0.0000
# 6 0.0000 0.0000 0.0000 -9.4087 0.0000 31.1366
#
#
#
# Elastic Compliance Matrix: (Units=1/GPa)
#
#
# Indices 1 2 3 4 5 6 
#
# 1 0.018517 -0.004919 -0.001831 0.000000 -0.000374 0.000000
# 2 -0.004919 0.009064 -0.003533 0.000000 0.001863 0.000000
# 3 -0.001831 -0.003533 0.012426 0.000000 -0.004007 0.000000
# 4 0.000000 0.000000 0.000000 0.047439 0.000000 0.014335
# 5 -0.000374 0.001863 -0.004007 0.000000 0.045506 0.000000
# 6 0.000000 0.000000 0.000000 0.014335 0.000000 0.036448
#
#
# Mechanical properties :
#
#
# Convention : Reuss Voigt Hill
#
# Bulk Modulus (GPa) = 51.44303 62.80314 57.12309
# Shear Modulus (GPa) = 25.45219 29.16665 27.30942
#
# Velocity S-wave (km/s) = 3.67389 3.93285 3.80557
# Velocity P-wave (km/s) = 6.72884 7.34357 7.04291
#
# Compressibility (1/GPa) = 0.01943898
#
# Stress axis : x y z
#
# Youngs Moduli (GPa) = 54.00529 110.32438 80.47941
#
# Poissons Ratio (x) = 0.54273 0.14735
# Poissons Ratio (y) = 0.26567 0.28437
# Poissons Ratio (z) = 0.09888 0.38982
#
# Static dielectric constant tensor:
#      x y z
#    x 3.456200 0.000000 -0.174050 
#    y 0.000000 3.758580 0.000000 
#    z -0.174050 0.000000 4.022610 
# 
# 
# High freq. dielectric constant tensor:
#      x y z
#    x 1.723780 0.000000 0.003110 
#    y 0.000000 1.719860 0.000000 
#    z 0.003110 0.000000 1.731500 
# 
# From -- ./inp_files/30743.got.cif
#   From: 2010.06.25/outbox.cif.g09.slc.cpg/sg13_16_cif.got.tgz:30743.got - 2010.06.28 04:50:58.
