data_PCOD8117990
_publ_section_title
;
Structure prediction by ZEFSAII (Michael W. Deem and Ramdas Pophale) SiO2 
 PCOD8117990
Probable space group: P 2/C
;
_chemical_formula_sum "Si O2"
_cell_formula_units_Z 24
_cell_length_a 10.732248
_cell_length_b 22.225214
_cell_length_c 11.231921
_cell_angle_alpha 90.000000
_cell_angle_beta 25.434424
_cell_angle_gamma 90.000000
_cell_volume 1150.618630
_symmetry_space_group_name_H-M "P 2/C"
_symmetry_group_IT_number 13
_symmetry_cell_setting 'monoclinic'
loop_
_space_group_symop_operation_xyz
x,y,z
-x,y,1/2-z
-x,-y,-z
x,-y,1/2+z
loop_
_atom_site_type_symbol
_atom_site_label
_atom_site_fract_x
_atom_site_fract_y
_atom_site_fract_z
Si Si1 0.000000 0.675189 0.750000
Si Si2 0.848859 0.446421 0.765070
Si Si3 0.500000 0.052257 0.750000
Si Si4 0.261228 0.126049 0.360538
Si Si5 0.253861 0.424049 0.197588
Si Si6 0.339789 0.855087 0.203198
Si Si7 0.000000 0.026888 0.750000
Si Si8 0.500000 0.240801 0.750000
O O1 0.148722 0.633863 0.719443
O O2 0.222076 0.717097 0.489714
O O3 0.746554 0.515379 0.883158
O O4 0.000000 0.418215 0.750000
O O5 0.070817 0.442014 0.468077
O O6 0.573210 0.406751 0.966907
O O7 0.702783 0.092786 0.660993
O O8 0.712622 0.013689 0.479898
O O9 0.500000 0.151526 0.250000
O O10 0.095450 0.066358 0.552593
O O11 0.976426 0.166583 0.575784
O O12 0.448078 0.117503 0.080347
O O13 0.490917 0.798416 0.136895
#
# Coordination Sequence:
#
# PCOD8117990 Si02
#       8
#     2   4   2   4   4   4   2   2
#     4  12  22  43  64  94 124 147 212 268 304 350
#     4  10  19  35  55  89 130 167 202 224 284 384
#     4  11  24  38  58  92 130 162 200 245 306 372
#     4  12  22  42  62  90 124 159 203 244 304 382
#     4  10  21  33  59  89 122 168 196 243 301 339
#     4  11  24  43  64  86 120 165 207 255 307 363
#     4  12  22  39  56 102 122 161 198 234 326 360
#     4  11  26  44  70  90 112 156 212 273 316 344
#
# _framework density 20.858345
#
# number of rings (size 3 to 8) (size 9 to 14) (size 15 to 20)
#    0.000    1.000    3.333    3.500    0.000    6.667 
#    0.000    0.000    0.000   20.000    0.000    0.000 
#    0.000    0.000    0.000    0.000    0.000    0.000 
#
# Total GULP energy -297364.920787 kJ/mol
# GULP energy per Si atom -12390.205033 kJ/mol
# Density = 2.081087 g / cm^3
# Si number density = 20.858345 Si / 1000 Ang^3
#
#
#
# Elastic Constant Matrix: (Units=GPa)
#
#
# Indices 1 2 3 4 5 6 
#
# 1 146.5309 53.8664 60.3473 0.0000 -20.2547 0.0000
# 2 53.8664 86.5272 40.3104 0.0000 -2.9254 0.0000
# 3 60.3473 40.3104 151.6225 0.0000 -15.4660 0.0000
# 4 0.0000 0.0000 0.0000 32.7091 0.0000 -6.6282
# 5 -20.2547 -2.9254 -15.4660 0.0000 46.2225 0.0000
# 6 0.0000 0.0000 0.0000 -6.6282 0.0000 20.8805
#
#
#
# Elastic Compliance Matrix: (Units=1/GPa)
#
#
# Indices 1 2 3 4 5 6 
#
# 1 0.010121 -0.005102 -0.002332 0.000000 0.003332 0.000000
# 2 -0.005102 0.015768 -0.002369 0.000000 -0.002030 0.000000
# 3 -0.002332 -0.002369 0.008318 0.000000 0.001611 0.000000
# 4 0.000000 0.000000 0.000000 0.032674 0.000000 0.010372
# 5 0.003332 -0.002030 0.001611 0.000000 0.023505 0.000000
# 6 0.000000 0.000000 0.000000 0.010372 0.000000 0.051184
#
#
# Mechanical properties :
#
#
# Convention : Reuss Voigt Hill
#
# Bulk Modulus (GPa) = 68.48481 77.08097 72.78289
# Shear Modulus (GPa) = 30.11297 35.30619 32.70958
#
# Velocity S-wave (km/s) = 3.80371 4.11866 3.96432
# Velocity P-wave (km/s) = 7.22465 7.72351 7.47824
#
# Compressibility (1/GPa) = 0.01460178
#
# Stress axis : x y z
#
# Youngs Moduli (GPa) = 98.80587 63.42039 120.22717
#
# Poissons Ratio (x) = 0.32354 0.28038
# Poissons Ratio (y) = 0.50406 0.28478
# Poissons Ratio (z) = 0.23042 0.15022
#
# Static dielectric constant tensor:
#      x y z
#    x 3.924310 0.000000 -0.223380 
#    y 0.000000 3.560600 0.000000 
#    z -0.223380 0.000000 3.993760 
# 
# 
# High freq. dielectric constant tensor:
#      x y z
#    x 1.823710 0.000000 -0.009990 
#    y 0.000000 1.774280 0.000000 
#    z -0.009990 0.000000 1.838740 
# 
# From -- ./inp_files/34907.got.cif
#   From: 2010.06.25/outbox.cif.g09.slc.cpg/sg13_18_cif.got.tgz:34907.got - 2010.06.28 04:50:58.
