data_PCOD8117475
_publ_section_title
;
Structure prediction by ZEFSAII (Michael W. Deem and Ramdas Pophale) SiO2 
 PCOD8117475
Probable space group: P 2/C
;
_chemical_formula_sum "Si O2"
_cell_formula_units_Z 28
_cell_length_a 12.319239
_cell_length_b 11.703381
_cell_length_c 20.681291
_cell_angle_alpha 90.000000
_cell_angle_beta 27.877516
_cell_angle_gamma 90.000000
_cell_volume 1394.220795
_symmetry_space_group_name_H-M "P 2/C"
_symmetry_group_IT_number 13
_symmetry_cell_setting 'monoclinic'
loop_
_space_group_symop_operation_xyz
x,y,z
-x,y,1/2-z
-x,-y,-z
x,-y,1/2+z
loop_
_atom_site_type_symbol
_atom_site_label
_atom_site_fract_x
_atom_site_fract_y
_atom_site_fract_z
Si Si1 0.238119 0.653959 0.364582
Si Si2 0.798776 0.059091 0.903813
Si Si3 0.445380 0.155840 0.997013
Si Si4 0.100717 0.603091 0.132913
Si Si5 0.080178 0.554670 0.866679
Si Si6 0.422673 0.619061 0.573915
Si Si7 0.876376 0.807632 0.189636
O O1 0.500000 0.676059 0.250000
O O2 0.233016 0.532917 0.329222
O O3 0.150017 0.762955 0.369734
O O4 0.051793 0.649182 0.521290
O O5 0.552456 0.111543 0.009392
O O6 0.000000 0.101860 0.750000
O O7 0.900954 0.104872 0.919486
O O8 0.770082 0.921454 0.914764
O O9 0.632734 0.140296 0.840992
O O10 0.352196 0.285713 0.057299
O O11 0.000000 0.538033 0.250000
O O12 0.124632 0.514901 0.061425
O O13 0.910632 0.698671 0.217964
O O14 0.345586 0.664992 0.013151
O O15 0.233152 0.610351 0.729749
O O16 0.500000 0.500000 0.500000
#
# Coordination Sequence:
#
# PCOD8117475 Si02
#       7
#     4   4   4   4   4   4   4
#     4  10  21  40  56  81 117 170 217 246 288 359
#     4   9  18  36  58  87 117 145 196 250 307 366
#     4  10  19  33  59  92 115 150 192 243 305 371
#     4  11  17  33  54  83 124 162 185 225 304 380
#     4  10  22  34  55  85 125 164 204 246 293 354
#     4  12  20  32  53  91 133 156 182 235 309 373
#     4  10  18  36  62  80 112 160 201 243 302 361
#
# _framework density 20.082903000000002
#
# number of rings (size 3 to 8) (size 9 to 14) (size 15 to 20)
#    0.000    1.714    4.286    2.143    0.000    0.000 
#    5.143    0.000    0.000    0.857    0.000    0.000 
#    0.000    0.000    0.000    0.000    0.000    0.000 
#
# Total GULP energy -346899.409055 kJ/mol
# GULP energy per Si atom -12389.264609 kJ/mol
# Density = 2.003719 g / cm^3
# Si number density = 20.082903 Si / 1000 Ang^3
#
#
#
# Elastic Constant Matrix: (Units=GPa)
#
#
# Indices 1 2 3 4 5 6 
#
# 1 108.4421 54.3529 45.4825 0.0000 -2.2674 0.0000
# 2 54.3529 106.6677 33.7251 0.0000 5.2385 0.0000
# 3 45.4825 33.7251 94.1912 0.0000 9.2310 0.0000
# 4 0.0000 0.0000 0.0000 23.4401 0.0000 -1.7308
# 5 -2.2674 5.2385 9.2310 0.0000 26.4341 0.0000
# 6 0.0000 0.0000 0.0000 -1.7308 0.0000 36.1641
#
#
#
# Elastic Compliance Matrix: (Units=1/GPa)
#
#
# Indices 1 2 3 4 5 6 
#
# 1 0.014503 -0.005924 -0.005300 0.000000 0.004269 0.000000
# 2 -0.005924 0.013008 -0.001547 0.000000 -0.002546 0.000000
# 3 -0.005300 -0.001547 0.014232 0.000000 -0.005118 0.000000
# 4 0.000000 0.000000 0.000000 0.042813 0.000000 0.002049
# 5 0.004269 -0.002546 -0.005118 0.000000 0.040488 0.000000
# 6 0.000000 0.000000 0.000000 0.002049 0.000000 0.027750
#
#
# Mechanical properties :
#
#
# Convention : Reuss Voigt Hill
#
# Bulk Modulus (GPa) = 61.73239 64.04690 62.88964
# Shear Modulus (GPa) = 27.21288 28.92369 28.06828
#
# Velocity S-wave (km/s) = 3.68506 3.79913 3.74253
# Velocity P-wave (km/s) = 6.99369 7.15577 7.07520
#
# Compressibility (1/GPa) = 0.01619895
#
# Stress axis : x y z
#
# Youngs Moduli (GPa) = 68.95115 76.87749 70.26519
#
# Poissons Ratio (x) = 0.45541 0.37244
# Poissons Ratio (y) = 0.40846 0.10873
# Poissons Ratio (z) = 0.36547 0.11896
#
# Static dielectric constant tensor:
#      x y z
#    x 3.879690 0.000000 -0.236420 
#    y 0.000000 3.617080 0.000000 
#    z -0.236420 0.000000 3.495710 
# 
# 
# High freq. dielectric constant tensor:
#      x y z
#    x 1.772860 0.000000 -0.017380 
#    y 0.000000 1.767440 0.000000 
#    z -0.017380 0.000000 1.766130 
# 
# From -- ./inp_files/78536.got.cif
#   From: 2010.06.25/outbox.cif.g09.slc.cpg/sg13_40_cif.got.tgz:78536.got - 2010.06.28 04:50:58.
