data_PCOD8117470
_publ_section_title
;
Structure prediction by ZEFSAII (Michael W. Deem and Ramdas Pophale) SiO2 
 PCOD8117470
Probable space group: P 2/C
;
_chemical_formula_sum "Si O2"
_cell_formula_units_Z 24
_cell_length_a 11.329133
_cell_length_b 11.170916
_cell_length_c 13.158770
_cell_angle_alpha 90.000000
_cell_angle_beta 47.808054
_cell_angle_gamma 90.000000
_cell_volume 1233.842635
_symmetry_space_group_name_H-M "P 2/C"
_symmetry_group_IT_number 13
_symmetry_cell_setting 'monoclinic'
loop_
_space_group_symop_operation_xyz
x,y,z
-x,y,1/2-z
-x,-y,-z
x,-y,1/2+z
loop_
_atom_site_type_symbol
_atom_site_label
_atom_site_fract_x
_atom_site_fract_y
_atom_site_fract_z
Si Si1 0.000000 0.397992 0.750000
Si Si2 0.407984 0.069513 0.698962
Si Si3 0.000000 0.204292 0.250000
Si Si4 0.775951 0.294594 0.720916
Si Si5 0.865526 0.602666 0.962521
Si Si6 0.662838 0.144464 0.384472
Si Si7 0.446719 0.378039 0.981752
O O1 0.865560 0.313050 0.777169
O O2 0.936048 0.477099 0.881396
O O3 0.500000 0.076244 0.750000
O O4 0.246874 0.152946 0.792413
O O5 0.535602 0.102510 0.540264
O O6 0.351964 0.932675 0.709909
O O7 0.976016 0.289187 0.361146
O O8 0.842916 0.124720 0.321901
O O9 0.860787 0.378064 0.586862
O O10 0.593940 0.331279 0.833750
O O11 0.687758 0.607472 0.024220
O O12 0.621142 0.285889 0.392308
O O13 0.500000 0.500000 0.000000
#
# Coordination Sequence:
#
# PCOD8117470 Si02
#       7
#     2   4   2   4   4   4   4
#     4  11  22  35  52  84 124 145 193 254 294 356
#     4  10  20  39  61  80 111 153 202 239 281 348
#     4   9  18  35  58  82 114 149 183 232 298 352
#     4  11  21  36  58  82 111 157 196 236 300 350
#     4  10  20  36  56  82 117 154 189 236 297 360
#     4   9  20  36  59  84 111 149 191 239 288 342
#     4  10  18  36  61  82 112 150 194 235 285 347
#
# _framework density 19.451426000000001
#
# number of rings (size 3 to 8) (size 9 to 14) (size 15 to 20)
#    0.000    2.000    1.667    4.000    0.000    0.667 
#    0.000   10.000    0.000    0.000    0.000    0.000 
#    0.000    0.000    0.000    0.000    0.000    0.000 
#
# Total GULP energy -297330.250215 kJ/mol
# GULP energy per Si atom -12388.760426 kJ/mol
# Density = 1.940715 g / cm^3
# Si number density = 19.451426 Si / 1000 Ang^3
#
#
#
# Elastic Constant Matrix: (Units=GPa)
#
#
# Indices 1 2 3 4 5 6 
#
# 1 100.0752 52.1509 26.7932 0.0000 3.9212 0.0000
# 2 52.1509 108.4161 19.8296 0.0000 12.4019 0.0000
# 3 26.7932 19.8296 61.9858 0.0000 0.8436 0.0000
# 4 0.0000 0.0000 0.0000 1.7548 0.0000 12.1679
# 5 3.9212 12.4019 0.8436 0.0000 31.4242 0.0000
# 6 0.0000 0.0000 0.0000 12.1679 0.0000 15.6420
#
#
#
# Elastic Compliance Matrix: (Units=1/GPa)
#
#
# Indices 1 2 3 4 5 6 
#
# 1 0.014327 -0.006209 -0.004217 0.000000 0.000776 0.000000
# 2 -0.006209 0.012959 -0.001403 0.000000 -0.004302 0.000000
# 3 -0.004217 -0.001403 0.018396 0.000000 0.000586 0.000000
# 4 0.000000 0.000000 0.000000 -0.129691 0.000000 0.100887
# 5 0.000776 -0.004302 0.000586 0.000000 0.033408 0.000000
# 6 0.000000 0.000000 0.000000 0.100887 0.000000 -0.014549
#
#
# Mechanical properties :
#
#
# Convention : Reuss Voigt Hill
#
# Bulk Modulus (GPa) = 45.40547 52.00273 48.70410
# Shear Modulus (GPa) = -146.41110 21.21106 -62.60002
#
# Velocity S-wave (km/s) = -8.68525 3.30580 -5.67914
# Velocity P-wave (km/s) = 8.78546 6.43147 4.23205
#
# Compressibility (1/GPa) = 0.02202378
#
# Stress axis : x y z
#
# Youngs Moduli (GPa) = 69.79975 77.16521 54.35830
#
# Poissons Ratio (x) = 0.47912 0.22923
# Poissons Ratio (y) = 0.43339 0.07628
# Poissons Ratio (z) = 0.29434 0.10829
#
# Static dielectric constant tensor:
#      x y z
#    x 3.488630 0.000000 -0.197860 
#    y 0.000000 4.083640 0.000000 
#    z -0.197860 0.000000 3.590850 
# 
# 
# High freq. dielectric constant tensor:
#      x y z
#    x 1.756360 0.000000 -0.016450 
#    y 0.000000 1.752430 0.000000 
#    z -0.016450 0.000000 1.746280 
# 
# From -- ./inp_files/33755.got.cif
#   From: 2010.06.25/outbox.cif.g09.slc.cpg/sg13_17_cif.got.tgz:33755.got - 2010.06.28 04:50:58.
