data_PCOD8117214
_publ_section_title
;
Structure prediction by ZEFSAII (Michael W. Deem and Ramdas Pophale) SiO2 
 PCOD8117214
Probable space group: P 2/C
;
_chemical_formula_sum "Si O2"
_cell_formula_units_Z 28
_cell_length_a 13.076660
_cell_length_b 20.326953
_cell_length_c 18.079581
_cell_angle_alpha 90.000000
_cell_angle_beta 161.102751
_cell_angle_gamma 90.000000
_cell_volume 1556.434574
_symmetry_space_group_name_H-M "P 2/C"
_symmetry_group_IT_number 13
_symmetry_cell_setting 'monoclinic'
loop_
_space_group_symop_operation_xyz
x,y,z
-x,y,1/2-z
-x,-y,-z
x,-y,1/2+z
loop_
_atom_site_type_symbol
_atom_site_label
_atom_site_fract_x
_atom_site_fract_y
_atom_site_fract_z
Si Si1 0.268812 0.650274 0.487121
Si Si2 0.758873 0.586060 0.369621
Si Si3 0.900860 0.303817 0.467632
Si Si4 0.966182 0.043510 0.844731
Si Si5 0.519897 0.056599 0.115672
Si Si6 0.591090 0.475079 0.144005
Si Si7 0.788030 0.839227 0.896920
O O1 0.152767 0.657489 0.491866
O O2 0.336220 0.575167 0.506100
O O3 0.591601 0.691641 0.703182
O O4 0.000000 0.680991 0.250000
O O5 0.500000 0.603152 0.250000
O O6 0.606514 0.538170 0.205794
O O7 0.813150 0.657017 0.371185
O O8 0.065535 0.558008 0.620984
O O9 0.996367 0.226792 0.532035
O O10 0.708518 0.065220 0.609292
O O11 0.826103 0.986267 0.801521
O O12 0.306145 0.025986 0.037828
O O13 0.000986 0.105870 0.920545
O O14 0.650729 0.128589 0.227562
O O15 0.500000 0.500000 0.000000
O O16 0.500000 0.814942 0.750000
#
# Coordination Sequence:
#
# PCOD8117214 Si02
#       7
#     4   4   4   4   4   4   4
#     4  10  20  33  57  78 105 133 175 224 273 317
#     4  10  23  37  55  75 110 142 172 224 280 326
#     4  10  21  38  50  80 111 140 181 220 270 329
#     4   9  18  32  53  79 109 139 178 222 272 309
#     4   9  18  32  52  80 109 139 177 224 268 312
#     4  10  22  36  57  82 102 135 180 225 276 334
#     4  10  18  33  53  77 107 139 179 220 256 315
#
# _framework density 17.989834999999999
#
# number of rings (size 3 to 8) (size 9 to 14) (size 15 to 20)
#    0.000    2.286    1.429    1.286    8.000    1.143 
#    0.000    1.429    0.000    0.000    0.000    0.000 
#    0.000    0.000    0.000    0.000    0.000    0.000 
#
# Total GULP energy -346885.661805 kJ/mol
# GULP energy per Si atom -12388.773636 kJ/mol
# Density = 1.794889 g / cm^3
# Si number density = 17.989835 Si / 1000 Ang^3
#
#
#
# Elastic Constant Matrix: (Units=GPa)
#
#
# Indices 1 2 3 4 5 6 
#
# 1 98.8090 56.9931 42.2032 0.0000 2.8014 0.0000
# 2 56.9931 106.0088 15.9636 0.0000 5.0060 0.0000
# 3 42.2032 15.9636 43.6313 0.0000 -2.9155 0.0000
# 4 0.0000 0.0000 0.0000 11.8667 0.0000 5.9782
# 5 2.8014 5.0060 -2.9155 0.0000 37.1707 0.0000
# 6 0.0000 0.0000 0.0000 5.9782 0.0000 21.8493
#
#
#
# Elastic Compliance Matrix: (Units=1/GPa)
#
#
# Indices 1 2 3 4 5 6 
#
# 1 0.024699 -0.010119 -0.020328 0.000000 -0.002093 0.000000
# 2 -0.010119 0.014229 0.004528 0.000000 -0.000799 0.000000
# 3 -0.020328 0.004528 0.041203 0.000000 0.004154 0.000000
# 4 0.000000 0.000000 0.000000 0.097743 0.000000 -0.026744
# 5 -0.002093 -0.000799 0.004154 0.000000 0.027494 0.000000
# 6 0.000000 0.000000 0.000000 -0.026744 0.000000 0.053085
#
#
# Mechanical properties :
#
#
# Convention : Reuss Voigt Hill
#
# Bulk Modulus (GPa) = 35.34392 53.19655 44.27024
# Shear Modulus (GPa) = 15.63860 23.06329 19.35095
#
# Velocity S-wave (km/s) = 2.95159 3.58441 3.28328
# Velocity P-wave (km/s) = 5.59510 6.83851 6.24781
#
# Compressibility (1/GPa) = 0.02829341
#
# Stress axis : x y z
#
# Youngs Moduli (GPa) = 40.48759 70.27839 24.27012
#
# Poissons Ratio (x) = 0.71113 0.49337
# Poissons Ratio (y) = 0.40969 -0.10990
# Poissons Ratio (z) = 0.82304 -0.31823
#
# Static dielectric constant tensor:
#      x y z
#    x 3.232820 0.000000 0.013660 
#    y 0.000000 3.243800 0.000000 
#    z 0.013660 0.000000 3.406240 
# 
# 
# High freq. dielectric constant tensor:
#      x y z
#    x 1.693210 0.000000 -0.013210 
#    y 0.000000 1.683900 0.000000 
#    z -0.013210 0.000000 1.698060 
# 
# From -- ./inp_files/67015.got.cif
#   From: 2010.06.25/outbox.cif.g09.slc.cpg/sg13_34_cif.got.tgz:67015.got - 2010.06.28 04:50:58.
