data_PCOD8117301
_publ_section_title
;
Structure prediction by ZEFSAII (Michael W. Deem and Ramdas Pophale) SiO2 
 PCOD8117301
Probable space group: P 2/C
;
_chemical_formula_sum "Si O2"
_cell_formula_units_Z 32
_cell_length_a 9.169933
_cell_length_b 12.545204
_cell_length_c 14.379174
_cell_angle_alpha 90.000000
_cell_angle_beta 89.568586
_cell_angle_gamma 90.000000
_cell_volume 1654.114308
_symmetry_space_group_name_H-M "P 2/C"
_symmetry_group_IT_number 13
_symmetry_cell_setting 'monoclinic'
loop_
_space_group_symop_operation_xyz
x,y,z
-x,y,1/2-z
-x,-y,-z
x,-y,1/2+z
loop_
_atom_site_type_symbol
_atom_site_label
_atom_site_fract_x
_atom_site_fract_y
_atom_site_fract_z
Si Si1 0.331438 0.408327 0.226230
Si Si2 0.173763 0.185587 0.248573
Si Si3 0.837479 0.388283 0.752426
Si Si4 0.157511 0.673074 0.042175
Si Si5 0.827595 0.095906 0.449642
Si Si6 0.827963 0.889359 0.552365
Si Si7 0.827880 0.706476 0.068253
Si Si8 0.334333 0.473861 0.016620
O O1 0.500000 0.394273 0.250000
O O2 0.246729 0.301564 0.255489
O O3 0.268267 0.513979 0.277256
O O4 0.302864 0.429369 0.118620
O O5 0.227025 0.122866 0.155103
O O6 0.223650 0.117123 0.339268
O O7 0.000000 0.202606 0.250000
O O8 0.796600 0.334625 0.850314
O O9 0.833852 0.288669 0.680262
O O10 0.000000 0.437698 0.750000
O O11 0.234052 0.574896 0.989866
O O12 0.983827 0.668934 0.025965
O O13 0.220323 0.782088 0.999823
O O14 0.774840 0.184265 0.523338
O O15 0.000474 0.092437 0.447892
O O16 0.759798 0.986519 0.491990
O O17 0.705169 0.619598 0.052209
O O18 0.500000 0.500000 0.000000
#
# Coordination Sequence:
#
# PCOD8117301 Si02
#       8
#     4   4   4   4   4   4   4   4
#     4  11  22  35  51  79 113 144 185 233 270 331
#     4  10  20  35  57  82 109 144 183 227 276 329
#     4   9  19  33  52  79 110 147 182 221 273 329
#     4   9  20  34  52  81 110 141 186 220 271 328
#     4   9  18  35  52  85 112 140 183 225 273 326
#     4   9  19  32  57  81 112 144 179 228 274 322
#     4  10  18  34  56  77 110 147 177 224 272 332
#     4  11  22  34  52  79 111 146 181 228 279 325
#
# _framework density 19.345701999999999
#
# number of rings (size 3 to 8) (size 9 to 14) (size 15 to 20)
#    0.000    2.250    1.250    1.500    3.500    1.000 
#    0.000    5.000    0.000    3.000    0.000    1.750 
#    0.000    0.000    0.000    0.000    0.000    0.000 
#
# Total GULP energy -396617.142702 kJ/mol
# GULP energy per Si atom -12394.285709 kJ/mol
# Density = 1.930167 g / cm^3
# Si number density = 19.345702 Si / 1000 Ang^3
#
#
#
# Elastic Constant Matrix: (Units=GPa)
#
#
# Indices 1 2 3 4 5 6 
#
# 1 51.7679 24.0854 13.1445 0.0000 3.7261 0.0000
# 2 24.0854 128.0060 65.1433 0.0000 4.7306 0.0000
# 3 13.1445 65.1433 106.9074 0.0000 -0.5717 0.0000
# 4 0.0000 0.0000 0.0000 34.5461 0.0000 -0.8346
# 5 3.7261 4.7306 -0.5717 0.0000 18.0855 0.0000
# 6 0.0000 0.0000 0.0000 -0.8346 0.0000 5.5930
#
#
#
# Elastic Compliance Matrix: (Units=1/GPa)
#
#
# Indices 1 2 3 4 5 6 
#
# 1 0.021385 -0.003694 -0.000397 0.000000 -0.003452 0.000000
# 2 -0.003694 0.012148 -0.006962 0.000000 -0.002636 0.000000
# 3 -0.000397 -0.006962 0.013657 0.000000 0.002334 0.000000
# 4 0.000000 0.000000 0.000000 0.029052 0.000000 0.004335
# 5 -0.003452 -0.002636 0.002334 0.000000 0.056768 0.000000
# 6 0.000000 0.000000 0.000000 0.004335 0.000000 0.179443
#
#
# Mechanical properties :
#
#
# Convention : Reuss Voigt Hill
#
# Bulk Modulus (GPa) = 39.86587 54.60307 47.23447
# Shear Modulus (GPa) = 14.58066 23.93211 19.25639
#
# Velocity S-wave (km/s) = 2.74832 3.52103 3.15839
# Velocity P-wave (km/s) = 5.54282 6.69450 6.14570
#
# Compressibility (1/GPa) = 0.02508411
#
# Stress axis : x y z
#
# Youngs Moduli (GPa) = 46.76173 82.32014 73.22037
#
# Poissons Ratio (x) = 0.30412 0.02905
# Poissons Ratio (y) = 0.17275 0.50976
# Poissons Ratio (z) = 0.01855 0.57311
#
# Static dielectric constant tensor:
#      x y z
#    x 3.166790 0.000000 -0.037880 
#    y 0.000000 3.649090 0.000000 
#    z -0.037880 0.000000 3.826490 
# 
# 
# High freq. dielectric constant tensor:
#      x y z
#    x 1.714420 0.000000 0.000500 
#    y 0.000000 1.743990 0.000000 
#    z 0.000500 0.000000 1.770520 
# 
# From -- ./inp_files/47267.got.cif
#   From: 2010.06.25/outbox.cif.g09.slc.cpg/sg13_24_cif.got.tgz:47267.got - 2010.06.28 04:50:58.
