data_PCOD8117171
_publ_section_title
;
Structure prediction by ZEFSAII (Michael W. Deem and Ramdas Pophale) SiO2 
 PCOD8117171
Probable space group: P 2/C
;
_chemical_formula_sum "Si O2"
_cell_formula_units_Z 28
_cell_length_a 8.899972
_cell_length_b 9.149804
_cell_length_c 27.711683
_cell_angle_alpha 90.000000
_cell_angle_beta 40.529141
_cell_angle_gamma 90.000000
_cell_volume 1466.446555
_symmetry_space_group_name_H-M "P 2/C"
_symmetry_group_IT_number 13
_symmetry_cell_setting 'monoclinic'
loop_
_space_group_symop_operation_xyz
x,y,z
-x,y,1/2-z
-x,-y,-z
x,-y,1/2+z
loop_
_atom_site_type_symbol
_atom_site_label
_atom_site_fract_x
_atom_site_fract_y
_atom_site_fract_z
Si Si1 0.012231 0.772149 0.350157
Si Si2 0.313998 0.039248 0.505789
Si Si3 0.764584 0.513181 0.451715
Si Si4 0.844210 0.263322 0.496170
Si Si5 0.698132 0.294937 0.057272
Si Si6 0.000000 0.710486 0.250000
Si Si7 0.500000 0.671949 0.250000
Si Si8 0.481383 0.438064 0.650736
O O1 0.896767 0.886068 0.414366
O O2 0.913003 0.603936 0.376514
O O3 0.972458 0.815049 0.303687
O O4 0.281626 0.777675 0.296789
O O5 0.412811 0.152334 0.441469
O O6 0.500000 0.000000 0.500000
O O7 0.235827 0.898996 0.495697
O O8 0.500000 0.500000 0.500000
O O9 0.858201 0.351338 0.441598
O O10 0.806018 0.602673 0.490271
O O11 0.661036 0.338400 0.576876
O O12 0.096662 0.250181 0.457178
O O13 0.504105 0.389926 0.132157
O O14 0.222179 0.608045 0.202342
O O15 0.462981 0.572555 0.306149
#
# Coordination Sequence:
#
# PCOD8117171 Si02
#       8
#     4   4   4   4   4   2   2   4
#     4  10  20  36  55  82 107 142 185 220 276 324
#     4  11  22  36  57  83 111 141 180 235 283 323
#     4  10  18  32  56  84 111 134 174 230 274 316
#     4  11  20  34  59  84 110 141 178 232 280 321
#     4  10  20  34  54  81 109 135 176 228 272 315
#     4  10  20  32  56  78 108 144 180 220 256 336
#     4  10  20  34  58  78 110 146 182 222 254 340
#     4  10  19  35  56  82 106 140 181 218 273 321
#
# _framework density 19.093774
#
# number of rings (size 3 to 8) (size 9 to 14) (size 15 to 20)
#    0.000    1.714    0.000    9.000    0.000    0.000 
#    0.000    0.000    0.000   29.143    0.000    0.000 
#    0.000    0.000    0.000    0.000    0.000    0.000 
#
# Total GULP energy -347054.515651 kJ/mol
# GULP energy per Si atom -12394.804130 kJ/mol
# Density = 1.905032 g / cm^3
# Si number density = 19.093774 Si / 1000 Ang^3
#
#
#
# Elastic Constant Matrix: (Units=GPa)
#
#
# Indices 1 2 3 4 5 6 
#
# 1 130.8884 38.2666 27.7941 0.0000 3.5207 0.0000
# 2 38.2666 115.9978 32.7569 0.0000 10.7121 0.0000
# 3 27.7941 32.7569 71.6708 0.0000 5.4706 0.0000
# 4 0.0000 0.0000 0.0000 11.1705 0.0000 2.6347
# 5 3.5207 10.7121 5.4706 0.0000 33.0452 0.0000
# 6 0.0000 0.0000 0.0000 2.6347 0.0000 30.1562
#
#
#
# Elastic Compliance Matrix: (Units=1/GPa)
#
#
# Indices 1 2 3 4 5 6 
#
# 1 0.008801 -0.002242 -0.002402 0.000000 0.000187 0.000000
# 2 -0.002242 0.010676 -0.003812 0.000000 -0.002591 0.000000
# 3 -0.002402 -0.003812 0.016724 0.000000 -0.001277 0.000000
# 4 0.000000 0.000000 0.000000 0.091405 0.000000 -0.007986
# 5 0.000187 -0.002591 -0.001277 0.000000 0.031293 0.000000
# 6 0.000000 0.000000 0.000000 -0.007986 0.000000 0.033858
#
#
# Mechanical properties :
#
#
# Convention : Reuss Voigt Hill
#
# Bulk Modulus (GPa) = 51.84700 57.35471 54.60085
# Shear Modulus (GPa) = 23.13739 29.52367 26.33053
#
# Velocity S-wave (km/s) = 3.48483 3.93650 3.71753
# Velocity P-wave (km/s) = 6.58824 7.12496 6.86185
#
# Compressibility (1/GPa) = 0.01928752
#
# Stress axis : x y z
#
# Youngs Moduli (GPa) = 113.62688 93.66511 59.79342
#
# Poissons Ratio (x) = 0.21001 0.14365
# Poissons Ratio (y) = 0.25476 0.22795
# Poissons Ratio (z) = 0.27299 0.35708
#
# Static dielectric constant tensor:
#      x y z
#    x 3.787070 0.000000 0.233950 
#    y 0.000000 3.825280 0.000000 
#    z 0.233950 0.000000 3.649570 
# 
# 
# High freq. dielectric constant tensor:
#      x y z
#    x 1.770900 0.000000 0.007880 
#    y 0.000000 1.722000 0.000000 
#    z 0.007880 0.000000 1.726770 
# 
# From -- ./inp_files/63766.got.cif
#   From: 2010.06.25/outbox.cif.g09.slc.cpg/sg13_32_cif.got.tgz:63766.got - 2010.06.28 04:50:58.
