data_PCOD8117482
_publ_section_title
;
Structure prediction by ZEFSAII (Michael W. Deem and Ramdas Pophale) SiO2 
 PCOD8117482
Probable space group: P 2/C
;
_chemical_formula_sum "Si O2"
_cell_formula_units_Z 26
_cell_length_a 8.879417
_cell_length_b 14.447625
_cell_length_c 21.099449
_cell_angle_alpha 90.000000
_cell_angle_beta 149.433757
_cell_angle_gamma 90.000000
_cell_volume 1376.487257
_symmetry_space_group_name_H-M "P 2/C"
_symmetry_group_IT_number 13
_symmetry_cell_setting 'monoclinic'
loop_
_space_group_symop_operation_xyz
x,y,z
-x,y,1/2-z
-x,-y,-z
x,-y,1/2+z
loop_
_atom_site_type_symbol
_atom_site_label
_atom_site_fract_x
_atom_site_fract_y
_atom_site_fract_z
Si Si1 0.651056 0.969633 0.620661
Si Si2 0.967539 0.641048 0.401112
Si Si3 0.000000 0.642514 0.750000
Si Si4 0.758765 0.462583 0.050867
Si Si5 0.344543 0.830675 0.360919
Si Si6 0.462882 0.777032 0.541529
Si Si7 0.587976 0.667856 0.379213
O O1 0.489421 0.876315 0.588261
O O2 0.000000 0.946008 0.750000
O O3 0.500000 0.000000 0.500000
O O4 0.608479 0.063414 0.646161
O O5 0.883774 0.663252 0.443604
O O6 0.680100 0.620746 0.255016
O O7 0.139444 0.544279 0.458870
O O8 0.148176 0.729261 0.440548
O O9 0.001866 0.578578 0.687474
O O10 0.711370 0.705263 0.653044
O O11 0.500000 0.500000 0.000000
O O12 0.636328 0.380516 0.963589
O O13 0.515514 0.803366 0.487317
O O14 0.487609 0.772841 0.355803
O O15 0.000000 0.809490 0.250000
#
# Coordination Sequence:
#
# PCOD8117482 Si02
#       7
#     4   4   2   4   4   4   4
#     4   9  19  32  58  92 120 146 193 252 299 343
#     4  11  24  39  57  86 118 158 193 240 293 350
#     4  12  22  34  60  84 116 150 194 244 292 340
#     4  12  23  39  60  83 113 151 198 244 288 343
#     4  10  18  36  63  88 112 149 195 244 287 343
#     4  11  20  37  58  88 119 148 193 243 294 346
#     4  11  23  40  60  82 120 154 196 237 295 350
#
# _framework density 18.888660999999999
#
# number of rings (size 3 to 8) (size 9 to 14) (size 15 to 20)
#    0.000    1.231    5.385    1.385    0.000    0.000 
#    0.000    0.769    0.000    0.000    0.000    0.000 
#    0.000    0.000    0.000    0.000    0.000    0.000 
#
# Total GULP energy -322177.898356 kJ/mol
# GULP energy per Si atom -12391.457629 kJ/mol
# Density = 1.884567 g / cm^3
# Si number density = 18.888661 Si / 1000 Ang^3
#
#
#
# Elastic Constant Matrix: (Units=GPa)
#
#
# Indices 1 2 3 4 5 6 
#
# 1 86.2097 51.9822 20.8129 0.0000 3.8880 0.0000
# 2 51.9822 151.7838 28.2245 0.0000 7.4895 0.0000
# 3 20.8129 28.2245 84.9095 0.0000 -2.3289 0.0000
# 4 0.0000 0.0000 0.0000 34.6696 0.0000 0.8571
# 5 3.8880 7.4895 -2.3289 0.0000 24.3133 0.0000
# 6 0.0000 0.0000 0.0000 0.8571 0.0000 10.4372
#
#
#
# Elastic Compliance Matrix: (Units=1/GPa)
#
#
# Indices 1 2 3 4 5 6 
#
# 1 0.014992 -0.004677 -0.002152 0.000000 -0.001163 0.000000
# 2 -0.004677 0.008623 -0.001777 0.000000 -0.002079 0.000000
# 3 -0.002152 -0.001777 0.012954 0.000000 0.002132 0.000000
# 4 0.000000 0.000000 0.000000 0.028902 0.000000 -0.002373
# 5 -0.001163 -0.002079 0.002132 0.000000 0.042160 0.000000
# 6 0.000000 0.000000 0.000000 -0.002373 0.000000 0.096006
#
#
# Mechanical properties :
#
#
# Convention : Reuss Voigt Hill
#
# Bulk Modulus (GPa) = 51.66095 58.32690 54.99393
# Shear Modulus (GPa) = 21.99729 28.67625 25.33677
#
# Velocity S-wave (km/s) = 3.41629 3.90060 3.66645
# Velocity P-wave (km/s) = 6.55523 7.15770 6.86308
#
# Compressibility (1/GPa) = 0.01935698
#
# Stress axis : x y z
#
# Youngs Moduli (GPa) = 66.70439 115.96949 77.19664
#
# Poissons Ratio (x) = 0.54235 0.16613
# Poissons Ratio (y) = 0.31195 0.13718
# Poissons Ratio (z) = 0.14355 0.20608
#
# Static dielectric constant tensor:
#      x y z
#    x 2.988570 0.000000 0.006020 
#    y 0.000000 4.183000 0.000000 
#    z 0.006020 0.000000 3.385950 
# 
# 
# High freq. dielectric constant tensor:
#      x y z
#    x 1.685970 0.000000 -0.000210 
#    y 0.000000 1.758370 0.000000 
#    z -0.000210 0.000000 1.746400 
# 
# From -- ./inp_files/76584.got.cif
#   From: 2010.06.25/outbox.cif.g09.slc.cpg/sg13_39_cif.got.tgz:76584.got - 2010.06.28 04:50:58.
