data_PCOD8117882
_publ_section_title
;
Structure prediction by ZEFSAII (Michael W. Deem and Ramdas Pophale) SiO2 
 PCOD8117882
Probable space group: P 2/C
;
_chemical_formula_sum "Si O2"
_cell_formula_units_Z 28
_cell_length_a 13.989028
_cell_length_b 11.893226
_cell_length_c 9.993336
_cell_angle_alpha 90.000000
_cell_angle_beta 65.941702
_cell_angle_gamma 90.000000
_cell_volume 1518.206516
_symmetry_space_group_name_H-M "P 2/C"
_symmetry_group_IT_number 13
_symmetry_cell_setting 'monoclinic'
loop_
_space_group_symop_operation_xyz
x,y,z
-x,y,1/2-z
-x,-y,-z
x,-y,1/2+z
loop_
_atom_site_type_symbol
_atom_site_label
_atom_site_fract_x
_atom_site_fract_y
_atom_site_fract_z
Si Si1 0.714558 0.214023 0.391487
Si Si2 0.712008 0.160030 0.699185
Si Si3 0.569803 0.045983 0.342114
Si Si4 0.939099 0.866585 0.156684
Si Si5 0.928929 0.132031 0.171333
Si Si6 0.633020 0.440226 0.529647
Si Si7 0.609081 0.386917 0.830578
O O1 0.721575 0.156793 0.533396
O O2 0.617236 0.164947 0.362238
O O3 0.816992 0.190270 0.245773
O O4 0.704183 0.347280 0.416639
O O5 0.824436 0.186165 0.701553
O O6 0.635376 0.255705 0.800789
O O7 0.665810 0.039564 0.764826
O O8 0.500000 0.063728 0.250000
O O9 0.500000 0.000000 0.500000
O O10 0.000000 0.818346 0.250000
O O11 0.918530 0.998465 0.180777
O O12 0.015578 0.829796 0.995139
O O13 0.000000 0.177259 0.250000
O O14 0.657457 0.453097 0.673940
O O15 0.514843 0.396259 0.588404
O O16 0.654789 0.557296 0.440155
#
# Coordination Sequence:
#
# PCOD8117882 Si02
#       7
#     4   4   4   4   4   4   4
#     4  11  21  37  59  83 114 154 191 226 284 342
#     4  11  21  37  60  80 116 158 182 229 294 338
#     4  12  24  36  53  84 122 152 184 225 281 343
#     4  10  21  34  55  83 114 144 189 237 277 328
#     4  10  19  34  56  79 108 148 192 229 271 340
#     4   9  19  38  58  82 109 147 191 237 273 334
#     4   9  19  37  60  79 108 148 193 231 281 330
#
# _framework density 18.442813000000001
#
# number of rings (size 3 to 8) (size 9 to 14) (size 15 to 20)
#    0.000    1.714    4.286    0.857    2.000    1.143 
#   10.286    0.000    0.000    1.714    0.000    0.000 
#    0.000    0.000    0.000    0.000    0.000    0.000 
#
# Total GULP energy -347141.833588 kJ/mol
# GULP energy per Si atom -12397.922628 kJ/mol
# Density = 1.840084 g / cm^3
# Si number density = 18.442813 Si / 1000 Ang^3
#
#
#
# Elastic Constant Matrix: (Units=GPa)
#
#
# Indices 1 2 3 4 5 6 
#
# 1 94.0306 7.6592 43.6529 0.0000 6.5997 0.0000
# 2 7.6592 32.6270 22.1559 0.0000 -3.2364 0.0000
# 3 43.6529 22.1559 105.6856 0.0000 4.2500 0.0000
# 4 0.0000 0.0000 0.0000 36.3946 0.0000 -2.6307
# 5 6.5997 -3.2364 4.2500 0.0000 37.1548 0.0000
# 6 0.0000 0.0000 0.0000 -2.6307 0.0000 19.8850
#
#
#
# Elastic Compliance Matrix: (Units=1/GPa)
#
#
# Indices 1 2 3 4 5 6 
#
# 1 0.013274 0.000459 -0.005511 0.000000 -0.001688 0.000000
# 2 0.000459 0.036351 -0.007971 0.000000 0.003997 0.000000
# 3 -0.005511 -0.007971 0.013460 0.000000 -0.001255 0.000000
# 4 0.000000 0.000000 0.000000 0.027742 0.000000 0.003670
# 5 -0.001688 0.003997 -0.001255 0.000000 0.027706 0.000000
# 6 0.000000 0.000000 0.000000 0.003670 0.000000 0.050775
#
#
# Mechanical properties :
#
#
# Convention : Reuss Voigt Hill
#
# Bulk Modulus (GPa) = 26.99866 42.14214 34.57040
# Shear Modulus (GPa) = 24.07310 29.27855 26.67583
#
# Velocity S-wave (km/s) = 3.61679 3.98871 3.80729
# Velocity P-wave (km/s) = 5.66679 6.64175 6.17354
#
# Compressibility (1/GPa) = 0.03703888
#
# Stress axis : x y z
#
# Youngs Moduli (GPa) = 75.33252 27.50956 74.29454
#
# Poissons Ratio (x) = -0.01263 0.40946
# Poissons Ratio (y) = -0.03457 0.59220
# Poissons Ratio (z) = 0.41518 0.21928
#
# Static dielectric constant tensor:
#      x y z
#    x 3.321790 0.000000 0.119640 
#    y 0.000000 3.111960 0.000000 
#    z 0.119640 0.000000 3.672020 
# 
# 
# High freq. dielectric constant tensor:
#      x y z
#    x 1.709680 0.000000 0.000590 
#    y 0.000000 1.680290 0.000000 
#    z 0.000590 0.000000 1.732090 
# 
# From -- ./inp_files/18735.got.cif
#   From: 2010.06.25/outbox.cif.g09.slc.cpg/sg13_10_cif.got.tgz:18735.got - 2010.06.28 04:50:58.
