data_PCOD8117826
_publ_section_title
;
Structure prediction by ZEFSAII (Michael W. Deem and Ramdas Pophale) SiO2 
 PCOD8117826
Probable space group: P 2/C
;
_chemical_formula_sum "Si O2"
_cell_formula_units_Z 22
_cell_length_a 10.096379
_cell_length_b 8.728897
_cell_length_c 14.598492
_cell_angle_alpha 90.000000
_cell_angle_beta 113.037329
_cell_angle_gamma 90.000000
_cell_volume 1183.965041
_symmetry_space_group_name_H-M "P 2/C"
_symmetry_group_IT_number 13
_symmetry_cell_setting 'monoclinic'
loop_
_space_group_symop_operation_xyz
x,y,z
-x,y,1/2-z
-x,-y,-z
x,-y,1/2+z
loop_
_atom_site_type_symbol
_atom_site_label
_atom_site_fract_x
_atom_site_fract_y
_atom_site_fract_z
Si Si1 0.687540 0.374337 0.074011
Si Si2 0.048448 0.404895 0.898982
Si Si3 0.180196 0.372440 0.120754
Si Si4 0.460899 0.532645 0.139719
Si Si5 0.154289 0.151508 0.269175
Si Si6 0.000000 0.142271 0.750000
O O1 0.822336 0.485065 0.095811
O O2 0.596526 0.445924 0.133123
O O3 0.736653 0.206228 0.121186
O O4 0.598057 0.350606 0.954823
O O5 0.893549 0.488618 0.840692
O O6 0.050670 0.246303 0.846378
O O7 0.066309 0.348383 0.008131
O O8 0.337236 0.409508 0.125375
O O9 0.200875 0.216886 0.183359
O O10 0.500000 0.609677 0.250000
O O11 0.000000 0.227355 0.250000
O O12 0.137585 0.966485 0.261341
#
# Coordination Sequence:
#
# PCOD8117826 Si02
#       6
#     4   4   4   4   4   2
#     4  10  19  35  57  80 116 137 185 229 282 317
#     4  10  19  34  55  85 103 142 178 239 266 325
#     4  10  19  33  58  80 109 132 190 227 277 311
#     4  10  20  31  56  90 102 142 183 240 270 324
#     4  10  19  34  51  79 110 150 167 227 271 330
#     4  10  22  32  54  82 114 142 180 216 284 330
#
# _framework density 18.581631999999999
#
# number of rings (size 3 to 8) (size 9 to 14) (size 15 to 20)
#    0.545    1.455    3.636    1.091    0.000    0.727 
#    0.000    0.000    0.000   14.182    0.000    0.000 
#    0.000    0.000    0.000    0.000    0.000    0.000 
#
# Total GULP energy -272540.613117 kJ/mol
# GULP energy per Si atom -12388.209687 kJ/mol
# Density = 1.853934 g / cm^3
# Si number density = 18.581632 Si / 1000 Ang^3
#
#
#
# Elastic Constant Matrix: (Units=GPa)
#
#
# Indices 1 2 3 4 5 6 
#
# 1 80.0777 11.3808 6.7205 0.0000 -6.9226 0.0000
# 2 11.3808 88.2886 33.2441 0.0000 2.2303 0.0000
# 3 6.7205 33.2441 117.0082 0.0000 -2.7519 0.0000
# 4 0.0000 0.0000 0.0000 19.5518 0.0000 -7.0115
# 5 -6.9226 2.2303 -2.7519 0.0000 25.4419 0.0000
# 6 0.0000 0.0000 0.0000 -7.0115 0.0000 11.1447
#
#
#
# Elastic Compliance Matrix: (Units=1/GPa)
#
#
# Indices 1 2 3 4 5 6 
#
# 1 0.013064 -0.001710 -0.000178 0.000000 0.003685 0.000000
# 2 -0.001710 0.012965 -0.003632 0.000000 -0.001995 0.000000
# 3 -0.000178 -0.003632 0.009619 0.000000 0.001311 0.000000
# 4 0.000000 0.000000 0.000000 0.066047 0.000000 0.041553
# 5 0.003685 -0.001995 0.001311 0.000000 0.040625 0.000000
# 6 0.000000 0.000000 0.000000 0.041553 0.000000 0.115871
#
#
# Mechanical properties :
#
#
# Convention : Reuss Voigt Hill
#
# Bulk Modulus (GPa) = 40.63664 43.11838 41.87751
# Shear Modulus (GPa) = 18.02218 26.82962 22.42590
#
# Velocity S-wave (km/s) = 3.11769 3.80396 3.47779
# Velocity P-wave (km/s) = 5.90565 6.52294 6.22195
#
# Compressibility (1/GPa) = 0.02460833
#
# Stress axis : x y z
#
# Youngs Moduli (GPa) = 76.54357 77.13052 103.95615
#
# Poissons Ratio (x) = 0.13191 0.01848
# Poissons Ratio (y) = 0.13091 0.37760
# Poissons Ratio (z) = 0.01361 0.28016
#
# Static dielectric constant tensor:
#      x y z
#    x 3.537050 0.000000 -0.046280 
#    y 0.000000 2.939050 0.000000 
#    z -0.046280 0.000000 3.809280 
# 
# 
# High freq. dielectric constant tensor:
#      x y z
#    x 1.725540 0.000000 -0.004820 
#    y 0.000000 1.667380 0.000000 
#    z -0.004820 0.000000 1.741800 
# 
# From -- ./inp_files/49331.got.cif
#   From: 2010.06.25/outbox.cif.g09.slc.cpg/sg13_25_cif.got.tgz:49331.got - 2010.06.28 04:50:58.
