data_PCOD8117879
_publ_section_title
;
Structure prediction by ZEFSAII (Michael W. Deem and Ramdas Pophale) SiO2 
 PCOD8117879
Probable space group: P 2/C
;
_chemical_formula_sum "Si O2"
_cell_formula_units_Z 32
_cell_length_a 22.489538
_cell_length_b 8.990980
_cell_length_c 26.793020
_cell_angle_alpha 90.000000
_cell_angle_beta 16.917433
_cell_angle_gamma 90.000000
_cell_volume 1576.493659
_symmetry_space_group_name_H-M "P 2/C"
_symmetry_group_IT_number 13
_symmetry_cell_setting 'monoclinic'
loop_
_space_group_symop_operation_xyz
x,y,z
-x,y,1/2-z
-x,-y,-z
x,-y,1/2+z
loop_
_atom_site_type_symbol
_atom_site_label
_atom_site_fract_x
_atom_site_fract_y
_atom_site_fract_z
Si Si1 0.929587 0.672193 0.940889
Si Si2 0.447661 0.327803 0.681904
Si Si3 0.809895 0.167600 0.689652
Si Si4 0.686286 0.168968 0.063733
Si Si5 0.816555 0.844366 0.933471
Si Si6 0.439109 0.331969 0.185818
Si Si7 0.811610 0.832395 0.688801
Si Si8 0.060471 0.668031 0.064418
O O1 0.900585 0.749214 0.911524
O O2 0.991211 0.502011 0.881829
O O3 0.117812 0.750378 0.817718
O O4 0.721382 0.686193 0.139283
O O5 0.375775 0.249574 0.688763
O O6 0.652178 0.250884 0.535804
O O7 0.499013 0.497979 0.627972
O O8 0.004762 0.166452 0.497616
O O9 0.863288 0.254650 0.697711
O O10 0.743513 0.000000 0.756470
O O11 0.500000 0.199124 0.250000
O O12 0.633157 0.245702 0.053475
O O13 0.886767 0.245654 0.926658
O O14 0.715221 0.994216 0.034795
O O15 0.000000 0.888259 0.750000
O O16 0.380824 0.254625 0.180239
O O17 0.247482 0.322613 0.376272
#
# Coordination Sequence:
#
# PCOD8117879 Si02
#       8
#     4   4   4   4   4   4   4   4
#     4  10  19  34  57  81 107 140 177 216 261 313
#     4  10  19  34  57  81 107 140 177 216 261 313
#     4   9  16  27  49  83 116 140 167 210 260 308
#     4  10  19  34  56  78 104 138 177 218 262 314
#     4  12  25  38  52  74 106 140 179 224 268 314
#     4   9  17  30  53  86 113 135 171 218 262 307
#     4   9  16  27  49  83 116 140 167 210 260 308
#     4   9  17  30  53  86 113 135 171 218 262 307
#
# _framework density 20.298210999999998
#
# number of rings (size 3 to 8) (size 9 to 14) (size 15 to 20)
#    0.000    2.250    0.000    4.125    0.000    9.000 
#    0.000    2.500    0.000    9.750    0.000    0.000 
#    0.000    0.000    0.000    0.000    0.000    0.000 
#
# Total GULP energy -396852.968452 kJ/mol
# GULP energy per Si atom -12401.655264 kJ/mol
# Density = 2.025201 g / cm^3
# Si number density = 20.298211 Si / 1000 Ang^3
#
#
#
# Elastic Constant Matrix: (Units=GPa)
#
#
# Indices 1 2 3 4 5 6 
#
# 1 140.1421 78.5668 42.8737 0.0000 -62.7897 0.0000
# 2 78.5668 181.7777 19.9697 0.0000 -40.0516 0.0000
# 3 42.8737 19.9697 23.6867 0.0000 -16.7651 0.0000
# 4 0.0000 0.0000 0.0000 11.8509 0.0000 -19.7768
# 5 -62.7897 -40.0516 -16.7651 0.0000 34.1477 0.0000
# 6 0.0000 0.0000 0.0000 -19.7768 0.0000 40.7438
#
#
#
# Elastic Compliance Matrix: (Units=1/GPa)
#
#
# Indices 1 2 3 4 5 6 
#
# 1 0.066076 -0.002295 -0.051455 0.000000 0.093543 0.000000
# 2 -0.002295 0.007498 0.001641 0.000000 0.005380 0.000000
# 3 -0.051455 0.001641 0.104773 0.000000 -0.041251 0.000000
# 4 0.000000 0.000000 0.000000 0.444166 0.000000 0.215596
# 5 0.093543 0.005380 -0.041251 0.000000 0.187346 0.000000
# 6 0.000000 0.000000 0.000000 0.215596 0.000000 0.129192
#
#
# Mechanical properties :
#
#
# Convention : Reuss Voigt Hill
#
# Bulk Modulus (GPa) = 13.49030 69.82520 41.65775
# Shear Modulus (GPa) = 4.68173 30.96158 17.82165
#
# Velocity S-wave (km/s) = 1.52036 3.90979 2.96631
# Velocity P-wave (km/s) = 3.12129 7.40651 5.68326
#
# Compressibility (1/GPa) = 0.07412731
#
# Stress axis : x y z
#
# Youngs Moduli (GPa) = 15.13420 133.36206 9.54440
#
# Poissons Ratio (x) = 0.30611 0.49111
# Poissons Ratio (y) = 0.03474 -0.01566
# Poissons Ratio (z) = 0.77873 -0.21879
#
# Static dielectric constant tensor:
#      x y z
#    x 3.820470 0.000000 -0.440480 
#    y 0.000000 3.857420 0.000000 
#    z -0.440480 0.000000 3.175530 
# 
# 
# High freq. dielectric constant tensor:
#      x y z
#    x 1.797420 0.000000 -0.037140 
#    y 0.000000 1.812030 0.000000 
#    z -0.037140 0.000000 1.743090 
# 
# From -- ./inp_files/93564.got.cif
#   From: 2010.06.25/outbox.cif.g09.slc.cpg/sg13_47_cif.got.tgz:93564.got - 2010.06.28 04:50:58.
