data_PCOD8117403
_publ_section_title
;
Structure prediction by ZEFSAII (Michael W. Deem and Ramdas Pophale) SiO2 
 PCOD8117403
Probable space group: P 2/C
;
_chemical_formula_sum "Si O2"
_cell_formula_units_Z 32
_cell_length_a 14.944279
_cell_length_b 17.373117
_cell_length_c 12.467601
_cell_angle_alpha 90.000000
_cell_angle_beta 150.702048
_cell_angle_gamma 90.000000
_cell_volume 1584.004223
_symmetry_space_group_name_H-M "P 2/C"
_symmetry_group_IT_number 13
_symmetry_cell_setting 'monoclinic'
loop_
_space_group_symop_operation_xyz
x,y,z
-x,y,1/2-z
-x,-y,-z
x,-y,1/2+z
loop_
_atom_site_type_symbol
_atom_site_label
_atom_site_fract_x
_atom_site_fract_y
_atom_site_fract_z
Si Si1 0.414947 0.570429 0.044001
Si Si2 0.273281 0.414181 0.796225
Si Si3 0.136824 0.708697 0.306454
Si Si4 0.785537 0.865052 0.041315
Si Si5 0.015118 0.200904 0.047794
Si Si6 0.957214 0.643049 0.823732
Si Si7 0.316376 0.091882 0.294020
Si Si8 0.723404 0.922851 0.206183
O O1 0.500000 0.553916 0.250000
O O2 0.570053 0.603313 0.127156
O O3 0.313428 0.495296 0.892501
O O4 0.258539 0.634561 0.881601
O O5 0.271630 0.351937 0.890617
O O6 0.076623 0.408744 0.531301
O O7 0.259228 0.773915 0.491487
O O8 0.000000 0.667919 0.250000
O O9 0.008859 0.754664 0.089223
O O10 0.717675 0.912338 0.072628
O O11 0.000000 0.879266 0.250000
O O12 0.675808 0.893829 0.824581
O O13 0.001596 0.265655 0.125680
O O14 0.210051 0.158266 0.247770
O O15 0.858838 0.137528 0.904445
O O16 0.000000 0.612827 0.750000
O O17 0.524884 0.090841 0.552495
O O18 0.215284 0.010404 0.207663
#
# Coordination Sequence:
#
# PCOD8117403 Si02
#       8
#     4   4   4   4   4   4   4   4
#     4  11  23  45  67  96 130 167 214 259 318 382
#     4  10  23  42  68  95 129 165 211 264 318 381
#     4   9  17  37  61  92 120 153 204 254 309 373
#     4  10  18  35  60  82 116 156 192 247 317 363
#     4  10  21  38  59  87 119 160 206 253 307 370
#     4  11  23  43  67  90 127 176 210 258 320 373
#     4  11  20  38  60  84 119 158 197 259 313 361
#     4  10  22  36  57  85 117 156 206 249 306 373
#
# _framework density 20.201965999999999
#
# number of rings (size 3 to 8) (size 9 to 14) (size 15 to 20)
#    0.000    1.750    5.000    1.125    0.000    3.500 
#   11.250    3.750    0.000    0.000    0.000    0.000 
#    0.000    0.000    0.000    0.000    0.000    0.000 
#
# Total GULP energy -396706.124248 kJ/mol
# GULP energy per Si atom -12397.066383 kJ/mol
# Density = 2.015599 g / cm^3
# Si number density = 20.201966 Si / 1000 Ang^3
#
#
#
# Elastic Constant Matrix: (Units=GPa)
#
#
# Indices 1 2 3 4 5 6 
#
# 1 105.8478 50.8948 29.7630 0.0000 5.6041 0.0000
# 2 50.8948 102.8283 33.9290 0.0000 2.1340 0.0000
# 3 29.7630 33.9290 77.2673 0.0000 9.3350 0.0000
# 4 0.0000 0.0000 0.0000 19.5329 0.0000 -1.3828
# 5 5.6041 2.1340 9.3350 0.0000 31.1237 0.0000
# 6 0.0000 0.0000 0.0000 -1.3828 0.0000 37.2996
#
#
#
# Elastic Compliance Matrix: (Units=1/GPa)
#
#
# Indices 1 2 3 4 5 6 
#
# 1 0.012847 -0.005554 -0.002362 0.000000 -0.001224 0.000000
# 2 -0.005554 0.013790 -0.004070 0.000000 0.001275 0.000000
# 3 -0.002362 -0.004070 0.016139 0.000000 -0.004136 0.000000
# 4 0.000000 0.000000 0.000000 0.051330 0.000000 0.001903
# 5 -0.001224 0.001275 -0.004136 0.000000 0.033503 0.000000
# 6 0.000000 0.000000 0.000000 0.001903 0.000000 0.026880
#
#
# Mechanical properties :
#
#
# Convention : Reuss Voigt Hill
#
# Bulk Modulus (GPa) = 53.17991 57.23523 55.20757
# Shear Modulus (GPa) = 27.06643 29.01501 28.04072
#
# Velocity S-wave (km/s) = 3.66429 3.79390 3.72966
# Velocity P-wave (km/s) = 6.65462 6.89816 6.77748
#
# Compressibility (1/GPa) = 0.01880409
#
# Stress axis : x y z
#
# Youngs Moduli (GPa) = 77.83957 72.51431 61.96198
#
# Poissons Ratio (x) = 0.40273 0.14635
# Poissons Ratio (y) = 0.43231 0.25220
# Poissons Ratio (z) = 0.18385 0.29515
#
# Static dielectric constant tensor:
#      x y z
#    x 3.773810 0.000000 -0.035160 
#    y 0.000000 3.725310 0.000000 
#    z -0.035160 0.000000 3.608530 
# 
# 
# High freq. dielectric constant tensor:
#      x y z
#    x 1.792410 0.000000 0.009390 
#    y 0.000000 1.784590 0.000000 
#    z 0.009390 0.000000 1.778570 
# 
# From -- ./inp_files/37724.got.cif
#   From: 2010.06.25/outbox.cif.g09.slc.cpg/sg13_19_cif.got.tgz:37724.got - 2010.06.28 04:50:58.
