data_PCOD8117478
_publ_section_title
;
Structure prediction by ZEFSAII (Michael W. Deem and Ramdas Pophale) SiO2 
 PCOD8117478
Probable space group: P 2/C
;
_chemical_formula_sum "Si O2"
_cell_formula_units_Z 22
_cell_length_a 8.314703
_cell_length_b 12.301525
_cell_length_c 10.706769
_cell_angle_alpha 90.000000
_cell_angle_beta 77.160528
_cell_angle_gamma 90.000000
_cell_volume 1067.744103
_symmetry_space_group_name_H-M "P 2/C"
_symmetry_group_IT_number 13
_symmetry_cell_setting 'monoclinic'
loop_
_space_group_symop_operation_xyz
x,y,z
-x,y,1/2-z
-x,-y,-z
x,-y,1/2+z
loop_
_atom_site_type_symbol
_atom_site_label
_atom_site_fract_x
_atom_site_fract_y
_atom_site_fract_z
Si Si1 0.000000 0.854075 0.250000
Si Si2 0.440331 0.881431 0.393033
Si Si3 0.206125 0.292358 0.884945
Si Si4 0.102931 0.484753 0.356799
Si Si5 0.758131 0.075923 0.992682
Si Si6 0.074952 0.247749 0.367765
O O1 0.143954 0.777229 0.277297
O O2 0.910550 0.929398 0.369073
O O3 0.500000 0.927404 0.250000
O O4 0.381690 0.756577 0.395759
O O5 0.585587 0.881747 0.467834
O O6 0.278408 0.953363 0.456338
O O7 0.238120 0.418078 0.840605
O O8 0.075081 0.278661 0.017253
O O9 0.177049 0.362112 0.334711
O O10 0.000000 0.508401 0.250000
O O11 0.000000 0.500000 0.500000
O O12 0.805797 0.154779 0.099111
O O13 0.000000 0.206686 0.250000
#
# Coordination Sequence:
#
# PCOD8117478 Si02
#       6
#     2   4   4   4   4   4
#     4  10  18  36  62  88 112 148 210 244 284 354
#     4  11  23  40  57  85 125 162 193 242 312 359
#     4  10  19  35  59  88 113 155 195 242 291 358
#     4   9  17  32  58  87 120 148 194 249 302 345
#     4  10  23  40  59  86 121 160 197 250 299 355
#     4   9  20  37  59  91 116 152 198 248 294 346
#
# _framework density 20.604189999999999
#
# number of rings (size 3 to 8) (size 9 to 14) (size 15 to 20)
#    0.000    2.182    2.727    0.000    0.000    5.818 
#    3.273    0.909    0.000    1.091    0.000    0.000 
#    0.000    0.000    0.000    0.000    0.000    0.000 
#
# Total GULP energy -272638.368814 kJ/mol
# GULP energy per Si atom -12392.653128 kJ/mol
# Density = 2.055729 g / cm^3
# Si number density = 20.604190 Si / 1000 Ang^3
#
#
#
# Elastic Constant Matrix: (Units=GPa)
#
#
# Indices 1 2 3 4 5 6 
#
# 1 79.1118 60.7198 25.9289 0.0000 14.3178 0.0000
# 2 60.7198 131.2553 44.9989 0.0000 8.0496 0.0000
# 3 25.9289 44.9989 93.6475 0.0000 18.6029 0.0000
# 4 0.0000 0.0000 0.0000 19.7965 0.0000 0.0498
# 5 14.3178 8.0496 18.6029 0.0000 33.5646 0.0000
# 6 0.0000 0.0000 0.0000 0.0498 0.0000 27.8558
#
#
#
# Elastic Compliance Matrix: (Units=1/GPa)
#
#
# Indices 1 2 3 4 5 6 
#
# 1 0.020996 -0.009297 -0.000011 0.000000 -0.006721 0.000000
# 2 -0.009297 0.013240 -0.004433 0.000000 0.003248 0.000000
# 3 -0.000011 -0.004433 0.014158 0.000000 -0.006779 0.000000
# 4 0.000000 0.000000 0.000000 0.050514 0.000000 -0.000090
# 5 -0.006721 0.003248 -0.006779 0.000000 0.035639 0.000000
# 6 0.000000 0.000000 0.000000 -0.000090 0.000000 0.035899
#
#
# Mechanical properties :
#
#
# Convention : Reuss Voigt Hill
#
# Bulk Modulus (GPa) = 47.81877 63.03443 55.42660
# Shear Modulus (GPa) = 24.40226 27.73452 26.06839
#
# Velocity S-wave (km/s) = 3.44515 3.67285 3.56082
# Velocity P-wave (km/s) = 6.25172 6.97466 6.62306
#
# Compressibility (1/GPa) = 0.02091229
#
# Stress axis : x y z
#
# Youngs Moduli (GPa) = 47.62862 75.52734 70.63029
#
# Poissons Ratio (x) = 0.70217 0.00077
# Poissons Ratio (y) = 0.44280 0.31311
# Poissons Ratio (z) = 0.00052 0.33482
#
# Static dielectric constant tensor:
#      x y z
#    x 3.471850 0.000000 0.213730 
#    y 0.000000 4.235560 0.000000 
#    z 0.213730 0.000000 3.907320 
# 
# 
# High freq. dielectric constant tensor:
#      x y z
#    x 1.774430 0.000000 0.022370 
#    y 0.000000 1.815130 0.000000 
#    z 0.022370 0.000000 1.812400 
# 
# From -- ./inp_files/29340.got.cif
#   From: 2010.06.25/outbox.cif.g09.slc.cpg/sg13_15_cif.got.tgz:29340.got - 2010.06.28 04:50:58.
