data_PCOD8117766
_publ_section_title
;
Structure prediction by ZEFSAII (Michael W. Deem and Ramdas Pophale) SiO2 
 PCOD8117766
Probable space group: P 2/C
;
_chemical_formula_sum "Si O2"
_cell_formula_units_Z 32
_cell_length_a 17.034244
_cell_length_b 12.365472
_cell_length_c 23.356057
_cell_angle_alpha 90.000000
_cell_angle_beta 160.099056
_cell_angle_gamma 90.000000
_cell_volume 1674.620159
_symmetry_space_group_name_H-M "P 2/C"
_symmetry_group_IT_number 13
_symmetry_cell_setting 'monoclinic'
loop_
_space_group_symop_operation_xyz
x,y,z
-x,y,1/2-z
-x,-y,-z
x,-y,1/2+z
loop_
_atom_site_type_symbol
_atom_site_label
_atom_site_fract_x
_atom_site_fract_y
_atom_site_fract_z
Si Si1 0.903550 0.158012 0.409331
Si Si2 0.251389 0.032938 0.851416
Si Si3 0.312135 0.407013 0.751008
Si Si4 0.522115 0.000608 0.383175
Si Si5 0.312990 0.664823 0.073083
Si Si6 0.063205 0.389328 0.104687
Si Si7 0.772341 0.181774 0.764686
Si Si8 0.853265 0.103579 0.033897
O O1 0.683568 0.083627 0.264901
O O2 0.826461 0.269790 0.325588
O O3 0.003920 0.171070 0.541450
O O4 0.100173 0.104384 0.502837
O O5 0.167742 0.139199 0.758211
O O6 0.279213 0.052009 0.938718
O O7 0.083970 0.932741 0.724450
O O8 0.500000 0.000000 0.000000
O O9 0.562837 0.401632 0.892587
O O10 0.271594 0.523842 0.752711
O O11 0.299262 0.308146 0.787324
O O12 0.101396 0.398975 0.562780
O O13 0.434047 0.887687 0.349414
O O14 0.643914 0.978306 0.405602
O O15 0.500000 0.690468 0.250000
O O16 0.213234 0.780116 0.985366
O O17 0.097973 0.595411 0.949784
#
# Coordination Sequence:
#
# PCOD8117766 Si02
#       8
#     4   4   4   4   4   4   4   4
#     4  10  20  34  52  81 112 140 181 229 274 326
#     4  10  21  36  49  74 110 145 172 219 278 332
#     4   9  15  31  50  74 105 139 181 220 268 325
#     4  11  21  34  53  77 108 146 178 224 274 329
#     4   9  17  28  48  81 104 132 181 232 267 312
#     4   8  17  29  50  74 105 144 171 220 281 320
#     4  10  19  33  53  78 110 143 177 228 277 316
#     4  11  20  31  55  76 104 141 187 224 269 324
#
# _framework density 19.108810999999999
#
# number of rings (size 3 to 8) (size 9 to 14) (size 15 to 20)
#    0.000    2.250    3.750    1.500    0.000    0.000 
#    0.000    1.250    0.000    3.750    0.000    0.000 
#    0.000    0.000    0.000    0.000    0.000    0.000 
#
# Total GULP energy -396508.327766 kJ/mol
# GULP energy per Si atom -12390.885243 kJ/mol
# Density = 1.906532 g / cm^3
# Si number density = 19.108811 Si / 1000 Ang^3
#
#
#
# Elastic Constant Matrix: (Units=GPa)
#
#
# Indices 1 2 3 4 5 6 
#
# 1 79.4555 65.3443 33.5804 0.0000 15.4077 0.0000
# 2 65.3443 129.9693 44.1971 0.0000 20.6491 0.0000
# 3 33.5804 44.1971 50.6987 0.0000 16.4700 0.0000
# 4 0.0000 0.0000 0.0000 19.2090 0.0000 12.2363
# 5 15.4077 20.6491 16.4700 0.0000 32.3824 0.0000
# 6 0.0000 0.0000 0.0000 12.2363 0.0000 29.6723
#
#
#
# Elastic Compliance Matrix: (Units=1/GPa)
#
#
# Indices 1 2 3 4 5 6 
#
# 1 0.023347 -0.009088 -0.006966 0.000000 -0.001770 0.000000
# 2 -0.009088 0.014652 -0.006137 0.000000 -0.001897 0.000000
# 3 -0.006966 -0.006137 0.032752 0.000000 -0.009430 0.000000
# 4 0.000000 0.000000 0.000000 0.070607 0.000000 -0.029117
# 5 -0.001770 -0.001897 -0.009430 0.000000 0.037730 0.000000
# 6 0.000000 0.000000 0.000000 -0.029117 0.000000 0.045709
#
#
# Mechanical properties :
#
#
# Convention : Reuss Voigt Hill
#
# Bulk Modulus (GPa) = 37.92430 60.70744 49.31587
# Shear Modulus (GPa) = 17.98773 24.05285 21.02029
#
# Velocity S-wave (km/s) = 3.07144 3.55171 3.32027
# Velocity P-wave (km/s) = 5.69806 6.97552 6.36890
#
# Compressibility (1/GPa) = 0.02636832
#
# Stress axis : x y z
#
# Youngs Moduli (GPa) = 42.83190 68.25204 30.53257
#
# Poissons Ratio (x) = 0.62027 0.21270
# Poissons Ratio (y) = 0.38925 0.18737
# Poissons Ratio (z) = 0.29838 0.41885
#
# Static dielectric constant tensor:
#      x y z
#    x 3.780520 0.000000 -0.003800 
#    y 0.000000 3.755560 0.000000 
#    z -0.003800 0.000000 3.459660 
# 
# 
# High freq. dielectric constant tensor:
#      x y z
#    x 1.732030 0.000000 0.014930 
#    y 0.000000 1.724840 0.000000 
#    z 0.014930 0.000000 1.721040 
# 
# From -- ./inp_files/88202.got.cif
#   From: 2010.06.25/outbox.cif.g09.slc.cpg/sg13_45_cif.got.tgz:88202.got - 2010.06.28 04:50:58.
