data_PCOD8117388
_publ_section_title
;
Structure prediction by ZEFSAII (Michael W. Deem and Ramdas Pophale) SiO2 
 PCOD8117388
Probable space group: P 2/C
;
_chemical_formula_sum "Si O2"
_cell_formula_units_Z 24
_cell_length_a 16.032488
_cell_length_b 10.211216
_cell_length_c 21.837235
_cell_angle_alpha 90.000000
_cell_angle_beta 159.596942
_cell_angle_gamma 90.000000
_cell_volume 1246.323872
_symmetry_space_group_name_H-M "P 2/C"
_symmetry_group_IT_number 13
_symmetry_cell_setting 'monoclinic'
loop_
_space_group_symop_operation_xyz
x,y,z
-x,y,1/2-z
-x,-y,-z
x,-y,1/2+z
loop_
_atom_site_type_symbol
_atom_site_label
_atom_site_fract_x
_atom_site_fract_y
_atom_site_fract_z
Si Si1 0.205686 0.620636 0.257948
Si Si2 0.834506 0.227766 0.077017
Si Si3 0.521372 0.385338 0.432991
Si Si4 0.747308 0.859283 0.711000
Si Si5 0.423888 0.874920 0.368878
Si Si6 0.708981 0.511641 0.942039
O O1 0.392682 0.523155 0.355290
O O2 0.267484 0.634999 0.372373
O O3 0.229425 0.758815 0.239146
O O4 0.938304 0.569486 0.064959
O O5 0.000000 0.243421 0.250000
O O6 0.976687 0.154335 0.120297
O O7 0.596517 0.144074 0.928830
O O8 0.765978 0.372085 0.009786
O O9 0.328880 0.268418 0.303269
O O10 0.637330 0.386366 0.445810
O O11 0.583673 0.870984 0.539134
O O12 0.715866 0.987286 0.732051
O O13 0.500000 0.495745 0.750000
#
# Coordination Sequence:
#
# PCOD8117388 Si02
#       6
#     4   4   4   4   4   4
#     4  10  19  35  59  85 110 141 185 233 280 325
#     4  10  18  35  58  80 112 148 188 230 281 333
#     4  10  19  35  59  85 110 141 185 233 280 325
#     4   9  18  32  56  88 114 141 181 233 284 330
#     4   9  18  32  56  88 114 141 181 233 284 330
#     4  12  24  35  54  84 116 150 192 230 277 331
#
# _framework density 19.256633000000001
#
# number of rings (size 3 to 8) (size 9 to 14) (size 15 to 20)
#    0.000    2.000    3.333    1.500    0.000    2.000 
#    0.000    5.000    0.000    6.000    0.000    0.000 
#    0.000    0.000    0.000    0.000    0.000    0.000 
#
# Total GULP energy -297628.114934 kJ/mol
# GULP energy per Si atom -12401.171456 kJ/mol
# Density = 1.921280 g / cm^3
# Si number density = 19.256633 Si / 1000 Ang^3
#
#
#
# Elastic Constant Matrix: (Units=GPa)
#
#
# Indices 1 2 3 4 5 6 
#
# 1 61.9038 36.8857 40.2513 0.0000 28.2367 0.0000
# 2 36.8857 132.9218 29.4806 0.0000 19.5739 0.0000
# 3 40.2513 29.4806 61.9477 0.0000 27.6894 0.0000
# 4 0.0000 0.0000 0.0000 16.2761 0.0000 15.2198
# 5 28.2367 19.5739 27.6894 0.0000 24.7044 0.0000
# 6 0.0000 0.0000 0.0000 15.2198 0.0000 22.0031
#
#
#
# Elastic Compliance Matrix: (Units=1/GPa)
#
#
# Indices 1 2 3 4 5 6 
#
# 1 0.038607 -0.004147 -0.009732 0.000000 -0.029933 0.000000
# 2 -0.004147 0.009098 -0.001065 0.000000 -0.001274 0.000000
# 3 -0.009732 -0.001065 0.035318 0.000000 -0.027617 0.000000
# 4 0.000000 0.000000 0.000000 0.173964 0.000000 -0.120333
# 5 -0.029933 -0.001274 -0.027617 0.000000 0.106655 0.000000
# 6 0.000000 0.000000 0.000000 -0.120333 0.000000 0.128684
#
#
# Mechanical properties :
#
#
# Convention : Reuss Voigt Hill
#
# Bulk Modulus (GPa) = 18.82069 52.22317 35.52193
# Shear Modulus (GPa) = 9.26050 22.60708 15.93379
#
# Velocity S-wave (km/s) = 2.19532 3.43007 2.87965
# Velocity P-wave (km/s) = 4.02750 6.54718 5.43536
#
# Compressibility (1/GPa) = 0.05313300
#
# Stress axis : x y z
#
# Youngs Moduli (GPa) = 25.90210 109.91438 28.31438
#
# Poissons Ratio (x) = 0.45581 0.27557
# Poissons Ratio (y) = 0.10742 0.03017
# Poissons Ratio (z) = 0.25209 0.11711
#
# Static dielectric constant tensor:
#      x y z
#    x 3.533280 0.000000 0.361330 
#    y 0.000000 3.675000 0.000000 
#    z 0.361330 0.000000 3.282990 
# 
# 
# High freq. dielectric constant tensor:
#      x y z
#    x 1.739250 0.000000 0.033140 
#    y 0.000000 1.749190 0.000000 
#    z 0.033140 0.000000 1.721440 
# 
# From -- ./inp_files/80136.got.cif
#   From: 2010.06.25/outbox.cif.g09.slc.cpg/sg13_41_cif.got.tgz:80136.got - 2010.06.28 04:50:58.
