data_PCOD8117602
_publ_section_title
;
Structure prediction by ZEFSAII (Michael W. Deem and Ramdas Pophale) SiO2 
 PCOD8117602
Probable space group: P 2/C
;
_chemical_formula_sum "Si O2"
_cell_formula_units_Z 30
_cell_length_a 18.571015
_cell_length_b 26.819258
_cell_length_c 5.169012
_cell_angle_alpha 90.000000
_cell_angle_beta 104.842717
_cell_angle_gamma 90.000000
_cell_volume 2488.578870
_symmetry_space_group_name_H-M "P 2/C"
_symmetry_group_IT_number 13
_symmetry_cell_setting 'monoclinic'
loop_
_space_group_symop_operation_xyz
x,y,z
-x,y,1/2-z
-x,-y,-z
x,-y,1/2+z
loop_
_atom_site_type_symbol
_atom_site_label
_atom_site_fract_x
_atom_site_fract_y
_atom_site_fract_z
Si Si1 0.183858 0.533152 0.453219
Si Si2 0.088499 0.688521 0.832070
Si Si3 0.911513 0.629458 0.167983
Si Si4 0.088828 0.971104 0.331690
Si Si5 0.500000 0.534181 0.750000
Si Si6 0.911189 0.858587 0.168386
Si Si7 0.655198 0.468236 0.481221
Si Si8 0.088879 0.199272 0.331644
O O1 0.173819 0.509247 0.726657
O O2 0.121313 0.574358 0.357731
O O3 0.266038 0.559222 0.501090
O O4 0.117633 0.659183 0.608586
O O5 0.120814 0.744576 0.860458
O O6 0.000000 0.690996 0.750000
O O7 0.117487 0.659838 0.111055
O O8 0.000000 0.623938 0.250000
O O9 0.120051 0.914847 0.360099
O O10 0.000000 0.970354 0.250000
O O11 0.119425 0.999953 0.609994
O O12 0.500000 0.500000 0.500000
O O13 0.420553 0.564393 0.655727
O O14 0.880645 0.829647 0.390174
O O15 0.000000 0.859403 0.250000
O O16 0.880638 0.829750 0.890075
O O17 0.653652 0.484750 0.780185
O O18 0.000000 0.200213 0.250000
#
# Coordination Sequence:
#
# PCOD8117602 Si02
#       8
#     4   4   4   4   2   4   4   4
#     4  10  19  29  39  51  66  82 100 121 143 171
#     4   9  17  28  39  49  59  72  92 121 155 185
#     4  10  19  29  39  49  61  78  99 121 149 184
#     4   9  15  21  27  36  53  74  91 105 123 155
#     4   8  12  20  34  50  66  82  98 114 134 160
#     4   9  15  21  30  43  55  69  88 109 136 167
#     4   8  14  23  35  50  66  82  98 116 137 161
#     4   9  15  23  34  45  55  65  83 114 146 173
#
# _framework density 12.055073
#
# number of rings (size 3 to 8) (size 9 to 14) (size 15 to 20)
#    0.000    2.933    0.000    2.400    0.000    6.933 
#    0.000    0.000    0.000    0.000    0.000    0.000 
#    0.000    0.000    0.000    0.000    0.000    0.000 
#
# Total GULP energy -371680.883413 kJ/mol
# GULP energy per Si atom -12389.362780 kJ/mol
# Density = 1.202764 g / cm^3
# Si number density = 12.055073 Si / 1000 Ang^3
#
#
#
# Elastic Constant Matrix: (Units=GPa)
#
#
# Indices 1 2 3 4 5 6 
#
# 1 23.7419 21.0293 20.1051 0.0000 -1.8363 0.0000
# 2 21.0293 77.0369 35.3001 0.0000 -4.4587 0.0000
# 3 20.1051 35.3001 89.5512 0.0000 -20.2890 0.0000
# 4 0.0000 0.0000 0.0000 19.3468 0.0000 -6.5580
# 5 -1.8363 -4.4587 -20.2890 0.0000 14.2679 0.0000
# 6 0.0000 0.0000 0.0000 -6.5580 0.0000 2.4271
#
#
#
# Elastic Compliance Matrix: (Units=1/GPa)
#
#
# Indices 1 2 3 4 5 6 
#
# 1 0.062142 -0.012171 -0.012103 0.000000 -0.013016 0.000000
# 2 -0.012171 0.018558 -0.005346 0.000000 -0.003369 0.000000
# 3 -0.012103 -0.005346 0.022513 0.000000 0.028786 0.000000
# 4 0.000000 0.000000 0.000000 0.614655 0.000000 1.660813
# 5 -0.013016 -0.003369 0.028786 0.000000 0.108292 0.000000
# 6 0.000000 0.000000 0.000000 1.660813 0.000000 4.899572
#
#
# Mechanical properties :
#
#
# Convention : Reuss Voigt Hill
#
# Bulk Modulus (GPa) = 22.74105 38.13322 30.43713
# Shear Modulus (GPa) = 0.86212 14.80139 7.83176
#
# Velocity S-wave (km/s) = 0.84659 3.50782 2.55162
# Velocity P-wave (km/s) = 4.45655 6.93596 5.82960
#
# Compressibility (1/GPa) = 0.04397335
#
# Stress axis : x y z
#
# Youngs Moduli (GPa) = 16.09210 53.88532 44.41837
#
# Poissons Ratio (x) = 0.65583 0.53759
# Poissons Ratio (y) = 0.19586 0.23747
# Poissons Ratio (z) = 0.19476 0.28808
#
# Static dielectric constant tensor:
#      x y z
#    x 2.334960 0.000000 -0.135000 
#    y 0.000000 2.416540 0.000000 
#    z -0.135000 0.000000 2.727210 
# 
# 
# High freq. dielectric constant tensor:
#      x y z
#    x 1.401410 0.000000 -0.028050 
#    y 0.000000 1.435870 0.000000 
#    z -0.028050 0.000000 1.476190 
# 
# From -- ./inp_files/6526.got.cif
#   From: 2010.06.25/outbox.cif.g09.slc.cpg/sg13_4_cif.got.tgz:6526.got - 2010.06.28 04:50:58.
