data_PCOD8117067
_publ_section_title
;
Structure prediction by ZEFSAII (Michael W. Deem and Ramdas Pophale) SiO2 
 PCOD8117067
Probable space group: P 2/C
;
_chemical_formula_sum "Si O2"
_cell_formula_units_Z 24
_cell_length_a 9.749705
_cell_length_b 10.922246
_cell_length_c 17.111522
_cell_angle_alpha 90.000000
_cell_angle_beta 38.983423
_cell_angle_gamma 90.000000
_cell_volume 1146.327366
_symmetry_space_group_name_H-M "P 2/C"
_symmetry_group_IT_number 13
_symmetry_cell_setting 'monoclinic'
loop_
_space_group_symop_operation_xyz
x,y,z
-x,y,1/2-z
-x,-y,-z
x,-y,1/2+z
loop_
_atom_site_type_symbol
_atom_site_label
_atom_site_fract_x
_atom_site_fract_y
_atom_site_fract_z
Si Si1 0.617987 0.506163 0.863400
Si Si2 0.000000 0.342930 0.250000
Si Si3 0.898011 0.708512 0.212793
Si Si4 0.641651 0.835914 0.938780
Si Si5 0.500000 0.105443 0.250000
Si Si6 0.327925 0.044488 0.688942
Si Si7 0.337734 0.287321 0.446206
O O1 0.674452 0.371851 0.802727
O O2 0.464458 0.584723 0.873264
O O3 0.853109 0.573465 0.759434
O O4 0.500000 0.500000 0.000000
O O5 0.833040 0.259772 0.374985
O O6 0.854447 0.852302 0.223601
O O7 0.000000 0.673005 0.250000
O O8 0.083951 0.678869 0.067130
O O9 0.442057 0.771895 0.979293
O O10 0.748703 0.942188 0.838660
O O11 0.552705 0.893352 0.058562
O O12 0.351596 0.192501 0.369122
O O13 0.647540 0.017432 0.237578
#
# Coordination Sequence:
#
# PCOD8117067 Si02
#       7
#     4   2   4   4   2   4   4
#     4  11  19  35  58  91 120 149 193 254 304 343
#     4  10  18  30  54  88 116 146 192 246 300 340
#     4  12  20  34  62  95 119 151 197 256 297 353
#     4   9  19  33  56  85 113 152 200 251 284 349
#     4  10  24  44  56  80 128 168 192 246 298 372
#     4  10  21  36  57  85 119 155 196 239 305 346
#     4  10  21  39  60  85 125 158 199 246 304 351
#
# _framework density 20.936426999999998
#
# number of rings (size 3 to 8) (size 9 to 14) (size 15 to 20)
#    0.000    1.667    4.167    1.000    1.167    0.667 
#    0.000    5.000    0.000    0.000    0.000    0.000 
#    0.000    0.000    0.000    0.000    0.000    0.000 
#
# Total GULP energy -297471.173664 kJ/mol
# GULP energy per Si atom -12394.632236 kJ/mol
# Density = 2.088877 g / cm^3
# Si number density = 20.936427 Si / 1000 Ang^3
#
#
#
# Elastic Constant Matrix: (Units=GPa)
#
#
# Indices 1 2 3 4 5 6 
#
# 1 41.8103 29.2346 40.4185 0.0000 2.8151 0.0000
# 2 29.2346 122.2689 39.4390 0.0000 -5.4921 0.0000
# 3 40.4185 39.4390 101.6954 0.0000 -8.9302 0.0000
# 4 0.0000 0.0000 0.0000 47.1660 0.0000 -7.7952
# 5 2.8151 -5.4921 -8.9302 0.0000 27.2732 0.0000
# 6 0.0000 0.0000 0.0000 -7.7952 0.0000 30.6692
#
#
#
# Elastic Compliance Matrix: (Units=1/GPa)
#
#
# Indices 1 2 3 4 5 6 
#
# 1 0.044703 -0.005879 -0.016470 0.000000 -0.011191 0.000000
# 2 -0.005879 0.010135 -0.001402 0.000000 0.002189 0.000000
# 3 -0.016470 -0.001402 0.017552 0.000000 0.007165 0.000000
# 4 0.000000 0.000000 0.000000 0.022131 0.000000 0.005625
# 5 -0.011191 0.002189 0.007165 0.000000 0.040608 0.000000
# 6 0.000000 0.000000 0.000000 0.005625 0.000000 0.034036
#
#
# Mechanical properties :
#
#
# Convention : Reuss Voigt Hill
#
# Bulk Modulus (GPa) = 40.17814 53.77321 46.97568
# Shear Modulus (GPa) = 22.22589 31.46718 26.84654
#
# Velocity S-wave (km/s) = 3.26174 3.88104 3.58479
# Velocity P-wave (km/s) = 5.78078 6.76928 6.29447
#
# Compressibility (1/GPa) = 0.02488915
#
# Stress axis : x y z
#
# Youngs Moduli (GPa) = 22.36962 98.67040 56.97335
#
# Poissons Ratio (x) = 0.58006 0.93836
# Poissons Ratio (y) = 0.13150 0.07986
# Poissons Ratio (z) = 0.36843 0.13831
#
# Static dielectric constant tensor:
#      x y z
#    x 3.294680 0.000000 -0.175770 
#    y 0.000000 4.296290 0.000000 
#    z -0.175770 0.000000 3.770220 
# 
# 
# High freq. dielectric constant tensor:
#      x y z
#    x 1.753550 0.000000 -0.024420 
#    y 0.000000 1.851070 0.000000 
#    z -0.024420 0.000000 1.816130 
# 
# From -- ./inp_files/33108.got.cif
#   From: 2010.06.25/outbox.cif.g09.slc.cpg/sg13_17_cif.got.tgz:33108.got - 2010.06.28 04:50:58.
