data_PCOD8117971
_publ_section_title
;
Structure prediction by ZEFSAII (Michael W. Deem and Ramdas Pophale) SiO2 
 PCOD8117971
Probable space group: P 2/C
;
_chemical_formula_sum "Si O2"
_cell_formula_units_Z 24
_cell_length_a 29.536750
_cell_length_b 6.901788
_cell_length_c 5.321768
_cell_angle_alpha 90.000000
_cell_angle_beta 110.803396
_cell_angle_gamma 90.000000
_cell_volume 1014.147474
_symmetry_space_group_name_H-M "P 2/C"
_symmetry_group_IT_number 13
_symmetry_cell_setting 'monoclinic'
loop_
_space_group_symop_operation_xyz
x,y,z
-x,y,1/2-z
-x,-y,-z
x,-y,1/2+z
loop_
_atom_site_type_symbol
_atom_site_label
_atom_site_fract_x
_atom_site_fract_y
_atom_site_fract_z
Si Si1 0.000000 0.370742 0.750000
Si Si2 0.500000 0.374783 0.750000
Si Si3 0.646552 0.709126 0.020169
Si Si4 0.896256 0.782750 0.056251
Si Si5 0.144702 0.782542 0.024563
Si Si6 0.746019 0.123721 0.766832
Si Si7 0.393983 0.273091 0.560155
O O1 0.954141 0.227619 0.659316
O O2 0.000000 0.500000 0.500000
O O3 0.500000 0.500000 0.500000
O O4 0.451732 0.245806 0.654101
O O5 0.704842 0.711100 0.156676
O O6 0.624067 0.495807 0.957771
O O7 0.624082 0.824055 0.215594
O O8 0.630576 0.822748 0.734228
O O9 0.877039 0.676365 0.271813
O O10 0.876831 0.001082 0.030169
O O11 0.873489 0.676854 0.765819
O O12 0.202412 0.773507 0.153217
O O13 0.740609 0.970723 0.530641
#
# Coordination Sequence:
#
# PCOD8117971 Si02
#       7
#     2   2   4   4   4   4   4
#     4  12  26  42  62  88 124 162 180 210 292 362
#     4  12  16  30  58  82 110 142 196 236 290 332
#     4  10  20  32  54  77 123 139 185 237 282 343
#     4  10  20  38  64  86 118 140 190 243 271 327
#     4  10  19  37  64  89 108 138 199 255 271 297
#     4  12  21  37  59  86 111 155 192 234 285 329
#     4  10  19  35  52  88 111 147 184 239 290 337
#
# _framework density 23.665196999999999
#
# number of rings (size 3 to 8) (size 9 to 14) (size 15 to 20)
#    0.000    1.333    6.667    2.000    0.000    2.667 
#    0.000    0.000   22.000    0.000    0.000   19.833 
#    0.000    0.000    0.000    0.000    0.000    0.000 
#
# Total GULP energy -297399.963460 kJ/mol
# GULP energy per Si atom -12391.665144 kJ/mol
# Density = 2.361133 g / cm^3
# Si number density = 23.665197 Si / 1000 Ang^3
#
#
#
# Elastic Constant Matrix: (Units=GPa)
#
#
# Indices 1 2 3 4 5 6 
#
# 1 173.9350 8.9629 56.5653 0.0000 27.4530 0.0000
# 2 8.9629 33.1519 -11.8689 0.0000 11.3441 0.0000
# 3 56.5653 -11.8689 212.2045 0.0000 -26.9517 0.0000
# 4 0.0000 0.0000 0.0000 -3.4762 0.0000 15.4368
# 5 27.4530 11.3441 -26.9517 0.0000 74.4031 0.0000
# 6 0.0000 0.0000 0.0000 15.4368 0.0000 20.7149
#
#
#
# Elastic Compliance Matrix: (Units=1/GPa)
#
#
# Indices 1 2 3 4 5 6 
#
# 1 0.007131 -0.001679 -0.002407 0.000000 -0.003247 0.000000
# 2 -0.001679 0.032524 0.001798 0.000000 -0.003688 0.000000
# 3 -0.002407 0.001798 0.005799 0.000000 0.002715 0.000000
# 4 0.000000 0.000000 0.000000 -0.066757 0.000000 0.049747
# 5 -0.003247 -0.003688 0.002715 0.000000 0.016184 0.000000
# 6 0.000000 0.000000 0.000000 0.049747 0.000000 0.011203
#
#
# Mechanical properties :
#
#
# Convention : Reuss Voigt Hill
#
# Bulk Modulus (GPa) = 24.46239 58.51224 41.48731
# Shear Modulus (GPa) = 205.87901 42.70384 124.29142
#
# Velocity S-wave (km/s) = 9.33731 4.25255 7.25498
# Velocity P-wave (km/s) = 11.25196 6.99220 9.36743
#
# Compressibility (1/GPa) = 0.04087908
#
# Stress axis : x y z
#
# Youngs Moduli (GPa) = 140.22979 30.74669 172.42932
#
# Poissons Ratio (x) = 0.05161 0.41507
# Poissons Ratio (y) = 0.23539 -0.31005
# Poissons Ratio (z) = 0.33756 -0.05529
#
# Static dielectric constant tensor:
#      x y z
#    x 4.464360 0.000000 0.112650 
#    y 0.000000 3.639750 0.000000 
#    z 0.112650 0.000000 4.311740 
# 
# 
# High freq. dielectric constant tensor:
#      x y z
#    x 1.953000 0.000000 -0.013960 
#    y 0.000000 1.887310 0.000000 
#    z -0.013960 0.000000 1.981050 
# 
# From -- ./inp_files/7362.got.cif
#   From: 2010.06.25/outbox.cif.g09.slc.cpg/sg13_4_cif.got.tgz:7362.got - 2010.06.28 04:50:58.
