data_PCOD8117525
_publ_section_title
;
Structure prediction by ZEFSAII (Michael W. Deem and Ramdas Pophale) SiO2 
 PCOD8117525
Probable space group: P 2/C
;
_chemical_formula_sum "Si O2"
_cell_formula_units_Z 32
_cell_length_a 23.873076
_cell_length_b 9.645034
_cell_length_c 14.158093
_cell_angle_alpha 90.000000
_cell_angle_beta 28.671884
_cell_angle_gamma 90.000000
_cell_volume 1564.122704
_symmetry_space_group_name_H-M "P 2/C"
_symmetry_group_IT_number 13
_symmetry_cell_setting 'monoclinic'
loop_
_space_group_symop_operation_xyz
x,y,z
-x,y,1/2-z
-x,-y,-z
x,-y,1/2+z
loop_
_atom_site_type_symbol
_atom_site_label
_atom_site_fract_x
_atom_site_fract_y
_atom_site_fract_z
Si Si1 0.179640 0.111106 0.870432
Si Si2 0.902632 0.600601 0.243643
Si Si3 0.666809 0.937250 0.186476
Si Si4 0.060027 0.163025 0.564574
Si Si5 0.370558 0.000434 0.465043
Si Si6 0.755371 0.379421 0.138734
Si Si7 0.429925 0.181030 0.050238
Si Si8 0.113150 0.412969 0.944587
O O1 0.218211 0.098171 0.923368
O O2 0.103205 0.249057 0.975071
O O3 0.292887 0.117077 0.633529
O O4 0.101817 0.979013 0.953227
O O5 0.790406 0.609082 0.477012
O O6 0.860663 0.552490 0.203464
O O7 0.967611 0.750147 0.138406
O O8 0.992465 0.487074 0.154656
O O9 0.696243 0.953447 0.031815
O O10 0.570634 0.814883 0.341880
O O11 0.612755 0.081137 0.302662
O O12 0.171477 0.258367 0.419109
O O13 0.000000 0.118714 0.750000
O O14 0.500000 0.060707 0.250000
O O15 0.384390 0.870246 0.515210
O O16 0.620318 0.334379 0.351679
O O17 0.779061 0.525596 0.154953
#
# Coordination Sequence:
#
# PCOD8117525 Si02
#       8
#     4   4   4   4   4   4   4   4
#     4  11  21  35  54  92 118 142 188 251 285 331
#     4   9  21  40  58  76 107 163 194 227 288 349
#     4   9  18  33  55  90 118 142 183 239 295 330
#     4   9  18  33  57  81 112 147 194 234 280 344
#     4   9  18  33  56  85 120 149 182 228 286 338
#     4  10  18  38  59  78 110 157 189 227 283 351
#     4   9  17  33  60  84 112 154 189 227 280 363
#     4  10  22  37  54  81 115 147 197 235 281 341
#
# _framework density 20.458753000000002
#
# number of rings (size 3 to 8) (size 9 to 14) (size 15 to 20)
#    0.000    2.500    2.500    1.875    1.750    1.500 
#    2.250    1.875    0.000    2.250    0.000    0.000 
#    0.000    0.000    0.000    0.000    0.000    0.000 
#
# Total GULP energy -396681.187617 kJ/mol
# GULP energy per Si atom -12396.287113 kJ/mol
# Density = 2.041219 g / cm^3
# Si number density = 20.458753 Si / 1000 Ang^3
#
#
#
# Elastic Constant Matrix: (Units=GPa)
#
#
# Indices 1 2 3 4 5 6 
#
# 1 84.7180 9.2756 18.3837 0.0000 15.3198 0.0000
# 2 9.2756 92.8046 28.4957 0.0000 2.0850 0.0000
# 3 18.3837 28.4957 55.8991 0.0000 7.6520 0.0000
# 4 0.0000 0.0000 0.0000 22.4495 0.0000 -1.3590
# 5 15.3198 2.0850 7.6520 0.0000 22.1795 0.0000
# 6 0.0000 0.0000 0.0000 -1.3590 0.0000 16.8182
#
#
#
# Elastic Compliance Matrix: (Units=1/GPa)
#
#
# Indices 1 2 3 4 5 6 
#
# 1 0.014104 -0.000181 -0.003374 0.000000 -0.008561 0.000000
# 2 -0.000181 0.012803 -0.006632 0.000000 0.001210 0.000000
# 3 -0.003374 -0.006632 0.023065 0.000000 -0.005003 0.000000
# 4 0.000000 0.000000 0.000000 0.044763 0.000000 0.003617
# 5 -0.008561 0.001210 -0.005003 0.000000 0.052612 0.000000
# 6 0.000000 0.000000 0.000000 0.003617 0.000000 0.059752
#
#
# Mechanical properties :
#
#
# Convention : Reuss Voigt Hill
#
# Bulk Modulus (GPa) = 33.78841 38.41462 36.10151
# Shear Modulus (GPa) = 21.06683 24.10723 22.58703
#
# Velocity S-wave (km/s) = 3.21241 3.43641 3.32630
# Velocity P-wave (km/s) = 5.50551 5.87900 5.69532
#
# Compressibility (1/GPa) = 0.02959595
#
# Stress axis : x y z
#
# Youngs Moduli (GPa) = 70.90200 78.10812 43.35576
#
# Poissons Ratio (x) = 0.01416 0.14629
# Poissons Ratio (y) = 0.01285 0.28756
# Poissons Ratio (z) = 0.23923 0.51805
#
# Static dielectric constant tensor:
#      x y z
#    x 3.716930 0.000000 0.053620 
#    y 0.000000 3.473430 0.000000 
#    z 0.053620 0.000000 3.709750 
# 
# 
# High freq. dielectric constant tensor:
#      x y z
#    x 1.795830 0.000000 0.013600 
#    y 0.000000 1.765870 0.000000 
#    z 0.013600 0.000000 1.785500 
# 
# From -- ./inp_files/58803.got.cif
#   From: 2010.06.25/outbox.cif.g09.slc.cpg/sg13_30_cif.got.tgz:58803.got - 2010.06.28 04:50:58.
