data_PCOD8117241
_publ_section_title
;
Structure prediction by ZEFSAII (Michael W. Deem and Ramdas Pophale) SiO2 
 PCOD8117241
Probable space group: P 2/C
;
_chemical_formula_sum "Si O2"
_cell_formula_units_Z 28
_cell_length_a 17.510445
_cell_length_b 13.885801
_cell_length_c 10.126327
_cell_angle_alpha 90.000000
_cell_angle_beta 43.600162
_cell_angle_gamma 90.000000
_cell_volume 1697.973539
_symmetry_space_group_name_H-M "P 2/C"
_symmetry_group_IT_number 13
_symmetry_cell_setting 'monoclinic'
loop_
_space_group_symop_operation_xyz
x,y,z
-x,y,1/2-z
-x,-y,-z
x,-y,1/2+z
loop_
_atom_site_type_symbol
_atom_site_label
_atom_site_fract_x
_atom_site_fract_y
_atom_site_fract_z
Si Si1 0.870957 0.582244 0.259907
Si Si2 0.785461 0.210083 0.864600
Si Si3 0.997403 0.910243 0.406753
Si Si4 0.218867 0.210653 0.326103
Si Si5 0.423894 0.891832 0.966322
Si Si6 0.431718 0.115369 0.961386
Si Si7 0.871941 0.417664 0.059879
O O1 0.799763 0.676949 0.317713
O O2 0.829444 0.499770 0.212525
O O3 0.852560 0.547723 0.433656
O O4 0.999642 0.606403 0.075714
O O5 0.899248 0.157011 0.689192
O O6 0.751378 0.192537 0.058649
O O7 0.689782 0.167935 0.891507
O O8 0.888253 0.850528 0.577960
O O9 0.000000 0.943085 0.250000
O O10 0.000000 0.000000 0.500000
O O11 0.197838 0.322396 0.323079
O O12 0.321110 0.178195 0.108507
O O13 0.500000 0.859845 0.750000
O O14 0.394581 0.004530 0.996285
O O15 0.488302 0.865412 0.017002
O O16 0.500000 0.150104 0.750000
#
# Coordination Sequence:
#
# PCOD8117241 Si02
#       7
#     4   4   4   4   4   4   4
#     4   9  17  32  53  78 102 133 170 211 256 313
#     4  10  18  33  57  77 102 139 178 207 253 322
#     4  10  20  34  50  76 109 140 168 207 262 314
#     4  10  18  34  56  75 104 141 173 210 261 313
#     4  10  19  35  55  75 101 139 184 215 245 304
#     4  10  21  35  53  77 104 137 179 221 255 292
#     4   9  17  32  54  76 103 133 170 211 258 312
#
# _framework density 16.490245999999999
#
# number of rings (size 3 to 8) (size 9 to 14) (size 15 to 20)
#    0.000    2.286    2.857    0.857    0.000    0.000 
#    5.143    0.000    0.000    1.714    0.000    0.000 
#    0.000    0.000    0.000    0.000    0.000    0.000 
#
# Total GULP energy -347247.902711 kJ/mol
# GULP energy per Si atom -12401.710811 kJ/mol
# Density = 1.645271 g / cm^3
# Si number density = 16.490246 Si / 1000 Ang^3
#
#
#
# Elastic Constant Matrix: (Units=GPa)
#
#
# Indices 1 2 3 4 5 6 
#
# 1 81.6692 60.2386 60.2466 0.0000 -4.6491 0.0000
# 2 60.2386 101.7600 63.2751 0.0000 0.3061 0.0000
# 3 60.2466 63.2751 118.4702 0.0000 -2.8976 0.0000
# 4 0.0000 0.0000 0.0000 31.4203 0.0000 10.2288
# 5 -4.6491 0.3061 -2.8976 0.0000 25.3802 0.0000
# 6 0.0000 0.0000 0.0000 10.2288 0.0000 26.3013
#
#
#
# Elastic Compliance Matrix: (Units=1/GPa)
#
#
# Indices 1 2 3 4 5 6 
#
# 1 0.025753 -0.010742 -0.007260 0.000000 0.004018 0.000000
# 2 -0.010742 0.019224 -0.004872 0.000000 -0.002756 0.000000
# 3 -0.007260 -0.004872 0.014745 0.000000 0.000412 0.000000
# 4 0.000000 0.000000 0.000000 0.036440 0.000000 -0.014172
# 5 0.004018 -0.002756 0.000412 0.000000 0.040217 0.000000
# 6 0.000000 0.000000 0.000000 -0.014172 0.000000 0.043533
#
#
# Mechanical properties :
#
#
# Convention : Reuss Voigt Hill
#
# Bulk Modulus (GPa) = 71.56967 74.38000 72.97483
# Shear Modulus (GPa) = 21.70906 24.49630 23.10268
#
# Velocity S-wave (km/s) = 3.63227 3.85840 3.74704
# Velocity P-wave (km/s) = 7.81579 8.06555 7.94165
#
# Compressibility (1/GPa) = 0.01397240
#
# Stress axis : x y z
#
# Youngs Moduli (GPa) = 38.83113 52.01876 67.81756
#
# Poissons Ratio (x) = 0.55879 0.49239
# Poissons Ratio (y) = 0.41713 0.33041
# Poissons Ratio (z) = 0.28193 0.25344
#
# Static dielectric constant tensor:
#      x y z
#    x 3.029590 0.000000 0.044550 
#    y 0.000000 3.030610 0.000000 
#    z 0.044550 0.000000 3.020140 
# 
# 
# High freq. dielectric constant tensor:
#      x y z
#    x 1.630670 0.000000 0.001430 
#    y 0.000000 1.626640 0.000000 
#    z 0.001430 0.000000 1.629620 
# 
# From -- ./inp_files/19585.got.cif
#   From: 2010.06.25/outbox.cif.g09.slc.cpg/sg13_10_cif.got.tgz:19585.got - 2010.06.28 04:50:58.
