data_PCOD8117600
_publ_section_title
;
Structure prediction by ZEFSAII (Michael W. Deem and Ramdas Pophale) SiO2 
 PCOD8117600
Probable space group: P 2/C
;
_chemical_formula_sum "Si O2"
_cell_formula_units_Z 32
_cell_length_a 28.255180
_cell_length_b 5.337195
_cell_length_c 30.931625
_cell_angle_alpha 90.000000
_cell_angle_beta 160.398179
_cell_angle_gamma 90.000000
_cell_volume 1564.885170
_symmetry_space_group_name_H-M "P 2/C"
_symmetry_group_IT_number 13
_symmetry_cell_setting 'monoclinic'
loop_
_space_group_symop_operation_xyz
x,y,z
-x,y,1/2-z
-x,-y,-z
x,-y,1/2+z
loop_
_atom_site_type_symbol
_atom_site_label
_atom_site_fract_x
_atom_site_fract_y
_atom_site_fract_z
Si Si1 0.277416 0.000010 0.326600
Si Si2 0.831610 0.000044 0.602374
Si Si3 0.659420 0.000023 0.369247
Si Si4 0.501535 0.500007 0.890814
Si Si5 0.866698 0.499958 0.166770
Si Si6 0.416695 0.499977 0.723690
Si Si7 0.204315 0.500009 0.305466
Si Si8 0.571556 0.000007 0.629299
O O1 0.191253 0.748477 0.265031
O O2 0.424964 0.000007 0.477846
O O3 0.191257 0.251551 0.265032
O O4 0.300793 0.000001 0.295325
O O5 0.778125 0.999987 0.507812
O O6 0.774642 0.248987 0.577689
O O7 0.000000 0.000100 0.750000
O O8 0.774658 0.751132 0.577716
O O9 0.500000 0.000048 0.250000
O O10 0.680640 0.250433 0.358848
O O11 0.680625 0.749631 0.358829
O O12 0.516955 0.499999 0.852020
O O13 0.415677 0.748481 0.831239
O O14 0.415673 0.251541 0.831237
O O15 0.653740 0.500003 0.043678
O O16 0.914137 0.500001 0.258287
O O17 0.000000 0.499904 0.250000
O O18 0.500000 0.499955 0.750000
#
# Coordination Sequence:
#
# PCOD8117600 Si02
#       8
#     4   4   4   4   4   4   4   4
#     4   9  17  30  44  70  92 129 171 220 260 304
#     4  10  21  36  52  70  97 141 184 214 265 310
#     4  10  21  32  50  70  97 137 174 226 257 292
#     4  10  19  29  46  69  95 140 175 205 257 315
#     4  10  21  34  50  71 100 139 176 225 252 313
#     4  10  21  33  44  71 102 137 177 221 248 296
#     4  10  19  28  48  69  96 132 179 210 255 326
#     4   9  17  30  46  64  98 129 172 216 257 316
#
# _framework density 20.448785000000001
#
# number of rings (size 3 to 8) (size 9 to 14) (size 15 to 20)
#    0.000    2.250    0.000    3.000    7.000    3.000 
#    0.000    0.000    0.000    0.000    0.000    0.000 
#    0.000    0.000    0.000  315.000    0.000    0.000 
#
# Total GULP energy -396487.780611 kJ/mol
# GULP energy per Si atom -12390.243144 kJ/mol
# Density = 2.040224 g / cm^3
# Si number density = 20.448785 Si / 1000 Ang^3
#
#
#
# Elastic Constant Matrix: (Units=GPa)
#
#
# Indices 1 2 3 4 5 6 
#
# 1 120.4242 38.8369 3.3494 0.0000 -13.9493 0.0000
# 2 38.8369 227.4182 14.3521 0.0000 -11.1193 0.0000
# 3 3.3494 14.3521 56.8182 0.0000 -10.9078 0.0000
# 4 0.0000 0.0000 0.0000 13.8438 0.0000 -14.1673
# 5 -13.9493 -11.1193 -10.9078 0.0000 21.0705 0.0000
# 6 0.0000 0.0000 0.0000 -14.1673 0.0000 31.3461
#
#
#
# Elastic Compliance Matrix: (Units=1/GPa)
#
#
# Indices 1 2 3 4 5 6 
#
# 1 0.009416 -0.001374 0.000943 0.000000 0.005996 0.000000
# 2 -0.001374 0.004744 -0.000901 0.000000 0.001127 0.000000
# 3 0.000943 -0.000901 0.019765 0.000000 0.010381 0.000000
# 4 0.000000 0.000000 0.000000 0.134395 0.000000 0.060741
# 5 0.005996 0.001127 0.010381 0.000000 0.057398 0.000000
# 6 0.000000 0.000000 0.000000 0.060741 0.000000 0.059355
#
#
# Mechanical properties :
#
#
# Convention : Reuss Voigt Hill
#
# Bulk Modulus (GPa) = 31.98917 57.52635 44.75776
# Shear Modulus (GPa) = 16.76973 36.46023 26.61498
#
# Velocity S-wave (km/s) = 2.86682 4.22714 3.61160
# Velocity P-wave (km/s) = 5.16098 7.21235 6.27111
#
# Compressibility (1/GPa) = 0.03126058
#
# Stress axis : x y z
#
# Youngs Moduli (GPa) = 106.20728 210.79965 50.59484
#
# Poissons Ratio (x) = 0.28969 -0.04773
# Poissons Ratio (y) = 0.14596 0.04558
# Poissons Ratio (z) = -0.10018 0.18990
#
# Static dielectric constant tensor:
#      x y z
#    x 3.834640 0.000000 -0.260860 
#    y 0.000000 7.705710 0.000000 
#    z -0.260860 0.000000 3.034410 
# 
# 
# High freq. dielectric constant tensor:
#      x y z
#    x 1.779190 0.000000 -0.026020 
#    y 0.000000 1.845460 0.000000 
#    z -0.026020 0.000000 1.724180 
# 
# From -- ./inp_files/88769.got.cif
#   From: 2010.06.25/outbox.cif.g09.slc.cpg/sg13_45_cif.got.tgz:88769.got - 2010.06.28 04:50:58.
