data_PCOD8117012
_publ_section_title
;
Structure prediction by ZEFSAII (Michael W. Deem and Ramdas Pophale) SiO2 
 PCOD8117012
Probable space group: P 2/C
;
_chemical_formula_sum "Si O2"
_cell_formula_units_Z 32
_cell_length_a 11.355281
_cell_length_b 29.928359
_cell_length_c 5.190346
_cell_angle_alpha 90.000000
_cell_angle_beta 85.614638
_cell_angle_gamma 90.000000
_cell_volume 1758.748582
_symmetry_space_group_name_H-M "P 2/C"
_symmetry_group_IT_number 13
_symmetry_cell_setting 'monoclinic'
loop_
_space_group_symop_operation_xyz
x,y,z
-x,y,1/2-z
-x,-y,-z
x,-y,1/2+z
loop_
_atom_site_type_symbol
_atom_site_label
_atom_site_fract_x
_atom_site_fract_y
_atom_site_fract_z
Si Si1 0.370038 0.207972 0.690796
Si Si2 0.859266 0.525514 0.269582
Si Si3 0.765471 0.227749 0.285010
Si Si4 0.632006 0.981429 0.427305
Si Si5 0.137862 0.675535 0.733671
Si Si6 0.136372 0.868324 0.753388
Si Si7 0.141220 0.626674 0.231949
Si Si8 0.722627 0.111729 0.777916
O O1 0.500000 0.222962 0.750000
O O2 0.338115 0.226529 0.412747
O O3 0.361937 0.154417 0.687807
O O4 0.283458 0.228433 0.917761
O O5 0.810193 0.502013 0.534548
O O6 0.811790 0.576042 0.260889
O O7 0.000000 0.525397 0.250000
O O8 0.841219 0.272041 0.237830
O O9 0.850841 0.185311 0.236677
O O10 0.635781 0.930243 0.334363
O O11 0.500000 0.000000 0.500000
O O12 0.696449 0.989283 0.691362
O O13 0.192860 0.654609 0.464790
O O14 0.000000 0.666467 0.750000
O O15 0.193668 0.649569 0.967040
O O16 0.212072 0.889535 0.508148
O O17 0.000000 0.881086 0.750000
O O18 0.179323 0.888757 0.015433
O O19 0.000000 0.627814 0.250000
#
# Coordination Sequence:
#
# PCOD8117012 Si02
#       8
#     4   4   4   4   4   4   4   4
#     4  10  21  35  53  74 103 128 157 199 243 296
#     4   9  15  23  35  51  77 114 160 208 243 284
#     4  10  20  34  50  76  97 130 168 199 245 290
#     4  10  21  36  55  82 107 132 158 200 250 300
#     4  10  18  29  45  64  94 125 162 211 240 278
#     4  10  20  36  57  78 104 137 172 206 238 284
#     4   9  17  26  38  60  85 121 165 206 252 282
#     4  10  21  36  56  82 107 132 165 203 245 289
#
# _framework density 18.194756999999999
#
# number of rings (size 3 to 8) (size 9 to 14) (size 15 to 20)
#    0.000    2.250    0.000    3.375    1.750    3.000 
#    4.500    3.750    0.000    7.500    0.000    0.000 
#    0.000    0.000    0.000    0.000    0.000  157.500 
#
# Total GULP energy -396685.259365 kJ/mol
# GULP energy per Si atom -12396.414355 kJ/mol
# Density = 1.815335 g / cm^3
# Si number density = 18.194757 Si / 1000 Ang^3
#
#
#
# Elastic Constant Matrix: (Units=GPa)
#
#
# Indices 1 2 3 4 5 6 
#
# 1 32.6551 8.2151 7.6295 0.0000 6.1060 0.0000
# 2 8.2151 111.6209 52.8540 0.0000 -6.2068 0.0000
# 3 7.6295 52.8540 149.6358 0.0000 7.0726 0.0000
# 4 0.0000 0.0000 0.0000 30.7791 0.0000 -1.0838
# 5 6.1060 -6.2068 7.0726 0.0000 14.1332 0.0000
# 6 0.0000 0.0000 0.0000 -1.0838 0.0000 13.3294
#
#
#
# Elastic Compliance Matrix: (Units=1/GPa)
#
#
# Indices 1 2 3 4 5 6 
#
# 1 0.034581 -0.003616 0.000302 0.000000 -0.016679 0.000000
# 2 -0.003616 0.011812 -0.004411 0.000000 0.008957 0.000000
# 3 0.000302 -0.004411 0.008525 0.000000 -0.006334 0.000000
# 4 0.000000 0.000000 0.000000 0.032583 0.000000 0.002649
# 5 -0.016679 0.008957 -0.006334 0.000000 0.085065 0.000000
# 6 0.000000 0.000000 0.000000 0.002649 0.000000 0.075237
#
#
# Mechanical properties :
#
#
# Convention : Reuss Voigt Hill
#
# Bulk Modulus (GPa) = 25.33665 47.92322 36.62994
# Shear Modulus (GPa) = 18.08921 26.66255 22.37588
#
# Velocity S-wave (km/s) = 3.15651 3.83220 3.51065
# Velocity P-wave (km/s) = 5.21922 6.78065 6.05052
#
# Compressibility (1/GPa) = 0.03946851
#
# Stress axis : x y z
#
# Youngs Moduli (GPa) = 28.91774 84.66112 117.30289
#
# Poissons Ratio (x) = 0.30611 -0.03546
# Poissons Ratio (y) = 0.10456 0.51744
# Poissons Ratio (z) = -0.00874 0.37345
#
# Static dielectric constant tensor:
#      x y z
#    x 2.535110 0.000000 -0.754900 
#    y 0.000000 3.365500 0.000000 
#    z -0.754900 0.000000 0.098500 
# 
# 
# High freq. dielectric constant tensor:
#      x y z
#    x 1.636350 0.000000 0.007370 
#    y 0.000000 1.705050 0.000000 
#    z 0.007370 0.000000 1.737700 
# 
# From -- ./inp_files/4462.got.cif
#   From: 2010.06.25/outbox.cif.g09.slc.cpg/sg13_3_cif.got.tgz:4462.got - 2010.06.28 04:50:58.
