data_PCOD8117979
_publ_section_title
;
Structure prediction by ZEFSAII (Michael W. Deem and Ramdas Pophale) SiO2 
 PCOD8117979
Probable space group: P 2/C
;
_chemical_formula_sum "Si O2"
_cell_formula_units_Z 28
_cell_length_a 10.733829
_cell_length_b 12.409566
_cell_length_c 13.295711
_cell_angle_alpha 90.000000
_cell_angle_beta 121.526080
_cell_angle_gamma 90.000000
_cell_volume 1509.619220
_symmetry_space_group_name_H-M "P 2/C"
_symmetry_group_IT_number 13
_symmetry_cell_setting 'monoclinic'
loop_
_space_group_symop_operation_xyz
x,y,z
-x,y,1/2-z
-x,-y,-z
x,-y,1/2+z
loop_
_atom_site_type_symbol
_atom_site_label
_atom_site_fract_x
_atom_site_fract_y
_atom_site_fract_z
Si Si1 0.345242 0.204696 0.504181
Si Si2 0.322229 0.824651 0.411795
Si Si3 0.169734 0.386409 0.804953
Si Si4 0.852839 0.617741 0.629234
Si Si5 0.117666 0.090699 0.652528
Si Si6 0.820211 0.691759 0.405381
Si Si7 0.806220 0.009391 0.515809
O O1 0.510826 0.181870 0.548947
O O2 0.271171 0.292916 0.397610
O O3 0.328763 0.253213 0.611506
O O4 0.251795 0.096193 0.451662
O O5 0.261633 0.704323 0.401472
O O6 0.231842 0.891283 0.290180
O O7 0.303988 0.891227 0.507482
O O8 0.212284 0.501659 0.868564
O O9 0.210692 0.384428 0.703351
O O10 0.000000 0.361810 0.750000
O O11 0.893255 0.622023 0.526403
O O12 0.000000 0.644098 0.750000
O O13 0.078642 0.207278 0.586176
O O14 0.966582 0.038998 0.627116
O O15 0.189813 0.009207 0.602269
#
# Coordination Sequence:
#
# PCOD8117979 Si02
#       7
#     4   4   4   4   4   4   4
#     4   9  21  37  55  83 116 147 186 231 288 351
#     4  11  20  35  61  81 117 148 188 235 285 342
#     4  10  20  34  59  86 106 150 196 235 280 333
#     4   9  20  37  56  82 113 148 189 236 290 332
#     4   9  19  34  57  84 111 149 188 232 280 335
#     4   8  18  37  53  83 113 141 194 229 275 347
#     4  10  19  35  54  86 113 142 196 235 276 338
#
# _framework density 18.547723000000001
#
# number of rings (size 3 to 8) (size 9 to 14) (size 15 to 20)
#    0.857    1.714    0.000    2.571    0.000    9.143 
#    0.000    0.000    0.000    0.000    0.000    0.000 
#    0.000    0.000    0.000    0.000    0.000    0.000 
#
# Total GULP energy -346902.901702 kJ/mol
# GULP energy per Si atom -12389.389347 kJ/mol
# Density = 1.850551 g / cm^3
# Si number density = 18.547723 Si / 1000 Ang^3
#
#
#
# Elastic Constant Matrix: (Units=GPa)
#
#
# Indices 1 2 3 4 5 6 
#
# 1 127.2181 72.8152 28.8103 0.0000 12.0903 0.0000
# 2 72.8152 133.9786 51.9326 0.0000 4.0163 0.0000
# 3 28.8103 51.9326 53.9507 0.0000 -4.9702 0.0000
# 4 0.0000 0.0000 0.0000 29.0982 0.0000 -10.1851
# 5 12.0903 4.0163 -4.9702 0.0000 28.8445 0.0000
# 6 0.0000 0.0000 0.0000 -10.1851 0.0000 33.5566
#
#
#
# Elastic Compliance Matrix: (Units=1/GPa)
#
#
# Indices 1 2 3 4 5 6 
#
# 1 0.011908 -0.005937 -0.001045 0.000000 -0.004345 0.000000
# 2 -0.005937 0.015266 -0.011676 0.000000 -0.001649 0.000000
# 3 -0.001045 -0.011676 0.031016 0.000000 0.007408 0.000000
# 4 0.000000 0.000000 0.000000 0.038452 0.000000 0.011671
# 5 -0.004345 -0.001649 0.007408 0.000000 0.037996 0.000000
# 6 0.000000 0.000000 0.000000 0.011671 0.000000 0.033343
#
#
# Mechanical properties :
#
#
# Convention : Reuss Voigt Hill
#
# Bulk Modulus (GPa) = 47.90725 69.14039 58.52382
# Shear Modulus (GPa) = 23.55684 29.07247 26.31465
#
# Velocity S-wave (km/s) = 3.56767 3.96339 3.77072
# Velocity P-wave (km/s) = 6.54647 7.63561 7.11192
#
# Compressibility (1/GPa) = 0.02087367
#
# Stress axis : x y z
#
# Youngs Moduli (GPa) = 83.97805 65.50610 32.24194
#
# Poissons Ratio (x) = 0.38888 0.03368
# Poissons Ratio (y) = 0.49854 0.37647
# Poissons Ratio (z) = 0.08773 0.76488
#
# Static dielectric constant tensor:
#      x y z
#    x 3.415230 0.000000 -0.214430 
#    y 0.000000 3.568080 0.000000 
#    z -0.214430 0.000000 3.146520 
# 
# 
# High freq. dielectric constant tensor:
#      x y z
#    x 1.715240 0.000000 -0.014010 
#    y 0.000000 1.726750 0.000000 
#    z -0.014010 0.000000 1.687890 
# 
# From -- ./inp_files/46964.got.cif
#   From: 2010.06.25/outbox.cif.g09.slc.cpg/sg13_24_cif.got.tgz:46964.got - 2010.06.28 04:50:58.
