data_PCOD8117341
_publ_section_title
;
Structure prediction by ZEFSAII (Michael W. Deem and Ramdas Pophale) SiO2 
 PCOD8117341
Probable space group: P 2/C
;
_chemical_formula_sum "Si O2"
_cell_formula_units_Z 32
_cell_length_a 28.684920
_cell_length_b 8.999964
_cell_length_c 21.500507
_cell_angle_alpha 90.000000
_cell_angle_beta 162.255826
_cell_angle_gamma 90.000000
_cell_volume 1691.654642
_symmetry_space_group_name_H-M "P 2/C"
_symmetry_group_IT_number 13
_symmetry_cell_setting 'monoclinic'
loop_
_space_group_symop_operation_xyz
x,y,z
-x,y,1/2-z
-x,-y,-z
x,-y,1/2+z
loop_
_atom_site_type_symbol
_atom_site_label
_atom_site_fract_x
_atom_site_fract_y
_atom_site_fract_z
Si Si1 0.651736 0.174168 0.306446
Si Si2 0.182983 0.745466 0.133941
Si Si3 0.273357 0.817275 0.794463
Si Si4 0.511997 0.326519 0.016082
Si Si5 0.308332 0.095246 0.907948
Si Si6 0.839567 0.775708 0.160278
Si Si7 0.130519 0.024004 0.003592
Si Si8 0.961381 0.442468 0.517721
O O1 0.631664 0.286696 0.223259
O O2 0.730936 0.261579 0.463987
O O3 0.771919 0.044982 0.436475
O O4 0.487566 0.116187 0.120916
O O5 0.352864 0.751999 0.323617
O O6 0.194536 0.805668 0.219802
O O7 0.086215 0.852270 0.963878
O O8 0.118316 0.578068 0.047008
O O9 0.429650 0.730735 0.976988
O O10 0.247155 0.936500 0.706933
O O11 0.141234 0.698041 0.628370
O O12 0.279169 0.916934 0.864191
O O13 0.500000 0.500000 0.000000
O O14 0.264065 0.135840 0.921779
O O15 0.980048 0.874796 0.313954
O O16 0.896545 0.618048 0.260949
O O17 0.000000 0.500000 0.500000
#
# Coordination Sequence:
#
# PCOD8117341 Si02
#       8
#     4   4   4   4   4   4   4   4
#     4  10  21  38  58  79 112 153 197 231 287 348
#     4  10  19  34  58  85 112 136 189 240 285 327
#     4   9  19  33  56  86 108 137 184 238 284 325
#     4  10  18  34  59  86 109 141 188 241 284 337
#     4  10  20  35  58  85 108 147 190 241 278 332
#     4  11  22  36  58  80 116 156 192 230 286 349
#     4   9  20  35  58  80 107 145 185 235 278 334
#     4  11  21  33  55  87 117 148 186 234 287 343
#
# _framework density 18.916388999999999
#
# number of rings (size 3 to 8) (size 9 to 14) (size 15 to 20)
#    0.000    2.000    2.500    1.500    1.750    4.500 
#    0.000    0.000    8.250    0.000    0.000    0.000 
#    0.000    0.000    0.000    0.000    0.000    0.000 
#
# Total GULP energy -396521.782563 kJ/mol
# GULP energy per Si atom -12391.305705 kJ/mol
# Density = 1.887333 g / cm^3
# Si number density = 18.916389 Si / 1000 Ang^3
#
#
#
# Elastic Constant Matrix: (Units=GPa)
#
#
# Indices 1 2 3 4 5 6 
#
# 1 86.0670 31.0185 36.6322 0.0000 4.8140 0.0000
# 2 31.0185 108.7389 40.4617 0.0000 -9.2325 0.0000
# 3 36.6322 40.4617 63.5185 0.0000 -0.0544 0.0000
# 4 0.0000 0.0000 0.0000 18.2860 0.0000 0.7313
# 5 4.8140 -9.2325 -0.0544 0.0000 32.2076 0.0000
# 6 0.0000 0.0000 0.0000 0.7313 0.0000 26.1028
#
#
#
# Elastic Compliance Matrix: (Units=1/GPa)
#
#
# Indices 1 2 3 4 5 6 
#
# 1 0.015826 -0.001786 -0.007992 0.000000 -0.002891 0.000000
# 2 -0.001786 0.012649 -0.007024 0.000000 0.003881 0.000000
# 3 -0.007992 -0.007024 0.024826 0.000000 -0.000777 0.000000
# 4 0.000000 0.000000 0.000000 0.054748 0.000000 -0.001534
# 5 -0.002891 0.003881 -0.000777 0.000000 0.032592 0.000000
# 6 0.000000 0.000000 0.000000 -0.001534 0.000000 0.038353
#
#
# Mechanical properties :
#
#
# Convention : Reuss Voigt Hill
#
# Bulk Modulus (GPa) = 50.76899 52.72769 51.74834
# Shear Modulus (GPa) = 22.81403 25.33340 24.07372
#
# Velocity S-wave (km/s) = 3.47658 3.66352 3.57128
# Velocity P-wave (km/s) = 6.55838 6.76977 6.66491
#
# Compressibility (1/GPa) = 0.01969706
#
# Stress axis : x y z
#
# Youngs Moduli (GPa) = 63.18820 79.05740 40.28018
#
# Poissons Ratio (x) = 0.14121 0.32191
# Poissons Ratio (y) = 0.11286 0.28293
# Poissons Ratio (z) = 0.50498 0.55531
#
# Static dielectric constant tensor:
#      x y z
#    x 3.502020 0.000000 0.196320 
#    y 0.000000 3.367880 0.000000 
#    z 0.196320 0.000000 3.481210 
# 
# 
# High freq. dielectric constant tensor:
#      x y z
#    x 1.731070 0.000000 0.023960 
#    y 0.000000 1.731250 0.000000 
#    z 0.023960 0.000000 1.721610 
# 
# From -- ./inp_files/78062.got.cif
#   From: 2010.06.25/outbox.cif.g09.slc.cpg/sg13_40_cif.got.tgz:78062.got - 2010.06.28 04:50:58.
