data_PCOD8117399
_publ_section_title
;
Structure prediction by ZEFSAII (Michael W. Deem and Ramdas Pophale) SiO2 
 PCOD8117399
Probable space group: P 2/C
;
_chemical_formula_sum "Si O2"
_cell_formula_units_Z 28
_cell_length_a 9.627818
_cell_length_b 11.220015
_cell_length_c 15.795118
_cell_angle_alpha 90.000000
_cell_angle_beta 126.104610
_cell_angle_gamma 90.000000
_cell_volume 1378.556672
_symmetry_space_group_name_H-M "P 2/C"
_symmetry_group_IT_number 13
_symmetry_cell_setting 'monoclinic'
loop_
_space_group_symop_operation_xyz
x,y,z
-x,y,1/2-z
-x,-y,-z
x,-y,1/2+z
loop_
_atom_site_type_symbol
_atom_site_label
_atom_site_fract_x
_atom_site_fract_y
_atom_site_fract_z
Si Si1 0.690155 0.000106 0.854830
Si Si2 0.260388 0.744519 0.058328
Si Si3 0.373995 0.732833 0.381195
Si Si4 0.208147 0.210250 0.992222
Si Si5 0.934353 0.613936 0.927807
Si Si6 0.674588 0.551919 0.273575
Si Si7 0.103664 0.913075 0.208125
O O1 0.500000 0.014059 0.750000
O O2 0.766429 0.121663 0.920239
O O3 0.823221 0.978761 0.823912
O O4 0.696789 0.900609 0.929129
O O5 0.421917 0.749971 0.053771
O O6 0.280561 0.661450 0.147724
O O7 0.090829 0.695147 0.947689
O O8 0.330022 0.732952 0.464409
O O9 0.333828 0.605265 0.324010
O O10 0.269140 0.838323 0.298091
O O11 0.184930 0.310947 0.052902
O O12 0.024355 0.174782 0.887834
O O13 0.810121 0.556767 0.812140
O O14 0.000000 0.500000 0.000000
O O15 0.500000 0.496889 0.250000
O O16 0.000000 0.969605 0.250000
#
# Coordination Sequence:
#
# PCOD8117399 Si02
#       7
#     4   4   4   4   4   4   4
#     4  12  21  38  59  87 131 172 201 243 314 374
#     4  10  18  35  59  88 120 163 207 245 305 375
#     4  10  19  38  62  92 117 157 214 252 302 371
#     4  11  24  35  60  95 121 157 207 261 306 368
#     4  10  20  37  59  86 114 158 212 260 307 361
#     4   9  17  34  62  84 114 161 210 261 305 365
#     4  10  19  35  57  87 121 159 208 247 291 360
#
# _framework density 20.311098999999999
#
# number of rings (size 3 to 8) (size 9 to 14) (size 15 to 20)
#    0.000    1.714    4.286    1.714    0.000    1.143 
#    0.000    6.429    0.000    5.143    0.000    0.000 
#    0.000    0.000    0.000    0.000    0.000    0.000 
#
# Total GULP energy -346957.063853 kJ/mol
# GULP energy per Si atom -12391.323709 kJ/mol
# Density = 2.026487 g / cm^3
# Si number density = 20.311099 Si / 1000 Ang^3
#
#
#
# Elastic Constant Matrix: (Units=GPa)
#
#
# Indices 1 2 3 4 5 6 
#
# 1 171.3944 50.3659 57.5822 0.0000 -1.6058 0.0000
# 2 50.3659 85.6982 43.9262 0.0000 7.4256 0.0000
# 3 57.5822 43.9262 61.5431 0.0000 0.3601 0.0000
# 4 0.0000 0.0000 0.0000 14.9208 0.0000 3.0242
# 5 -1.6058 7.4256 0.3601 0.0000 25.7471 0.0000
# 6 0.0000 0.0000 0.0000 3.0242 0.0000 25.7822
#
#
#
# Elastic Compliance Matrix: (Units=1/GPa)
#
#
# Indices 1 2 3 4 5 6 
#
# 1 0.008655 -0.001622 -0.006947 0.000000 0.001105 0.000000
# 2 -0.001622 0.019406 -0.012301 0.000000 -0.005526 0.000000
# 3 -0.006947 -0.012301 0.031514 0.000000 0.002674 0.000000
# 4 0.000000 0.000000 0.000000 0.068652 0.000000 -0.008053
# 5 0.001105 -0.005526 0.002674 0.000000 0.040465 0.000000
# 6 0.000000 0.000000 0.000000 -0.008053 0.000000 0.039731
#
#
# Mechanical properties :
#
#
# Convention : Reuss Voigt Hill
#
# Bulk Modulus (GPa) = 56.07240 69.15382 62.61311
# Shear Modulus (GPa) = 19.52297 24.40747 21.96522
#
# Velocity S-wave (km/s) = 3.10368 3.47029 3.29209
# Velocity P-wave (km/s) = 6.36479 7.08367 6.73383
#
# Compressibility (1/GPa) = 0.01783408
#
# Stress axis : x y z
#
# Youngs Moduli (GPa) = 115.53403 51.53044 31.73238
#
# Poissons Ratio (x) = 0.08356 0.22046
# Poissons Ratio (y) = 0.18735 0.39035
# Poissons Ratio (z) = 0.80267 0.63390
#
# Static dielectric constant tensor:
#      x y z
#    x 3.956530 0.000000 0.198510 
#    y 0.000000 3.365310 0.000000 
#    z 0.198510 0.000000 3.896010 
# 
# 
# High freq. dielectric constant tensor:
#      x y z
#    x 1.808220 0.000000 0.017160 
#    y 0.000000 1.772200 0.000000 
#    z 0.017160 0.000000 1.766440 
# 
# From -- ./inp_files/47343.got.cif
#   From: 2010.06.25/outbox.cif.g09.slc.cpg/sg13_24_cif.got.tgz:47343.got - 2010.06.28 04:50:58.
