data_PCOD8117492
_publ_section_title
;
Structure prediction by ZEFSAII (Michael W. Deem and Ramdas Pophale) SiO2 
 PCOD8117492
Probable space group: P 2/C
;
_chemical_formula_sum "Si O2"
_cell_formula_units_Z 32
_cell_length_a 18.380399
_cell_length_b 14.420176
_cell_length_c 12.161640
_cell_angle_alpha 90.000000
_cell_angle_beta 26.293926
_cell_angle_gamma 90.000000
_cell_volume 1427.900627
_symmetry_space_group_name_H-M "P 2/C"
_symmetry_group_IT_number 13
_symmetry_cell_setting 'monoclinic'
loop_
_space_group_symop_operation_xyz
x,y,z
-x,y,1/2-z
-x,-y,-z
x,-y,1/2+z
loop_
_atom_site_type_symbol
_atom_site_label
_atom_site_fract_x
_atom_site_fract_y
_atom_site_fract_z
Si Si1 0.809253 0.056383 0.033639
Si Si2 0.851355 0.167032 0.187662
Si Si3 0.867314 0.621994 0.620608
Si Si4 0.188462 0.148119 0.013162
Si Si5 0.269420 0.336192 0.415863
Si Si6 0.210752 0.171701 0.635092
Si Si7 0.236916 0.434968 0.665123
Si Si8 0.380939 0.271670 0.594174
O O1 0.718908 0.094511 0.045439
O O2 0.000000 0.071615 0.750000
O O3 0.767441 0.948412 0.108024
O O4 0.760846 0.113381 0.209605
O O5 0.817767 0.276687 0.230049
O O6 0.778159 0.132462 0.402454
O O7 0.045633 0.141544 0.923014
O O8 0.844910 0.616870 0.519693
O O9 0.744099 0.544238 0.837465
O O10 0.048555 0.594760 0.408248
O O11 0.000000 0.177757 0.250000
O O12 0.303304 0.229347 0.810098
O O13 0.159196 0.260770 0.630746
O O14 0.329384 0.412804 0.424223
O O15 0.425024 0.283545 0.151637
O O16 0.349132 0.201309 0.535211
O O17 0.306509 0.373362 0.671139
#
# Coordination Sequence:
#
# PCOD8117492 Si02
#       8
#     4   4   4   4   4   4   4   4
#     4   9  21  32  62  98 122 168 219 279 333 385
#     4  11  20  37  64  96 127 163 221 273 336 379
#     4  11  21  38  66  97 124 168 217 271 322 383
#     4  11  22  38  60  94 137 169 217 284 332 395
#     4  11  22  40  65  94 132 169 217 262 327 398
#     4  10  18  36  64  88 124 165 214 264 319 392
#     4  10  22  38  64  98 128 166 220 269 322 390
#     4  11  23  40  63  93 132 175 212 263 339 388
#
# _framework density 22.410523000000001
#
# number of rings (size 3 to 8) (size 9 to 14) (size 15 to 20)
#    0.000    1.500    5.000    1.875    1.750    3.000 
#    0.000    3.750    0.000    0.000    0.000    0.000 
#    0.000    0.000    0.000    0.000    0.000    0.000 
#
# Total GULP energy -396717.731597 kJ/mol
# GULP energy per Si atom -12397.429112 kJ/mol
# Density = 2.235952 g / cm^3
# Si number density = 22.410523 Si / 1000 Ang^3
#
#
#
# Elastic Constant Matrix: (Units=GPa)
#
#
# Indices 1 2 3 4 5 6 
#
# 1 63.6626 15.3326 10.4822 0.0000 24.3863 0.0000
# 2 15.3326 112.7982 23.1438 0.0000 17.7308 0.0000
# 3 10.4822 23.1438 51.8607 0.0000 21.7548 0.0000
# 4 0.0000 0.0000 0.0000 23.9988 0.0000 9.8359
# 5 24.3863 17.7308 21.7548 0.0000 30.7761 0.0000
# 6 0.0000 0.0000 0.0000 9.8359 0.0000 23.5659
#
#
#
# Elastic Compliance Matrix: (Units=1/GPa)
#
#
# Indices 1 2 3 4 5 6 
#
# 1 0.023265 -0.000759 0.004529 0.000000 -0.021199 0.000000
# 2 -0.000759 0.010075 -0.003071 0.000000 -0.003032 0.000000
# 3 0.004529 -0.003071 0.029142 0.000000 -0.022419 0.000000
# 4 0.000000 0.000000 0.000000 0.050268 0.000000 -0.020981
# 5 -0.021199 -0.003032 -0.022419 0.000000 0.066885 0.000000
# 6 0.000000 0.000000 0.000000 -0.020981 0.000000 0.051191
#
#
# Mechanical properties :
#
#
# Convention : Reuss Voigt Hill
#
# Bulk Modulus (GPa) = 15.65430 36.24875 25.95152
# Shear Modulus (GPa) = 19.94238 27.62566 23.78402
#
# Velocity S-wave (km/s) = 2.98630 3.51480 3.26128
# Velocity P-wave (km/s) = 4.34638 5.71680 5.07803
#
# Compressibility (1/GPa) = 0.06388022
#
# Stress axis : x y z
#
# Youngs Moduli (GPa) = 42.98232 99.25235 34.31481
#
# Poissons Ratio (x) = 0.07538 -0.15542
# Poissons Ratio (y) = 0.03264 0.10538
# Poissons Ratio (z) = -0.19467 0.30479
#
# Static dielectric constant tensor:
#      x y z
#    x 4.060860 0.000000 0.252080 
#    y 0.000000 4.301360 0.000000 
#    z 0.252080 0.000000 3.767710 
# 
# 
# High freq. dielectric constant tensor:
#      x y z
#    x 1.880540 0.000000 0.012400 
#    y 0.000000 1.880470 0.000000 
#    z 0.012400 0.000000 1.846730 
# 
# From -- ./inp_files/39433.got.cif
#   From: 2010.06.25/outbox.cif.g09.slc.cpg/sg13_20_cif.got.tgz:39433.got - 2010.06.28 04:50:58.
