data_PCOD8117115
_publ_section_title
;
Structure prediction by ZEFSAII (Michael W. Deem and Ramdas Pophale) SiO2 
 PCOD8117115
Probable space group: P 2/C
;
_chemical_formula_sum "Si O2"
_cell_formula_units_Z 32
_cell_length_a 13.193601
_cell_length_b 8.354618
_cell_length_c 20.267359
_cell_angle_alpha 90.000000
_cell_angle_beta 127.211073
_cell_angle_gamma 90.000000
_cell_volume 1779.202892
_symmetry_space_group_name_H-M "P 2/C"
_symmetry_group_IT_number 13
_symmetry_cell_setting 'monoclinic'
loop_
_space_group_symop_operation_xyz
x,y,z
-x,y,1/2-z
-x,-y,-z
x,-y,1/2+z
loop_
_atom_site_type_symbol
_atom_site_label
_atom_site_fract_x
_atom_site_fract_y
_atom_site_fract_z
Si Si1 0.289808 0.787163 0.071083
Si Si2 0.138025 0.065993 0.061581
Si Si3 0.632202 0.522382 0.832472
Si Si4 0.112031 0.585775 0.914946
Si Si5 0.639199 0.008404 0.023908
Si Si6 0.255297 0.283299 0.006646
Si Si7 0.146145 0.183777 0.311664
Si Si8 0.165946 0.675332 0.679785
O O1 0.373709 0.663466 0.146942
O O2 0.242980 0.925398 0.101976
O O3 0.168313 0.688615 0.997321
O O4 0.364872 0.865868 0.038781
O O5 0.152566 0.176464 0.003530
O O6 0.153098 0.160938 0.134638
O O7 0.000000 0.000000 0.000000
O O8 0.500000 0.573968 0.750000
O O9 0.652144 0.633428 0.904014
O O10 0.733905 0.555372 0.814382
O O11 0.139836 0.665581 0.856681
O O12 0.962503 0.571536 0.869585
O O13 0.176140 0.412834 0.934529
O O14 0.751493 0.055514 0.120016
O O15 0.664116 0.826955 0.010692
O O16 0.500000 0.000000 0.000000
O O17 0.201208 0.258037 0.265821
O O18 0.000000 0.111628 0.250000
#
# Coordination Sequence:
#
# PCOD8117115 Si02
#       8
#     4   4   4   4   4   4   4   4
#     4   9  19  37  55  80 110 141 183 234 275 332
#     4  10  18  31  57  86 111 139 181 225 282 340
#     4  10  22  38  54  80 118 147 186 237 280 331
#     4   9  17  36  58  80 110 139 187 230 279 340
#     4  10  21  40  61  82 111 155 198 230 281 348
#     4   9  21  35  58  85 107 147 189 234 274 336
#     4   9  20  38  57  82 115 149 185 240 290 327
#     4  10  20  34  58  83 111 153 180 227 291 343
#
# _framework density 17.985582999999998
#
# number of rings (size 3 to 8) (size 9 to 14) (size 15 to 20)
#    0.000    2.500    1.250    0.000    5.250    1.500 
#    4.500    5.000    0.000    0.000    0.000    0.000 
#    0.000    0.000    0.000    0.000    0.000    0.000 
#
# Total GULP energy -396664.116228 kJ/mol
# GULP energy per Si atom -12395.753632 kJ/mol
# Density = 1.794465 g / cm^3
# Si number density = 17.985583 Si / 1000 Ang^3
#
#
#
# Elastic Constant Matrix: (Units=GPa)
#
#
# Indices 1 2 3 4 5 6 
#
# 1 118.5822 61.5578 61.6938 0.0000 5.5614 0.0000
# 2 61.5578 115.3061 46.3536 0.0000 6.5755 0.0000
# 3 61.6938 46.3536 90.6110 0.0000 8.9086 0.0000
# 4 0.0000 0.0000 0.0000 21.1872 0.0000 -2.6815
# 5 5.5614 6.5755 8.9086 0.0000 28.1445 0.0000
# 6 0.0000 0.0000 0.0000 -2.6815 0.0000 19.8855
#
#
#
# Elastic Compliance Matrix: (Units=1/GPa)
#
#
# Indices 1 2 3 4 5 6 
#
# 1 0.014992 -0.004924 -0.007752 0.000000 0.000642 0.000000
# 2 -0.004924 0.012553 -0.002969 0.000000 -0.001020 0.000000
# 3 -0.007752 -0.002969 0.018180 0.000000 -0.003529 0.000000
# 4 0.000000 0.000000 0.000000 0.048018 0.000000 0.006475
# 5 0.000642 -0.001020 -0.003529 0.000000 0.036759 0.000000
# 6 0.000000 0.000000 0.000000 0.006475 0.000000 0.051161
#
#
# Mechanical properties :
#
#
# Convention : Reuss Voigt Hill
#
# Bulk Modulus (GPa) = 69.27251 73.74552 71.50902
# Shear Modulus (GPa) = 22.96071 24.16972 23.56521
#
# Velocity S-wave (km/s) = 3.57685 3.66982 3.62363
# Velocity P-wave (km/s) = 7.46041 7.68429 7.57318
#
# Compressibility (1/GPa) = 0.01443574
#
# Stress axis : x y z
#
# Youngs Moduli (GPa) = 66.70294 79.66229 55.00665
#
# Poissons Ratio (x) = 0.39226 0.42638
# Poissons Ratio (y) = 0.32845 0.16330
# Poissons Ratio (z) = 0.51705 0.23650
#
# Static dielectric constant tensor:
#      x y z
#    x 3.331540 0.000000 -0.070570 
#    y 0.000000 3.558570 0.000000 
#    z -0.070570 0.000000 3.317440 
# 
# 
# High freq. dielectric constant tensor:
#      x y z
#    x 1.698100 0.000000 -0.005710 
#    y 0.000000 1.697230 0.000000 
#    z -0.005710 0.000000 1.687580 
# 
# From -- ./inp_files/78315.got.cif
#   From: 2010.06.25/outbox.cif.g09.slc.cpg/sg13_40_cif.got.tgz:78315.got - 2010.06.28 04:50:58.
