data_PCOD8117397
_publ_section_title
;
Structure prediction by ZEFSAII (Michael W. Deem and Ramdas Pophale) SiO2 
 PCOD8117397
Probable space group: P 2/C
;
_chemical_formula_sum "Si O2"
_cell_formula_units_Z 20
_cell_length_a 27.140122
_cell_length_b 7.497252
_cell_length_c 8.809821
_cell_angle_alpha 90.000000
_cell_angle_beta 27.148379
_cell_angle_gamma 90.000000
_cell_volume 817.952429
_symmetry_space_group_name_H-M "P 2/C"
_symmetry_group_IT_number 13
_symmetry_cell_setting 'monoclinic'
loop_
_space_group_symop_operation_xyz
x,y,z
-x,y,1/2-z
-x,-y,-z
x,-y,1/2+z
loop_
_atom_site_type_symbol
_atom_site_label
_atom_site_fract_x
_atom_site_fract_y
_atom_site_fract_z
Si Si1 0.077884 0.385663 0.675084
Si Si2 0.615727 0.263708 0.466619
Si Si3 0.692367 0.499803 0.499927
Si Si4 0.842315 0.898360 0.309367
Si Si5 0.149862 0.243979 0.041754
O O1 0.088332 0.226403 0.769124
O O2 0.063982 0.588100 0.797547
O O3 0.193452 0.405971 0.271126
O O4 0.000000 0.341526 0.750000
O O5 0.500000 0.170220 0.750000
O O6 0.614129 0.356355 0.635706
O O7 0.631149 0.432320 0.314354
O O8 0.713139 0.125076 0.185430
O O9 0.728920 0.671816 0.295392
O O10 0.876097 0.857798 0.044984
O O11 0.866173 0.105569 0.277756
#
# Coordination Sequence:
#
# PCOD8117397 Si02
#       5
#     4   4   4   4   4
#     4   9  20  38  60  84 116 154 195 237 292 341
#     4  10  18  35  59  85 112 150 192 237 289 343
#     4   8  19  35  54  83 115 145 189 239 280 338
#     4  10  21  39  58  86 120 152 190 245 284 344
#     4   9  21  37  58  82 121 150 192 236 292 333
#
# _framework density 24.451301000000001
#
# number of rings (size 3 to 8) (size 9 to 14) (size 15 to 20)
#    1.200    1.600    0.000    0.600    0.000    6.400 
#    0.000    7.000    0.000    0.000    0.000    0.000 
#    0.000    0.000    0.000    0.000    0.000    0.000 
#
# Total GULP energy -247889.801160 kJ/mol
# GULP energy per Si atom -12394.490058 kJ/mol
# Density = 2.439565 g / cm^3
# Si number density = 24.451301 Si / 1000 Ang^3
#
#
#
# Elastic Constant Matrix: (Units=GPa)
#
#
# Indices 1 2 3 4 5 6 
#
# 1 90.3712 41.7144 43.4114 0.0000 -30.7660 0.0000
# 2 41.7144 100.7658 29.1634 0.0000 -9.1532 0.0000
# 3 43.4114 29.1634 71.5255 0.0000 -15.1579 0.0000
# 4 0.0000 0.0000 0.0000 26.4732 0.0000 10.4505
# 5 -30.7660 -9.1532 -15.1579 0.0000 38.6799 0.0000
# 6 0.0000 0.0000 0.0000 10.4505 0.0000 31.0381
#
#
#
# Elastic Compliance Matrix: (Units=1/GPa)
#
#
# Indices 1 2 3 4 5 6 
#
# 1 0.022053 -0.005526 -0.008388 0.000000 0.012946 0.000000
# 2 -0.005526 0.012668 -0.002298 0.000000 -0.002298 0.000000
# 3 -0.008388 -0.002298 0.020154 0.000000 0.000682 0.000000
# 4 0.000000 0.000000 0.000000 0.043564 0.000000 -0.014668
# 5 0.012946 -0.002298 0.000682 0.000000 0.035874 0.000000
# 6 0.000000 0.000000 0.000000 -0.014668 0.000000 0.037157
#
#
# Mechanical properties :
#
#
# Convention : Reuss Voigt Hill
#
# Bulk Modulus (GPa) = 44.54316 54.58231 49.56274
# Shear Modulus (GPa) = 23.65435 29.12979 26.39207
#
# Velocity S-wave (km/s) = 3.11369 3.45532 3.28895
# Velocity P-wave (km/s) = 5.58421 6.18792 5.89380
#
# Compressibility (1/GPa) = 0.02245014
#
# Stress axis : x y z
#
# Youngs Moduli (GPa) = 45.34582 78.93947 49.61851
#
# Poissons Ratio (x) = 0.43619 0.41620
# Poissons Ratio (y) = 0.25056 0.11405
# Poissons Ratio (z) = 0.38036 0.18144
#
# Static dielectric constant tensor:
#      x y z
#    x 4.275870 0.000000 -0.035050 
#    y 0.000000 4.187570 0.000000 
#    z -0.035050 0.000000 4.447460 
# 
# 
# High freq. dielectric constant tensor:
#      x y z
#    x 1.966520 0.000000 0.004740 
#    y 0.000000 1.958280 0.000000 
#    z 0.004740 0.000000 1.982970 
# 
# From -- ./inp_files/22890.got.cif
#   From: 2010.06.25/outbox.cif.g09.slc.cpg/sg13_12_cif.got.tgz:22890.got - 2010.06.28 04:50:58.
