data_PCOD8117962
_publ_section_title
;
Structure prediction by ZEFSAII (Michael W. Deem and Ramdas Pophale) SiO2 
 PCOD8117962
Probable space group: P 2/C
;
_chemical_formula_sum "Si O2"
_cell_formula_units_Z 22
_cell_length_a 12.077681
_cell_length_b 8.655369
_cell_length_c 13.922739
_cell_angle_alpha 90.000000
_cell_angle_beta 138.508624
_cell_angle_gamma 90.000000
_cell_volume 964.238568
_symmetry_space_group_name_H-M "P 2/C"
_symmetry_group_IT_number 13
_symmetry_cell_setting 'monoclinic'
loop_
_space_group_symop_operation_xyz
x,y,z
-x,y,1/2-z
-x,-y,-z
x,-y,1/2+z
loop_
_atom_site_type_symbol
_atom_site_label
_atom_site_fract_x
_atom_site_fract_y
_atom_site_fract_z
Si Si1 0.648956 0.568719 0.502674
Si Si2 0.302060 0.325787 0.827975
Si Si3 0.301967 0.230538 0.624708
Si Si4 0.915233 0.052301 0.792130
Si Si5 0.500000 0.661685 0.750000
Si Si6 0.203705 0.111380 0.107316
O O1 0.761748 0.476777 0.654432
O O2 0.504896 0.668419 0.463020
O O3 0.765749 0.683791 0.515574
O O4 0.562936 0.441139 0.378281
O O5 0.236676 0.324397 0.675479
O O6 0.237185 0.167482 0.835808
O O7 0.500000 0.246087 0.750000
O O8 0.252176 0.053770 0.593449
O O9 0.000000 0.988077 0.750000
O O10 0.847289 0.909529 0.813165
O O11 0.042873 0.157652 0.939081
O O12 0.649087 0.767166 0.805796
#
# Coordination Sequence:
#
# PCOD8117962 Si02
#       6
#     4   4   4   4   2   4
#     4  10  19  34  61  91 118 149 198 254 300 356
#     4   9  18  35  60  83 115 158 197 243 298 352
#     4   9  16  36  56  86 118 152 189 250 302 343
#     4  10  21  42  59  82 123 170 197 243 302 363
#     4  12  20  36  60 100 116 148 208 258 302 358
#     4  10  22  37  64  87 122 159 204 247 304 362
#
# _framework density 22.815930999999999
#
# number of rings (size 3 to 8) (size 9 to 14) (size 15 to 20)
#    0.000    2.182    3.636    1.091    0.000    0.000 
#    9.818    3.636    8.000    0.000    0.000    0.000 
#    0.000    0.000    0.000    0.000    0.000    0.000 
#
# Total GULP energy -272562.703520 kJ/mol
# GULP energy per Si atom -12389.213796 kJ/mol
# Density = 2.276400 g / cm^3
# Si number density = 22.815931 Si / 1000 Ang^3
#
#
#
# Elastic Constant Matrix: (Units=GPa)
#
#
# Indices 1 2 3 4 5 6 
#
# 1 136.0759 47.4751 25.1512 0.0000 -15.8020 0.0000
# 2 47.4751 91.0740 28.4878 0.0000 -4.6009 0.0000
# 3 25.1512 28.4878 38.5802 0.0000 -1.7510 0.0000
# 4 0.0000 0.0000 0.0000 24.5220 0.0000 -5.8348
# 5 -15.8020 -4.6009 -1.7510 0.0000 27.2568 0.0000
# 6 0.0000 0.0000 0.0000 -5.8348 0.0000 14.6645
#
#
#
# Elastic Compliance Matrix: (Units=1/GPa)
#
#
# Indices 1 2 3 4 5 6 
#
# 1 0.009880 -0.003848 -0.003379 0.000000 0.004862 0.000000
# 2 -0.003848 0.015859 -0.009208 0.000000 -0.000145 0.000000
# 3 -0.003379 -0.009208 0.034865 0.000000 -0.001274 0.000000
# 4 0.000000 0.000000 0.000000 0.045044 0.000000 0.017922
# 5 0.004862 -0.000145 -0.001274 0.000000 0.039400 0.000000
# 6 0.000000 0.000000 0.000000 0.017922 0.000000 0.075323
#
#
# Mechanical properties :
#
#
# Convention : Reuss Voigt Hill
#
# Bulk Modulus (GPa) = 36.05816 51.99537 44.02677
# Shear Modulus (GPa) = 19.04856 24.26306 21.65581
#
# Velocity S-wave (km/s) = 2.89256 3.26456 3.08418
# Velocity P-wave (km/s) = 5.19559 6.08673 5.65873
#
# Compressibility (1/GPa) = 0.02773297
#
# Stress axis : x y z
#
# Youngs Moduli (GPa) = 101.20978 63.05593 28.68219
#
# Poissons Ratio (x) = 0.24263 0.09693
# Poissons Ratio (y) = 0.38944 0.26412
# Poissons Ratio (z) = 0.34202 0.58065
#
# Static dielectric constant tensor:
#      x y z
#    x 4.662270 0.000000 -0.278580 
#    y 0.000000 4.109180 0.000000 
#    z -0.278580 0.000000 3.986780 
# 
# 
# High freq. dielectric constant tensor:
#      x y z
#    x 1.918960 0.000000 -0.023600 
#    y 0.000000 1.883170 0.000000 
#    z -0.023600 0.000000 1.865310 
# 
# From -- ./inp_files/49842.got.cif
#   From: 2010.06.25/outbox.cif.g09.slc.cpg/sg13_25_cif.got.tgz:49842.got - 2010.06.28 04:50:58.
