data_PCOD8117210
_publ_section_title
;
Structure prediction by ZEFSAII (Michael W. Deem and Ramdas Pophale) SiO2 
 PCOD8117210
Probable space group: P 2/C
;
_chemical_formula_sum "Si O2"
_cell_formula_units_Z 22
_cell_length_a 30.764369
_cell_length_b 5.609759
_cell_length_c 16.898873
_cell_angle_alpha 90.000000
_cell_angle_beta 159.377049
_cell_angle_gamma 90.000000
_cell_volume 1027.211212
_symmetry_space_group_name_H-M "P 2/C"
_symmetry_group_IT_number 13
_symmetry_cell_setting 'monoclinic'
loop_
_space_group_symop_operation_xyz
x,y,z
-x,y,1/2-z
-x,-y,-z
x,-y,1/2+z
loop_
_atom_site_type_symbol
_atom_site_label
_atom_site_fract_x
_atom_site_fract_y
_atom_site_fract_z
Si Si1 0.471414 0.053403 0.794316
Si Si2 0.826269 0.405975 0.367742
Si Si3 0.804604 0.099689 0.183485
Si Si4 0.995994 0.217852 0.091083
Si Si5 0.000000 0.898306 0.250000
Si Si6 0.435573 0.440383 0.054743
O O1 0.500000 0.052354 0.750000
O O2 0.529383 0.808301 0.930169
O O3 0.328414 0.023848 0.575139
O O4 0.524307 0.307330 0.919034
O O5 0.771762 0.243177 0.206177
O O6 0.874765 0.254988 0.525114
O O7 0.949312 0.533934 0.545577
O O8 0.713767 0.577747 0.199048
O O9 0.877563 0.256361 0.242305
O O10 0.889567 0.874713 0.350345
O O11 0.024314 0.046288 0.212468
O O12 0.500000 0.435320 0.250000
#
# Coordination Sequence:
#
# PCOD8117210 Si02
#       6
#     4   4   4   4   2   4
#     4  10  18  33  52  91 118 155 184 248 302 357
#     4  11  20  37  58  88 118 159 204 247 303 365
#     4  10  20  34  59  91 120 145 202 252 309 355
#     4  10  21  37  58  85 118 159 195 255 303 354
#     4  10  24  38  56  84 116 166 206 240 304 368
#     4  10  19  31  58  85 119 152 199 244 298 357
#
# _framework density 21.417210000000001
#
# number of rings (size 3 to 8) (size 9 to 14) (size 15 to 20)
#    0.000    1.818    3.636    3.273    2.545    0.000 
#    0.000    0.000    0.000    2.182    0.000    0.000 
#    0.000    0.000    0.000    0.000    0.000    0.000 
#
# Total GULP energy -272597.261944 kJ/mol
# GULP energy per Si atom -12390.784634 kJ/mol
# Density = 2.136846 g / cm^3
# Si number density = 21.417210 Si / 1000 Ang^3
#
#
#
# Elastic Constant Matrix: (Units=GPa)
#
#
# Indices 1 2 3 4 5 6 
#
# 1 24.5857 -2.4003 28.9238 0.0000 4.4402 0.0000
# 2 -2.4003 125.5579 23.1798 0.0000 3.8378 0.0000
# 3 28.9238 23.1798 105.4984 0.0000 25.3491 0.0000
# 4 0.0000 0.0000 0.0000 19.2553 0.0000 22.1849
# 5 4.4402 3.8378 25.3491 0.0000 31.0777 0.0000
# 6 0.0000 0.0000 0.0000 22.1849 0.0000 -29.1154
#
#
#
# Elastic Compliance Matrix: (Units=1/GPa)
#
#
# Indices 1 2 3 4 5 6 
#
# 1 0.063527 0.004714 -0.020064 0.000000 0.006707 0.000000
# 2 0.004714 0.008659 -0.003453 0.000000 0.001074 0.000000
# 3 -0.020064 -0.003453 0.018591 0.000000 -0.011871 0.000000
# 4 0.000000 0.000000 0.000000 0.027655 0.000000 0.021072
# 5 0.006707 0.001074 -0.011871 0.000000 0.040769 0.000000
# 6 0.000000 0.000000 0.000000 0.021072 0.000000 -0.018290
#
#
# Mechanical properties :
#
#
# Convention : Reuss Voigt Hill
#
# Bulk Modulus (GPa) = 18.80750 39.44985 29.12868
# Shear Modulus (GPa) = 25.47883 17.97278 21.72580
#
# Velocity S-wave (km/s) = 3.45286 2.89999 3.18843
# Velocity P-wave (km/s) = 4.96960 5.44729 5.21392
#
# Compressibility (1/GPa) = 0.05317027
#
# Stress axis : x y z
#
# Youngs Moduli (GPa) = 15.74132 115.48434 53.79080
#
# Poissons Ratio (x) = -0.54434 1.07926
# Poissons Ratio (y) = -0.07420 0.18573
# Poissons Ratio (z) = 0.31583 0.39874
#
# Static dielectric constant tensor:
#      x y z
#    x 3.446500 0.000000 0.142970 
#    y 0.000000 4.557030 0.000000 
#    z 0.142970 0.000000 3.857530 
# 
# 
# High freq. dielectric constant tensor:
#      x y z
#    x 1.780930 0.000000 0.019310 
#    y 0.000000 1.852490 0.000000 
#    z 0.019310 0.000000 1.843520 
# 
# From -- ./inp_files/58172.got.cif
#   From: 2010.06.25/outbox.cif.g09.slc.cpg/sg13_30_cif.got.tgz:58172.got - 2010.06.28 04:50:58.
