data_PCOD8117031
_publ_section_title
;
Structure prediction by ZEFSAII (Michael W. Deem and Ramdas Pophale) SiO2 
 PCOD8117031
Probable space group: P 2/C
;
_chemical_formula_sum "Si O2"
_cell_formula_units_Z 32
_cell_length_a 16.088293
_cell_length_b 23.005884
_cell_length_c 5.309284
_cell_angle_alpha 90.000000
_cell_angle_beta 109.202367
_cell_angle_gamma 90.000000
_cell_volume 1855.768134
_symmetry_space_group_name_H-M "P 2/C"
_symmetry_group_IT_number 13
_symmetry_cell_setting 'monoclinic'
loop_
_space_group_symop_operation_xyz
x,y,z
-x,y,1/2-z
-x,-y,-z
x,-y,1/2+z
loop_
_atom_site_type_symbol
_atom_site_label
_atom_site_fract_x
_atom_site_fract_y
_atom_site_fract_z
Si Si1 0.264471 0.863638 0.015211
Si Si2 0.666322 0.267143 0.915572
Si Si3 0.102487 0.464439 0.352057
Si Si4 0.397176 0.034734 0.647505
Si Si5 0.901014 0.723078 0.148723
Si Si6 0.776632 0.166251 0.525784
Si Si7 0.598068 0.768102 0.847568
Si Si8 0.160771 0.337091 0.412934
O O1 0.287420 0.795588 0.038468
O O2 0.350116 0.903375 0.100291
O O3 0.205506 0.873220 0.208394
O O4 0.205381 0.873119 0.704532
O O5 0.608109 0.272568 0.604867
O O6 0.608066 0.272535 0.110130
O O7 0.738197 0.317668 0.987469
O O8 0.127187 0.500067 0.626501
O O9 0.160200 0.406415 0.409579
O O10 0.000000 0.447254 0.250000
O O11 0.500000 0.048183 0.750000
O O12 0.368785 0.999951 0.369334
O O13 0.887397 0.684422 0.382545
O O14 0.000000 0.747941 0.250000
O O15 0.833074 0.775785 0.082671
O O16 0.888519 0.685687 0.884801
O O17 0.671313 0.180978 0.420480
O O18 0.500000 0.796085 0.750000
#
# Coordination Sequence:
#
# PCOD8117031 Si02
#       8
#     4   4   4   4   4   4   4   4
#     4  10  18  32  52  66 104 140 168 219 273 295
#     4  10  19  33  49  75 104 136 175 226 263 322
#     4  10  21  35  50  75 107 143 189 223 253 319
#     4  10  21  35  50  75 107 143 189 223 253 319
#     4  12  21  33  53  78 109 148 179 212 279 335
#     4  10  19  33  46  76 106 135 175 224 256 331
#     4  10  18  30  47  68 103 137 166 207 262 320
#     4  12  20  37  54  75 112 148 181 226 269 317
#
# _framework density 17.243532999999999
#
# number of rings (size 3 to 8) (size 9 to 14) (size 15 to 20)
#    0.000    1.500    5.000    3.000    0.000    5.000 
#    0.000    1.250    0.000    0.000    0.000    0.000 
#    0.000   20.000    0.000    0.000    0.000    0.000 
#
# Total GULP energy -396632.462480 kJ/mol
# GULP energy per Si atom -12394.764453 kJ/mol
# Density = 1.720429 g / cm^3
# Si number density = 17.243533 Si / 1000 Ang^3
#
#
#
# Elastic Constant Matrix: (Units=GPa)
#
#
# Indices 1 2 3 4 5 6 
#
# 1 35.2707 14.8069 34.6087 0.0000 -0.0892 0.0000
# 2 14.8069 70.3543 27.0967 0.0000 -4.6145 0.0000
# 3 34.6087 27.0967 151.6547 0.0000 -47.6330 0.0000
# 4 0.0000 0.0000 0.0000 20.7648 0.0000 -0.4018
# 5 -0.0892 -4.6145 -47.6330 0.0000 22.7552 0.0000
# 6 0.0000 0.0000 0.0000 -0.4018 0.0000 20.1262
#
#
#
# Elastic Compliance Matrix: (Units=1/GPa)
#
#
# Indices 1 2 3 4 5 6 
#
# 1 0.081329 -0.004138 -0.052504 0.000000 -0.110427 0.000000
# 2 -0.004138 0.015942 -0.002610 0.000000 -0.002246 0.000000
# 3 -0.052504 -0.002610 0.054920 0.000000 0.114227 0.000000
# 4 0.000000 0.000000 0.000000 0.048177 0.000000 0.000962
# 5 -0.110427 -0.002246 0.114227 0.000000 0.282168 0.000000
# 6 0.000000 0.000000 0.000000 0.000962 0.000000 0.049706
#
#
# Mechanical properties :
#
#
# Convention : Reuss Voigt Hill
#
# Bulk Modulus (GPa) = 29.68479 45.58937 37.63708
# Shear Modulus (GPa) = 7.55316 24.78041 16.16678
#
# Velocity S-wave (km/s) = 2.09518 3.79500 3.06528
# Velocity P-wave (km/s) = 4.80681 6.76008 5.86533
#
# Compressibility (1/GPa) = 0.03368729
#
# Stress axis : x y z
#
# Youngs Moduli (GPa) = 12.29574 62.72585 18.20840
#
# Poissons Ratio (x) = 0.25953 0.95602
# Poissons Ratio (y) = 0.05087 0.04752
# Poissons Ratio (z) = 0.64558 0.16370
#
# Static dielectric constant tensor:
#      x y z
#    x 3.242170 0.000000 -0.713130 
#    y 0.000000 2.850680 0.000000 
#    z -0.713130 0.000000 4.786210 
# 
# 
# High freq. dielectric constant tensor:
#      x y z
#    x 1.641590 0.000000 -0.028220 
#    y 0.000000 1.623400 0.000000 
#    z -0.028220 0.000000 1.702300 
# 
# From -- ./inp_files/5564.got.cif
#   From: 2010.06.25/outbox.cif.g09.slc.cpg/sg13_3_cif.got.tgz:5564.got - 2010.06.28 04:50:58.
