data_PCOD8117411
_publ_section_title
;
Structure prediction by ZEFSAII (Michael W. Deem and Ramdas Pophale) SiO2 
 PCOD8117411
Probable space group: P 2/C
;
_chemical_formula_sum "Si O2"
_cell_formula_units_Z 30
_cell_length_a 11.616528
_cell_length_b 8.352120
_cell_length_c 16.127596
_cell_angle_alpha 90.000000
_cell_angle_beta 81.416057
_cell_angle_gamma 90.000000
_cell_volume 1547.214025
_symmetry_space_group_name_H-M "P 2/C"
_symmetry_group_IT_number 13
_symmetry_cell_setting 'monoclinic'
loop_
_space_group_symop_operation_xyz
x,y,z
-x,y,1/2-z
-x,-y,-z
x,-y,1/2+z
loop_
_atom_site_type_symbol
_atom_site_label
_atom_site_fract_x
_atom_site_fract_y
_atom_site_fract_z
Si Si1 0.925923 0.015290 0.425013
Si Si2 0.899534 0.292048 0.327011
Si Si3 0.000000 0.839885 0.250000
Si Si4 0.381411 0.414209 0.293399
Si Si5 0.529622 0.342725 0.047003
Si Si6 0.201520 0.607168 0.208073
Si Si7 0.684300 0.142030 0.914917
Si Si8 0.346787 0.833920 0.671627
O O1 0.796196 0.938746 0.448944
O O2 0.983605 0.940894 0.335692
O O3 0.929890 0.208665 0.411602
O O4 0.000000 0.000000 0.500000
O O5 0.868416 0.478386 0.340480
O O6 0.791173 0.185470 0.309458
O O7 0.000000 0.269523 0.250000
O O8 0.112211 0.731184 0.258194
O O9 0.500000 0.503040 0.250000
O O10 0.378129 0.397486 0.392492
O O11 0.270438 0.514729 0.273596
O O12 0.387581 0.230858 0.256820
O O13 0.407677 0.280649 0.097048
O O14 0.500000 0.500000 0.000000
O O15 0.587066 0.195600 0.990950
O O16 0.287155 0.696205 0.136842
O O17 0.627185 0.018483 0.854327
#
# Coordination Sequence:
#
# PCOD8117411 Si02
#       8
#     4   4   2   4   4   4   4   4
#     4  10  22  39  59  88 121 159 206 253 310 371
#     4  10  18  35  62  82 113 161 198 242 312 352
#     4  10  20  40  58  88 122 156 202 262 298 360
#     4   9  19  37  59  86 113 155 203 236 293 373
#     4  11  21  39  60  86 125 155 196 255 306 359
#     4  10  20  38  60  88 118 157 203 246 305 360
#     4  10  21  39  59  86 121 154 197 255 305 363
#     4   9  20  37  59  82 115 157 197 242 299 359
#
# _framework density 19.389689000000001
#
# number of rings (size 3 to 8) (size 9 to 14) (size 15 to 20)
#    0.000    2.133    1.333    2.800    0.000    2.133 
#    7.200    7.333    0.000    0.000    0.000    0.000 
#    0.000    0.000    0.000    0.000    0.000    0.000 
#
# Total GULP energy -371657.428777 kJ/mol
# GULP energy per Si atom -12388.580959 kJ/mol
# Density = 1.934556 g / cm^3
# Si number density = 19.389689 Si / 1000 Ang^3
#
#
#
# Elastic Constant Matrix: (Units=GPa)
#
#
# Indices 1 2 3 4 5 6 
#
# 1 80.5968 35.9358 41.3009 0.0000 1.9521 0.0000
# 2 35.9358 118.3441 59.3382 0.0000 7.1757 0.0000
# 3 41.3009 59.3382 113.4380 0.0000 13.7816 0.0000
# 4 0.0000 0.0000 0.0000 24.5228 0.0000 -1.5123
# 5 1.9521 7.1757 13.7816 0.0000 32.5362 0.0000
# 6 0.0000 0.0000 0.0000 -1.5123 0.0000 30.3228
#
#
#
# Elastic Compliance Matrix: (Units=1/GPa)
#
#
# Indices 1 2 3 4 5 6 
#
# 1 0.015897 -0.002609 -0.004615 0.000000 0.001576 0.000000
# 2 -0.002609 0.011882 -0.005236 0.000000 -0.000246 0.000000
# 3 -0.004615 -0.005236 0.013769 0.000000 -0.004401 0.000000
# 4 0.000000 0.000000 0.000000 0.040904 0.000000 0.002040
# 5 0.001576 -0.000246 -0.004401 0.000000 0.032559 0.000000
# 6 0.000000 0.000000 0.000000 0.002040 0.000000 0.033080
#
#
# Mechanical properties :
#
#
# Convention : Reuss Voigt Hill
#
# Bulk Modulus (GPa) = 60.13343 65.05872 62.59608
# Shear Modulus (GPa) = 28.00278 29.19663 28.59970
#
# Velocity S-wave (km/s) = 3.80440 3.88465 3.84473
# Velocity P-wave (km/s) = 7.09777 7.33122 7.21544
#
# Compressibility (1/GPa) = 0.01662968
#
# Stress axis : x y z
#
# Youngs Moduli (GPa) = 62.90375 84.15872 72.62765
#
# Poissons Ratio (x) = 0.21958 0.33515
# Poissons Ratio (y) = 0.16412 0.38025
# Poissons Ratio (z) = 0.29028 0.44063
#
# Static dielectric constant tensor:
#      x y z
#    x 3.779340 0.000000 -0.038140 
#    y 0.000000 3.764300 0.000000 
#    z -0.038140 0.000000 3.416680 
# 
# 
# High freq. dielectric constant tensor:
#      x y z
#    x 1.763300 0.000000 -0.013080 
#    y 0.000000 1.763030 0.000000 
#    z -0.013080 0.000000 1.731910 
# 
# From -- ./inp_files/50054.got.cif
#   From: 2010.06.25/outbox.cif.g09.slc.cpg/sg13_26_cif.got.tgz:50054.got - 2010.06.28 04:50:58.
