data_PCOD8117352
_publ_section_title
;
Structure prediction by ZEFSAII (Michael W. Deem and Ramdas Pophale) SiO2 
 PCOD8117352
Probable space group: P 2/C
;
_chemical_formula_sum "Si O2"
_cell_formula_units_Z 18
_cell_length_a 8.503914
_cell_length_b 11.383974
_cell_length_c 9.362076
_cell_angle_alpha 90.000000
_cell_angle_beta 87.816605
_cell_angle_gamma 90.000000
_cell_volume 905.669004
_symmetry_space_group_name_H-M "P 2/C"
_symmetry_group_IT_number 13
_symmetry_cell_setting 'monoclinic'
loop_
_space_group_symop_operation_xyz
x,y,z
-x,y,1/2-z
-x,-y,-z
x,-y,1/2+z
loop_
_atom_site_type_symbol
_atom_site_label
_atom_site_fract_x
_atom_site_fract_y
_atom_site_fract_z
Si Si1 0.188379 0.868658 0.739000
Si Si2 0.842202 0.540901 0.430052
Si Si3 0.851366 0.929749 0.061740
Si Si4 0.000000 0.736175 0.250000
Si Si5 0.319548 0.379315 0.290332
O O1 0.247629 0.890141 0.573880
O O2 0.277466 0.757563 0.799883
O O3 0.000000 0.848903 0.750000
O O4 0.242028 0.981948 0.830250
O O5 0.786733 0.438151 0.327544
O O6 0.710984 0.564533 0.553852
O O7 0.000000 0.500000 0.500000
O O8 0.873250 0.658310 0.338681
O O9 0.901224 0.813886 0.144008
O O10 0.000000 0.000000 0.000000
O O11 0.500000 0.400522 0.250000
#
# Coordination Sequence:
#
# PCOD8117352 Si02
#       5
#     4   4   4   2   4
#     4  10  20  37  63  89 122 160 211 261 314 366
#     4  12  23  43  68  94 123 168 222 266 312 378
#     4  10  18  34  60  95 122 153 205 274 314 358
#     4  12  20  34  68  98 120 154 220 274 314 354
#     4  12  26  43  62  93 135 170 206 262 327 383
#
# _framework density 19.874811999999999
#
# number of rings (size 3 to 8) (size 9 to 14) (size 15 to 20)
#    0.000    0.889    5.556    6.000    0.000    0.000 
#    0.000    1.111    0.000    0.000    0.000    0.000 
#    0.000    0.000    0.000    0.000    0.000    0.000 
#
# Total GULP energy -223233.564148 kJ/mol
# GULP energy per Si atom -12401.864675 kJ/mol
# Density = 1.982958 g / cm^3
# Si number density = 19.874812 Si / 1000 Ang^3
#
#
#
# Elastic Constant Matrix: (Units=GPa)
#
#
# Indices 1 2 3 4 5 6 
#
# 1 61.0256 27.3675 29.7697 0.0000 -13.1339 0.0000
# 2 27.3675 108.0800 40.6178 0.0000 0.9891 0.0000
# 3 29.7697 40.6178 138.6741 0.0000 -6.0603 0.0000
# 4 0.0000 0.0000 0.0000 51.4610 0.0000 2.3268
# 5 -13.1339 0.9891 -6.0603 0.0000 28.6334 0.0000
# 6 0.0000 0.0000 0.0000 2.3268 0.0000 7.5759
#
#
#
# Elastic Compliance Matrix: (Units=1/GPa)
#
#
# Indices 1 2 3 4 5 6 
#
# 1 0.021924 -0.004526 -0.002962 0.000000 0.009586 0.000000
# 2 -0.004526 0.011360 -0.002487 0.000000 -0.002995 0.000000
# 3 -0.002962 -0.002487 0.008599 0.000000 0.000547 0.000000
# 4 0.000000 0.000000 0.000000 0.019706 0.000000 -0.006052
# 5 0.009586 -0.002995 0.000547 0.000000 0.039541 0.000000
# 6 0.000000 0.000000 0.000000 -0.006052 0.000000 0.133856
#
#
# Mechanical properties :
#
#
# Convention : Reuss Voigt Hill
#
# Bulk Modulus (GPa) = 45.59039 55.92108 50.75573
# Shear Modulus (GPa) = 19.06595 31.53570 25.30082
#
# Velocity S-wave (km/s) = 3.10062 3.98768 3.57180
# Velocity P-wave (km/s) = 5.98390 7.02851 6.52713
#
# Compressibility (1/GPa) = 0.02193445
#
# Stress axis : x y z
#
# Youngs Moduli (GPa) = 45.61128 88.02464 116.28872
#
# Poissons Ratio (x) = 0.39842 0.34444
# Poissons Ratio (y) = 0.20644 0.28918
# Poissons Ratio (z) = 0.13510 0.21889
#
# Static dielectric constant tensor:
#      x y z
#    x 3.181070 0.000000 -0.005550 
#    y 0.000000 3.869020 0.000000 
#    z -0.005550 0.000000 4.512000 
# 
# 
# High freq. dielectric constant tensor:
#      x y z
#    x 1.717860 0.000000 0.003270 
#    y 0.000000 1.793950 0.000000 
#    z 0.003270 0.000000 1.806760 
# 
# From -- ./inp_files/11247.got.cif
#   From: 2010.06.25/outbox.cif.g09.slc.cpg/sg13_6_cif.got.tgz:11247.got - 2010.06.28 04:50:58.
