data_PCOD8117852
_publ_section_title
;
Structure prediction by ZEFSAII (Michael W. Deem and Ramdas Pophale) SiO2 
 PCOD8117852
Probable space group: P 2/C
;
_chemical_formula_sum "Si O2"
_cell_formula_units_Z 22
_cell_length_a 10.435823
_cell_length_b 5.171174
_cell_length_c 27.287595
_cell_angle_alpha 90.000000
_cell_angle_beta 58.364926
_cell_angle_gamma 90.000000
_cell_volume 1253.769872
_symmetry_space_group_name_H-M "P 2/C"
_symmetry_group_IT_number 13
_symmetry_cell_setting 'monoclinic'
loop_
_space_group_symop_operation_xyz
x,y,z
-x,y,1/2-z
-x,-y,-z
x,-y,1/2+z
loop_
_atom_site_type_symbol
_atom_site_label
_atom_site_fract_x
_atom_site_fract_y
_atom_site_fract_z
Si Si1 0.500000 0.002645 0.750000
Si Si2 0.616729 0.747669 0.924203
Si Si3 0.518528 0.236036 0.148334
Si Si4 0.312180 0.756988 0.364371
Si Si5 0.298737 0.749829 0.039822
Si Si6 0.993037 0.749930 0.467924
O O1 0.635627 0.184402 0.702337
O O2 0.558505 0.820566 0.783022
O O3 0.612179 0.743540 0.865989
O O4 0.708611 0.500221 0.924105
O O5 0.704035 0.999356 0.925247
O O6 0.445483 0.742309 0.976713
O O7 0.616873 0.494499 0.129459
O O8 0.628468 0.993482 0.113170
O O9 0.132770 0.743775 0.402268
O O10 0.156858 0.751265 0.033321
O O11 0.000000 0.500000 0.500000
O O12 0.000000 0.000000 0.500000
#
# Coordination Sequence:
#
# PCOD8117852 Si02
#       6
#     2   4   4   4   4   4
#     4   8  22  34  60  86 102 142 194 244 276 314
#     4  10  19  34  53  75 114 144 185 218 260 340
#     4  10  19  35  58  85 104 142 189 236 278 309
#     4  10  20  35  56  86 110 140 184 238 277 329
#     4  10  21  33  50  81 110 150 177 215 272 332
#     4  12  23  36  56  85 121 148 177 227 290 340
#
# _framework density 17.547080000000001
#
# number of rings (size 3 to 8) (size 9 to 14) (size 15 to 20)
#    1.091    0.727    0.000    6.000    0.000    2.909 
#    0.000    0.000    0.000    1.091    0.000    0.000 
#    0.000    0.000    0.000    0.000    0.000    0.000 
#
# Total GULP energy -272700.662641 kJ/mol
# GULP energy per Si atom -12395.484666 kJ/mol
# Density = 1.750714 g / cm^3
# Si number density = 17.547080 Si / 1000 Ang^3
#
#
#
# Elastic Constant Matrix: (Units=GPa)
#
#
# Indices 1 2 3 4 5 6 
#
# 1 141.5995 68.1826 50.0677 0.0000 21.8846 0.0000
# 2 68.1826 168.6772 39.6406 0.0000 13.2985 0.0000
# 3 50.0677 39.6406 91.5321 0.0000 12.0120 0.0000
# 4 0.0000 0.0000 0.0000 11.8145 0.0000 6.4598
# 5 21.8846 13.2985 12.0120 0.0000 33.7968 0.0000
# 6 0.0000 0.0000 0.0000 6.4598 0.0000 28.6983
#
#
#
# Elastic Compliance Matrix: (Units=1/GPa)
#
#
# Indices 1 2 3 4 5 6 
#
# 1 0.010553 -0.003011 -0.003909 0.000000 -0.004259 0.000000
# 2 -0.003011 0.007549 -0.001561 0.000000 -0.000466 0.000000
# 3 -0.003909 -0.001561 0.013979 0.000000 -0.001823 0.000000
# 4 0.000000 0.000000 0.000000 0.096521 0.000000 -0.021726
# 5 -0.004259 -0.000466 -0.001823 0.000000 0.033177 0.000000
# 6 0.000000 0.000000 0.000000 -0.021726 0.000000 0.039736
#
#
# Mechanical properties :
#
#
# Convention : Reuss Voigt Hill
#
# Bulk Modulus (GPa) = 66.14871 79.73228 72.94050
# Shear Modulus (GPa) = 22.36969 31.12312 26.74640
#
# Velocity S-wave (km/s) = 3.57436 4.21609 3.90842
# Velocity P-wave (km/s) = 7.40368 8.32095 7.87568
#
# Compressibility (1/GPa) = 0.01511745
#
# Stress axis : x y z
#
# Youngs Moduli (GPa) = 94.76388 132.46361 71.53690
#
# Poissons Ratio (x) = 0.39886 0.27966
# Poissons Ratio (y) = 0.28534 0.11169
# Poissons Ratio (z) = 0.37046 0.20681
#
# Static dielectric constant tensor:
#      x y z
#    x 3.126950 0.000000 0.122220 
#    y 0.000000 3.881600 0.000000 
#    z 0.122220 0.000000 3.140220 
# 
# 
# High freq. dielectric constant tensor:
#      x y z
#    x 1.657130 0.000000 0.017410 
#    y 0.000000 1.704520 0.000000 
#    z 0.017410 0.000000 1.659100 
# 
# From -- ./inp_files/90654.got.cif
#   From: 2010.06.25/outbox.cif.g09.slc.cpg/sg13_46_cif.got.tgz:90654.got - 2010.06.28 04:50:58.
