data_PCOD8117342
_publ_section_title
;
Structure prediction by ZEFSAII (Michael W. Deem and Ramdas Pophale) SiO2 
 PCOD8117342
Probable space group: P 2/C
;
_chemical_formula_sum "Si O2"
_cell_formula_units_Z 22
_cell_length_a 22.421601
_cell_length_b 8.464122
_cell_length_c 15.565131
_cell_angle_alpha 90.000000
_cell_angle_beta 158.909041
_cell_angle_gamma 90.000000
_cell_volume 1062.973223
_symmetry_space_group_name_H-M "P 2/C"
_symmetry_group_IT_number 13
_symmetry_cell_setting 'monoclinic'
loop_
_space_group_symop_operation_xyz
x,y,z
-x,y,1/2-z
-x,-y,-z
x,-y,1/2+z
loop_
_atom_site_type_symbol
_atom_site_label
_atom_site_fract_x
_atom_site_fract_y
_atom_site_fract_z
Si Si1 0.500000 0.373781 0.250000
Si Si2 0.053098 0.322715 0.999248
Si Si3 0.196834 0.578161 0.865268
Si Si4 0.193926 0.920176 0.923836
Si Si5 0.262673 0.133411 0.863597
Si Si6 0.175603 0.030625 0.079779
O O1 0.638074 0.480848 0.389913
O O2 0.592951 0.263858 0.444378
O O3 0.185324 0.379623 0.248249
O O4 0.151022 0.219365 0.059934
O O5 0.965634 0.470007 0.832830
O O6 0.916772 0.215267 0.865484
O O7 0.213379 0.731462 0.946932
O O8 0.293093 0.007300 0.981013
O O9 0.000784 0.948133 0.655526
O O10 0.263477 0.991840 0.107140
O O11 0.281017 0.041505 0.799068
#
# Coordination Sequence:
#
# PCOD8117342 Si02
#       6
#     2   4   4   4   4   4
#     4  10  24  34  58  74 116 162 188 232 298 328
#     4   9  17  33  63  81 112 142 190 240 290 327
#     4  10  18  35  57  88 108 150 193 236 286 336
#     4  10  19  33  61  87 113 142 195 235 279 340
#     4  10  18  38  56  81 113 150 188 233 281 346
#     4  10  18  34  59  91 109 144 186 240 286 335
#
# _framework density 20.696663999999998
#
# number of rings (size 3 to 8) (size 9 to 14) (size 15 to 20)
#    0.000    2.182    3.636    1.091    0.000    0.727 
#    0.000   12.727    0.000    0.000    0.000    0.000 
#    0.000    0.000    0.000    0.000    0.000    0.000 
#
# Total GULP energy -272713.956977 kJ/mol
# GULP energy per Si atom -12396.088953 kJ/mol
# Density = 2.064956 g / cm^3
# Si number density = 20.696664 Si / 1000 Ang^3
#
#
#
# Elastic Constant Matrix: (Units=GPa)
#
#
# Indices 1 2 3 4 5 6 
#
# 1 84.2449 55.3828 46.3342 0.0000 -38.7616 0.0000
# 2 55.3828 162.8407 41.1846 0.0000 -18.9571 0.0000
# 3 46.3342 41.1846 68.0867 0.0000 -13.2430 0.0000
# 4 0.0000 0.0000 0.0000 30.0227 0.0000 -0.0866
# 5 -38.7616 -18.9571 -13.2430 0.0000 27.0070 0.0000
# 6 0.0000 0.0000 0.0000 -0.0866 0.0000 25.3340
#
#
#
# Elastic Compliance Matrix: (Units=1/GPa)
#
#
# Indices 1 2 3 4 5 6 
#
# 1 0.066626 -0.007025 -0.025923 0.000000 0.077982 0.000000
# 2 -0.007025 0.008258 -0.001159 0.000000 -0.004854 0.000000
# 3 -0.025923 -0.001159 0.028337 0.000000 -0.024124 0.000000
# 4 0.000000 0.000000 0.000000 0.033308 0.000000 0.000114
# 5 0.077982 -0.004854 -0.024124 0.000000 0.133714 0.000000
# 6 0.000000 0.000000 0.000000 0.000114 0.000000 0.039473
#
#
# Mechanical properties :
#
#
# Convention : Reuss Voigt Hill
#
# Bulk Modulus (GPa) = 28.56552 66.77504 47.67028
# Shear Modulus (GPa) = 12.83367 27.95745 20.39556
#
# Velocity S-wave (km/s) = 2.49285 3.67934 3.14260
# Velocity P-wave (km/s) = 4.70294 7.09815 6.02086
#
# Compressibility (1/GPa) = 0.03500724
#
# Stress axis : x y z
#
# Youngs Moduli (GPa) = 15.00909 121.09181 35.28951
#
# Poissons Ratio (x) = 0.85070 0.91482
# Poissons Ratio (y) = 0.10544 0.04089
# Poissons Ratio (z) = 0.38908 0.14030
#
# Static dielectric constant tensor:
#      x y z
#    x 3.561510 0.000000 -0.255940 
#    y 0.000000 4.095090 0.000000 
#    z -0.255940 0.000000 3.647490 
# 
# 
# High freq. dielectric constant tensor:
#      x y z
#    x 1.757590 0.000000 -0.015480 
#    y 0.000000 1.830790 0.000000 
#    z -0.015480 0.000000 1.795530 
# 
# From -- ./inp_files/58758.got.cif
#   From: 2010.06.25/outbox.cif.g09.slc.cpg/sg13_30_cif.got.tgz:58758.got - 2010.06.28 04:50:58.
