data_PCOD8117842
_publ_section_title
;
Structure prediction by ZEFSAII (Michael W. Deem and Ramdas Pophale) SiO2 
 PCOD8117842
Probable space group: P 2/C
;
_chemical_formula_sum "Si O2"
_cell_formula_units_Z 24
_cell_length_a 14.500635
_cell_length_b 11.521681
_cell_length_c 23.387593
_cell_angle_alpha 90.000000
_cell_angle_beta 18.504385
_cell_angle_gamma 90.000000
_cell_volume 1240.121295
_symmetry_space_group_name_H-M "P 2/C"
_symmetry_group_IT_number 13
_symmetry_cell_setting 'monoclinic'
loop_
_space_group_symop_operation_xyz
x,y,z
-x,y,1/2-z
-x,-y,-z
x,-y,1/2+z
loop_
_atom_site_type_symbol
_atom_site_label
_atom_site_fract_x
_atom_site_fract_y
_atom_site_fract_z
Si Si1 0.677572 0.036588 0.951783
Si Si2 0.786619 0.476336 0.213518
Si Si3 0.621191 0.630413 0.121077
Si Si4 0.618692 0.279386 0.025145
Si Si5 0.767868 0.338454 0.812551
Si Si6 0.261014 0.787269 0.552823
O O1 0.724129 0.926148 0.965984
O O2 0.000000 0.087424 0.750000
O O3 0.517158 0.144944 0.076738
O O4 0.500000 0.000000 0.000000
O O5 0.651505 0.562974 0.246171
O O6 0.643243 0.349251 0.291912
O O7 0.724968 0.533148 0.311888
O O8 0.132811 0.461363 0.003621
O O9 0.500000 0.692457 0.250000
O O10 0.769362 0.722372 0.990206
O O11 0.694460 0.345060 0.921938
O O12 0.908923 0.291285 0.892389
O O13 0.561799 0.244703 0.904695
O O14 0.000000 0.754108 0.750000
#
# Coordination Sequence:
#
# PCOD8117842 Si02
#       6
#     4   4   4   4   4   4
#     4  11  20  34  55  86 120 154 190 238 291 346
#     4  11  22  38  58  84 114 156 201 236 289 353
#     4  11  24  41  62  85 119 156 196 243 296 352
#     4  11  19  33  56  85 126 152 188 235 304 340
#     4  10  19  34  50  86 122 153 178 245 290 347
#     4  10  21  36  60  89 117 150 198 242 291 341
#
# _framework density 19.352945999999999
#
# number of rings (size 3 to 8) (size 9 to 14) (size 15 to 20)
#    0.000    1.333    5.000    2.000    2.333    1.333 
#    0.000    0.000    0.000    2.000    0.000    0.000 
#    0.000    0.000    0.000    0.000    0.000    0.000 
#
# Total GULP energy -297471.331970 kJ/mol
# GULP energy per Si atom -12394.638832 kJ/mol
# Density = 1.930890 g / cm^3
# Si number density = 19.352946 Si / 1000 Ang^3
#
#
#
# Elastic Constant Matrix: (Units=GPa)
#
#
# Indices 1 2 3 4 5 6 
#
# 1 82.9535 36.1890 48.1278 0.0000 -0.5350 0.0000
# 2 36.1890 114.6687 21.6490 0.0000 10.2591 0.0000
# 3 48.1278 21.6490 53.4857 0.0000 -1.1008 0.0000
# 4 0.0000 0.0000 0.0000 21.5659 0.0000 -5.9430
# 5 -0.5350 10.2591 -1.1008 0.0000 40.4104 0.0000
# 6 0.0000 0.0000 0.0000 -5.9430 0.0000 13.3411
#
#
#
# Elastic Compliance Matrix: (Units=1/GPa)
#
#
# Indices 1 2 3 4 5 6 
#
# 1 0.027047 -0.004353 -0.022559 0.000000 0.000849 0.000000
# 2 -0.004353 0.010403 -0.000349 0.000000 -0.002708 0.000000
# 3 -0.022559 -0.000349 0.039155 0.000000 0.000857 0.000000
# 4 0.000000 0.000000 0.000000 0.052858 0.000000 0.023546
# 5 0.000849 -0.002708 0.000857 0.000000 0.025468 0.000000
# 6 0.000000 0.000000 0.000000 0.023546 0.000000 0.085445
#
#
# Mechanical properties :
#
#
# Convention : Reuss Voigt Hill
#
# Bulk Modulus (GPa) = 45.28449 51.44885 48.36667
# Shear Modulus (GPa) = 16.54208 24.73964 20.64086
#
# Velocity S-wave (km/s) = 2.92680 3.57927 3.26935
# Velocity P-wave (km/s) = 5.90522 6.61239 6.26879
#
# Compressibility (1/GPa) = 0.02208261
#
# Stress axis : x y z
#
# Youngs Moduli (GPa) = 36.97201 96.12761 25.53983
#
# Poissons Ratio (x) = 0.41845 0.57614
# Poissons Ratio (y) = 0.16094 0.00893
# Poissons Ratio (z) = 0.83404 0.03359
#
# Static dielectric constant tensor:
#      x y z
#    x 3.602380 0.000000 -0.358890 
#    y 0.000000 3.573340 0.000000 
#    z -0.358890 0.000000 3.468150 
# 
# 
# High freq. dielectric constant tensor:
#      x y z
#    x 1.738810 0.000000 -0.043210 
#    y 0.000000 1.750600 0.000000 
#    z -0.043210 0.000000 1.739050 
# 
# From -- ./inp_files/87476.got.cif
#   From: 2010.06.25/outbox.cif.g09.slc.cpg/sg13_44_cif.got.tgz:87476.got - 2010.06.28 04:50:58.
