data_PCOD8117921
_publ_section_title
;
Structure prediction by ZEFSAII (Michael W. Deem and Ramdas Pophale) SiO2 
 PCOD8117921
Probable space group: P 2/C
;
_chemical_formula_sum "Si O2"
_cell_formula_units_Z 32
_cell_length_a 17.613968
_cell_length_b 6.806172
_cell_length_c 30.099851
_cell_angle_alpha 90.000000
_cell_angle_beta 29.085880
_cell_angle_gamma 90.000000
_cell_volume 1754.155087
_symmetry_space_group_name_H-M "P 2/C"
_symmetry_group_IT_number 13
_symmetry_cell_setting 'monoclinic'
loop_
_space_group_symop_operation_xyz
x,y,z
-x,y,1/2-z
-x,-y,-z
x,-y,1/2+z
loop_
_atom_site_type_symbol
_atom_site_label
_atom_site_fract_x
_atom_site_fract_y
_atom_site_fract_z
Si Si1 0.177860 0.442235 0.170419
Si Si2 0.311801 0.291732 0.672554
Si Si3 0.603132 0.558739 0.519039
Si Si4 0.398000 0.104867 0.089126
Si Si5 0.397543 0.833355 0.761249
Si Si6 0.183243 0.486454 0.406989
Si Si7 0.656015 0.245697 0.745044
Si Si8 0.379022 0.511344 0.891545
O O1 0.183180 0.591338 0.209599
O O2 0.262370 0.237122 0.137150
O O3 0.000000 0.395281 0.250000
O O4 0.261056 0.549007 0.086589
O O5 0.481340 0.381324 0.573607
O O6 0.269541 0.316876 0.746237
O O7 0.312802 0.060259 0.662006
O O8 0.511545 0.764590 0.561822
O O9 0.682777 0.540375 0.526769
O O10 0.500000 0.000000 0.000000
O O11 0.500000 0.913100 0.750000
O O12 0.243378 0.719505 0.856695
O O13 0.502390 0.687972 0.678831
O O14 0.338839 0.010996 0.761012
O O15 0.250718 0.665892 0.344018
O O16 0.234603 0.501019 0.432046
O O17 0.000000 0.500000 0.500000
O O18 0.475001 0.309665 0.836696
#
# Coordination Sequence:
#
# PCOD8117921 Si02
#       8
#     4   4   4   4   4   4   4   4
#     4  11  23  36  54  82 118 148 178 227 284 337
#     4  10  20  36  58  82 105 142 188 231 273 331
#     4  10  19  35  57  81 106 145 187 231 274 332
#     4  11  18  36  61  80 109 143 192 231 276 327
#     4   9  17  33  55  79 105 135 181 231 268 314
#     4  10  21  35  53  77 114 148 175 220 280 332
#     4  10  19  34  58  81 103 137 187 230 270 318
#     4   9  19  34  55  81 104 139 186 229 270 320
#
# _framework density 18.2424
#
# number of rings (size 3 to 8) (size 9 to 14) (size 15 to 20)
#    0.000    2.000    2.500    3.375    0.000    3.000 
#    0.000    0.000    0.000    1.500    0.000    0.000 
#    0.000    0.000    0.000    0.000    0.000    0.000 
#
# Total GULP energy -396825.228264 kJ/mol
# GULP energy per Si atom -12400.788383 kJ/mol
# Density = 1.820088 g / cm^3
# Si number density = 18.242400 Si / 1000 Ang^3
#
#
#
# Elastic Constant Matrix: (Units=GPa)
#
#
# Indices 1 2 3 4 5 6 
#
# 1 136.5108 49.6493 59.6727 0.0000 -0.3580 0.0000
# 2 49.6493 113.8082 29.2310 0.0000 -3.3827 0.0000
# 3 59.6727 29.2310 62.2632 0.0000 -11.6995 0.0000
# 4 0.0000 0.0000 0.0000 13.5027 0.0000 5.0243
# 5 -0.3580 -3.3827 -11.6995 0.0000 27.2229 0.0000
# 6 0.0000 0.0000 0.0000 5.0243 0.0000 25.8175
#
#
#
# Elastic Compliance Matrix: (Units=1/GPa)
#
#
# Indices 1 2 3 4 5 6 
#
# 1 0.014222 -0.002949 -0.013358 0.000000 -0.005920 0.000000
# 2 -0.002949 0.010621 -0.002088 0.000000 0.000384 0.000000
# 3 -0.013358 -0.002088 0.032376 0.000000 0.013479 0.000000
# 4 0.000000 0.000000 0.000000 0.079841 0.000000 -0.015538
# 5 -0.005920 0.000384 0.013479 0.000000 0.042496 0.000000
# 6 0.000000 0.000000 0.000000 -0.015538 0.000000 0.041757
#
#
# Mechanical properties :
#
#
# Convention : Reuss Voigt Hill
#
# Bulk Modulus (GPa) = 48.94996 65.52091 57.23544
# Shear Modulus (GPa) = 18.87426 24.91058 21.89242
#
# Velocity S-wave (km/s) = 3.22007 3.69932 3.46798
# Velocity P-wave (km/s) = 6.38094 7.36488 6.89050
#
# Compressibility (1/GPa) = 0.02042902
#
# Stress axis : x y z
#
# Youngs Moduli (GPa) = 70.31561 94.15353 30.88755
#
# Poissons Ratio (x) = 0.27769 0.41259
# Poissons Ratio (y) = 0.20739 0.06448
# Poissons Ratio (z) = 0.93925 0.19655
#
# Static dielectric constant tensor:
#      x y z
#    x 3.474750 0.000000 0.225130 
#    y 0.000000 6.095270 0.000000 
#    z 0.225130 0.000000 3.096470 
# 
# 
# High freq. dielectric constant tensor:
#      x y z
#    x 1.712300 0.000000 0.021640 
#    y 0.000000 1.713080 0.000000 
#    z 0.021640 0.000000 1.679600 
# 
# From -- ./inp_files/97242.got.cif
#   From: 2010.06.25/outbox.cif.g09.slc.cpg/sg13_49_cif.got.tgz:97242.got - 2010.06.28 04:50:58.
