data_PCOD8117779
_publ_section_title
;
Structure prediction by ZEFSAII (Michael W. Deem and Ramdas Pophale) SiO2 
 PCOD8117779
Probable space group: P 2/C
;
_chemical_formula_sum "Si O2"
_cell_formula_units_Z 32
_cell_length_a 29.497726
_cell_length_b 9.042572
_cell_length_c 20.653650
_cell_angle_alpha 90.000000
_cell_angle_beta 160.982571
_cell_angle_gamma 90.000000
_cell_volume 1795.158203
_symmetry_space_group_name_H-M "P 2/C"
_symmetry_group_IT_number 13
_symmetry_cell_setting 'monoclinic'
loop_
_space_group_symop_operation_xyz
x,y,z
-x,y,1/2-z
-x,-y,-z
x,-y,1/2+z
loop_
_atom_site_type_symbol
_atom_site_label
_atom_site_fract_x
_atom_site_fract_y
_atom_site_fract_z
Si Si1 0.398269 0.360185 0.058448
Si Si2 0.537720 0.595740 0.455795
Si Si3 0.037508 0.737352 0.568753
Si Si4 0.063507 0.344407 0.900378
Si Si5 0.237118 0.160980 0.236628
Si Si6 0.241377 0.172423 0.745306
Si Si7 0.115253 0.461605 0.735870
Si Si8 0.711592 0.587304 0.293011
O O1 0.500000 0.291371 0.250000
O O2 0.468273 0.503757 0.119225
O O3 0.359090 0.236633 0.952526
O O4 0.265898 0.410542 0.919601
O O5 0.621786 0.747891 0.560418
O O6 0.381371 0.629461 0.269729
O O7 0.618143 0.497133 0.615519
O O8 0.907745 0.829313 0.420337
O O9 0.000127 0.615112 0.464877
O O10 0.149301 0.843702 0.685166
O O11 0.105271 0.640426 0.718054
O O12 0.000000 0.269303 0.750000
O O13 0.925169 0.408555 0.747492
O O14 0.147306 0.223253 0.055154
O O15 0.161643 0.483172 0.014632
O O16 0.281647 0.993932 0.280510
O O17 0.231984 0.265543 0.666233
#
# Coordination Sequence:
#
# PCOD8117779 Si02
#       8
#     4   4   4   4   4   4   4   4
#     4  10  20  33  53  77 103 133 173 221 263 304
#     4   9  18  33  52  74  98 132 176 212 246 301
#     4   9  15  30  54  80 100 124 175 219 248 304
#     4  10  20  33  53  77 103 133 173 221 263 304
#     4  10  19  33  54  79 105 139 174 210 257 314
#     4  10  19  33  54  79 105 139 174 210 257 314
#     4   9  16  30  54  78  98 126 170 220 260 292
#     4   9  18  33  52  74  98 132 176 212 246 301
#
# _framework density 17.825728000000002
#
# number of rings (size 3 to 8) (size 9 to 14) (size 15 to 20)
#    0.000    2.500    2.500    0.375    1.750    0.500 
#    0.000    1.250    0.000    0.000    0.000    0.000 
#    0.000    0.000    0.000    0.000    0.000    0.000 
#
# Total GULP energy -396619.769136 kJ/mol
# GULP energy per Si atom -12394.367786 kJ/mol
# Density = 1.778516 g / cm^3
# Si number density = 17.825728 Si / 1000 Ang^3
#
#
#
# Elastic Constant Matrix: (Units=GPa)
#
#
# Indices 1 2 3 4 5 6 
#
# 1 93.7261 32.9926 36.3760 0.0000 14.7609 0.0000
# 2 32.9926 112.2524 29.9924 0.0000 1.9049 0.0000
# 3 36.3760 29.9924 46.1357 0.0000 -3.1050 0.0000
# 4 0.0000 0.0000 0.0000 11.5244 0.0000 0.8190
# 5 14.7609 1.9049 -3.1050 0.0000 30.8588 0.0000
# 6 0.0000 0.0000 0.0000 0.8190 0.0000 16.9171
#
#
#
# Elastic Compliance Matrix: (Units=1/GPa)
#
#
# Indices 1 2 3 4 5 6 
#
# 1 0.018238 -0.001412 -0.014139 0.000000 -0.010060 0.000000
# 2 -0.001412 0.010949 -0.006046 0.000000 -0.000609 0.000000
# 3 -0.014139 -0.006046 0.037488 0.000000 0.010908 0.000000
# 4 0.000000 0.000000 0.000000 0.087072 0.000000 -0.004216
# 5 -0.010060 -0.000609 0.010908 0.000000 0.038353 0.000000
# 6 0.000000 0.000000 0.000000 -0.004216 0.000000 0.059316
#
#
# Mechanical properties :
#
#
# Convention : Reuss Voigt Hill
#
# Bulk Modulus (GPa) = 42.58672 50.09291 46.33982
# Shear Modulus (GPa) = 16.53242 22.04361 19.28802
#
# Velocity S-wave (km/s) = 3.04871 3.52037 3.29299
# Velocity P-wave (km/s) = 6.02787 6.68480 6.36482
#
# Compressibility (1/GPa) = 0.02348150
#
# Stress axis : x y z
#
# Youngs Moduli (GPa) = 54.82993 91.33134 26.67547
#
# Poissons Ratio (x) = 0.12896 0.37717
# Poissons Ratio (y) = 0.07742 0.16127
# Poissons Ratio (z) = 0.77525 0.55216
#
# Static dielectric constant tensor:
#      x y z
#    x 3.500230 0.000000 0.237840 
#    y 0.000000 3.062710 0.000000 
#    z 0.237840 0.000000 3.176030 
# 
# 
# High freq. dielectric constant tensor:
#      x y z
#    x 1.694370 0.000000 0.020450 
#    y 0.000000 1.665750 0.000000 
#    z 0.020450 0.000000 1.668190 
# 
# From -- ./inp_files/82803.got.cif
#   From: 2010.06.25/outbox.cif.g09.slc.cpg/sg13_42_cif.got.tgz:82803.got - 2010.06.28 04:50:58.
