data_PCOD8117368
_publ_section_title
;
Structure prediction by ZEFSAII (Michael W. Deem and Ramdas Pophale) SiO2 
 PCOD8117368
Probable space group: P 2/C
;
_chemical_formula_sum "Si O2"
_cell_formula_units_Z 28
_cell_length_a 8.933370
_cell_length_b 11.636190
_cell_length_c 14.512168
_cell_angle_alpha 90.000000
_cell_angle_beta 56.048370
_cell_angle_gamma 90.000000
_cell_volume 1251.352634
_symmetry_space_group_name_H-M "P 2/C"
_symmetry_group_IT_number 13
_symmetry_cell_setting 'monoclinic'
loop_
_space_group_symop_operation_xyz
x,y,z
-x,y,1/2-z
-x,-y,-z
x,-y,1/2+z
loop_
_atom_site_type_symbol
_atom_site_label
_atom_site_fract_x
_atom_site_fract_y
_atom_site_fract_z
Si Si1 0.879922 0.286797 0.147410
Si Si2 0.796698 0.092175 0.295312
Si Si3 0.123686 0.462363 0.795751
Si Si4 0.426071 0.617783 0.071168
Si Si5 0.875736 0.072985 0.612861
Si Si6 0.120518 0.271557 0.554645
Si Si7 0.724326 0.196311 0.497974
O O1 0.763777 0.218493 0.262807
O O2 0.841325 0.420649 0.163686
O O3 0.087451 0.255276 0.094076
O O4 0.813670 0.244832 0.070735
O O5 0.683678 0.099182 0.430972
O O6 0.000000 0.063148 0.250000
O O7 0.754616 0.997436 0.229716
O O8 0.318020 0.414404 0.700148
O O9 0.000000 0.485681 0.750000
O O10 0.023956 0.375360 0.898396
O O11 0.293843 0.695408 0.054101
O O12 0.500000 0.500000 0.000000
O O13 0.584405 0.700408 0.048208
O O14 0.733164 0.139858 0.596296
O O15 0.008567 0.158534 0.625510
O O16 0.000000 0.000000 0.500000
#
# Coordination Sequence:
#
# PCOD8117368 Si02
#       7
#     4   4   4   4   4   4   4
#     4  10  18  36  64  90 119 160 224 258 309 396
#     4  10  18  34  67  94 118 167 212 267 316 374
#     4  10  20  36  60  93 121 168 212 258 324 398
#     4  11  23  42  62  93 138 169 206 274 336 390
#     4  11  20  41  68  92 126 165 225 264 308 384
#     4  10  22  38  63  89 126 167 214 262 321 393
#     4  10  21  38  66  99 130 166 219 271 328 377
#
# _framework density 22.375788
#
# number of rings (size 3 to 8) (size 9 to 14) (size 15 to 20)
#    0.000    1.714    4.286    4.286    0.000    2.857 
#    0.000    9.286    3.143    0.000    0.000    0.000 
#    0.000    0.000    0.000    0.000    0.000    0.000 
#
# Total GULP energy -346906.571587 kJ/mol
# GULP energy per Si atom -12389.520414 kJ/mol
# Density = 2.232486 g / cm^3
# Si number density = 22.375788 Si / 1000 Ang^3
#
#
#
# Elastic Constant Matrix: (Units=GPa)
#
#
# Indices 1 2 3 4 5 6 
#
# 1 67.8194 46.7231 27.0006 0.0000 2.2987 0.0000
# 2 46.7231 120.7630 9.6017 0.0000 7.2472 0.0000
# 3 27.0006 9.6017 52.9280 0.0000 13.1869 0.0000
# 4 0.0000 0.0000 0.0000 29.5116 0.0000 4.8028
# 5 2.2987 7.2472 13.1869 0.0000 21.3086 0.0000
# 6 0.0000 0.0000 0.0000 4.8028 0.0000 37.6960
#
#
#
# Elastic Compliance Matrix: (Units=1/GPa)
#
#
# Indices 1 2 3 4 5 6 
#
# 1 0.026855 -0.009814 -0.014222 0.000000 0.009242 0.000000
# 2 -0.009814 0.012082 0.004227 0.000000 -0.005666 0.000000
# 3 -0.014222 0.004227 0.029981 0.000000 -0.018457 0.000000
# 4 0.000000 0.000000 0.000000 0.034602 0.000000 -0.004409
# 5 0.009242 -0.005666 -0.018457 0.000000 0.059282 0.000000
# 6 0.000000 0.000000 0.000000 -0.004409 0.000000 0.027090
#
#
# Mechanical properties :
#
#
# Convention : Reuss Voigt Hill
#
# Bulk Modulus (GPa) = 34.13213 45.35127 39.74170
# Shear Modulus (GPa) = 20.89624 28.24890 24.57257
#
# Velocity S-wave (km/s) = 3.05926 3.55699 3.31747
# Velocity P-wave (km/s) = 5.26933 6.09767 5.69857
#
# Compressibility (1/GPa) = 0.02929791
#
# Stress axis : x y z
#
# Youngs Moduli (GPa) = 37.23652 82.76937 33.35478
#
# Poissons Ratio (x) = 0.81231 0.47438
# Poissons Ratio (y) = 0.36545 -0.14097
# Poissons Ratio (z) = 0.52959 -0.34982
#
# Static dielectric constant tensor:
#      x y z
#    x 3.801080 0.000000 0.291610 
#    y 0.000000 4.364720 0.000000 
#    z 0.291610 0.000000 4.259850 
# 
# 
# High freq. dielectric constant tensor:
#      x y z
#    x 1.851680 0.000000 0.024970 
#    y 0.000000 1.894240 0.000000 
#    z 0.024970 0.000000 1.875460 
# 
# From -- ./inp_files/47094.got.cif
#   From: 2010.06.25/outbox.cif.g09.slc.cpg/sg13_24_cif.got.tgz:47094.got - 2010.06.28 04:50:58.
