data_PCOD8117534
_publ_section_title
;
Structure prediction by ZEFSAII (Michael W. Deem and Ramdas Pophale) SiO2 
 PCOD8117534
Probable space group: P 2/C
;
_chemical_formula_sum "Si O2"
_cell_formula_units_Z 32
_cell_length_a 9.011722
_cell_length_b 23.240044
_cell_length_c 15.293626
_cell_angle_alpha 90.000000
_cell_angle_beta 151.044337
_cell_angle_gamma 90.000000
_cell_volume 1550.670728
_symmetry_space_group_name_H-M "P 2/C"
_symmetry_group_IT_number 13
_symmetry_cell_setting 'monoclinic'
loop_
_space_group_symop_operation_xyz
x,y,z
-x,y,1/2-z
-x,-y,-z
x,-y,1/2+z
loop_
_atom_site_type_symbol
_atom_site_label
_atom_site_fract_x
_atom_site_fract_y
_atom_site_fract_z
Si Si1 0.270612 0.577363 0.442765
Si Si2 0.693516 0.659632 0.433988
Si Si3 0.362011 0.740651 0.942003
Si Si4 0.633735 0.129832 0.059483
Si Si5 0.621150 0.071818 0.403091
Si Si6 0.747022 0.453368 0.052593
Si Si7 0.601124 0.321550 0.206886
Si Si8 0.649005 0.947182 0.235216
O O1 0.172446 0.517738 0.442550
O O2 0.438228 0.549465 0.447143
O O3 0.457391 0.616441 0.606867
O O4 0.000000 0.610513 0.250000
O O5 0.500000 0.676054 0.250000
O O6 0.531752 0.693868 0.430986
O O7 0.707017 0.590869 0.452077
O O8 0.036830 0.680365 0.599848
O O9 0.464950 0.805339 0.017164
O O10 0.508575 0.723043 0.924079
O O11 0.000000 0.737556 0.750000
O O12 0.468589 0.115230 0.065975
O O13 0.000000 0.122504 0.250000
O O14 0.502885 0.089040 0.918744
O O15 0.500000 0.099311 0.250000
O O16 0.984249 0.060179 0.580676
O O17 0.435417 0.013253 0.325116
O O18 0.000000 0.428456 0.250000
O O19 0.500000 0.301321 0.250000
O O20 0.500000 0.926430 0.250000
#
# Coordination Sequence:
#
# PCOD8117534 Si02
#       8
#     4   4   4   4   4   4   4   4
#     4  10  21  34  60  88 118 149 189 237 300 348
#     4  11  22  40  63  84 112 156 198 236 295 359
#     4   9  21  43  63  81 115 157 200 247 297 346
#     4  11  22  39  64  90 119 160 206 252 301 359
#     4  11  22  39  62  93 129 165 202 247 298 353
#     4  10  18  38  61  83 115 157 188 236 291 361
#     4  11  23  40  60  88 116 148 194 249 293 351
#     4  11  22  39  62  93 129 165 202 247 296 355
#
# _framework density 20.636232
#
# number of rings (size 3 to 8) (size 9 to 14) (size 15 to 20)
#    0.000    1.500    2.500    4.125    1.750    1.500 
#    0.000    7.500    0.000    0.000    0.000    0.000 
#    0.000    0.000    0.000    0.000    0.000    0.000 
#
# Total GULP energy -396508.435997 kJ/mol
# GULP energy per Si atom -12390.888625 kJ/mol
# Density = 2.058926 g / cm^3
# Si number density = 20.636232 Si / 1000 Ang^3
#
#
#
# Elastic Constant Matrix: (Units=GPa)
#
#
# Indices 1 2 3 4 5 6 
#
# 1 118.1502 30.1681 35.5108 0.0000 -10.2198 0.0000
# 2 30.1681 64.7444 24.7506 0.0000 -11.2858 0.0000
# 3 35.5108 24.7506 112.8430 0.0000 -4.6731 0.0000
# 4 0.0000 0.0000 0.0000 9.3345 0.0000 -0.4439
# 5 -10.2198 -11.2858 -4.6731 0.0000 42.1294 0.0000
# 6 0.0000 0.0000 0.0000 -0.4439 0.0000 19.1264
#
#
#
# Elastic Compliance Matrix: (Units=1/GPa)
#
#
# Indices 1 2 3 4 5 6 
#
# 1 0.010210 -0.003638 -0.002364 0.000000 0.001240 0.000000
# 2 -0.003638 0.018900 -0.002841 0.000000 0.003865 0.000000
# 3 -0.002364 -0.002841 0.010221 0.000000 -0.000201 0.000000
# 4 0.000000 0.000000 0.000000 0.107248 0.000000 0.002489
# 5 0.001240 0.003865 -0.000201 0.000000 0.025050 0.000000
# 6 0.000000 0.000000 0.000000 0.002489 0.000000 0.052342
#
#
# Mechanical properties :
#
#
# Convention : Reuss Voigt Hill
#
# Bulk Modulus (GPa) = 46.19689 52.95519 49.57604
# Shear Modulus (GPa) = 20.09072 27.80526 23.94799
#
# Velocity S-wave (km/s) = 3.12359 3.67468 3.41028
# Velocity P-wave (km/s) = 5.95348 6.61221 6.29147
#
# Compressibility (1/GPa) = 0.02164648
#
# Stress axis : x y z
#
# Youngs Moduli (GPa) = 97.93926 52.90967 97.84248
#
# Poissons Ratio (x) = 0.19247 0.23129
# Poissons Ratio (y) = 0.35628 0.27793
# Poissons Ratio (z) = 0.23152 0.15030
#
# Static dielectric constant tensor:
#      x y z
#    x 4.017500 0.000000 0.125760 
#    y 0.000000 4.129650 0.000000 
#    z 0.125760 0.000000 3.782530 
# 
# 
# High freq. dielectric constant tensor:
#      x y z
#    x 1.802770 0.000000 0.004410 
#    y 0.000000 1.800040 0.000000 
#    z 0.004410 0.000000 1.810300 
# 
# From -- ./inp_files/48306.got.cif
#   From: 2010.06.25/outbox.cif.g09.slc.cpg/sg13_25_cif.got.tgz:48306.got - 2010.06.28 04:50:58.
