data_PCOD8117412
_publ_section_title
;
Structure prediction by ZEFSAII (Michael W. Deem and Ramdas Pophale) SiO2 
 PCOD8117412
Probable space group: P 2/C
;
_chemical_formula_sum "Si O2"
_cell_formula_units_Z 28
_cell_length_a 11.578948
_cell_length_b 15.582245
_cell_length_c 7.713859
_cell_angle_alpha 90.000000
_cell_angle_beta 116.284865
_cell_angle_gamma 90.000000
_cell_volume 1247.875415
_symmetry_space_group_name_H-M "P 2/C"
_symmetry_group_IT_number 13
_symmetry_cell_setting 'monoclinic'
loop_
_space_group_symop_operation_xyz
x,y,z
-x,y,1/2-z
-x,-y,-z
x,-y,1/2+z
loop_
_atom_site_type_symbol
_atom_site_label
_atom_site_fract_x
_atom_site_fract_y
_atom_site_fract_z
Si Si1 0.764301 0.912242 0.977661
Si Si2 0.000000 0.337588 0.750000
Si Si3 0.575114 0.702940 0.078247
Si Si4 0.859825 0.915307 0.665390
Si Si5 0.500000 0.168941 0.250000
Si Si6 0.255901 0.416237 0.053799
Si Si7 0.611465 0.434875 0.017261
Si Si8 0.823358 0.211181 0.833515
O O1 0.841564 0.890015 0.853806
O O2 0.619302 0.893753 0.832771
O O3 0.818765 0.855119 0.170241
O O4 0.763504 0.012036 0.031470
O O5 0.068220 0.281052 0.645578
O O6 0.894040 0.398508 0.586218
O O7 0.682529 0.746169 0.272744
O O8 0.496344 0.774247 0.920708
O O9 0.653531 0.644464 0.997023
O O10 0.467856 0.646831 0.110656
O O11 0.857155 0.832411 0.538538
O O12 0.000000 0.958277 0.750000
O O13 0.291084 0.397970 0.274615
O O14 0.294930 0.517166 0.056436
O O15 0.500000 0.500000 0.000000
#
# Coordination Sequence:
#
# PCOD8117412 Si02
#       8
#     4   2   4   4   2   4   4   4
#     4  11  24  40  66  96 127 173 219 273 331 390
#     4  10  22  40  64  86 130 176 210 264 334 390
#     4   9  17  37  61  86 119 166 207 257 328 384
#     4  12  24  42  64  96 128 171 232 268 319 399
#     4  10  20  40  62  92 130 168 214 268 340 384
#     4  10  20  35  63  89 123 167 208 255 322 388
#     4  10  18  35  62  90 116 159 210 256 310 394
#     4  10  22  41  66  89 127 176 215 274 332 380
#
# _framework density 22.438137000000001
#
# number of rings (size 3 to 8) (size 9 to 14) (size 15 to 20)
#    0.000    1.714    2.857    2.571    1.000    1.143 
#    0.000    7.143    3.143    0.000    0.000    0.000 
#    0.000    0.000    0.000    0.000    0.000    0.000 
#
# Total GULP energy -346982.008759 kJ/mol
# GULP energy per Si atom -12392.214599 kJ/mol
# Density = 2.238707 g / cm^3
# Si number density = 22.438137 Si / 1000 Ang^3
#
#
#
# Elastic Constant Matrix: (Units=GPa)
#
#
# Indices 1 2 3 4 5 6 
#
# 1 73.3467 45.0675 38.2161 0.0000 13.3444 0.0000
# 2 45.0675 98.2323 27.9775 0.0000 14.1074 0.0000
# 3 38.2161 27.9775 108.2531 0.0000 5.3148 0.0000
# 4 0.0000 0.0000 0.0000 16.7963 0.0000 21.9352
# 5 13.3444 14.1074 5.3148 0.0000 44.3026 0.0000
# 6 0.0000 0.0000 0.0000 21.9352 0.0000 29.6145
#
#
#
# Elastic Compliance Matrix: (Units=1/GPa)
#
#
# Indices 1 2 3 4 5 6 
#
# 1 0.022107 -0.008070 -0.005551 0.000000 -0.003423 0.000000
# 2 -0.008070 0.014398 -0.000771 0.000000 -0.002062 0.000000
# 3 -0.005551 -0.000771 0.011369 0.000000 0.000554 0.000000
# 4 0.000000 0.000000 0.000000 1.821242 0.000000 -1.348980
# 5 -0.003423 -0.002062 0.000554 0.000000 0.024193 0.000000
# 6 0.000000 0.000000 0.000000 -1.348980 0.000000 1.032947
#
#
# Mechanical properties :
#
#
# Convention : Reuss Voigt Hill
#
# Bulk Modulus (GPa) = 52.38015 55.81714 54.09864
# Shear Modulus (GPa) = 1.68839 29.38075 15.53457
#
# Velocity S-wave (km/s) = 0.86839 3.62250 2.63407
# Velocity P-wave (km/s) = 4.93968 6.51358 5.78045
#
# Compressibility (1/GPa) = 0.01909120
#
# Stress axis : x y z
#
# Youngs Moduli (GPa) = 45.23370 69.45415 87.95663
#
# Poissons Ratio (x) = 0.56050 0.48823
# Poissons Ratio (y) = 0.36504 0.06781
# Poissons Ratio (z) = 0.25108 0.05355
#
# Static dielectric constant tensor:
#      x y z
#    x 3.969580 0.000000 0.268850 
#    y 0.000000 4.287260 0.000000 
#    z 0.268850 0.000000 4.082680 
# 
# 
# High freq. dielectric constant tensor:
#      x y z
#    x 1.868610 0.000000 0.010450 
#    y 0.000000 1.882660 0.000000 
#    z 0.010450 0.000000 1.899970 
# 
# From -- ./inp_files/16892.got.cif
#   From: 2010.06.25/outbox.cif.g09.slc.cpg/sg13_9_cif.got.tgz:16892.got - 2010.06.28 04:50:58.
