data_PCOD8117427
_publ_section_title
;
Structure prediction by ZEFSAII (Michael W. Deem and Ramdas Pophale) SiO2 
 PCOD8117427
Probable space group: P 2/C
;
_chemical_formula_sum "Si O2"
_cell_formula_units_Z 30
_cell_length_a 13.737547
_cell_length_b 9.434328
_cell_length_c 18.649508
_cell_angle_alpha 90.000000
_cell_angle_beta 38.605404
_cell_angle_gamma 90.000000
_cell_volume 1508.132958
_symmetry_space_group_name_H-M "P 2/C"
_symmetry_group_IT_number 13
_symmetry_cell_setting 'monoclinic'
loop_
_space_group_symop_operation_xyz
x,y,z
-x,y,1/2-z
-x,-y,-z
x,-y,1/2+z
loop_
_atom_site_type_symbol
_atom_site_label
_atom_site_fract_x
_atom_site_fract_y
_atom_site_fract_z
Si Si1 0.365284 0.707235 0.465168
Si Si2 0.999266 0.186419 0.879082
Si Si3 0.848815 0.562657 0.382198
Si Si4 0.500000 0.391841 0.750000
Si Si5 0.700428 0.686394 0.337565
Si Si6 0.221897 0.503938 0.335390
Si Si7 0.908045 0.894125 0.874984
Si Si8 0.996780 0.733663 0.969313
O O1 0.246296 0.573945 0.537226
O O2 0.419365 0.715275 0.351931
O O3 0.516169 0.708952 0.430343
O O4 0.270764 0.850133 0.536742
O O5 0.911690 0.335545 0.910167
O O6 0.183122 0.183256 0.749805
O O7 0.913875 0.061426 0.885779
O O8 0.992184 0.160594 0.968887
O O9 0.724902 0.651341 0.406551
O O10 0.000000 0.513402 0.250000
O O11 0.606360 0.501609 0.731496
O O12 0.768645 0.557231 0.251412
O O13 0.129090 0.611683 0.441045
O O14 0.161425 0.344917 0.366971
O O15 0.968047 0.813265 0.911503
O O16 0.000000 0.852267 0.750000
#
# Coordination Sequence:
#
# PCOD8117427 Si02
#       8
#     4   4   4   2   4   4   4   4
#     4  11  22  36  62  91 120 157 201 260 297 356
#     4  10  22  42  63  85 120 170 203 239 296 371
#     4  10  20  37  63  91 123 156 201 246 305 360
#     4  10  18  36  54  84 124 154 196 244 316 358
#     4   9  20  36  62  88 127 157 198 242 320 356
#     4   9  18  32  60  91 116 153 198 254 301 347
#     4  12  25  39  62  92 124 156 208 250 297 353
#     4  10  20  37  60  86 118 155 204 248 290 354
#
# _framework density 19.892144999999999
#
# number of rings (size 3 to 8) (size 9 to 14) (size 15 to 20)
#    0.000    1.867    1.333    3.200    7.467    0.000 
#    0.000    2.667    2.933    0.800    0.000    0.000 
#    0.000    0.000    0.000    0.000    0.000    0.000 
#
# Total GULP energy -371738.308078 kJ/mol
# GULP energy per Si atom -12391.276936 kJ/mol
# Density = 1.984687 g / cm^3
# Si number density = 19.892145 Si / 1000 Ang^3
#
#
#
# Elastic Constant Matrix: (Units=GPa)
#
#
# Indices 1 2 3 4 5 6 
#
# 1 112.4679 31.2173 46.4729 0.0000 2.0444 0.0000
# 2 31.2173 72.3518 37.3294 0.0000 -17.7853 0.0000
# 3 46.4729 37.3294 100.4725 0.0000 -5.3492 0.0000
# 4 0.0000 0.0000 0.0000 14.0743 0.0000 -5.3623
# 5 2.0444 -17.7853 -5.3492 0.0000 37.2565 0.0000
# 6 0.0000 0.0000 0.0000 -5.3623 0.0000 21.6186
#
#
#
# Elastic Compliance Matrix: (Units=1/GPa)
#
#
# Indices 1 2 3 4 5 6 
#
# 1 0.011690 -0.003589 -0.004231 0.000000 -0.002962 0.000000
# 2 -0.003589 0.020432 -0.005443 0.000000 0.009169 0.000000
# 3 -0.004231 -0.005443 0.013913 0.000000 -0.000369 0.000000
# 4 0.000000 0.000000 0.000000 0.078467 0.000000 0.019463
# 5 -0.002962 0.009169 -0.000369 0.000000 0.031328 0.000000
# 6 0.000000 0.000000 0.000000 0.019463 0.000000 0.051084
#
#
# Mechanical properties :
#
#
# Convention : Reuss Voigt Hill
#
# Bulk Modulus (GPa) = 51.26062 57.25904 54.25983
# Shear Modulus (GPa) = 20.83829 25.94139 23.38984
#
# Velocity S-wave (km/s) = 3.24012 3.61515 3.43276
# Velocity P-wave (km/s) = 6.31055 6.80243 6.56110
#
# Compressibility (1/GPa) = 0.01950815
#
# Stress axis : x y z
#
# Youngs Moduli (GPa) = 85.54429 48.94264 71.87575
#
# Poissons Ratio (x) = 0.17564 0.30414
# Poissons Ratio (y) = 0.30700 0.39123
# Poissons Ratio (z) = 0.36197 0.26640
#
# Static dielectric constant tensor:
#      x y z
#    x 3.912760 0.000000 -0.086510 
#    y 0.000000 3.315870 0.000000 
#    z -0.086510 0.000000 3.794940 
# 
# 
# High freq. dielectric constant tensor:
#      x y z
#    x 1.799120 0.000000 0.005460 
#    y 0.000000 1.736570 0.000000 
#    z 0.005460 0.000000 1.773730 
# 
# From -- ./inp_files/79648.got.cif
#   From: 2010.06.25/outbox.cif.g09.slc.cpg/sg13_40_cif.got.tgz:79648.got - 2010.06.28 04:50:58.
