data_PCOD8117696
_publ_section_title
;
Structure prediction by ZEFSAII (Michael W. Deem and Ramdas Pophale) SiO2 
 PCOD8117696
Probable space group: P 2/C
;
_chemical_formula_sum "Si O2"
_cell_formula_units_Z 20
_cell_length_a 9.343367
_cell_length_b 13.602943
_cell_length_c 17.437354
_cell_angle_alpha 90.000000
_cell_angle_beta 152.565095
_cell_angle_gamma 90.000000
_cell_volume 1021.111857
_symmetry_space_group_name_H-M "P 2/C"
_symmetry_group_IT_number 13
_symmetry_cell_setting 'monoclinic'
loop_
_space_group_symop_operation_xyz
x,y,z
-x,y,1/2-z
-x,-y,-z
x,-y,1/2+z
loop_
_atom_site_type_symbol
_atom_site_label
_atom_site_fract_x
_atom_site_fract_y
_atom_site_fract_z
Si Si1 0.329394 0.254517 0.089374
Si Si2 0.941134 0.689092 0.804416
Si Si3 0.522968 0.958116 0.845412
Si Si4 0.138891 0.607217 0.059358
Si Si5 0.906648 0.095044 0.123842
O O1 0.500000 0.266450 0.250000
O O2 0.567980 0.293484 0.137318
O O3 0.251307 0.138261 0.039221
O O4 0.018410 0.319669 0.952018
O O5 0.000000 0.634045 0.750000
O O6 0.145978 0.788877 0.894339
O O7 0.085818 0.633233 0.945153
O O8 0.500000 0.005021 0.750000
O O9 0.176878 0.920312 0.691755
O O10 0.605472 0.040337 0.947173
O O11 0.500000 0.606562 0.250000
O O12 0.000000 0.500000 0.000000
O O13 0.000000 0.048582 0.250000
#
# Coordination Sequence:
#
# PCOD8117696 Si02
#       5
#     4   4   4   4   4
#     4   8  17  35  54  76 110 146 180 220 267 315
#     4   9  19  37  58  80 110 145 180 220 266 315
#     4  10  19  32  51  76 107 145 184 221 257 307
#     4  11  22  39  61  83 105 137 176 222 274 327
#     4  10  20  33  51  77 111 147 178 217 267 310
#
# _framework density 19.586490999999999
#
# number of rings (size 3 to 8) (size 9 to 14) (size 15 to 20)
#    0.000    2.400    0.000    4.200    0.000    2.400 
#    0.000    5.000    0.000    0.000    0.000    0.000 
#    0.000    0.000    0.000    0.000    0.000    0.000 
#
# Total GULP energy -247809.973557 kJ/mol
# GULP energy per Si atom -12390.498678 kJ/mol
# Density = 1.954191 g / cm^3
# Si number density = 19.586491 Si / 1000 Ang^3
#
#
#
# Elastic Constant Matrix: (Units=GPa)
#
#
# Indices 1 2 3 4 5 6 
#
# 1 127.0242 21.8132 35.3350 0.0000 -17.0691 0.0000
# 2 21.8132 75.2316 38.0053 0.0000 -3.8872 0.0000
# 3 35.3350 38.0053 91.6518 0.0000 -4.0015 0.0000
# 4 0.0000 0.0000 0.0000 25.6478 0.0000 -1.7790
# 5 -17.0691 -3.8872 -4.0015 0.0000 36.4121 0.0000
# 6 0.0000 0.0000 0.0000 -1.7790 0.0000 4.6438
#
#
#
# Elastic Compliance Matrix: (Units=1/GPa)
#
#
# Indices 1 2 3 4 5 6 
#
# 1 0.009425 -0.000986 -0.003051 0.000000 0.003978 0.000000
# 2 -0.000986 0.016957 -0.006624 0.000000 0.000620 0.000000
# 3 -0.003051 -0.006624 0.014812 0.000000 -0.000510 0.000000
# 4 0.000000 0.000000 0.000000 0.040054 0.000000 0.015345
# 5 0.003978 0.000620 -0.000510 0.000000 0.029338 0.000000
# 6 0.000000 0.000000 0.000000 0.015345 0.000000 0.221217
#
#
# Mechanical properties :
#
#
# Convention : Reuss Voigt Hill
#
# Bulk Modulus (GPa) = 50.32490 53.80161 52.06325
# Shear Modulus (GPa) = 13.89857 26.59101 20.24479
#
# Velocity S-wave (km/s) = 2.66672 3.68859 3.21847
# Velocity P-wave (km/s) = 5.93560 6.75790 6.36005
#
# Compressibility (1/GPa) = 0.01987088
#
# Stress axis : x y z
#
# Youngs Moduli (GPa) = 106.09971 58.97413 67.51352
#
# Poissons Ratio (x) = 0.05814 0.20600
# Poissons Ratio (y) = 0.10460 0.44723
# Poissons Ratio (z) = 0.32374 0.39066
#
# Static dielectric constant tensor:
#      x y z
#    x 3.884360 0.000000 0.306550 
#    y 0.000000 3.731110 0.000000 
#    z 0.306550 0.000000 3.221820 
# 
# 
# High freq. dielectric constant tensor:
#      x y z
#    x 1.779910 0.000000 0.004510 
#    y 0.000000 1.749320 0.000000 
#    z 0.004510 0.000000 1.730790 
# 
# From -- ./inp_files/64484.got.cif
#   From: 2010.06.25/outbox.cif.g09.slc.cpg/sg13_33_cif.got.tgz:64484.got - 2010.06.28 04:50:58.
