data_PCOD8117093
_publ_section_title
;
Structure prediction by ZEFSAII (Michael W. Deem and Ramdas Pophale) SiO2 
 PCOD8117093
Probable space group: P 2/C
;
_chemical_formula_sum "Si O2"
_cell_formula_units_Z 20
_cell_length_a 6.396050
_cell_length_b 9.457559
_cell_length_c 21.401956
_cell_angle_alpha 90.000000
_cell_angle_beta 116.549190
_cell_angle_gamma 90.000000
_cell_volume 1158.109067
_symmetry_space_group_name_H-M "P 2/C"
_symmetry_group_IT_number 13
_symmetry_cell_setting 'monoclinic'
loop_
_space_group_symop_operation_xyz
x,y,z
-x,y,1/2-z
-x,-y,-z
x,-y,1/2+z
loop_
_atom_site_type_symbol
_atom_site_label
_atom_site_fract_x
_atom_site_fract_y
_atom_site_fract_z
Si Si1 0.871399 0.309036 0.668280
Si Si2 0.610023 0.801788 0.965010
Si Si3 0.109706 0.294955 0.573471
Si Si4 0.465657 0.497689 0.069389
Si Si5 0.495339 0.892850 0.412391
O O1 0.663304 0.422189 0.634472
O O2 0.757765 0.150632 0.649974
O O3 0.000000 0.333346 0.750000
O O4 0.052796 0.336124 0.636935
O O5 0.515536 0.669185 0.912209
O O6 0.540317 0.940456 0.917044
O O7 0.490264 0.819649 0.017060
O O8 0.886414 0.772658 0.008887
O O9 0.212969 0.434430 0.552716
O O10 0.301307 0.172193 0.602333
O O11 0.500000 0.500000 0.000000
#
# Coordination Sequence:
#
# PCOD8117093 Si02
#       5
#     4   4   4   4   4
#     4  10  22  37  53  74 105 147 181 214 264 318
#     4  10  18  31  51  82 109 127 169 221 267 303
#     4  10  18  32  56  76 105 140 173 215 270 311
#     4  11  19  33  53  83 109 133 176 224 259 316
#     4   9  19  32  51  78 107 134 171 217 258 319
#
# _framework density 17.269528999999999
#
# number of rings (size 3 to 8) (size 9 to 14) (size 15 to 20)
#    0.000    2.000    6.000    1.200    0.000    3.200 
#    0.000    1.000    0.000    2.400    0.000    0.000 
#    0.000    0.000    0.000    0.000    0.000    0.000 
#
# Total GULP energy -247831.865958 kJ/mol
# GULP energy per Si atom -12391.593298 kJ/mol
# Density = 1.723022 g / cm^3
# Si number density = 17.269529 Si / 1000 Ang^3
#
#
#
# Elastic Constant Matrix: (Units=GPa)
#
#
# Indices 1 2 3 4 5 6 
#
# 1 106.2473 51.5446 33.5470 0.0000 -5.5554 0.0000
# 2 51.5446 150.8132 47.3751 0.0000 7.2132 0.0000
# 3 33.5470 47.3751 91.6008 0.0000 11.6916 0.0000
# 4 0.0000 0.0000 0.0000 15.4621 0.0000 1.1492
# 5 -5.5554 7.2132 11.6916 0.0000 16.4694 0.0000
# 6 0.0000 0.0000 0.0000 1.1492 0.0000 26.8710
#
#
#
# Elastic Compliance Matrix: (Units=1/GPa)
#
#
# Indices 1 2 3 4 5 6 
#
# 1 0.012851 -0.003559 -0.003978 0.000000 0.008718 0.000000
# 2 -0.003559 0.008909 -0.002917 0.000000 -0.003032 0.000000
# 3 -0.003978 -0.002917 0.015275 0.000000 -0.010908 0.000000
# 4 0.000000 0.000000 0.000000 0.064881 0.000000 -0.002775
# 5 0.008718 -0.003032 -0.010908 0.000000 0.072731 0.000000
# 6 0.000000 0.000000 0.000000 -0.002775 0.000000 0.037334
#
#
# Mechanical properties :
#
#
# Convention : Reuss Voigt Hill
#
# Bulk Modulus (GPa) = 62.01529 68.17718 65.09624
# Shear Modulus (GPa) = 20.98525 26.17345 23.57935
#
# Velocity S-wave (km/s) = 3.48970 3.89728 3.69910
# Velocity P-wave (km/s) = 7.22672 7.73406 7.48469
#
# Compressibility (1/GPa) = 0.01612505
#
# Stress axis : x y z
#
# Youngs Moduli (GPa) = 77.81672 112.25193 65.46780
#
# Poissons Ratio (x) = 0.39955 0.26044
# Poissons Ratio (y) = 0.27698 0.19096
# Poissons Ratio (z) = 0.30957 0.32743
#
# Static dielectric constant tensor:
#      x y z
#    x 3.479470 0.000000 0.035210 
#    y 0.000000 3.753250 0.000000 
#    z 0.035210 0.000000 2.795910 
# 
# 
# High freq. dielectric constant tensor:
#      x y z
#    x 1.684200 0.000000 -0.000900 
#    y 0.000000 1.674020 0.000000 
#    z -0.000900 0.000000 1.616220 
# 
# From -- ./inp_files/72779.got.cif
#   From: 2010.06.25/outbox.cif.g09.slc.cpg/sg13_37_cif.got.tgz:72779.got - 2010.06.28 04:50:58.
