data_PCOD8117494
_publ_section_title
;
Structure prediction by ZEFSAII (Michael W. Deem and Ramdas Pophale) SiO2 
 PCOD8117494
Probable space group: P 2/C
;
_chemical_formula_sum "Si O2"
_cell_formula_units_Z 30
_cell_length_a 9.956915
_cell_length_b 11.030072
_cell_length_c 32.898678
_cell_angle_alpha 90.000000
_cell_angle_beta 154.595820
_cell_angle_gamma 90.000000
_cell_volume 1550.029392
_symmetry_space_group_name_H-M "P 2/C"
_symmetry_group_IT_number 13
_symmetry_cell_setting 'monoclinic'
loop_
_space_group_symop_operation_xyz
x,y,z
-x,y,1/2-z
-x,-y,-z
x,-y,1/2+z
loop_
_atom_site_type_symbol
_atom_site_label
_atom_site_fract_x
_atom_site_fract_y
_atom_site_fract_z
Si Si1 0.512700 0.077321 0.707416
Si Si2 0.263037 0.382984 0.261628
Si Si3 0.690489 0.880056 0.691215
Si Si4 0.500000 0.480287 0.750000
Si Si5 0.343473 0.470644 0.915676
Si Si6 0.270019 0.552394 0.547452
Si Si7 0.975797 0.717164 0.356584
Si Si8 0.852563 0.813932 0.015549
O O1 0.500000 0.022112 0.750000
O O2 0.718135 0.199101 0.765074
O O3 0.172430 0.112192 0.597257
O O4 0.661398 0.986377 0.715990
O O5 0.295517 0.239071 0.276699
O O6 0.470786 0.429939 0.280467
O O7 0.403193 0.444969 0.339581
O O8 0.900429 0.421268 0.160731
O O9 0.418880 0.885530 0.582541
O O10 0.000000 0.898049 0.750000
O O11 0.193783 0.393251 0.664983
O O12 0.634206 0.467477 0.964125
O O13 0.178314 0.339163 0.874948
O O14 0.500000 0.500000 0.000000
O O15 0.132896 0.682296 0.499519
O O16 0.000000 0.500000 0.500000
O O17 0.192420 0.793041 0.447706
#
# Coordination Sequence:
#
# PCOD8117494 Si02
#       8
#     4   4   4   2   4   4   4   4
#     4  10  22  42  67  89 119 167 220 257 311 363
#     4  10  23  37  62  87 126 168 202 256 320 374
#     4  11  24  42  62  88 129 169 210 266 311 369
#     4  10  18  36  64  94 120 154 208 254 316 372
#     4  11  22  37  63  91 128 162 206 246 325 382
#     4  11  22  36  57  95 126 161 202 257 313 383
#     4  10  19  37  65  92 123 165 203 265 311 376
#     4  10  19  40  66  86 122 169 209 251 321 367
#
# _framework density 19.354471
#
# number of rings (size 3 to 8) (size 9 to 14) (size 15 to 20)
#    0.000    1.600    3.333    3.200    4.667    0.000 
#    2.400    2.667    0.000    0.000    0.000    0.000 
#    0.000    0.000    0.000    0.000    0.000    0.000 
#
# Total GULP energy -371727.968094 kJ/mol
# GULP energy per Si atom -12390.932270 kJ/mol
# Density = 1.931042 g / cm^3
# Si number density = 19.354471 Si / 1000 Ang^3
#
#
#
# Elastic Constant Matrix: (Units=GPa)
#
#
# Indices 1 2 3 4 5 6 
#
# 1 154.3200 71.9760 44.9965 0.0000 8.3794 0.0000
# 2 71.9760 91.6134 48.9740 0.0000 3.9526 0.0000
# 3 44.9965 48.9740 128.4713 0.0000 -6.5151 0.0000
# 4 0.0000 0.0000 0.0000 16.3592 0.0000 -4.6218
# 5 8.3794 3.9526 -6.5151 0.0000 26.6576 0.0000
# 6 0.0000 0.0000 0.0000 -4.6218 0.0000 33.1303
#
#
#
# Elastic Compliance Matrix: (Units=1/GPa)
#
#
# Indices 1 2 3 4 5 6 
#
# 1 0.010412 -0.007618 -0.000862 0.000000 -0.002354 0.000000
# 2 -0.007618 0.019585 -0.004884 0.000000 -0.001703 0.000000
# 3 -0.000862 -0.004884 0.010124 0.000000 0.003469 0.000000
# 4 0.000000 0.000000 0.000000 0.063636 0.000000 0.008877
# 5 -0.002354 -0.001703 0.003469 0.000000 0.039353 0.000000
# 6 0.000000 0.000000 0.000000 0.008877 0.000000 0.031422
#
#
# Mechanical properties :
#
#
# Convention : Reuss Voigt Hill
#
# Bulk Modulus (GPa) = 74.67000 78.47754 76.57377
# Shear Modulus (GPa) = 24.30435 29.12662 26.71549
#
# Velocity S-wave (km/s) = 3.54750 3.88352 3.71930
# Velocity P-wave (km/s) = 7.44605 7.79387 7.62195
#
# Compressibility (1/GPa) = 0.01339226
#
# Stress axis : x y z
#
# Youngs Moduli (GPa) = 96.03974 51.05993 98.77888
#
# Poissons Ratio (x) = 0.38897 0.08517
# Poissons Ratio (y) = 0.73163 0.48244
# Poissons Ratio (z) = 0.08281 0.24938
#
# Static dielectric constant tensor:
#      x y z
#    x 3.591750 0.000000 -0.273060 
#    y 0.000000 2.728570 0.000000 
#    z -0.273060 0.000000 3.797240 
# 
# 
# High freq. dielectric constant tensor:
#      x y z
#    x 1.751380 0.000000 -0.007300 
#    y 0.000000 1.732270 0.000000 
#    z -0.007300 0.000000 1.773470 
# 
# From -- ./inp_files/96099.got.cif
#   From: 2010.06.25/outbox.cif.g09.slc.cpg/sg13_49_cif.got.tgz:96099.got - 2010.06.28 04:50:58.
