data_PCOD8117846
_publ_section_title
;
Structure prediction by ZEFSAII (Michael W. Deem and Ramdas Pophale) SiO2 
 PCOD8117846
Probable space group: P 2/C
;
_chemical_formula_sum "Si O2"
_cell_formula_units_Z 32
_cell_length_a 15.320681
_cell_length_b 8.262776
_cell_length_c 29.498255
_cell_angle_alpha 90.000000
_cell_angle_beta 152.580250
_cell_angle_gamma 90.000000
_cell_volume 1719.631808
_symmetry_space_group_name_H-M "P 2/C"
_symmetry_group_IT_number 13
_symmetry_cell_setting 'monoclinic'
loop_
_space_group_symop_operation_xyz
x,y,z
-x,y,1/2-z
-x,-y,-z
x,-y,1/2+z
loop_
_atom_site_type_symbol
_atom_site_label
_atom_site_fract_x
_atom_site_fract_y
_atom_site_fract_z
Si Si1 0.243112 0.383782 0.454491
Si Si2 0.525815 0.488761 0.155457
Si Si3 0.118065 0.910167 0.177060
Si Si4 0.888600 0.598492 0.277582
Si Si5 0.273176 0.946542 0.019373
Si Si6 0.390287 0.832574 0.841962
Si Si7 0.477491 0.782990 0.292053
Si Si8 0.208152 0.634694 0.838208
O O1 0.380858 0.493445 0.547317
O O2 0.231000 0.202534 0.467056
O O3 0.315623 0.380834 0.435732
O O4 0.040544 0.468286 0.364465
O O5 0.714458 0.583245 0.230670
O O6 0.561208 0.296385 0.176450
O O7 0.468216 0.591734 0.173738
O O8 0.054509 0.785727 0.188361
O O9 0.264525 0.834803 0.208266
O O10 0.210947 0.063844 0.244064
O O11 0.924781 0.961665 0.062178
O O12 0.826634 0.547915 0.197990
O O13 0.367559 0.890921 0.109975
O O14 0.423983 0.060659 0.062909
O O15 0.335010 0.738749 0.862358
O O16 0.500000 0.819884 0.250000
O O17 0.000000 0.716192 0.750000
#
# Coordination Sequence:
#
# PCOD8117846 Si02
#       8
#     4   4   4   4   4   4   4   4
#     4  10  19  34  52  74 105 144 187 220 255 311
#     4   9  18  34  54  71  99 139 176 213 266 322
#     4  10  19  35  56  78 110 141 174 219 271 322
#     4   9  18  32  51  72 100 142 178 211 255 306
#     4  10  20  34  56  81 109 146 177 218 276 319
#     4  10  20  34  53  79 108 140 177 220 269 314
#     4   9  20  37  57  81 106 136 178 222 266 327
#     4   9  18  33  51  74 108 146 187 225 255 298
#
# _framework density 18.608633999999999
#
# number of rings (size 3 to 8) (size 9 to 14) (size 15 to 20)
#    0.000    2.500    0.000    3.750    0.000    3.000 
#    0.000   10.625    0.000   25.500    0.000    0.000 
#    0.000    0.000    0.000    0.000    0.000    0.000 
#
# Total GULP energy -396441.247791 kJ/mol
# GULP energy per Si atom -12388.788993 kJ/mol
# Density = 1.856628 g / cm^3
# Si number density = 18.608634 Si / 1000 Ang^3
#
#
#
# Elastic Constant Matrix: (Units=GPa)
#
#
# Indices 1 2 3 4 5 6 
#
# 1 103.7031 58.4722 55.7504 0.0000 -11.8574 0.0000
# 2 58.4722 160.2287 65.8867 0.0000 1.3908 0.0000
# 3 55.7504 65.8867 119.9682 0.0000 3.7822 0.0000
# 4 0.0000 0.0000 0.0000 26.4008 0.0000 10.5596
# 5 -11.8574 1.3908 3.7822 0.0000 28.2858 0.0000
# 6 0.0000 0.0000 0.0000 10.5596 0.0000 19.8214
#
#
#
# Elastic Compliance Matrix: (Units=1/GPa)
#
#
# Indices 1 2 3 4 5 6 
#
# 1 0.015359 -0.003408 -0.005497 0.000000 0.007341 0.000000
# 2 -0.003408 0.008819 -0.003214 0.000000 -0.001433 0.000000
# 3 -0.005497 -0.003214 0.012777 0.000000 -0.003855 0.000000
# 4 0.000000 0.000000 0.000000 0.048134 0.000000 -0.025643
# 5 0.007341 -0.001433 -0.003855 0.000000 0.039017 0.000000
# 6 0.000000 0.000000 0.000000 -0.025643 0.000000 0.064112
#
#
# Mechanical properties :
#
#
# Convention : Reuss Voigt Hill
#
# Bulk Modulus (GPa) = 78.64378 82.67985 80.66181
# Shear Modulus (GPa) = 23.07376 28.48764 25.78070
#
# Velocity S-wave (km/s) = 3.52511 3.91689 3.72616
# Velocity P-wave (km/s) = 7.67608 8.06123 7.87101
#
# Compressibility (1/GPa) = 0.01271556
#
# Stress axis : x y z
#
# Youngs Moduli (GPa) = 65.10679 113.39033 78.26524
#
# Poissons Ratio (x) = 0.38647 0.43024
# Poissons Ratio (y) = 0.22191 0.25158
# Poissons Ratio (z) = 0.35791 0.36448
#
# Static dielectric constant tensor:
#      x y z
#    x 3.121770 0.000000 0.133210 
#    y 0.000000 3.646340 0.000000 
#    z 0.133210 0.000000 3.500680 
# 
# 
# High freq. dielectric constant tensor:
#      x y z
#    x 1.688300 0.000000 0.014740 
#    y 0.000000 1.730080 0.000000 
#    z 0.014740 0.000000 1.730080 
# 
# From -- ./inp_files/96970.got.cif
#   From: 2010.06.25/outbox.cif.g09.slc.cpg/sg13_49_cif.got.tgz:96970.got - 2010.06.28 04:50:58.
