data_PCOD8117930
_publ_section_title
;
Structure prediction by ZEFSAII (Michael W. Deem and Ramdas Pophale) SiO2 
 PCOD8117930
Probable space group: P 2/C
;
_chemical_formula_sum "Si O2"
_cell_formula_units_Z 24
_cell_length_a 9.093674
_cell_length_b 5.453942
_cell_length_c 23.187712
_cell_angle_alpha 90.000000
_cell_angle_beta 74.760609
_cell_angle_gamma 90.000000
_cell_volume 1109.586842
_symmetry_space_group_name_H-M "P 2/C"
_symmetry_group_IT_number 13
_symmetry_cell_setting 'monoclinic'
loop_
_space_group_symop_operation_xyz
x,y,z
-x,y,1/2-z
-x,-y,-z
x,-y,1/2+z
loop_
_atom_site_type_symbol
_atom_site_label
_atom_site_fract_x
_atom_site_fract_y
_atom_site_fract_z
Si Si1 0.235132 0.818945 0.067998
Si Si2 0.291492 0.205528 0.689781
Si Si3 0.924310 0.619815 0.090269
Si Si4 0.500000 0.084547 0.250000
Si Si5 0.776321 0.409067 0.211319
Si Si6 0.187298 0.672808 0.520231
Si Si7 0.000000 0.901377 0.750000
O O1 0.325308 0.771499 0.118439
O O2 0.280647 0.582054 0.023517
O O3 0.051183 0.819906 0.095453
O O4 0.273299 0.087467 0.037473
O O5 0.267739 0.464935 0.723435
O O6 0.435009 0.077016 0.704692
O O7 0.135240 0.058037 0.709935
O O8 0.808477 0.594363 0.155804
O O9 0.014582 0.366893 0.063563
O O10 0.823859 0.715136 0.047126
O O11 0.634686 0.241735 0.207489
O O12 0.932477 0.261226 0.205019
#
# Coordination Sequence:
#
# PCOD8117930 Si02
#       7
#     4   4   4   2   4   4   2
#     4  10  19  34  58  86 124 152 195 248 304 366
#     4  11  22  37  58  89 118 162 203 251 313 368
#     4   9  19  32  59  87 125 154 200 247 306 367
#     4  10  26  40  56  82 124 164 210 246 320 362
#     4  11  21  39  58  88 120 161 198 258 307 367
#     4   9  20  34  55  95 122 160 190 250 310 363
#     4  10  20  32  58  90 118 142 202 248 316 364
#
# _framework density 21.629674999999999
#
# number of rings (size 3 to 8) (size 9 to 14) (size 15 to 20)
#    1.000    1.000    0.000    4.500    4.667    1.333 
#    0.000    0.000    0.000    2.000    0.000    0.000 
#    0.000    0.000    0.000    0.000    0.000    0.000 
#
# Total GULP energy -297408.842123 kJ/mol
# GULP energy per Si atom -12392.035088 kJ/mol
# Density = 2.158044 g / cm^3
# Si number density = 21.629675 Si / 1000 Ang^3
#
#
#
# Elastic Constant Matrix: (Units=GPa)
#
#
# Indices 1 2 3 4 5 6 
#
# 1 100.9185 33.3266 23.6838 0.0000 24.0955 0.0000
# 2 33.3266 110.4187 8.1900 0.0000 17.7187 0.0000
# 3 23.6838 8.1900 57.0647 0.0000 36.2030 0.0000
# 4 0.0000 0.0000 0.0000 22.5786 0.0000 8.5614
# 5 24.0955 17.7187 36.2030 0.0000 34.5605 0.0000
# 6 0.0000 0.0000 0.0000 8.5614 0.0000 33.4234
#
#
#
# Elastic Compliance Matrix: (Units=1/GPa)
#
#
# Indices 1 2 3 4 5 6 
#
# 1 0.012538 -0.002637 -0.000409 0.000000 -0.006961 0.000000
# 2 -0.002637 0.011002 0.005747 0.000000 -0.009822 0.000000
# 3 -0.000409 0.005747 0.055324 0.000000 -0.060614 0.000000
# 4 0.000000 0.000000 0.000000 0.049054 0.000000 -0.012565
# 5 -0.006961 -0.009822 -0.060614 0.000000 0.102318 0.000000
# 6 0.000000 0.000000 0.000000 -0.012565 0.000000 0.033138
#
#
# Mechanical properties :
#
#
# Convention : Reuss Voigt Hill
#
# Bulk Modulus (GPa) = 11.86730 44.31142 28.08936
# Shear Modulus (GPa) = 17.47884 31.65925 24.56905
#
# Velocity S-wave (km/s) = 2.84579 3.82998 3.37396
# Velocity P-wave (km/s) = 4.03689 6.33160 5.30969
#
# Compressibility (1/GPa) = 0.08426514
#
# Stress axis : x y z
#
# Youngs Moduli (GPa) = 79.75912 90.89136 18.07549
#
# Poissons Ratio (x) = 0.23966 0.00739
# Poissons Ratio (y) = 0.21031 -0.10387
# Poissons Ratio (z) = 0.03261 -0.52231
#
# Static dielectric constant tensor:
#      x y z
#    x 3.661440 0.000000 0.377030 
#    y 0.000000 3.838320 0.000000 
#    z 0.377030 0.000000 3.594810 
# 
# 
# High freq. dielectric constant tensor:
#      x y z
#    x 1.828790 0.000000 0.034400 
#    y 0.000000 1.848080 0.000000 
#    z 0.034400 0.000000 1.825010 
# 
# From -- ./inp_files/84317.got.cif
#   From: 2010.06.25/outbox.cif.g09.slc.cpg/sg13_43_cif.got.tgz:84317.got - 2010.06.28 04:50:58.
