data_PCOD8117872
_publ_section_title
;
Structure prediction by ZEFSAII (Michael W. Deem and Ramdas Pophale) SiO2 
 PCOD8117872
Probable space group: P 2/C
;
_chemical_formula_sum "Si O2"
_cell_formula_units_Z 20
_cell_length_a 26.413976
_cell_length_b 7.502252
_cell_length_c 4.980990
_cell_angle_alpha 90.000000
_cell_angle_beta 101.721251
_cell_angle_gamma 90.000000
_cell_volume 966.471895
_symmetry_space_group_name_H-M "P 2/C"
_symmetry_group_IT_number 13
_symmetry_cell_setting 'monoclinic'
loop_
_space_group_symop_operation_xyz
x,y,z
-x,y,1/2-z
-x,-y,-z
x,-y,1/2+z
loop_
_atom_site_type_symbol
_atom_site_label
_atom_site_fract_x
_atom_site_fract_y
_atom_site_fract_z
Si Si1 0.664242 0.377658 0.454622
Si Si2 0.940719 0.882647 0.163283
Si Si3 0.446988 0.617115 0.765655
Si Si4 0.242169 0.881625 0.442024
Si Si5 0.148661 0.618715 0.340801
O O1 0.671113 0.457183 0.758529
O O2 0.607424 0.284569 0.356544
O O3 0.705881 0.226737 0.444775
O O4 0.906925 0.708685 0.179537
O O5 0.000000 0.820873 0.250000
O O6 0.927970 0.041133 0.356473
O O7 0.500000 0.728007 0.750000
O O8 0.448113 0.439928 0.577457
O O9 0.193040 0.760090 0.450041
O O10 0.240610 0.051469 0.635329
O O11 0.154140 0.451337 0.544676
#
# Coordination Sequence:
#
# PCOD8117872 Si02
#       5
#     4   4   4   4   4
#     4  10  19  34  55  79 106 136 178 225 265 312
#     4  10  21  39  61  85 116 151 182 215 265 325
#     4   8  14  25  45  73 101 130 167 213 261 309
#     4  12  24  39  57  78 109 145 181 220 273 331
#     4  12  24  39  60  85 112 142 184 231 270 311
#
# _framework density 20.693825
#
# number of rings (size 3 to 8) (size 9 to 14) (size 15 to 20)
#    0.000    1.600    0.000    6.000    0.000    0.800 
#    0.000    0.000    0.000    1.200    0.000    0.000 
#    0.000    0.000    0.000    0.000    0.000    0.000 
#
# Total GULP energy -248003.764415 kJ/mol
# GULP energy per Si atom -12400.188221 kJ/mol
# Density = 2.064673 g / cm^3
# Si number density = 20.693825 Si / 1000 Ang^3
#
#
#
# Elastic Constant Matrix: (Units=GPa)
#
#
# Indices 1 2 3 4 5 6 
#
# 1 151.1914 50.8885 22.0618 0.0000 10.2887 0.0000
# 2 50.8885 58.6436 8.8199 0.0000 8.4941 0.0000
# 3 22.0618 8.8199 74.6632 0.0000 -2.1642 0.0000
# 4 0.0000 0.0000 0.0000 29.3092 0.0000 -7.1960
# 5 10.2887 8.4941 -2.1642 0.0000 30.2663 0.0000
# 6 0.0000 0.0000 0.0000 -7.1960 0.0000 1.9636
#
#
#
# Elastic Compliance Matrix: (Units=1/GPa)
#
#
# Indices 1 2 3 4 5 6 
#
# 1 0.009638 -0.007897 -0.001950 0.000000 -0.001200 0.000000
# 2 -0.007897 0.024629 -0.000700 0.000000 -0.004278 0.000000
# 3 -0.001950 -0.000700 0.014106 0.000000 0.001868 0.000000
# 4 0.000000 0.000000 0.000000 0.340290 0.000000 1.247032
# 5 -0.001200 -0.004278 0.001868 0.000000 0.034782 0.000000
# 6 0.000000 0.000000 0.000000 1.247032 0.000000 5.079160
#
#
# Mechanical properties :
#
#
# Convention : Reuss Voigt Hill
#
# Bulk Modulus (GPa) = 36.65576 49.78208 43.21892
# Shear Modulus (GPa) = 0.90370 25.82304 13.36337
#
# Velocity S-wave (km/s) = 0.66155 3.53634 2.54395
# Velocity P-wave (km/s) = 4.28198 6.38616 5.43684
#
# Compressibility (1/GPa) = 0.02728084
#
# Stress axis : x y z
#
# Youngs Moduli (GPa) = 103.75445 40.60192 70.88937
#
# Poissons Ratio (x) = 0.32062 0.13823
# Poissons Ratio (y) = 0.81930 0.04963
# Poissons Ratio (z) = 0.20231 0.02843
#
# Static dielectric constant tensor:
#      x y z
#    x 4.236000 0.000000 0.023090 
#    y 0.000000 3.157160 0.000000 
#    z 0.023090 0.000000 3.871250 
# 
# 
# High freq. dielectric constant tensor:
#      x y z
#    x 1.840420 0.000000 -0.000640 
#    y 0.000000 1.754050 0.000000 
#    z -0.000640 0.000000 1.831140 
# 
# From -- ./inp_files/7664.got.cif
#   From: 2010.06.25/outbox.cif.g09.slc.cpg/sg13_4_cif.got.tgz:7664.got - 2010.06.28 04:50:58.
