data_PCOD8117422
_publ_section_title
;
Structure prediction by ZEFSAII (Michael W. Deem and Ramdas Pophale) SiO2 
 PCOD8117422
Probable space group: P 2/C
;
_chemical_formula_sum "Si O2"
_cell_formula_units_Z 26
_cell_length_a 14.306085
_cell_length_b 9.289197
_cell_length_c 10.275348
_cell_angle_alpha 90.000000
_cell_angle_beta 65.273845
_cell_angle_gamma 90.000000
_cell_volume 1240.318193
_symmetry_space_group_name_H-M "P 2/C"
_symmetry_group_IT_number 13
_symmetry_cell_setting 'monoclinic'
loop_
_space_group_symop_operation_xyz
x,y,z
-x,y,1/2-z
-x,-y,-z
x,-y,1/2+z
loop_
_atom_site_type_symbol
_atom_site_label
_atom_site_fract_x
_atom_site_fract_y
_atom_site_fract_z
Si Si1 0.880484 0.403867 0.304318
Si Si2 0.213210 0.420836 0.419288
Si Si3 0.273493 0.908977 0.866862
Si Si4 0.457108 0.724450 0.516796
Si Si5 0.500000 0.869604 0.750000
Si Si6 0.750358 0.872599 0.906410
Si Si7 0.413596 0.472288 0.707974
O O1 0.858997 0.434762 0.165208
O O2 0.848232 0.539190 0.414082
O O3 0.821490 0.264027 0.390926
O O4 0.000000 0.374099 0.250000
O O5 0.260486 0.260634 0.406101
O O6 0.306127 0.536441 0.347095
O O7 0.393763 0.956685 0.795859
O O8 0.227507 0.938030 0.750126
O O9 0.217436 0.007511 0.006356
O O10 0.516196 0.782281 0.607583
O O11 0.371013 0.831807 0.510847
O O12 0.397505 0.576354 0.592186
O O13 0.545253 0.686008 0.359433
O O14 0.500000 0.542900 0.750000
#
# Coordination Sequence:
#
# PCOD8117422 Si02
#       7
#     4   4   4   4   2   4   4
#     4  11  24  45  67  93 124 160 212 280 330 370
#     4  11  23  40  66  97 127 162 210 265 320 381
#     4  10  22  39  61  88 132 166 210 249 310 366
#     4  10  19  32  56  85 125 165 202 237 301 367
#     4  10  18  36  52  80 128 170 194 248 290 360
#     4  10  22  44  59  92 124 172 209 263 307 378
#     4  11  19  32  57  90 127 162 202 241 303 375
#
# _framework density 20.962363
#
# number of rings (size 3 to 8) (size 9 to 14) (size 15 to 20)
#    0.000    1.538    5.385    1.385    4.308    3.692 
#    6.923    3.846    0.000    0.000    0.000    0.000 
#    0.000    0.000    0.000    0.000    0.000    0.000 
#
# Total GULP energy -322230.772935 kJ/mol
# GULP energy per Si atom -12393.491267 kJ/mol
# Density = 2.091465 g / cm^3
# Si number density = 20.962363 Si / 1000 Ang^3
#
#
#
# Elastic Constant Matrix: (Units=GPa)
#
#
# Indices 1 2 3 4 5 6 
#
# 1 102.4521 26.1847 28.8138 0.0000 2.2478 0.0000
# 2 26.1847 66.3642 54.4239 0.0000 12.7594 0.0000
# 3 28.8138 54.4239 83.6288 0.0000 16.1012 0.0000
# 4 0.0000 0.0000 0.0000 33.7520 0.0000 7.1496
# 5 2.2478 12.7594 16.1012 0.0000 27.1857 0.0000
# 6 0.0000 0.0000 0.0000 7.1496 0.0000 13.6179
#
#
#
# Elastic Compliance Matrix: (Units=1/GPa)
#
#
# Indices 1 2 3 4 5 6 
#
# 1 0.011096 -0.002797 -0.002347 0.000000 0.001785 0.000000
# 2 -0.002797 0.033246 -0.019992 0.000000 -0.003532 0.000000
# 3 -0.002347 -0.019992 0.027013 0.000000 -0.006422 0.000000
# 4 0.000000 0.000000 0.000000 0.033335 0.000000 -0.017502
# 5 0.001785 -0.003532 -0.006422 0.000000 0.042097 0.000000
# 6 0.000000 0.000000 0.000000 -0.017502 0.000000 0.082622
#
#
# Mechanical properties :
#
#
# Convention : Reuss Voigt Hill
#
# Bulk Modulus (GPa) = 47.42974 52.36556 49.89765
# Shear Modulus (GPa) = 17.43924 24.44597 20.94260
#
# Velocity S-wave (km/s) = 2.88745 3.41865 3.16422
# Velocity P-wave (km/s) = 5.81307 6.37321 6.09957
#
# Compressibility (1/GPa) = 0.02108382
#
# Stress axis : x y z
#
# Youngs Moduli (GPa) = 90.12005 30.07855 37.01900
#
# Poissons Ratio (x) = 0.08413 0.08687
# Poissons Ratio (y) = 0.25206 0.74010
# Poissons Ratio (z) = 0.21148 0.60134
#
# Static dielectric constant tensor:
#      x y z
#    x 3.644490 0.000000 0.205860 
#    y 0.000000 3.483920 0.000000 
#    z 0.205860 0.000000 3.867190 
# 
# 
# High freq. dielectric constant tensor:
#      x y z
#    x 1.805720 0.000000 0.024720 
#    y 0.000000 1.795930 0.000000 
#    z 0.024720 0.000000 1.821610 
# 
# From -- ./inp_files/36086.got.cif
#   From: 2010.06.25/outbox.cif.g09.slc.cpg/sg13_19_cif.got.tgz:36086.got - 2010.06.28 04:50:58.
