data_PCOD8117523
_publ_section_title
;
Structure prediction by ZEFSAII (Michael W. Deem and Ramdas Pophale) SiO2 
 PCOD8117523
Probable space group: P 2/C
;
_chemical_formula_sum "Si O2"
_cell_formula_units_Z 30
_cell_length_a 31.706981
_cell_length_b 5.458623
_cell_length_c 28.553451
_cell_angle_alpha 90.000000
_cell_angle_beta 163.032033
_cell_angle_gamma 90.000000
_cell_volume 1442.238088
_symmetry_space_group_name_H-M "P 2/C"
_symmetry_group_IT_number 13
_symmetry_cell_setting 'monoclinic'
loop_
_space_group_symop_operation_xyz
x,y,z
-x,y,1/2-z
-x,-y,-z
x,-y,1/2+z
loop_
_atom_site_type_symbol
_atom_site_label
_atom_site_fract_x
_atom_site_fract_y
_atom_site_fract_z
Si Si1 0.580687 0.472484 0.908524
Si Si2 0.757792 0.467832 0.936473
Si Si3 0.916401 0.249383 0.921458
Si Si4 0.792984 0.712435 0.198497
Si Si5 0.184898 0.895832 0.853506
Si Si6 0.218198 0.023168 0.988284
Si Si7 0.500000 0.852499 0.750000
Si Si8 0.056395 0.591482 0.950637
O O1 0.414596 0.435617 0.745434
O O2 0.598872 0.687021 0.889560
O O3 0.671264 0.521617 0.052551
O O4 0.664642 0.245035 0.973801
O O5 0.813411 0.716431 0.020541
O O6 0.830640 0.221489 0.035731
O O7 0.807004 0.495954 0.934795
O O8 0.778130 0.244595 0.738991
O O9 0.878363 0.252035 0.936410
O O10 0.000000 0.500000 0.000000
O O11 0.000000 0.000000 0.000000
O O12 0.959445 0.631933 0.366423
O O13 0.770392 0.954037 0.144619
O O14 0.046826 0.738005 0.694031
O O15 0.141044 0.036090 0.855078
O O16 0.391433 0.989738 0.166148
#
# Coordination Sequence:
#
# PCOD8117523 Si02
#       8
#     4   4   4   4   4   4   2   4
#     4  10  21  37  60  89 122 158 209 250 300 356
#     4  11  26  41  58  88 129 168 194 244 312 374
#     4  10  20  39  65  91 116 155 207 257 306 359
#     4  10  21  38  65  92 114 156 210 262 294 351
#     4  11  20  38  62  88 119 156 211 253 289 354
#     4  11  23  38  58  88 121 166 203 241 298 362
#     4  10  18  38  58  84 120 160 210 246 286 358
#     4  10  24  41  61  90 126 160 201 254 315 366
#
# _framework density 20.801005
#
# number of rings (size 3 to 8) (size 9 to 14) (size 15 to 20)
#    0.000    1.600    2.667    2.400    5.600    1.067 
#    0.000    0.667    0.000    0.800    0.000    0.000 
#    0.000    0.000    0.000    0.000    0.000    0.000 
#
# Total GULP energy -371656.661648 kJ/mol
# GULP energy per Si atom -12388.555388 kJ/mol
# Density = 2.075366 g / cm^3
# Si number density = 20.801005 Si / 1000 Ang^3
#
#
#
# Elastic Constant Matrix: (Units=GPa)
#
#
# Indices 1 2 3 4 5 6 
#
# 1 120.8776 33.1658 48.6664 0.0000 -17.8802 0.0000
# 2 33.1658 112.8571 17.8647 0.0000 -6.9388 0.0000
# 3 48.6664 17.8647 70.3099 0.0000 -20.5407 0.0000
# 4 0.0000 0.0000 0.0000 20.6308 0.0000 -5.6051
# 5 -17.8802 -6.9388 -20.5407 0.0000 36.3326 0.0000
# 6 0.0000 0.0000 0.0000 -5.6051 0.0000 23.2798
#
#
#
# Elastic Compliance Matrix: (Units=1/GPa)
#
#
# Indices 1 2 3 4 5 6 
#
# 1 0.012073 -0.002297 -0.007385 0.000000 0.001328 0.000000
# 2 -0.002297 0.009678 -0.000790 0.000000 0.000271 0.000000
# 3 -0.007385 -0.000790 0.022075 0.000000 0.008695 0.000000
# 4 0.000000 0.000000 0.000000 0.051864 0.000000 0.012487
# 5 0.001328 0.000271 0.008695 0.000000 0.033144 0.000000
# 6 0.000000 0.000000 0.000000 0.012487 0.000000 0.045962
#
#
# Mechanical properties :
#
#
# Convention : Reuss Voigt Hill
#
# Bulk Modulus (GPa) = 43.70225 55.93761 49.81993
# Shear Modulus (GPa) = 24.58612 29.67181 27.12897
#
# Velocity S-wave (km/s) = 3.44171 3.78095 3.61531
# Velocity P-wave (km/s) = 6.07034 6.78314 6.43661
#
# Compressibility (1/GPa) = 0.02288212
#
# Stress axis : x y z
#
# Youngs Moduli (GPa) = 82.83142 103.33211 45.29969
#
# Poissons Ratio (x) = 0.23738 0.33453
# Poissons Ratio (y) = 0.19029 0.03577
# Poissons Ratio (z) = 0.61170 0.08159
#
# Static dielectric constant tensor:
#      x y z
#    x 4.027260 0.000000 -0.454810 
#    y 0.000000 3.861860 0.000000 
#    z -0.454810 0.000000 3.826520 
# 
# 
# High freq. dielectric constant tensor:
#      x y z
#    x 1.802730 0.000000 -0.024630 
#    y 0.000000 1.824120 0.000000 
#    z -0.024630 0.000000 1.800840 
# 
# From -- ./inp_files/94355.got.cif
#   From: 2010.06.25/outbox.cif.g09.slc.cpg/sg13_48_cif.got.tgz:94355.got - 2010.06.28 04:50:58.
