data_PCOD8117917
_publ_section_title
;
Structure prediction by ZEFSAII (Michael W. Deem and Ramdas Pophale) SiO2 
 PCOD8117917
Probable space group: P 2/C
;
_chemical_formula_sum "Si O2"
_cell_formula_units_Z 22
_cell_length_a 8.838289
_cell_length_b 8.238385
_cell_length_c 16.001258
_cell_angle_alpha 90.000000
_cell_angle_beta 75.746321
_cell_angle_gamma 90.000000
_cell_volume 1129.235655
_symmetry_space_group_name_H-M "P 2/C"
_symmetry_group_IT_number 13
_symmetry_cell_setting 'monoclinic'
loop_
_space_group_symop_operation_xyz
x,y,z
-x,y,1/2-z
-x,-y,-z
x,-y,1/2+z
loop_
_atom_site_type_symbol
_atom_site_label
_atom_site_fract_x
_atom_site_fract_y
_atom_site_fract_z
Si Si1 0.500000 0.696519 0.750000
Si Si2 0.019460 0.227733 0.364607
Si Si3 0.773257 0.474078 0.688799
Si Si4 0.161704 0.246999 0.681713
Si Si5 0.756387 0.902110 0.790711
Si Si6 0.987205 0.672463 0.044776
O O1 0.621439 0.578929 0.684443
O O2 0.590070 0.812286 0.803127
O O3 0.075005 0.408805 0.331542
O O4 0.147123 0.100208 0.310559
O O5 0.851798 0.200706 0.345834
O O6 0.998858 0.198535 0.467175
O O7 0.749523 0.395035 0.783797
O O8 0.818493 0.330854 0.616233
O O9 0.000000 0.208826 0.750000
O O10 0.129216 0.290327 0.589462
O O11 0.268770 0.085819 0.674341
O O12 0.000000 0.500000 0.000000
#
# Coordination Sequence:
#
# PCOD8117917 Si02
#       6
#     2   4   4   4   4   4
#     4  10  22  34  58  76 112 160 184 220 284 344
#     4   9  18  35  58  80 110 146 187 231 278 328
#     4   9  20  35  57  82 109 150 193 227 272 336
#     4  10  19  34  57  89 108 137 193 241 271 321
#     4  10  20  35  55  80 113 150 184 228 283 338
#     4   9  19  31  59  88 110 137 188 246 272 316
#
# _framework density 19.482203999999999
#
# number of rings (size 3 to 8) (size 9 to 14) (size 15 to 20)
#    0.000    2.545    1.818    0.000   22.909    1.455 
#    0.000    0.909    4.000    9.818    0.000    0.000 
#    0.000    0.000    0.000    0.000    0.000    0.000 
#
# Total GULP energy -272538.357940 kJ/mol
# GULP energy per Si atom -12388.107179 kJ/mol
# Density = 1.943786 g / cm^3
# Si number density = 19.482204 Si / 1000 Ang^3
#
#
#
# Elastic Constant Matrix: (Units=GPa)
#
#
# Indices 1 2 3 4 5 6 
#
# 1 104.5820 48.2932 41.1103 0.0000 21.5255 0.0000
# 2 48.2932 99.0484 48.7296 0.0000 13.6294 0.0000
# 3 41.1103 48.7296 134.5718 0.0000 23.4947 0.0000
# 4 0.0000 0.0000 0.0000 17.4806 0.0000 7.8777
# 5 21.5255 13.6294 23.4947 0.0000 17.1020 0.0000
# 6 0.0000 0.0000 0.0000 7.8777 0.0000 31.7922
#
#
#
# Elastic Compliance Matrix: (Units=1/GPa)
#
#
# Indices 1 2 3 4 5 6 
#
# 1 0.015041 -0.005259 -0.000154 0.000000 -0.014529 0.000000
# 2 -0.005259 0.014435 -0.003641 0.000000 0.000117 0.000000
# 3 -0.000154 -0.003641 0.010861 0.000000 -0.011825 0.000000
# 4 0.000000 0.000000 0.000000 0.064397 0.000000 -0.015957
# 5 -0.014529 0.000117 -0.011825 0.000000 0.092912 0.000000
# 6 0.000000 0.000000 0.000000 -0.015957 0.000000 0.035408
#
#
# Mechanical properties :
#
#
# Convention : Reuss Voigt Hill
#
# Bulk Modulus (GPa) = 44.98438 68.27426 56.62932
# Shear Modulus (GPa) = 19.33694 26.61289 22.97491
#
# Velocity S-wave (km/s) = 3.15388 3.69997 3.43779
# Velocity P-wave (km/s) = 6.03347 7.30572 6.69986
#
# Compressibility (1/GPa) = 0.02222994
#
# Stress axis : x y z
#
# Youngs Moduli (GPa) = 66.48423 69.27472 92.07196
#
# Poissons Ratio (x) = 0.36429 0.01419
# Poissons Ratio (y) = 0.34961 0.33524
# Poissons Ratio (z) = 0.01025 0.25223
#
# Static dielectric constant tensor:
#      x y z
#    x 3.253940 0.000000 0.066650 
#    y 0.000000 3.687290 0.000000 
#    z 0.066650 0.000000 4.280420 
# 
# 
# High freq. dielectric constant tensor:
#      x y z
#    x 1.715120 0.000000 0.016360 
#    y 0.000000 1.762160 0.000000 
#    z 0.016360 0.000000 1.747230 
# 
# From -- ./inp_files/46115.got.cif
#   From: 2010.06.25/outbox.cif.g09.slc.cpg/sg13_24_cif.got.tgz:46115.got - 2010.06.28 04:50:58.
