data_PCOD8117656
_publ_section_title
;
Structure prediction by ZEFSAII (Michael W. Deem and Ramdas Pophale) SiO2 
 PCOD8117656
Probable space group: P 2/C
;
_chemical_formula_sum "Si O2"
_cell_formula_units_Z 28
_cell_length_a 18.152876
_cell_length_b 12.952363
_cell_length_c 16.842722
_cell_angle_alpha 90.000000
_cell_angle_beta 23.355242
_cell_angle_gamma 90.000000
_cell_volume 1569.907864
_symmetry_space_group_name_H-M "P 2/C"
_symmetry_group_IT_number 13
_symmetry_cell_setting 'monoclinic'
loop_
_space_group_symop_operation_xyz
x,y,z
-x,y,1/2-z
-x,-y,-z
x,-y,1/2+z
loop_
_atom_site_type_symbol
_atom_site_label
_atom_site_fract_x
_atom_site_fract_y
_atom_site_fract_z
Si Si1 0.481589 0.669259 0.358584
Si Si2 0.812109 0.394016 0.237216
Si Si3 0.214500 0.821221 0.246743
Si Si4 0.499475 0.885799 0.411437
Si Si5 0.784734 0.183348 0.181932
Si Si6 0.767930 0.399641 0.698903
Si Si7 0.505119 0.891253 0.652105
O O1 0.500000 0.636156 0.250000
O O2 0.276685 0.638999 0.591297
O O3 0.517166 0.790941 0.333359
O O4 0.628184 0.604328 0.264188
O O5 0.773184 0.305703 0.210143
O O6 0.720312 0.499777 0.297639
O O7 0.028401 0.408772 0.040309
O O8 0.322653 0.888647 0.205918
O O9 0.249209 0.700465 0.228560
O O10 0.998279 0.852513 0.462360
O O11 0.303652 0.845078 0.072793
O O12 0.312126 0.878644 0.649832
O O13 0.498560 0.986645 0.358900
O O14 0.675170 0.161931 0.209019
O O15 0.500000 0.867121 0.750000
#
# Coordination Sequence:
#
# PCOD8117656 Si02
#       7
#     4   4   4   4   4   4   4
#     4  10  19  31  50  76 102 124 154 202 251 288
#     4   9  18  34  54  73  96 129 165 197 234 285
#     4   9  18  34  54  72  93 126 166 201 233 281
#     4   9  19  34  51  71  95 127 164 199 240 287
#     4   9  18  34  54  72  93 126 166 201 233 281
#     4   9  18  34  54  73  96 129 165 197 234 285
#     4  11  22  33  47  71 103 131 157 197 245 287
#
# _framework density 17.835442
#
# number of rings (size 3 to 8) (size 9 to 14) (size 15 to 20)
#    0.000    2.571    0.000    3.429    0.000    3.429 
#    0.000    2.857    0.000   10.286    0.000    0.000 
#    0.000    0.000    0.000    0.000    0.000    0.000 
#
# Total GULP energy -347216.280872 kJ/mol
# GULP energy per Si atom -12400.581460 kJ/mol
# Density = 1.779485 g / cm^3
# Si number density = 17.835442 Si / 1000 Ang^3
#
#
#
# Elastic Constant Matrix: (Units=GPa)
#
#
# Indices 1 2 3 4 5 6 
#
# 1 70.8016 14.4326 43.7760 0.0000 18.3869 0.0000
# 2 14.4326 59.9761 22.0651 0.0000 5.6810 0.0000
# 3 43.7760 22.0651 112.5522 0.0000 -4.1588 0.0000
# 4 0.0000 0.0000 0.0000 19.1053 0.0000 -5.7226
# 5 18.3869 5.6810 -4.1588 0.0000 27.4161 0.0000
# 6 0.0000 0.0000 0.0000 -5.7226 0.0000 15.5366
#
#
#
# Elastic Compliance Matrix: (Units=1/GPa)
#
#
# Indices 1 2 3 4 5 6 
#
# 1 0.025592 -0.000513 -0.010543 0.000000 -0.018656 0.000000
# 2 -0.000513 0.018494 -0.003575 0.000000 -0.004031 0.000000
# 3 -0.010543 -0.003575 0.014053 0.000000 0.009943 0.000000
# 4 0.000000 0.000000 0.000000 0.058832 0.000000 0.021670
# 5 -0.018656 -0.004031 0.009943 0.000000 0.051331 0.000000
# 6 0.000000 0.000000 0.000000 0.021670 0.000000 0.072346
#
#
# Mechanical properties :
#
#
# Convention : Reuss Voigt Hill
#
# Bulk Modulus (GPa) = 34.62791 44.87525 39.75158
# Shear Modulus (GPa) = 17.88692 23.28203 20.58448
#
# Velocity S-wave (km/s) = 3.17027 3.61692 3.40094
# Velocity P-wave (km/s) = 5.73221 6.53132 6.14477
#
# Compressibility (1/GPa) = 0.02887844
#
# Stress axis : x y z
#
# Youngs Moduli (GPa) = 39.07497 54.07234 71.15691
#
# Poissons Ratio (x) = 0.02772 0.75017
# Poissons Ratio (y) = 0.02003 0.25439
# Poissons Ratio (z) = 0.41195 0.19331
#
# Static dielectric constant tensor:
#      x y z
#    x 3.015120 0.000000 -0.129880 
#    y 0.000000 3.384620 0.000000 
#    z -0.129880 0.000000 3.495950 
# 
# 
# High freq. dielectric constant tensor:
#      x y z
#    x 1.661710 0.000000 -0.009980 
#    y 0.000000 1.698860 0.000000 
#    z -0.009980 0.000000 1.699360 
# 
# From -- ./inp_files/53817.got.cif
#   From: 2010.06.25/outbox.cif.g09.slc.cpg/sg13_27_cif.got.tgz:53817.got - 2010.06.28 04:50:58.
