data_PCOD8117357
_publ_section_title
;
Structure prediction by ZEFSAII (Michael W. Deem and Ramdas Pophale) SiO2 
 PCOD8117357
Probable space group: P 2/C
;
_chemical_formula_sum "Si O2"
_cell_formula_units_Z 26
_cell_length_a 17.585957
_cell_length_b 8.011831
_cell_length_c 16.544827
_cell_angle_alpha 90.000000
_cell_angle_beta 145.585647
_cell_angle_gamma 90.000000
_cell_volume 1317.473679
_symmetry_space_group_name_H-M "P 2/C"
_symmetry_group_IT_number 13
_symmetry_cell_setting 'monoclinic'
loop_
_space_group_symop_operation_xyz
x,y,z
-x,y,1/2-z
-x,-y,-z
x,-y,1/2+z
loop_
_atom_site_type_symbol
_atom_site_label
_atom_site_fract_x
_atom_site_fract_y
_atom_site_fract_z
Si Si1 0.262902 0.441096 0.910671
Si Si2 0.000000 0.460885 0.250000
Si Si3 0.106610 0.221115 0.466821
Si Si4 0.634976 0.241944 0.915945
Si Si5 0.080854 0.643473 0.112575
Si Si6 0.077680 0.141395 0.899916
Si Si7 0.364659 0.133371 0.083612
O O1 0.135759 0.429680 0.861722
O O2 0.212153 0.427707 0.773975
O O3 0.341601 0.616185 0.994791
O O4 0.353891 0.276857 0.005912
O O5 0.002406 0.352609 0.334922
O O6 0.247964 0.245895 0.547045
O O7 0.129652 0.237405 0.582922
O O8 0.037450 0.043607 0.392107
O O9 0.500000 0.285931 0.750000
O O10 0.630507 0.054467 0.950724
O O11 0.976832 0.730092 0.082074
O O12 0.000000 0.500000 0.000000
O O13 0.000000 0.181285 0.750000
O O14 0.239197 0.150667 0.034687
O O15 0.500000 0.169937 0.250000
#
# Coordination Sequence:
#
# PCOD8117357 Si02
#       7
#     4   2   4   4   4   4   4
#     4  11  20  35  59  86 119 161 197 244 307 357
#     4  10  18  34  62  84 118 154 204 248 296 358
#     4  10  21  37  61  89 119 153 202 257 302 352
#     4   9  21  40  64  85 116 160 211 248 299 364
#     4  12  24  35  55  91 131 153 195 258 308 353
#     4  11  21  39  65  89 115 162 207 249 303 365
#     4  10  21  38  65  91 114 153 211 254 291 360
#
# _framework density 19.734739000000001
#
# number of rings (size 3 to 8) (size 9 to 14) (size 15 to 20)
#    0.000    1.538    3.846    1.846    2.154    0.000 
#    2.769    0.769    0.000    2.769    0.000    0.000 
#    0.000    0.000    0.000    0.000    0.000    0.000 
#
# Total GULP energy -322293.656265 kJ/mol
# GULP energy per Si atom -12395.909856 kJ/mol
# Density = 1.968982 g / cm^3
# Si number density = 19.734739 Si / 1000 Ang^3
#
#
#
# Elastic Constant Matrix: (Units=GPa)
#
#
# Indices 1 2 3 4 5 6 
#
# 1 53.3306 19.5817 35.7134 0.0000 -20.0170 0.0000
# 2 19.5817 141.0434 69.9836 0.0000 -13.0085 0.0000
# 3 35.7134 69.9836 141.7332 0.0000 -9.5481 0.0000
# 4 0.0000 0.0000 0.0000 39.8439 0.0000 -2.7656
# 5 -20.0170 -13.0085 -9.5481 0.0000 35.7867 0.0000
# 6 0.0000 0.0000 0.0000 -2.7656 0.0000 22.8834
#
#
#
# Elastic Compliance Matrix: (Units=1/GPa)
#
#
# Indices 1 2 3 4 5 6 
#
# 1 0.028201 0.000596 -0.006439 0.000000 0.014273 0.000000
# 2 0.000596 0.009579 -0.004708 0.000000 0.002559 0.000000
# 3 -0.006439 -0.004708 0.010839 0.000000 -0.002421 0.000000
# 4 0.000000 0.000000 0.000000 0.025310 0.000000 0.003059
# 5 0.014273 0.002559 -0.002421 0.000000 0.036211 0.000000
# 6 0.000000 0.000000 0.000000 0.003059 0.000000 0.044069
#
#
# Mechanical properties :
#
#
# Convention : Reuss Voigt Hill
#
# Bulk Modulus (GPa) = 36.33900 65.18495 50.76197
# Shear Modulus (GPa) = 27.10257 33.75803 30.43030
#
# Velocity S-wave (km/s) = 3.70988 4.14041 3.93105
# Velocity P-wave (km/s) = 6.06669 7.48062 6.81045
#
# Compressibility (1/GPa) = 0.02751864
#
# Stress axis : x y z
#
# Youngs Moduli (GPa) = 35.45966 104.39278 92.25651
#
# Poissons Ratio (x) = -0.06221 0.59401
# Poissons Ratio (y) = -0.02113 0.43431
# Poissons Ratio (z) = 0.22832 0.49145
#
# Static dielectric constant tensor:
#      x y z
#    x 3.790460 0.000000 -0.236370 
#    y 0.000000 4.104840 0.000000 
#    z -0.236370 0.000000 3.815640 
# 
# 
# High freq. dielectric constant tensor:
#      x y z
#    x 1.725440 0.000000 0.003070 
#    y 0.000000 1.801890 0.000000 
#    z 0.003070 0.000000 1.773670 
# 
# From -- ./inp_files/70437.got.cif
#   From: 2010.06.25/outbox.cif.g09.slc.cpg/sg13_36_cif.got.tgz:70437.got - 2010.06.28 04:50:58.
