data_PCOD8117644
_publ_section_title
;
Structure prediction by ZEFSAII (Michael W. Deem and Ramdas Pophale) SiO2 
 PCOD8117644
Probable space group: P 2/C
;
_chemical_formula_sum "Si O2"
_cell_formula_units_Z 28
_cell_length_a 23.735459
_cell_length_b 13.698442
_cell_length_c 10.122861
_cell_angle_alpha 90.000000
_cell_angle_beta 31.463004
_cell_angle_gamma 90.000000
_cell_volume 1717.905387
_symmetry_space_group_name_H-M "P 2/C"
_symmetry_group_IT_number 13
_symmetry_cell_setting 'monoclinic'
loop_
_space_group_symop_operation_xyz
x,y,z
-x,y,1/2-z
-x,-y,-z
x,-y,1/2+z
loop_
_atom_site_type_symbol
_atom_site_label
_atom_site_fract_x
_atom_site_fract_y
_atom_site_fract_z
Si Si1 0.234575 0.907913 0.933364
Si Si2 0.000001 0.084211 0.603521
Si Si3 0.765423 0.092085 0.371665
Si Si4 0.371993 0.274169 0.775846
Si Si5 0.371992 0.274171 0.236188
Si Si6 0.371722 0.632825 0.006558
Si Si7 0.627941 0.585403 0.994117
O O1 0.255570 0.940125 0.738861
O O2 0.321836 0.829243 0.801205
O O3 0.113866 0.858627 0.187802
O O4 0.246969 0.999998 0.006064
O O5 0.000000 0.037480 0.750000
O O6 0.113868 0.141372 0.356729
O O7 0.000000 0.000000 0.500000
O O8 0.678162 0.170754 0.588553
O O9 0.500001 0.261078 0.525734
O O10 0.330874 0.308055 0.715121
O O11 0.331969 0.356782 0.957370
O O12 0.330875 0.308053 0.461386
O O13 0.331969 0.356786 0.214761
O O14 0.322308 0.523433 0.105385
O O15 0.500000 0.624831 0.750000
O O16 0.500000 0.577947 0.250000
#
# Coordination Sequence:
#
# PCOD8117644 Si02
#       7
#     4   4   4   4   4   4   4
#     4  10  20  33  50  70  95 125 156 192 231 274
#     4   8  16  32  50  68  87 115 158 198 229 265
#     4  10  20  33  50  70  95 125 156 192 231 274
#     4  10  19  31  47  71 100 125 155 190 231 283
#     4  10  19  31  47  71 100 125 155 190 231 283
#     4   9  18  30  47  70  95 126 159 194 231 269
#     4   9  16  30  49  68  93 124 159 196 231 269
#
# _framework density 16.298919000000001
#
# number of rings (size 3 to 8) (size 9 to 14) (size 15 to 20)
#    0.000    2.571    1.429    0.857    2.000    4.000 
#    0.000    0.000    0.000    0.000    0.000    6.000 
#    0.000    0.000    0.000    0.000    0.000    0.000 
#
# Total GULP energy -346913.856256 kJ/mol
# GULP energy per Si atom -12389.780581 kJ/mol
# Density = 1.626182 g / cm^3
# Si number density = 16.298919 Si / 1000 Ang^3
#
#
#
# Elastic Constant Matrix: (Units=GPa)
#
#
# Indices 1 2 3 4 5 6 
#
# 1 106.0814 51.4720 47.2667 0.0000 29.6157 0.0000
# 2 51.4720 93.5483 41.7311 0.0000 8.7803 0.0000
# 3 47.2667 41.7311 57.6508 0.0000 14.0522 0.0000
# 4 0.0000 0.0000 0.0000 7.8694 0.0000 11.9402
# 5 29.6157 8.7803 14.0522 0.0000 27.0173 0.0000
# 6 0.0000 0.0000 0.0000 11.9402 0.0000 21.1102
#
#
#
# Elastic Compliance Matrix: (Units=1/GPa)
#
#
# Indices 1 2 3 4 5 6 
#
# 1 0.020772 -0.006017 -0.008705 0.000000 -0.016286 0.000000
# 2 -0.006017 0.017551 -0.009148 0.000000 0.005650 0.000000
# 3 -0.008705 -0.009148 0.032127 0.000000 -0.004195 0.000000
# 4 0.000000 0.000000 0.000000 0.896171 0.000000 -0.506885
# 5 -0.016286 0.005650 -0.004195 0.000000 0.055212 0.000000
# 6 0.000000 0.000000 0.000000 -0.506885 0.000000 0.334070
#
#
# Mechanical properties :
#
#
# Convention : Reuss Voigt Hill
#
# Bulk Modulus (GPa) = 44.03500 59.80223 51.91861
# Shear Modulus (GPa) = 3.54305 18.98677 11.26491
#
# Velocity S-wave (km/s) = 1.47598 3.41678 2.63182
# Velocity P-wave (km/s) = 5.47544 7.23439 6.41548
#
# Compressibility (1/GPa) = 0.02270921
#
# Stress axis : x y z
#
# Youngs Moduli (GPa) = 48.14198 56.97630 31.12599
#
# Poissons Ratio (x) = 0.34284 0.27095
# Poissons Ratio (y) = 0.28968 0.28475
# Poissons Ratio (z) = 0.41908 0.52124
#
# Static dielectric constant tensor:
#      x y z
#    x 3.391850 0.000000 0.130700 
#    y 0.000000 2.932650 0.000000 
#    z 0.130700 0.000000 3.246900 
# 
# 
# High freq. dielectric constant tensor:
#      x y z
#    x 1.638810 0.000000 0.025700 
#    y 0.000000 1.605660 0.000000 
#    z 0.025700 0.000000 1.610310 
# 
# From -- ./inp_files/19333.got.cif
#   From: 2010.06.25/outbox.cif.g09.slc.cpg/sg13_10_cif.got.tgz:19333.got - 2010.06.28 04:50:58.
