data_PCOD8117997
_publ_section_title
;
Structure prediction by ZEFSAII (Michael W. Deem and Ramdas Pophale) SiO2 
 PCOD8117997
Probable space group: P 2/C
;
_chemical_formula_sum "Si O2"
_cell_formula_units_Z 26
_cell_length_a 6.634118
_cell_length_b 8.824506
_cell_length_c 30.065518
_cell_angle_alpha 90.000000
_cell_angle_beta 127.862751
_cell_angle_gamma 90.000000
_cell_volume 1389.585328
_symmetry_space_group_name_H-M "P 2/C"
_symmetry_group_IT_number 13
_symmetry_cell_setting 'monoclinic'
loop_
_space_group_symop_operation_xyz
x,y,z
-x,y,1/2-z
-x,-y,-z
x,-y,1/2+z
loop_
_atom_site_type_symbol
_atom_site_label
_atom_site_fract_x
_atom_site_fract_y
_atom_site_fract_z
Si Si1 0.315222 0.911134 0.942714
Si Si2 0.375918 0.372116 0.039676
Si Si3 0.977879 0.135187 0.845143
Si Si4 0.000000 0.055275 0.750000
Si Si5 0.526989 0.917950 0.803575
Si Si6 0.835542 0.431378 0.583257
Si Si7 0.126161 0.708678 0.594600
O O1 0.465563 0.782669 0.936658
O O2 0.092542 0.835550 0.942489
O O3 0.203846 0.023002 0.890470
O O4 0.500000 0.000000 0.000000
O O5 0.559538 0.520282 0.066036
O O6 0.192588 0.370341 0.057120
O O7 0.202663 0.375213 0.972292
O O8 0.979283 0.154980 0.791931
O O9 0.026901 0.300817 0.870715
O O10 0.708952 0.067495 0.826503
O O11 0.252628 0.953063 0.787368
O O12 0.500000 0.853761 0.750000
O O13 0.634995 0.784034 0.848677
O O14 0.019923 0.575771 0.611490
#
# Coordination Sequence:
#
# PCOD8117997 Si02
#       7
#     4   4   4   2   4   4   4
#     4  10  19  35  56  85 117 145 183 234 276 326
#     4  10  20  36  54  79 117 156 183 215 275 338
#     4  10  20  37  58  84 113 145 184 233 280 326
#     4  10  20  38  62  80 102 144 190 238 278 326
#     4   9  20  39  60  80 106 139 187 239 279 318
#     4  10  21  36  53  79 121 149 176 229 274 331
#     4  10  21  36  56  83 110 151 188 220 276 343
#
# _framework density 18.710619000000001
#
# number of rings (size 3 to 8) (size 9 to 14) (size 15 to 20)
#    0.000    2.154    1.538    1.385    0.000    3.077 
#    2.769    3.846    0.000    2.769    0.000    0.000 
#    0.000    0.000    0.000    0.000    0.000    0.000 
#
# Total GULP energy -322391.839005 kJ/mol
# GULP energy per Si atom -12399.686116 kJ/mol
# Density = 1.866803 g / cm^3
# Si number density = 18.710619 Si / 1000 Ang^3
#
#
#
# Elastic Constant Matrix: (Units=GPa)
#
#
# Indices 1 2 3 4 5 6 
#
# 1 93.0399 35.7894 45.8456 0.0000 0.1328 0.0000
# 2 35.7894 103.2561 58.1034 0.0000 2.0633 0.0000
# 3 45.8456 58.1034 113.0780 0.0000 4.7600 0.0000
# 4 0.0000 0.0000 0.0000 29.4238 0.0000 0.8052
# 5 0.1328 2.0633 4.7600 0.0000 31.9564 0.0000
# 6 0.0000 0.0000 0.0000 0.8052 0.0000 15.8410
#
#
#
# Elastic Compliance Matrix: (Units=1/GPa)
#
#
# Indices 1 2 3 4 5 6 
#
# 1 0.013828 -0.002300 -0.004456 0.000000 0.000755 0.000000
# 2 -0.002300 0.014007 -0.006266 0.000000 0.000039 0.000000
# 3 -0.004456 -0.006266 0.013940 0.000000 -0.001653 0.000000
# 4 0.000000 0.000000 0.000000 0.034033 0.000000 -0.001730
# 5 0.000755 0.000039 -0.001653 0.000000 0.031533 0.000000
# 6 0.000000 0.000000 0.000000 -0.001730 0.000000 0.063215
#
#
# Mechanical properties :
#
#
# Convention : Reuss Voigt Hill
#
# Bulk Modulus (GPa) = 63.57698 65.42787 64.50242
# Shear Modulus (GPa) = 24.77151 26.75330 25.76240
#
# Velocity S-wave (km/s) = 3.64253 3.78543 3.71467
# Velocity P-wave (km/s) = 7.19330 7.35868 7.27646
#
# Compressibility (1/GPa) = 0.01572896
#
# Stress axis : x y z
#
# Youngs Moduli (GPa) = 72.31944 71.39051 71.73838
#
# Poissons Ratio (x) = 0.16423 0.31966
# Poissons Ratio (y) = 0.16637 0.44955
# Poissons Ratio (z) = 0.32225 0.44737
#
# Static dielectric constant tensor:
#      x y z
#    x 3.465120 0.000000 0.159110 
#    y 0.000000 3.359690 0.000000 
#    z 0.159110 0.000000 3.483910 
# 
# 
# High freq. dielectric constant tensor:
#      x y z
#    x 1.728370 0.000000 0.009950 
#    y 0.000000 1.717760 0.000000 
#    z 0.009950 0.000000 1.728120 
# 
# From -- ./inp_files/90271.got.cif
#   From: 2010.06.25/outbox.cif.g09.slc.cpg/sg13_46_cif.got.tgz:90271.got - 2010.06.28 04:50:58.
