data_PCOD8117850
_publ_section_title
;
Structure prediction by ZEFSAII (Michael W. Deem and Ramdas Pophale) SiO2 
 PCOD8117850
Probable space group: P 2/C
;
_chemical_formula_sum "Si O2"
_cell_formula_units_Z 28
_cell_length_a 6.133302
_cell_length_b 12.172302
_cell_length_c 20.763073
_cell_angle_alpha 90.000000
_cell_angle_beta 72.413699
_cell_angle_gamma 90.000000
_cell_volume 1477.649415
_symmetry_space_group_name_H-M "P 2/C"
_symmetry_group_IT_number 13
_symmetry_cell_setting 'monoclinic'
loop_
_space_group_symop_operation_xyz
x,y,z
-x,y,1/2-z
-x,-y,-z
x,-y,1/2+z
loop_
_atom_site_type_symbol
_atom_site_label
_atom_site_fract_x
_atom_site_fract_y
_atom_site_fract_z
Si Si1 0.963020 0.880317 0.596402
Si Si2 0.126325 0.243398 0.516276
Si Si3 0.514979 0.391895 0.423089
Si Si4 0.514374 0.957481 0.819018
Si Si5 0.334815 0.944095 0.068173
Si Si6 0.813734 0.751980 0.817067
Si Si7 0.790348 0.579806 0.026348
O O1 0.959773 0.855309 0.521016
O O2 0.713066 0.891475 0.646757
O O3 0.079070 0.778968 0.623066
O O4 0.097372 0.992673 0.593413
O O5 0.300368 0.317296 0.460741
O O6 0.267958 0.183893 0.561275
O O7 0.897325 0.314320 0.555471
O O8 0.628853 0.344481 0.347538
O O9 0.418432 0.516151 0.418359
O O10 0.699429 0.388598 0.463892
O O11 0.500000 0.015552 0.750000
O O12 0.710186 0.864614 0.798179
O O13 0.551254 0.048924 0.871167
O O14 0.500000 0.000000 0.000000
O O15 0.000000 0.706329 0.750000
O O16 0.000000 0.500000 0.000000
#
# Coordination Sequence:
#
# PCOD8117850 Si02
#       7
#     4   4   4   4   4   4   4
#     4  11  20  33  53  78 122 151 180 226 284 342
#     4  11  19  33  54  79 115 151 182 232 288 328
#     4  10  19  34  52  82 115 140 186 231 285 355
#     4  11  22  36  50  76 121 159 184 229 284 347
#     4  11  23  32  51  85 116 150 196 233 275 345
#     4  11  20  31  53  81 113 151 183 219 283 361
#     4   9  20  33  53  75 113 144 177 234 295 333
#
# _framework density 18.949016
#
# number of rings (size 3 to 8) (size 9 to 14) (size 15 to 20)
#    0.000    1.429    5.714    1.286    0.000    0.000 
#    0.000    0.000    0.000    0.000    0.000    0.000 
#   72.857    0.000    0.000    0.000    0.000    0.000 
#
# Total GULP energy -346944.134296 kJ/mol
# GULP energy per Si atom -12390.861939 kJ/mol
# Density = 1.890589 g / cm^3
# Si number density = 18.949016 Si / 1000 Ang^3
#
#
#
# Elastic Constant Matrix: (Units=GPa)
#
#
# Indices 1 2 3 4 5 6 
#
# 1 86.4639 34.2929 31.6771 0.0000 1.9816 0.0000
# 2 34.2929 83.1477 44.7355 0.0000 -4.7749 0.0000
# 3 31.6771 44.7355 97.9899 0.0000 5.9292 0.0000
# 4 0.0000 0.0000 0.0000 20.7101 0.0000 -5.5433
# 5 1.9816 -4.7749 5.9292 0.0000 31.9576 0.0000
# 6 0.0000 0.0000 0.0000 -5.5433 0.0000 24.1264
#
#
#
# Elastic Compliance Matrix: (Units=1/GPa)
#
#
# Indices 1 2 3 4 5 6 
#
# 1 0.014335 -0.004667 -0.002434 0.000000 -0.001135 0.000000
# 2 -0.004667 0.017926 -0.006932 0.000000 0.004254 0.000000
# 3 -0.002434 -0.006932 0.014372 0.000000 -0.003551 0.000000
# 4 0.000000 0.000000 0.000000 0.051450 0.000000 0.011821
# 5 -0.001135 0.004254 -0.003551 0.000000 0.032656 0.000000
# 6 0.000000 0.000000 0.000000 0.011821 0.000000 0.044165
#
#
# Mechanical properties :
#
#
# Convention : Reuss Voigt Hill
#
# Bulk Modulus (GPa) = 53.86793 54.33470 54.10132
# Shear Modulus (GPa) = 23.90526 25.81855 24.86190
#
# Velocity S-wave (km/s) = 3.55569 3.69525 3.62614
# Velocity P-wave (km/s) = 6.73400 6.85149 6.79300
#
# Compressibility (1/GPa) = 0.01856392
#
# Stress axis : x y z
#
# Youngs Moduli (GPa) = 69.76138 55.78551 69.58078
#
# Poissons Ratio (x) = 0.26037 0.16939
# Poissons Ratio (y) = 0.32561 0.48235
# Poissons Ratio (z) = 0.16983 0.38672
#
# Static dielectric constant tensor:
#      x y z
#    x 3.149750 0.000000 0.276760 
#    y 0.000000 3.868650 0.000000 
#    z 0.276760 0.000000 3.203790 
# 
# 
# High freq. dielectric constant tensor:
#      x y z
#    x 1.766200 0.000000 -0.002750 
#    y 0.000000 1.713770 0.000000 
#    z -0.002750 0.000000 1.693910 
# 
# From -- ./inp_files/61434.got.cif
#   From: 2010.06.25/outbox.cif.g09.slc.cpg/sg13_31_cif.got.tgz:61434.got - 2010.06.28 04:50:58.
