data_PCOD8117120
_publ_section_title
;
Structure prediction by ZEFSAII (Michael W. Deem and Ramdas Pophale) SiO2 
 PCOD8117120
Probable space group: P 2/C
;
_chemical_formula_sum "Si O2"
_cell_formula_units_Z 24
_cell_length_a 15.503096
_cell_length_b 8.744765
_cell_length_c 17.869609
_cell_angle_alpha 90.000000
_cell_angle_beta 148.176405
_cell_angle_gamma 90.000000
_cell_volume 1277.450653
_symmetry_space_group_name_H-M "P 2/C"
_symmetry_group_IT_number 13
_symmetry_cell_setting 'monoclinic'
loop_
_space_group_symop_operation_xyz
x,y,z
-x,y,1/2-z
-x,-y,-z
x,-y,1/2+z
loop_
_atom_site_type_symbol
_atom_site_label
_atom_site_fract_x
_atom_site_fract_y
_atom_site_fract_z
Si Si1 0.249501 0.424436 0.678527
Si Si2 0.920974 0.721293 0.927613
Si Si3 0.500000 0.687795 0.250000
Si Si4 0.000000 0.508850 0.250000
Si Si5 0.118293 0.261559 0.711836
Si Si6 0.113784 0.921295 0.733625
Si Si7 0.202651 0.226125 0.440345
O O1 0.227499 0.601487 0.683214
O O2 0.408921 0.414857 0.744596
O O3 0.265399 0.327007 0.767660
O O4 0.085714 0.360797 0.514407
O O5 0.866001 0.865481 0.837300
O O6 0.957936 0.768290 0.040887
O O7 0.631353 0.791512 0.390194
O O8 0.084238 0.616251 0.250962
O O9 0.135760 0.401070 0.389925
O O10 0.165336 0.097870 0.780370
O O11 0.233053 0.825516 0.876613
O O12 0.926652 0.892590 0.620070
#
# Coordination Sequence:
#
# PCOD8117120 Si02
#       7
#     4   4   2   2   4   4   4
#     4   9  19  32  58  80 109 145 186 223 272 322
#     4   9  17  34  55  84 105 140 188 229 259 322
#     4  12  20  38  54  84 110 150 174 232 292 324
#     4  10  18  36  56  86 106 140 192 242 254 320
#     4  10  18  31  59  84 109 141 189 228 270 316
#     4  10  18  34  55  87 104 145 190 227 263 329
#     4  10  21  32  56  79 113 143 186 228 276 325
#
# _framework density 18.787419
#
# number of rings (size 3 to 8) (size 9 to 14) (size 15 to 20)
#    1.000    1.333    1.667    4.500    0.000    0.000 
#    0.000    4.167    0.000   14.000    0.000    0.000 
#    0.000    0.000    0.000    0.000    0.000    0.000 
#
# Total GULP energy -297372.371651 kJ/mol
# GULP energy per Si atom -12390.515485 kJ/mol
# Density = 1.874466 g / cm^3
# Si number density = 18.787419 Si / 1000 Ang^3
#
#
#
# Elastic Constant Matrix: (Units=GPa)
#
#
# Indices 1 2 3 4 5 6 
#
# 1 116.0877 35.7717 18.5043 0.0000 -0.2494 0.0000
# 2 35.7717 103.8082 11.8560 0.0000 -1.5961 0.0000
# 3 18.5043 11.8560 87.9070 0.0000 -3.8198 0.0000
# 4 0.0000 0.0000 0.0000 14.4949 0.0000 -11.1905
# 5 -0.2494 -1.5961 -3.8198 0.0000 24.5929 0.0000
# 6 0.0000 0.0000 0.0000 -11.1905 0.0000 24.3140
#
#
#
# Elastic Compliance Matrix: (Units=1/GPa)
#
#
# Indices 1 2 3 4 5 6 
#
# 1 0.009869 -0.003217 -0.001659 0.000000 -0.000366 0.000000
# 2 -0.003217 0.010837 -0.000760 0.000000 0.000553 0.000000
# 3 -0.001659 -0.000760 0.011905 0.000000 0.001783 0.000000
# 4 0.000000 0.000000 0.000000 0.107015 0.000000 0.049254
# 5 -0.000366 0.000553 0.001783 0.000000 0.040971 0.000000
# 6 0.000000 0.000000 0.000000 0.049254 0.000000 0.063797
#
#
# Mechanical properties :
#
#
# Convention : Reuss Voigt Hill
#
# Bulk Modulus (GPa) = 46.86587 48.89632 47.88110
# Shear Modulus (GPa) = 19.02723 28.79175 23.90949
#
# Velocity S-wave (km/s) = 3.18585 3.91896 3.57127
# Velocity P-wave (km/s) = 6.20744 6.82351 6.52275
#
# Compressibility (1/GPa) = 0.02133749
#
# Stress axis : x y z
#
# Youngs Moduli (GPa) = 101.32537 92.27605 83.99825
#
# Poissons Ratio (x) = 0.29685 0.13939
# Poissons Ratio (y) = 0.32596 0.06387
# Poissons Ratio (z) = 0.16815 0.07017
#
# Static dielectric constant tensor:
#      x y z
#    x 3.388570 0.000000 -0.305590 
#    y 0.000000 3.223030 0.000000 
#    z -0.305590 0.000000 3.212730 
# 
# 
# High freq. dielectric constant tensor:
#      x y z
#    x 1.723800 0.000000 -0.036340 
#    y 0.000000 1.719760 0.000000 
#    z -0.036340 0.000000 1.691470 
# 
# From -- ./inp_files/67830.got.cif
#   From: 2010.06.25/outbox.cif.g09.slc.cpg/sg13_34_cif.got.tgz:67830.got - 2010.06.28 04:50:58.
