data_PCOD8117893
_publ_section_title
;
Structure prediction by ZEFSAII (Michael W. Deem and Ramdas Pophale) SiO2 
 PCOD8117893
Probable space group: P 2/C
;
_chemical_formula_sum "Si O2"
_cell_formula_units_Z 26
_cell_length_a 9.770394
_cell_length_b 7.789628
_cell_length_c 27.352997
_cell_angle_alpha 90.000000
_cell_angle_beta 137.136744
_cell_angle_gamma 90.000000
_cell_volume 1416.129168
_symmetry_space_group_name_H-M "P 2/C"
_symmetry_group_IT_number 13
_symmetry_cell_setting 'monoclinic'
loop_
_space_group_symop_operation_xyz
x,y,z
-x,y,1/2-z
-x,-y,-z
x,-y,1/2+z
loop_
_atom_site_type_symbol
_atom_site_label
_atom_site_fract_x
_atom_site_fract_y
_atom_site_fract_z
Si Si1 0.747334 0.557427 0.390299
Si Si2 0.226339 0.070355 0.194895
Si Si3 0.776889 0.138396 0.068888
Si Si4 0.500000 0.226475 0.750000
Si Si5 0.572106 0.194114 0.345081
Si Si6 0.594139 0.162062 0.460128
Si Si7 0.186089 0.473779 0.484184
O O1 0.597354 0.672299 0.319985
O O2 0.627487 0.386835 0.368567
O O3 0.791545 0.620783 0.457143
O O4 0.955476 0.532307 0.415789
O O5 0.352647 0.197774 0.262588
O O6 0.261562 0.107100 0.146440
O O7 0.995681 0.095602 0.148299
O O8 0.321244 0.882350 0.229014
O O9 0.626477 0.145959 0.074764
O O10 0.761528 0.325415 0.040392
O O11 0.735684 0.980112 0.021863
O O12 0.574916 0.104214 0.398677
O O13 0.678993 0.355923 0.489235
#
# Coordination Sequence:
#
# PCOD8117893 Si02
#       7
#     4   4   4   2   4   4   4
#     4  10  19  34  56  88 112 145 184 242 287 328
#     4  10  21  34  56  86 107 149 187 227 289 328
#     4  11  22  38  59  82 118 154 185 238 278 334
#     4  10  20  32  56  86 120 140 184 244 282 340
#     4   9  19  37  55  81 114 142 188 232 276 339
#     4  10  23  38  57  85 114 153 193 227 283 335
#     4  10  21  36  59  86 113 148 194 233 286 337
#
# _framework density 18.359905999999999
#
# number of rings (size 3 to 8) (size 9 to 14) (size 15 to 20)
#    0.000    2.154    1.538    2.308    4.308    1.231 
#    0.000    0.000    0.000    0.000    0.000    0.000 
#    0.000    0.000    0.000    0.000    0.000    0.000 
#
# Total GULP energy -322215.630692 kJ/mol
# GULP energy per Si atom -12392.908873 kJ/mol
# Density = 1.831812 g / cm^3
# Si number density = 18.359906 Si / 1000 Ang^3
#
#
#
# Elastic Constant Matrix: (Units=GPa)
#
#
# Indices 1 2 3 4 5 6 
#
# 1 78.0002 28.3252 46.1011 0.0000 14.2872 0.0000
# 2 28.3252 57.8529 25.2871 0.0000 2.7161 0.0000
# 3 46.1011 25.2871 95.1634 0.0000 11.0266 0.0000
# 4 0.0000 0.0000 0.0000 30.9949 0.0000 7.6631
# 5 14.2872 2.7161 11.0266 0.0000 32.0864 0.0000
# 6 0.0000 0.0000 0.0000 7.6631 0.0000 38.9911
#
#
#
# Elastic Compliance Matrix: (Units=1/GPa)
#
#
# Indices 1 2 3 4 5 6 
#
# 1 0.020843 -0.006578 -0.007643 0.000000 -0.006098 0.000000
# 2 -0.006578 0.021633 -0.002800 0.000000 0.002060 0.000000
# 3 -0.007643 -0.002800 0.015136 0.000000 -0.001561 0.000000
# 4 0.000000 0.000000 0.000000 0.033911 0.000000 -0.006665
# 5 -0.006098 0.002060 -0.001561 0.000000 0.034243 0.000000
# 6 0.000000 0.000000 0.000000 -0.006665 0.000000 0.026957
#
#
# Mechanical properties :
#
#
# Convention : Reuss Voigt Hill
#
# Bulk Modulus (GPa) = 42.42771 47.82704 45.12738
# Shear Modulus (GPa) = 25.69068 29.16801 27.42935
#
# Velocity S-wave (km/s) = 3.74476 3.99015 3.86940
# Velocity P-wave (km/s) = 6.46967 6.88002 6.67800
#
# Compressibility (1/GPa) = 0.02356950
#
# Stress axis : x y z
#
# Youngs Moduli (GPa) = 47.97669 46.22508 66.06834
#
# Poissons Ratio (x) = 0.30408 0.50496
# Poissons Ratio (y) = 0.31560 0.18502
# Poissons Ratio (z) = 0.36668 0.12945
#
# Static dielectric constant tensor:
#      x y z
#    x 3.177190 0.000000 0.107200 
#    y 0.000000 3.422770 0.000000 
#    z 0.107200 0.000000 3.494480 
# 
# 
# High freq. dielectric constant tensor:
#      x y z
#    x 1.698350 0.000000 0.005260 
#    y 0.000000 1.714910 0.000000 
#    z 0.005260 0.000000 1.721120 
# 
# From -- ./inp_files/74976.got.cif
#   From: 2010.06.25/outbox.cif.g09.slc.cpg/sg13_38_cif.got.tgz:74976.got - 2010.06.28 04:50:58.
