data_PCOD8117158
_publ_section_title
;
Structure prediction by ZEFSAII (Michael W. Deem and Ramdas Pophale) SiO2 
 PCOD8117158
Probable space group: P 2/C
;
_chemical_formula_sum "Si O2"
_cell_formula_units_Z 30
_cell_length_a 27.853192
_cell_length_b 11.004561
_cell_length_c 14.656458
_cell_angle_alpha 90.000000
_cell_angle_beta 159.649400
_cell_angle_gamma 90.000000
_cell_volume 1562.287996
_symmetry_space_group_name_H-M "P 2/C"
_symmetry_group_IT_number 13
_symmetry_cell_setting 'monoclinic'
loop_
_space_group_symop_operation_xyz
x,y,z
-x,y,1/2-z
-x,-y,-z
x,-y,1/2+z
loop_
_atom_site_type_symbol
_atom_site_label
_atom_site_fract_x
_atom_site_fract_y
_atom_site_fract_z
Si Si1 0.285223 0.174654 0.834867
Si Si2 0.305096 0.737058 0.177717
Si Si3 0.376020 0.767903 0.808053
Si Si4 0.151466 0.865091 0.274057
Si Si5 0.639691 0.905414 0.539428
Si Si6 0.392849 0.494530 0.387637
Si Si7 0.842808 0.859251 0.747456
Si Si8 0.500000 0.622356 0.750000
O O1 0.244017 0.188479 0.655154
O O2 0.154558 0.164167 0.670601
O O3 0.370039 0.049701 0.992109
O O4 0.368969 0.289349 0.023215
O O5 0.468744 0.766295 0.456204
O O6 0.278477 0.596138 0.158564
O O7 0.223793 0.763428 0.940745
O O8 0.272027 0.791970 0.539743
O O9 0.353125 0.874289 0.840869
O O10 0.333729 0.642459 0.784774
O O11 0.174759 0.008775 0.329964
O O12 0.002917 0.825989 0.048320
O O13 0.769025 0.849761 0.714199
O O14 0.500000 0.847264 0.250000
O O15 0.500000 0.500000 0.500000
O O16 0.480121 0.530042 0.631855
#
# Coordination Sequence:
#
# PCOD8117158 Si02
#       8
#     4   4   4   4   4   4   4   2
#     4  10  19  33  55  83 112 142 181 222 280 320
#     4  10  20  35  58  84 107 144 189 233 262 325
#     4  11  22  35  56  83 113 146 184 228 276 320
#     4  10  22  38  55  80 116 150 176 225 277 336
#     4  11  21  33  56  86 111 140 180 228 275 328
#     4   9  20  33  53  79 111 144 183 225 274 317
#     4  10  22  38  56  82 114 145 184 220 280 330
#     4  10  18  32  54  82 114 140 180 234 270 320
#
# _framework density 19.202604999999998
#
# number of rings (size 3 to 8) (size 9 to 14) (size 15 to 20)
#    0.000    1.867    2.000    3.200    2.800    2.133 
#    0.000    4.667    0.000    3.200    0.000    0.000 
#    0.000    0.000    0.000    0.000    0.000    0.000 
#
# Total GULP energy -371787.532139 kJ/mol
# GULP energy per Si atom -12392.917738 kJ/mol
# Density = 1.915890 g / cm^3
# Si number density = 19.202605 Si / 1000 Ang^3
#
#
#
# Elastic Constant Matrix: (Units=GPa)
#
#
# Indices 1 2 3 4 5 6 
#
# 1 115.9678 30.4369 24.7362 0.0000 -0.4526 0.0000
# 2 30.4369 69.5409 19.0494 0.0000 -5.3907 0.0000
# 3 24.7362 19.0494 64.1430 0.0000 4.5071 0.0000
# 4 0.0000 0.0000 0.0000 14.1489 0.0000 -7.6870
# 5 -0.4526 -5.3907 4.5071 0.0000 32.4669 0.0000
# 6 0.0000 0.0000 0.0000 -7.6870 0.0000 30.1798
#
#
#
# Elastic Compliance Matrix: (Units=1/GPa)
#
#
# Indices 1 2 3 4 5 6 
#
# 1 0.010196 -0.003693 -0.002829 0.000000 -0.000078 0.000000
# 2 -0.003693 0.017344 -0.003964 0.000000 0.003379 0.000000
# 3 -0.002829 -0.003964 0.018084 0.000000 -0.003208 0.000000
# 4 0.000000 0.000000 0.000000 0.082028 0.000000 0.020893
# 5 -0.000078 0.003379 -0.003208 0.000000 0.031806 0.000000
# 6 0.000000 0.000000 0.000000 0.020893 0.000000 0.038456
#
#
# Mechanical properties :
#
#
# Convention : Reuss Voigt Hill
#
# Bulk Modulus (GPa) = 40.56781 44.23298 42.40040
# Shear Modulus (GPa) = 22.01624 27.05441 24.53533
#
# Velocity S-wave (km/s) = 3.38971 3.75759 3.57838
# Velocity P-wave (km/s) = 6.04088 6.47386 6.26112
#
# Compressibility (1/GPa) = 0.02465008
#
# Stress axis : x y z
#
# Youngs Moduli (GPa) = 98.08059 57.65558 55.29753
#
# Poissons Ratio (x) = 0.21295 0.15646
# Poissons Ratio (y) = 0.36226 0.21920
# Poissons Ratio (z) = 0.27752 0.22855
#
# Static dielectric constant tensor:
#      x y z
#    x 3.312190 0.000000 0.055620 
#    y 0.000000 5.646340 0.000000 
#    z 0.055620 0.000000 3.149690 
# 
# 
# High freq. dielectric constant tensor:
#      x y z
#    x 1.761670 0.000000 -0.005010 
#    y 0.000000 1.743970 0.000000 
#    z -0.005010 0.000000 1.710480 
# 
# From -- ./inp_files/59638.got.cif
#   From: 2010.06.25/outbox.cif.g09.slc.cpg/sg13_30_cif.got.tgz:59638.got - 2010.06.28 04:50:58.
