data_PCOD8117956
_publ_section_title
;
Structure prediction by ZEFSAII (Michael W. Deem and Ramdas Pophale) SiO2 
 PCOD8117956
Probable space group: P 2/C
;
_chemical_formula_sum "Si O2"
_cell_formula_units_Z 28
_cell_length_a 23.458799
_cell_length_b 6.310584
_cell_length_c 16.224974
_cell_angle_alpha 90.000000
_cell_angle_beta 146.203356
_cell_angle_gamma 90.000000
_cell_volume 1336.063105
_symmetry_space_group_name_H-M "P 2/C"
_symmetry_group_IT_number 13
_symmetry_cell_setting 'monoclinic'
loop_
_space_group_symop_operation_xyz
x,y,z
-x,y,1/2-z
-x,-y,-z
x,-y,1/2+z
loop_
_atom_site_type_symbol
_atom_site_label
_atom_site_fract_x
_atom_site_fract_y
_atom_site_fract_z
Si Si1 0.207375 0.989892 0.835676
Si Si2 0.111756 0.742283 0.366471
Si Si3 0.612615 0.062983 0.053346
Si Si4 0.929281 0.396457 0.300895
Si Si5 0.738880 0.390759 0.313329
Si Si6 0.432559 0.686361 0.384602
Si Si7 0.880034 0.312619 0.884701
O O1 0.180573 0.128649 0.883573
O O2 0.164965 0.087575 0.698602
O O3 0.329444 0.963626 0.965207
O O4 0.164673 0.756468 0.795344
O O5 0.085982 0.502826 0.306314
O O6 0.179383 0.722271 0.529341
O O7 0.000000 0.853095 0.250000
O O8 0.674338 0.207054 0.192624
O O9 0.600721 0.832105 0.078671
O O10 0.500420 0.171572 0.902462
O O11 0.935441 0.593285 0.370925
O O12 0.037706 0.272648 0.442543
O O13 0.666581 0.565586 0.274154
O O14 0.794093 0.522628 0.308352
O O15 0.500000 0.500000 0.500000
#
# Coordination Sequence:
#
# PCOD8117956 Si02
#       7
#     4   4   4   4   4   4   4
#     4  11  22  37  61  90 120 162 208 255 305 364
#     4  11  25  39  54  87 136 169 198 248 314 378
#     4  10  20  37  66  94 112 155 214 260 302 368
#     4  10  21  37  54  82 124 164 201 247 295 363
#     4  11  20  38  62  89 126 160 199 259 310 366
#     4   9  20  37  64  93 116 146 208 267 314 353
#     4  10  19  34  60  85 115 160 210 242 296 360
#
# _framework density 20.957094000000001
#
# number of rings (size 3 to 8) (size 9 to 14) (size 15 to 20)
#    0.000    1.714    4.286    0.429    0.000    2.857 
#    0.000    0.000    0.000   20.571    0.000    0.000 
#    0.000    0.000    0.000    0.000    0.000    0.000 
#
# Total GULP energy -346926.508000 kJ/mol
# GULP energy per Si atom -12390.232429 kJ/mol
# Density = 2.090939 g / cm^3
# Si number density = 20.957094 Si / 1000 Ang^3
#
#
#
# Elastic Constant Matrix: (Units=GPa)
#
#
# Indices 1 2 3 4 5 6 
#
# 1 109.9533 34.2840 25.0984 0.0000 23.4732 0.0000
# 2 34.2840 69.7455 5.5275 0.0000 7.7267 0.0000
# 3 25.0984 5.5275 60.0215 0.0000 10.3880 0.0000
# 4 0.0000 0.0000 0.0000 24.7747 0.0000 7.1403
# 5 23.4732 7.7267 10.3880 0.0000 32.0391 0.0000
# 6 0.0000 0.0000 0.0000 7.1403 0.0000 40.7519
#
#
#
# Elastic Compliance Matrix: (Units=1/GPa)
#
#
# Indices 1 2 3 4 5 6 
#
# 1 0.013152 -0.005378 -0.003773 0.000000 -0.007115 0.000000
# 2 -0.005378 0.016965 0.000755 0.000000 -0.000396 0.000000
# 3 -0.003773 0.000755 0.018775 0.000000 -0.003506 0.000000
# 4 0.000000 0.000000 0.000000 0.042510 0.000000 -0.007448
# 5 -0.007115 -0.000396 -0.003506 0.000000 0.037657 0.000000
# 6 0.000000 0.000000 0.000000 -0.007448 0.000000 0.025844
#
#
# Mechanical properties :
#
#
# Convention : Reuss Voigt Hill
#
# Bulk Modulus (GPa) = 31.15109 41.06001 36.10555
# Shear Modulus (GPa) = 27.41300 31.16718 29.29009
#
# Velocity S-wave (km/s) = 3.62063 3.86059 3.74253
# Velocity P-wave (km/s) = 5.68991 6.28548 5.99509
#
# Compressibility (1/GPa) = 0.03210160
#
# Stress axis : x y z
#
# Youngs Moduli (GPa) = 76.03559 58.94374 53.26095
#
# Poissons Ratio (x) = 0.31698 0.20094
# Poissons Ratio (y) = 0.40889 -0.04021
# Poissons Ratio (z) = 0.28686 -0.04450
#
# Static dielectric constant tensor:
#      x y z
#    x 3.977970 0.000000 0.538340 
#    y 0.000000 3.944260 0.000000 
#    z 0.538340 0.000000 3.852310 
# 
# 
# High freq. dielectric constant tensor:
#      x y z
#    x 1.817110 0.000000 0.035320 
#    y 0.000000 1.830640 0.000000 
#    z 0.035320 0.000000 1.792830 
# 
# From -- ./inp_files/71701.got.cif
#   From: 2010.06.25/outbox.cif.g09.slc.cpg/sg13_36_cif.got.tgz:71701.got - 2010.06.28 04:50:58.
