data_PCOD8117993
_publ_section_title
;
Structure prediction by ZEFSAII (Michael W. Deem and Ramdas Pophale) SiO2 
 PCOD8117993
Probable space group: P 2/C
;
_chemical_formula_sum "Si O2"
_cell_formula_units_Z 32
_cell_length_a 11.952040
_cell_length_b 20.090271
_cell_length_c 9.678498
_cell_angle_alpha 90.000000
_cell_angle_beta 51.125265
_cell_angle_gamma 90.000000
_cell_volume 1809.279070
_symmetry_space_group_name_H-M "P 2/C"
_symmetry_group_IT_number 13
_symmetry_cell_setting 'monoclinic'
loop_
_space_group_symop_operation_xyz
x,y,z
-x,y,1/2-z
-x,-y,-z
x,-y,1/2+z
loop_
_atom_site_type_symbol
_atom_site_label
_atom_site_fract_x
_atom_site_fract_y
_atom_site_fract_z
Si Si1 0.898257 0.926581 0.710526
Si Si2 0.328547 0.679227 0.230177
Si Si3 0.902646 0.923186 0.205317
Si Si4 0.334824 0.828543 0.216558
Si Si5 0.670328 0.679694 0.963686
Si Si6 0.328586 0.561116 0.040489
Si Si7 0.328826 0.438546 0.225811
Si Si8 0.661935 0.829052 0.962280
O O1 0.757411 0.881131 0.803088
O O2 0.000000 0.896676 0.750000
O O3 0.991698 0.924009 0.503441
O O4 0.849601 0.002067 0.783046
O O5 0.278996 0.753710 0.229672
O O6 0.271173 0.660113 0.428477
O O7 0.269963 0.627956 0.160517
O O8 0.499500 0.677096 0.102073
O O9 0.762041 0.879007 0.294163
O O10 0.000000 0.892256 0.250000
O O11 0.325271 0.844665 0.385658
O O12 0.498267 0.837300 0.038373
O O13 0.729092 0.628793 0.802457
O O14 0.718644 0.754391 0.886874
O O15 0.272202 0.499640 0.176471
O O16 0.499864 0.560840 0.902947
O O17 0.268472 0.557028 0.929767
#
# Coordination Sequence:
#
# PCOD8117993 Si02
#       8
#     4   4   4   4   4   4   4   4
#     4  10  19  35  56  74  97 132 171 204 244 300
#     4   8  14  25  41  59  85 120 154 194 241 286
#     4  10  21  35  52  75 102 131 162 207 256 295
#     4   9  17  32  52  74 100 130 167 206 250 299
#     4   8  14  25  40  61  86 115 155 198 241 283
#     4   9  15  22  34  54  83 122 158 191 234 283
#     4   9  15  22  34  54  84 120 158 194 232 283
#     4   9  17  31  54  75  95 131 171 207 244 298
#
# _framework density 17.686603000000002
#
# number of rings (size 3 to 8) (size 9 to 14) (size 15 to 20)
#    0.000    3.000    1.250    2.250    0.000    3.500 
#    2.250    0.625    0.000    0.000    0.000    0.000 
#    0.000    2.000    0.000    0.125    0.000    0.500 
#
# Total GULP energy -396619.614576 kJ/mol
# GULP energy per Si atom -12394.362956 kJ/mol
# Density = 1.764635 g / cm^3
# Si number density = 17.686603 Si / 1000 Ang^3
#
#
#
# Elastic Constant Matrix: (Units=GPa)
#
#
# Indices 1 2 3 4 5 6 
#
# 1 71.7372 53.3661 34.7501 0.0000 17.1856 0.0000
# 2 53.3661 123.7477 47.1481 0.0000 9.4445 0.0000
# 3 34.7501 47.1481 57.7323 0.0000 17.8675 0.0000
# 4 0.0000 0.0000 0.0000 19.9228 0.0000 13.9647
# 5 17.1856 9.4445 17.8675 0.0000 24.8810 0.0000
# 6 0.0000 0.0000 0.0000 13.9647 0.0000 12.3471
#
#
#
# Elastic Compliance Matrix: (Units=1/GPa)
#
#
# Indices 1 2 3 4 5 6 
#
# 1 0.024885 -0.007921 -0.005298 0.000000 -0.010377 0.000000
# 2 -0.007921 0.014444 -0.009032 0.000000 0.006474 0.000000
# 3 -0.005298 -0.009032 0.033035 0.000000 -0.016635 0.000000
# 4 0.000000 0.000000 0.000000 0.242209 0.000000 -0.273940
# 5 -0.010377 0.006474 -0.016635 0.000000 0.056847 0.000000
# 6 0.000000 0.000000 0.000000 -0.273940 0.000000 0.390820
#
#
# Mechanical properties :
#
#
# Convention : Reuss Voigt Hill
#
# Bulk Modulus (GPa) = 35.89219 58.19397 47.04308
# Shear Modulus (GPa) = 6.12724 19.29370 12.71047
#
# Velocity S-wave (km/s) = 1.86329 3.30641 2.68367
# Velocity P-wave (km/s) = 4.99666 6.89570 6.02152
#
# Compressibility (1/GPa) = 0.02786121
#
# Stress axis : x y z
#
# Youngs Moduli (GPa) = 40.18553 69.23375 30.27108
#
# Poissons Ratio (x) = 0.54839 0.16039
# Poissons Ratio (y) = 0.31830 0.27340
# Poissons Ratio (z) = 0.21292 0.62531
#
# Static dielectric constant tensor:
#      x y z
#    x 2.983740 0.000000 0.325840 
#    y 0.000000 3.531950 0.000000 
#    z 0.325840 0.000000 3.116010 
# 
# 
# High freq. dielectric constant tensor:
#      x y z
#    x 1.645540 0.000000 0.029050 
#    y 0.000000 1.692410 0.000000 
#    z 0.029050 0.000000 1.658360 
# 
# From -- ./inp_files/17282.got.cif
#   From: 2010.06.25/outbox.cif.g09.slc.cpg/sg13_9_cif.got.tgz:17282.got - 2010.06.28 04:50:58.
