data_PCOD8117714
_publ_section_title
;
Structure prediction by ZEFSAII (Michael W. Deem and Ramdas Pophale) SiO2 
 PCOD8117714
Probable space group: P 2/C
;
_chemical_formula_sum "Si O2"
_cell_formula_units_Z 32
_cell_length_a 20.895369
_cell_length_b 14.895558
_cell_length_c 8.586513
_cell_angle_alpha 90.000000
_cell_angle_beta 40.770710
_cell_angle_gamma 90.000000
_cell_volume 1745.255998
_symmetry_space_group_name_H-M "P 2/C"
_symmetry_group_IT_number 13
_symmetry_cell_setting 'monoclinic'
loop_
_space_group_symop_operation_xyz
x,y,z
-x,y,1/2-z
-x,-y,-z
x,-y,1/2+z
loop_
_atom_site_type_symbol
_atom_site_label
_atom_site_fract_x
_atom_site_fract_y
_atom_site_fract_z
Si Si1 0.892765 0.392625 0.257305
Si Si2 0.308147 0.380730 0.399711
Si Si3 0.109652 0.412987 0.877547
Si Si4 0.614205 0.454431 0.563074
Si Si5 0.603563 0.878078 0.131241
Si Si6 0.383636 0.232532 0.448447
Si Si7 0.397075 0.953335 0.020181
Si Si8 0.300808 0.704688 0.419168
O O1 0.868924 0.410547 0.479944
O O2 0.881759 0.482672 0.179635
O O3 0.814927 0.317808 0.341757
O O4 0.006610 0.364132 0.026307
O O5 0.192290 0.361287 0.627211
O O6 0.340231 0.450599 0.473982
O O7 0.359917 0.284314 0.332098
O O8 0.333420 0.419487 0.187140
O O9 0.500000 0.469344 0.750000
O O10 0.632169 0.380430 0.661666
O O11 0.500000 0.844005 0.250000
O O12 0.589618 0.926704 0.324892
O O13 0.673051 0.791322 0.023640
O O14 0.657095 0.950810 0.915372
O O15 0.500000 0.231834 0.250000
O O16 0.347263 0.128964 0.516533
O O17 0.326364 0.281444 0.692411
O O18 0.500000 0.976701 0.750000
#
# Coordination Sequence:
#
# PCOD8117714 Si02
#       8
#     4   4   4   4   4   4   4   4
#     4  10  20  36  55  77 102 133 178 229 274 317
#     4  12  21  35  51  72 103 142 182 220 258 314
#     4  10  20  35  57  75  99 136 178 226 275 306
#     4  12  24  34  48  72 108 149 179 208 254 316
#     4  10  19  32  53  75 106 140 177 217 265 317
#     4  10  20  34  51  72 104 139 179 220 256 312
#     4   9  18  31  51  74 101 138 177 222 257 306
#     4  11  21  35  50  76 108 138 176 218 269 322
#
# _framework density 18.335419999999999
#
# number of rings (size 3 to 8) (size 9 to 14) (size 15 to 20)
#    0.000    1.500    2.500    4.875    0.000    3.000 
#    0.000    0.000    0.000    0.000    0.000    0.875 
#    0.000    0.000    0.000    0.375    0.000    0.125 
#
# Total GULP energy -396556.112086 kJ/mol
# GULP energy per Si atom -12392.378503 kJ/mol
# Density = 1.829369 g / cm^3
# Si number density = 18.335420 Si / 1000 Ang^3
#
#
#
# Elastic Constant Matrix: (Units=GPa)
#
#
# Indices 1 2 3 4 5 6 
#
# 1 62.6939 35.7499 18.3839 0.0000 -10.9548 0.0000
# 2 35.7499 92.7218 10.2015 0.0000 -14.3638 0.0000
# 3 18.3839 10.2015 76.0125 0.0000 -19.9496 0.0000
# 4 0.0000 0.0000 0.0000 21.0784 0.0000 2.2682
# 5 -10.9548 -14.3638 -19.9496 0.0000 26.6484 0.0000
# 6 0.0000 0.0000 0.0000 2.2682 0.0000 32.3305
#
#
#
# Elastic Compliance Matrix: (Units=1/GPa)
#
#
# Indices 1 2 3 4 5 6 
#
# 1 0.021765 -0.007668 -0.003698 0.000000 0.002046 0.000000
# 2 -0.007668 0.014470 0.001409 0.000000 0.005702 0.000000
# 3 -0.003698 0.001409 0.017002 0.000000 0.011967 0.000000
# 4 0.000000 0.000000 0.000000 0.047803 0.000000 -0.003354
# 5 0.002046 0.005702 0.011967 0.000000 0.050399 0.000000
# 6 0.000000 0.000000 0.000000 -0.003354 0.000000 0.031166
#
#
# Mechanical properties :
#
#
# Convention : Reuss Voigt Hill
#
# Bulk Modulus (GPa) = 30.00942 40.01100 35.01021
# Shear Modulus (GPa) = 23.40549 27.15098 25.27824
#
# Velocity S-wave (km/s) = 3.57672 3.85228 3.71705
# Velocity P-wave (km/s) = 5.78443 6.45413 6.12844
#
# Compressibility (1/GPa) = 0.03332287
#
# Stress axis : x y z
#
# Youngs Moduli (GPa) = 45.94581 69.10999 58.81730
#
# Poissons Ratio (x) = 0.52993 0.21750
# Poissons Ratio (y) = 0.35231 -0.08288
# Poissons Ratio (z) = 0.16990 -0.09738
#
# Static dielectric constant tensor:
#      x y z
#    x 3.554050 0.000000 0.016880 
#    y 0.000000 3.635510 0.000000 
#    z 0.016880 0.000000 3.412860 
# 
# 
# High freq. dielectric constant tensor:
#      x y z
#    x 1.708890 0.000000 0.018500 
#    y 0.000000 1.704180 0.000000 
#    z 0.018500 0.000000 1.695790 
# 
# From -- ./inp_files/23535.got.cif
#   From: 2010.06.25/outbox.cif.g09.slc.cpg/sg13_12_cif.got.tgz:23535.got - 2010.06.28 04:50:58.
