data_PCOD8117018
_publ_section_title
;
Structure prediction by ZEFSAII (Michael W. Deem and Ramdas Pophale) SiO2 
 PCOD8117018
Probable space group: P 2/C
;
_chemical_formula_sum "Si O2"
_cell_formula_units_Z 28
_cell_length_a 22.561974
_cell_length_b 11.050815
_cell_length_c 10.731528
_cell_angle_alpha 90.000000
_cell_angle_beta 148.847619
_cell_angle_gamma 90.000000
_cell_volume 1384.168043
_symmetry_space_group_name_H-M "P 2/C"
_symmetry_group_IT_number 13
_symmetry_cell_setting 'monoclinic'
loop_
_space_group_symop_operation_xyz
x,y,z
-x,y,1/2-z
-x,-y,-z
x,-y,1/2+z
loop_
_atom_site_type_symbol
_atom_site_label
_atom_site_fract_x
_atom_site_fract_y
_atom_site_fract_z
Si Si1 0.000000 0.782183 0.250000
Si Si2 0.243069 0.471323 0.194497
Si Si3 0.957769 0.638142 0.415043
Si Si4 0.303451 0.596981 0.550097
Si Si5 0.416962 0.836204 0.814639
Si Si6 0.757382 0.813857 0.784506
Si Si7 0.590963 0.915444 0.310441
Si Si8 0.000000 0.394792 0.250000
O O1 0.016675 0.702854 0.405644
O O2 0.114607 0.863660 0.454002
O O3 0.313532 0.529922 0.435942
O O4 0.314576 0.490936 0.192713
O O5 0.237203 0.330125 0.210688
O O6 0.113781 0.520654 0.949969
O O7 0.994961 0.690873 0.618120
O O8 0.000000 0.500000 0.500000
O O9 0.821990 0.655217 0.156814
O O10 0.398931 0.703069 0.723534
O O11 0.325408 0.863386 0.757833
O O12 0.398139 0.939227 0.677353
O O13 0.546404 0.853407 0.101630
O O14 0.714247 0.862231 0.572624
O O15 0.500000 0.876218 0.250000
#
# Coordination Sequence:
#
# PCOD8117018 Si02
#       8
#     2   4   4   4   4   4   4   2
#     4  12  19  30  54  83 116 153 188 214 273 342
#     4  10  18  29  47  79 117 153 178 222 265 337
#     4  11  17  27  47  76 111 155 191 220 247 328
#     4  10  19  30  52  81 116 143 188 227 275 327
#     4   9  18  38  59  81 101 137 194 254 278 324
#     4  10  19  33  55  85 112 148 184 227 282 346
#     4   9  19  37  65  78  95 137 200 247 294 335
#     4  10  19  26  46  73 114 157 202 212 245 312
#
# _framework density 20.228757999999999
#
# number of rings (size 3 to 8) (size 9 to 14) (size 15 to 20)
#    0.000    2.000    4.286    2.571    0.000    0.000 
#    0.000    5.714    0.000    3.429    0.000    0.000 
#    0.000    0.000    0.000    0.000    0.000    0.000 
#
# Total GULP energy -346896.132495 kJ/mol
# GULP energy per Si atom -12389.147589 kJ/mol
# Density = 2.018272 g / cm^3
# Si number density = 20.228758 Si / 1000 Ang^3
#
#
#
# Elastic Constant Matrix: (Units=GPa)
#
#
# Indices 1 2 3 4 5 6 
#
# 1 75.5968 19.9873 40.2020 0.0000 -37.3907 0.0000
# 2 19.9873 45.9653 42.6631 0.0000 -15.0323 0.0000
# 3 40.2020 42.6631 123.6998 0.0000 -23.0262 0.0000
# 4 0.0000 0.0000 0.0000 28.3678 0.0000 -7.2423
# 5 -37.3907 -15.0323 -23.0262 0.0000 37.8095 0.0000
# 6 0.0000 0.0000 0.0000 -7.2423 0.0000 25.7884
#
#
#
# Elastic Compliance Matrix: (Units=1/GPa)
#
#
# Indices 1 2 3 4 5 6 
#
# 1 0.027895 0.000191 -0.004492 0.000000 0.024927 0.000000
# 2 0.000191 0.033613 -0.010300 0.000000 0.007280 0.000000
# 3 -0.004492 -0.010300 0.012978 0.000000 -0.000633 0.000000
# 4 0.000000 0.000000 0.000000 0.037974 0.000000 0.010664
# 5 0.024927 0.007280 -0.000633 0.000000 0.053608 0.000000
# 6 0.000000 0.000000 0.000000 0.010664 0.000000 0.041772
#
#
# Mechanical properties :
#
#
# Convention : Reuss Voigt Hill
#
# Bulk Modulus (GPa) = 22.08190 50.10740 36.09465
# Shear Modulus (GPa) = 19.83049 27.88710 23.85880
#
# Velocity S-wave (km/s) = 3.13439 3.71696 3.43804
# Velocity P-wave (km/s) = 4.90296 6.57611 5.80018
#
# Compressibility (1/GPa) = 0.04528595
#
# Stress axis : x y z
#
# Youngs Moduli (GPa) = 35.84851 29.75018 77.05117
#
# Poissons Ratio (x) = -0.00569 0.34609
# Poissons Ratio (y) = -0.00685 0.79362
# Poissons Ratio (z) = 0.16102 0.30642
#
# Static dielectric constant tensor:
#      x y z
#    x 4.152820 0.000000 -0.468810 
#    y 0.000000 3.162280 0.000000 
#    z -0.468810 0.000000 4.229450 
# 
# 
# High freq. dielectric constant tensor:
#      x y z
#    x 1.790170 0.000000 -0.024300 
#    y 0.000000 1.732100 0.000000 
#    z -0.024300 0.000000 1.801000 
# 
# From -- ./inp_files/41813.got.cif
#   From: 2010.06.25/outbox.cif.g09.slc.cpg/sg13_21_cif.got.tgz:41813.got - 2010.06.28 04:50:58.
