data_PCOD8117617
_publ_section_title
;
Structure prediction by ZEFSAII (Michael W. Deem and Ramdas Pophale) SiO2 
 PCOD8117617
Probable space group: P 2/C
;
_chemical_formula_sum "Si O2"
_cell_formula_units_Z 28
_cell_length_a 18.625035
_cell_length_b 8.925465
_cell_length_c 26.419754
_cell_angle_alpha 90.000000
_cell_angle_beta 20.320633
_cell_angle_gamma 90.000000
_cell_volume 1525.204954
_symmetry_space_group_name_H-M "P 2/C"
_symmetry_group_IT_number 13
_symmetry_cell_setting 'monoclinic'
loop_
_space_group_symop_operation_xyz
x,y,z
-x,y,1/2-z
-x,-y,-z
x,-y,1/2+z
loop_
_atom_site_type_symbol
_atom_site_label
_atom_site_fract_x
_atom_site_fract_y
_atom_site_fract_z
Si Si1 0.061643 0.339075 0.400719
Si Si2 0.922763 0.527763 0.717571
Si Si3 0.350341 0.779161 0.567000
Si Si4 0.283055 0.608079 0.291724
Si Si5 0.274251 0.724158 0.505690
Si Si6 0.810493 0.768239 0.251667
Si Si7 0.962272 0.084879 0.152874
O O1 0.010892 0.426242 0.382927
O O2 0.248448 0.427884 0.305959
O O3 0.112382 0.167576 0.349978
O O4 0.860154 0.334025 0.568685
O O5 0.709586 0.608511 0.876388
O O6 0.904975 0.348426 0.730187
O O7 0.112417 0.590036 0.625719
O O8 0.314265 0.808898 0.531578
O O9 0.588845 0.814298 0.421258
O O10 0.208216 0.893954 0.691050
O O11 0.221548 0.691859 0.281144
O O12 0.516848 0.646601 0.153187
O O13 0.181722 0.846087 0.526893
O O14 0.969179 0.906568 0.139635
#
# Coordination Sequence:
#
# PCOD8117617 Si02
#       7
#     4   4   4   4   4   4   4
#     4   8  17  32  52  71  91 120 162 199 231 279
#     4   9  17  30  49  71  93 121 159 201 234 276
#     4   9  17  33  49  66  91 128 165 194 229 279
#     4   9  17  33  53  71  89 124 167 201 232 276
#     4   9  18  32  50  68  94 124 158 198 238 279
#     4  10  19  30  48  71  98 126 155 192 240 291
#     4  10  19  31  47  71 101 127 151 193 246 292
#
# _framework density 18.358187999999998
#
# number of rings (size 3 to 8) (size 9 to 14) (size 15 to 20)
#    0.000    3.143    0.000    2.571    0.000    4.000 
#    0.000    5.714    0.000    5.143    0.000    0.000 
#    0.000    0.000    0.000    0.000    0.000    0.000 
#
# Total GULP energy -346867.841995 kJ/mol
# GULP energy per Si atom -12388.137214 kJ/mol
# Density = 1.831640 g / cm^3
# Si number density = 18.358188 Si / 1000 Ang^3
#
#
#
# Elastic Constant Matrix: (Units=GPa)
#
#
# Indices 1 2 3 4 5 6 
#
# 1 29.1157 12.8236 20.8725 0.0000 -6.2862 0.0000
# 2 12.8236 111.5331 15.1931 0.0000 -22.9423 0.0000
# 3 20.8725 15.1931 92.3359 0.0000 -8.8742 0.0000
# 4 0.0000 0.0000 0.0000 21.0346 0.0000 -3.1041
# 5 -6.2862 -22.9423 -8.8742 0.0000 30.7314 0.0000
# 6 0.0000 0.0000 0.0000 -3.1041 0.0000 15.3535
#
#
#
# Elastic Compliance Matrix: (Units=1/GPa)
#
#
# Indices 1 2 3 4 5 6 
#
# 1 0.042811 -0.002887 -0.008812 0.000000 0.004057 0.000000
# 2 -0.002887 0.010880 -0.000425 0.000000 0.007409 0.000000
# 3 -0.008812 -0.000425 0.013050 0.000000 0.001648 0.000000
# 4 0.000000 0.000000 0.000000 0.049003 0.000000 0.009907
# 5 0.004057 0.007409 0.001648 0.000000 0.039377 0.000000
# 6 0.000000 0.000000 0.000000 0.009907 0.000000 0.067134
#
#
# Mechanical properties :
#
#
# Convention : Reuss Voigt Hill
#
# Bulk Modulus (GPa) = 23.53451 36.75148 30.14299
# Shear Modulus (GPa) = 19.18141 25.69693 22.43917
#
# Velocity S-wave (km/s) = 3.23591 3.74539 3.49993
# Velocity P-wave (km/s) = 5.17773 6.22627 5.72605
#
# Compressibility (1/GPa) = 0.04249080
#
# Stress axis : x y z
#
# Youngs Moduli (GPa) = 23.35865 91.91288 76.62552
#
# Poissons Ratio (x) = 0.26538 0.67525
# Poissons Ratio (y) = 0.06744 0.03260
# Poissons Ratio (z) = 0.20585 0.03911
#
# Static dielectric constant tensor:
#      x y z
#    x 3.376700 0.000000 -0.003070 
#    y 0.000000 3.451350 0.000000 
#    z -0.003070 0.000000 3.376480 
# 
# 
# High freq. dielectric constant tensor:
#      x y z
#    x 1.698030 0.000000 0.011930 
#    y 0.000000 1.692930 0.000000 
#    z 0.011930 0.000000 1.705650 
# 
# From -- ./inp_files/97500.got.cif
#   From: 2010.06.25/outbox.cif.g09.slc.cpg/sg13_49_cif.got.tgz:97500.got - 2010.06.28 04:50:58.
