data_PCOD8117765
_publ_section_title
;
Structure prediction by ZEFSAII (Michael W. Deem and Ramdas Pophale) SiO2 
 PCOD8117765
Probable space group: P 2/C
;
_chemical_formula_sum "Si O2"
_cell_formula_units_Z 30
_cell_length_a 17.059191
_cell_length_b 17.335277
_cell_length_c 5.170679
_cell_angle_alpha 90.000000
_cell_angle_beta 91.013411
_cell_angle_gamma 90.000000
_cell_volume 1528.864013
_symmetry_space_group_name_H-M "P 2/C"
_symmetry_group_IT_number 13
_symmetry_cell_setting 'monoclinic'
loop_
_space_group_symop_operation_xyz
x,y,z
-x,y,1/2-z
-x,-y,-z
x,-y,1/2+z
loop_
_atom_site_type_symbol
_atom_site_label
_atom_site_fract_x
_atom_site_fract_y
_atom_site_fract_z
Si Si1 0.619568 0.312020 0.716586
Si Si2 0.500000 0.446511 0.750000
Si Si3 0.195532 0.308357 0.778824
Si Si4 0.379697 0.781821 0.776252
Si Si5 0.192487 0.955490 0.752323
Si Si6 0.379518 0.955000 0.767540
Si Si7 0.912021 0.548469 0.217477
Si Si8 0.195311 0.216605 0.271277
O O1 0.577822 0.394103 0.747704
O O2 0.712273 0.327219 0.707341
O O3 0.587013 0.269521 0.457829
O O4 0.596770 0.257698 0.954450
O O5 0.500000 0.500000 0.500000
O O6 0.151028 0.386994 0.723755
O O7 0.173959 0.250108 0.548259
O O8 0.162746 0.270797 0.040829
O O9 0.414488 0.868308 0.769855
O O10 0.287494 0.788396 0.735844
O O11 0.285986 0.953201 0.764515
O O12 0.158547 0.868704 0.748702
O O13 0.160366 0.999668 0.500010
O O14 0.411303 0.999712 0.519064
O O15 0.898560 0.481140 0.425842
O O16 0.000000 0.581997 0.250000
#
# Coordination Sequence:
#
# PCOD8117765 Si02
#       8
#     4   2   4   4   4   4   4   4
#     4  10  21  36  54  75  99 133 167 205 256 298
#     4  12  26  42  58  78 100 122 164 218 256 300
#     4  10  19  33  53  75 103 133 165 204 247 296
#     4   9  17  31  49  72 102 134 170 204 245 301
#     4   9  15  23  37  61  99 137 164 200 249 286
#     4   9  15  23  40  69 100 130 163 202 243 281
#     4  10  21  36  54  77 104 132 162 198 244 303
#     4   9  17  28  45  72 103 134 170 210 243 286
#
# _framework density 19.622411
#
# number of rings (size 3 to 8) (size 9 to 14) (size 15 to 20)
#    0.000    2.400    0.000    3.200    0.000    7.467 
#    0.000    0.000    0.000    0.000    0.000    9.333 
#    0.000   10.667    0.000    0.000    0.000    0.000 
#
# Total GULP energy -372012.739846 kJ/mol
# GULP energy per Si atom -12400.424662 kJ/mol
# Density = 1.957775 g / cm^3
# Si number density = 19.622411 Si / 1000 Ang^3
#
#
#
# Elastic Constant Matrix: (Units=GPa)
#
#
# Indices 1 2 3 4 5 6 
#
# 1 43.1907 38.5219 20.4722 0.0000 -4.7099 0.0000
# 2 38.5219 142.3156 49.4766 0.0000 -2.6412 0.0000
# 3 20.4722 49.4766 129.5060 0.0000 -2.3911 0.0000
# 4 0.0000 0.0000 0.0000 35.6978 0.0000 -0.7430
# 5 -4.7099 -2.6412 -2.3911 0.0000 5.3427 0.0000
# 6 0.0000 0.0000 0.0000 -0.7430 0.0000 -16.7076
#
#
#
# Elastic Compliance Matrix: (Units=1/GPa)
#
#
# Indices 1 2 3 4 5 6 
#
# 1 0.033978 -0.008101 -0.001812 0.000000 0.025138 0.000000
# 2 -0.008101 0.010071 -0.002629 0.000000 -0.003339 0.000000
# 3 -0.001812 -0.002629 0.009034 0.000000 0.001146 0.000000
# 4 0.000000 0.000000 0.000000 0.027987 0.000000 -0.001245
# 5 0.025138 -0.003339 0.001146 0.000000 0.208193 0.000000
# 6 0.000000 0.000000 0.000000 -0.001245 0.000000 -0.059798
#
#
# Mechanical properties :
#
#
# Convention : Reuss Voigt Hill
#
# Bulk Modulus (GPa) = 35.71462 59.10598 47.41030
# Shear Modulus (GPa) = 18.94783 18.63601 18.79192
#
# Velocity S-wave (km/s) = 3.11082 3.08511 3.09799
# Velocity P-wave (km/s) = 5.58062 6.54810 6.08363
#
# Compressibility (1/GPa) = 0.02799974
#
# Stress axis : x y z
#
# Youngs Moduli (GPa) = 29.43044 99.29264 110.69798
#
# Poissons Ratio (x) = 0.80433 0.20063
# Poissons Ratio (y) = 0.23841 0.29099
# Poissons Ratio (z) = 0.05334 0.26101
#
# Static dielectric constant tensor:
#      x y z
#    x 3.086520 0.000000 -0.026760 
#    y 0.000000 3.664000 0.000000 
#    z -0.026760 0.000000 3.820760 
# 
# 
# High freq. dielectric constant tensor:
#      x y z
#    x 1.712770 0.000000 -0.002040 
#    y 0.000000 1.772210 0.000000 
#    z -0.002040 0.000000 1.786370 
# 
# From -- ./inp_files/6205.got.cif
#   From: 2010.06.25/outbox.cif.g09.slc.cpg/sg13_4_cif.got.tgz:6205.got - 2010.06.28 04:50:58.
