data_PCOD8117763
_publ_section_title
;
Structure prediction by ZEFSAII (Michael W. Deem and Ramdas Pophale) SiO2 
 PCOD8117763
Probable space group: P 2/C
;
_chemical_formula_sum "Si O2"
_cell_formula_units_Z 30
_cell_length_a 6.484238
_cell_length_b 8.773369
_cell_length_c 30.082840
_cell_angle_alpha 90.000000
_cell_angle_beta 107.091427
_cell_angle_gamma 90.000000
_cell_volume 1635.791754
_symmetry_space_group_name_H-M "P 2/C"
_symmetry_group_IT_number 13
_symmetry_cell_setting 'monoclinic'
loop_
_space_group_symop_operation_xyz
x,y,z
-x,y,1/2-z
-x,-y,-z
x,-y,1/2+z
loop_
_atom_site_type_symbol
_atom_site_label
_atom_site_fract_x
_atom_site_fract_y
_atom_site_fract_z
Si Si1 0.936782 0.080443 0.792026
Si Si2 0.370971 0.093754 0.333083
Si Si3 0.500000 0.902385 0.750000
Si Si4 0.083153 0.912143 0.547686
Si Si5 0.470148 0.710077 0.580323
Si Si6 0.241170 0.864518 0.128991
Si Si7 0.201431 0.570032 0.069444
Si Si8 0.803277 0.621878 0.531902
O O1 0.889635 0.176814 0.833718
O O2 0.000000 0.172346 0.750000
O O3 0.712567 0.001800 0.767708
O O4 0.124011 0.957660 0.813589
O O5 0.457871 0.185300 0.294110
O O6 0.375886 0.214241 0.373302
O O7 0.525951 0.945052 0.349259
O O8 0.317163 0.842214 0.550644
O O9 0.923641 0.778101 0.550843
O O10 0.091942 0.024349 0.590259
O O11 0.000000 0.000000 0.500000
O O12 0.328760 0.578528 0.594436
O O13 0.591866 0.624437 0.548454
O O14 0.268700 0.704832 0.106246
O O15 0.946373 0.527365 0.053301
O O16 0.266932 0.617846 0.023779
#
# Coordination Sequence:
#
# PCOD8117763 Si02
#       8
#     4   4   2   4   4   4   4   4
#     4   9  17  32  55  83 104 127 164 215 268 315
#     4   9  18  33  54  82 103 130 170 215 263 310
#     4   8  16  32  58  80 106 126 158 212 270 318
#     4  10  19  34  51  76 108 138 179 223 263 300
#     4  10  21  34  51  75 105 140 182 214 253 314
#     4  10  19  33  52  79 107 138 174 220 262 307
#     4  10  21  35  50  70 106 146 181 212 260 305
#     4  10  20  36  51  69 102 149 183 219 254 302
#
# _framework density 18.339742999999999
#
# number of rings (size 3 to 8) (size 9 to 14) (size 15 to 20)
#    0.000    2.400    1.333    1.200    0.000    2.667 
#    2.400    0.000    0.000    6.400    0.000   10.267 
#    0.000    0.000    0.000    0.000    0.000    0.000 
#
# Total GULP energy -371650.355609 kJ/mol
# GULP energy per Si atom -12388.345187 kJ/mol
# Density = 1.829800 g / cm^3
# Si number density = 18.339743 Si / 1000 Ang^3
#
#
#
# Elastic Constant Matrix: (Units=GPa)
#
#
# Indices 1 2 3 4 5 6 
#
# 1 89.3083 23.5184 50.8294 0.0000 -9.0147 0.0000
# 2 23.5184 74.6831 40.8086 0.0000 -3.8976 0.0000
# 3 50.8294 40.8086 113.6295 0.0000 -9.7779 0.0000
# 4 0.0000 0.0000 0.0000 13.1789 0.0000 -1.7429
# 5 -9.0147 -3.8976 -9.7779 0.0000 35.5129 0.0000
# 6 0.0000 0.0000 0.0000 -1.7429 0.0000 14.9744
#
#
#
# Elastic Compliance Matrix: (Units=1/GPa)
#
#
# Indices 1 2 3 4 5 6 
#
# 1 0.015268 -0.001326 -0.006179 0.000000 0.002029 0.000000
# 2 -0.001326 0.016775 -0.005431 0.000000 0.000009 0.000000
# 3 -0.006179 -0.005431 0.013652 0.000000 0.001594 0.000000
# 4 0.000000 0.000000 0.000000 0.077065 0.000000 0.008970
# 5 0.002029 0.000009 0.001594 0.000000 0.029114 0.000000
# 6 0.000000 0.000000 0.000000 0.008970 0.000000 0.067825
#
#
# Mechanical properties :
#
#
# Convention : Reuss Voigt Hill
#
# Bulk Modulus (GPa) = 50.44325 56.43708 53.44016
# Shear Modulus (GPa) = 19.82725 23.56420 21.69572
#
# Velocity S-wave (km/s) = 3.29159 3.58840 3.44319
# Velocity P-wave (km/s) = 6.48156 6.92883 6.70893
#
# Compressibility (1/GPa) = 0.01982426
#
# Stress axis : x y z
#
# Youngs Moduli (GPa) = 65.49720 59.61100 73.24848
#
# Poissons Ratio (x) = 0.07903 0.45260
# Poissons Ratio (y) = 0.08683 0.39780
# Poissons Ratio (z) = 0.40471 0.32374
#
# Static dielectric constant tensor:
#      x y z
#    x 3.524990 0.000000 -0.105790 
#    y 0.000000 3.100490 0.000000 
#    z -0.105790 0.000000 3.822020 
# 
# 
# High freq. dielectric constant tensor:
#      x y z
#    x 1.719750 0.000000 0.001670 
#    y 0.000000 1.671860 0.000000 
#    z 0.001670 0.000000 1.725860 
# 
# From -- ./inp_files/95074.got.cif
#   From: 2010.06.25/outbox.cif.g09.slc.cpg/sg13_48_cif.got.tgz:95074.got - 2010.06.28 04:50:58.
