data_PCOD8117503
_publ_section_title
;
Structure prediction by ZEFSAII (Michael W. Deem and Ramdas Pophale) SiO2 
 PCOD8117503
Probable space group: P 2/C
;
_chemical_formula_sum "Si O2"
_cell_formula_units_Z 24
_cell_length_a 22.301359
_cell_length_b 6.974107
_cell_length_c 19.897592
_cell_angle_alpha 90.000000
_cell_angle_beta 25.976063
_cell_angle_gamma 90.000000
_cell_volume 1355.470952
_symmetry_space_group_name_H-M "P 2/C"
_symmetry_group_IT_number 13
_symmetry_cell_setting 'monoclinic'
loop_
_space_group_symop_operation_xyz
x,y,z
-x,y,1/2-z
-x,-y,-z
x,-y,1/2+z
loop_
_atom_site_type_symbol
_atom_site_label
_atom_site_fract_x
_atom_site_fract_y
_atom_site_fract_z
Si Si1 0.612827 0.441731 0.008904
Si Si2 0.000000 0.009576 0.250000
Si Si3 0.789555 0.108335 0.866005
Si Si4 0.500000 0.633263 0.250000
Si Si5 0.709785 0.062098 0.575515
Si Si6 0.342460 0.843859 0.599129
Si Si7 0.409665 0.117665 0.177624
O O1 0.581465 0.504518 0.115931
O O2 0.486590 0.320684 0.106665
O O3 0.749179 0.310718 0.874262
O O4 0.646942 0.618793 0.926624
O O5 0.940687 0.880883 0.247615
O O6 0.870763 0.131228 0.409569
O O7 0.782094 0.941036 0.816788
O O8 0.679411 0.053415 0.036406
O O9 0.389982 0.757542 0.319273
O O10 0.688679 0.921428 0.660007
O O11 0.316626 0.872719 0.704505
O O12 0.483426 0.943988 0.435057
#
# Coordination Sequence:
#
# PCOD8117503 Si02
#       7
#     4   2   4   2   4   4   4
#     4  11  18  30  53  82 109 138 174 225 274 318
#     4   8  20  36  56  76 108 148 184 222 268 318
#     4   9  19  36  54  73 108 143 182 219 263 315
#     4  12  18  30  60  88 102 138 190 230 270 312
#     4  10  18  37  54  78 108 140 183 225 265 319
#     4  10  19  33  52  83 110 141 173 221 277 322
#     4  10  20  32  52  80 117 137 172 224 275 323
#
# _framework density 17.706022999999998
#
# number of rings (size 3 to 8) (size 9 to 14) (size 15 to 20)
#    1.000    1.000    3.333    2.500    0.000    0.000 
#    0.000    4.167    0.000    1.000    0.000    0.000 
#    0.000    0.000    0.000    0.000    0.000    0.000 
#
# Total GULP energy -297384.820238 kJ/mol
# GULP energy per Si atom -12391.034177 kJ/mol
# Density = 1.766572 g / cm^3
# Si number density = 17.706023 Si / 1000 Ang^3
#
#
#
# Elastic Constant Matrix: (Units=GPa)
#
#
# Indices 1 2 3 4 5 6 
#
# 1 138.8067 44.6363 33.2514 0.0000 0.8594 0.0000
# 2 44.6363 102.9944 23.9348 0.0000 -3.2259 0.0000
# 3 33.2514 23.9348 52.6149 0.0000 -9.9890 0.0000
# 4 0.0000 0.0000 0.0000 8.4940 0.0000 6.9290
# 5 0.8594 -3.2259 -9.9890 0.0000 30.9611 0.0000
# 6 0.0000 0.0000 0.0000 6.9290 0.0000 16.1611
#
#
#
# Elastic Compliance Matrix: (Units=1/GPa)
#
#
# Indices 1 2 3 4 5 6 
#
# 1 0.009366 -0.002970 -0.004981 0.000000 -0.002177 0.000000
# 2 -0.002970 0.011806 -0.003456 0.000000 0.000197 0.000000
# 3 -0.004981 -0.003456 0.025230 0.000000 0.007918 0.000000
# 4 0.000000 0.000000 0.000000 0.181055 0.000000 -0.077627
# 5 -0.002177 0.000197 0.007918 0.000000 0.034934 0.000000
# 6 0.000000 0.000000 0.000000 -0.077627 0.000000 0.095159
#
#
# Mechanical properties :
#
#
# Convention : Reuss Voigt Hill
#
# Bulk Modulus (GPa) = 42.39669 55.34013 48.86841
# Shear Modulus (GPa) = 12.87907 23.96280 18.42094
#
# Velocity S-wave (km/s) = 2.69993 3.68281 3.22899
# Velocity P-wave (km/s) = 5.80657 7.02901 6.44683
#
# Compressibility (1/GPa) = 0.02358675
#
# Stress axis : x y z
#
# Youngs Moduli (GPa) = 106.76923 84.70524 39.63583
#
# Poissons Ratio (x) = 0.25154 0.19744
# Poissons Ratio (y) = 0.31707 0.13699
# Poissons Ratio (z) = 0.53186 0.29276
#
# Static dielectric constant tensor:
#      x y z
#    x 3.435830 0.000000 0.114830 
#    y 0.000000 3.158080 0.000000 
#    z 0.114830 0.000000 2.913620 
# 
# 
# High freq. dielectric constant tensor:
#      x y z
#    x 1.697580 0.000000 0.012300 
#    y 0.000000 1.673060 0.000000 
#    z 0.012300 0.000000 1.643410 
# 
# From -- ./inp_files/76927.got.cif
#   From: 2010.06.25/outbox.cif.g09.slc.cpg/sg13_39_cif.got.tgz:76927.got - 2010.06.28 04:50:58.
