data_PCOD8117794
_publ_section_title
;
Structure prediction by ZEFSAII (Michael W. Deem and Ramdas Pophale) SiO2 
 PCOD8117794
Probable space group: P 2/C
;
_chemical_formula_sum "Si O2"
_cell_formula_units_Z 20
_cell_length_a 5.085172
_cell_length_b 11.006722
_cell_length_c 17.307080
_cell_angle_alpha 90.000000
_cell_angle_beta 91.115663
_cell_angle_gamma 90.000000
_cell_volume 968.512226
_symmetry_space_group_name_H-M "P 2/C"
_symmetry_group_IT_number 13
_symmetry_cell_setting 'monoclinic'
loop_
_space_group_symop_operation_xyz
x,y,z
-x,y,1/2-z
-x,-y,-z
x,-y,1/2+z
loop_
_atom_site_type_symbol
_atom_site_label
_atom_site_fract_x
_atom_site_fract_y
_atom_site_fract_z
Si Si1 0.757271 0.910622 0.415664
Si Si2 0.267996 0.933363 0.910597
Si Si3 0.569115 0.573413 0.837420
Si Si4 0.742790 0.690853 0.301882
Si Si5 0.930534 0.307202 0.160558
O O1 0.536557 0.003809 0.381086
O O2 0.045278 0.965628 0.411893
O O3 0.683701 0.878541 0.503714
O O4 0.782274 0.786777 0.369318
O O5 0.171879 0.829072 0.852020
O O6 0.500000 0.615271 0.750000
O O7 0.665796 0.435421 0.842179
O O8 0.287866 0.599366 0.876502
O O9 0.790615 0.660408 0.878706
O O10 0.500000 0.737912 0.250000
O O11 0.000000 0.674648 0.250000
O O12 0.000000 0.332727 0.250000
#
# Coordination Sequence:
#
# PCOD8117794 Si02
#       5
#     4   4   4   4   4
#     4  10  22  38  55  78 110 147 179 220 276 319
#     4  10  21  38  56  77 112 146 177 222 274 322
#     4   9  18  33  52  78 108 137 170 218 273 310
#     4  11  21  36  58  81 108 141 182 224 264 321
#     4  10  19  33  55  80 106 138 177 218 262 318
#
# _framework density 20.650229
#
# number of rings (size 3 to 8) (size 9 to 14) (size 15 to 20)
#    0.000    2.000    0.000    5.400    0.000    2.400 
#    0.000    2.000    0.000    0.000    0.000    4.200 
#    0.000    0.000    0.000    0.000    0.000    0.000 
#
# Total GULP energy -247837.663846 kJ/mol
# GULP energy per Si atom -12391.883192 kJ/mol
# Density = 2.060323 g / cm^3
# Si number density = 20.650229 Si / 1000 Ang^3
#
#
#
# Elastic Constant Matrix: (Units=GPa)
#
#
# Indices 1 2 3 4 5 6 
#
# 1 132.5418 45.1038 26.5885 0.0000 12.5971 0.0000
# 2 45.1038 103.3970 26.8590 0.0000 11.5234 0.0000
# 3 26.5885 26.8590 21.0497 0.0000 1.9475 0.0000
# 4 0.0000 0.0000 0.0000 7.3090 0.0000 1.0055
# 5 12.5971 11.5234 1.9475 0.0000 17.7967 0.0000
# 6 0.0000 0.0000 0.0000 1.0055 0.0000 34.6531
#
#
#
# Elastic Compliance Matrix: (Units=1/GPa)
#
#
# Indices 1 2 3 4 5 6 
#
# 1 0.010803 -0.001001 -0.011840 0.000000 -0.005703 0.000000
# 2 -0.001001 0.015600 -0.017953 0.000000 -0.007428 0.000000
# 3 -0.011840 -0.017953 0.084373 0.000000 0.010772 0.000000
# 4 0.000000 0.000000 0.000000 0.137366 0.000000 -0.003986
# 5 -0.005703 -0.007428 0.010772 0.000000 0.063857 0.000000
# 6 0.000000 0.000000 0.000000 -0.003986 0.000000 0.028973
#
#
# Mechanical properties :
#
#
# Convention : Reuss Voigt Hill
#
# Bulk Modulus (GPa) = 20.33056 50.45456 35.39256
# Shear Modulus (GPa) = 11.93442 22.51422 17.22432
#
# Velocity S-wave (km/s) = 2.40663 3.30550 2.89121
# Velocity P-wave (km/s) = 4.19393 6.24935 5.32182
#
# Compressibility (1/GPa) = 0.04918705
#
# Stress axis : x y z
#
# Youngs Moduli (GPa) = 92.56988 64.10455 11.85208
#
# Poissons Ratio (x) = 0.06418 0.14033
# Poissons Ratio (y) = 0.09267 0.21278
# Poissons Ratio (z) = 1.09604 1.15087
#
# Static dielectric constant tensor:
#      x y z
#    x 4.570020 0.000000 -0.000380 
#    y 0.000000 3.498530 0.000000 
#    z -0.000380 0.000000 3.356700 
# 
# 
# High freq. dielectric constant tensor:
#      x y z
#    x 1.848630 0.000000 0.006090 
#    y 0.000000 1.804750 0.000000 
#    z 0.006090 0.000000 1.752600 
# 
# From -- ./inp_files/43441.got.cif
#   From: 2010.06.25/outbox.cif.g09.slc.cpg/sg13_22_cif.got.tgz:43441.got - 2010.06.28 04:50:58.
