data_PCOD8117483
_publ_section_title
;
Structure prediction by ZEFSAII (Michael W. Deem and Ramdas Pophale) SiO2 
 PCOD8117483
Probable space group: P 2/C
;
_chemical_formula_sum "Si O2"
_cell_formula_units_Z 22
_cell_length_a 25.138095
_cell_length_b 7.870548
_cell_length_c 15.719595
_cell_angle_alpha 90.000000
_cell_angle_beta 159.966086
_cell_angle_gamma 90.000000
_cell_volume 1065.457177
_symmetry_space_group_name_H-M "P 2/C"
_symmetry_group_IT_number 13
_symmetry_cell_setting 'monoclinic'
loop_
_space_group_symop_operation_xyz
x,y,z
-x,y,1/2-z
-x,-y,-z
x,-y,1/2+z
loop_
_atom_site_type_symbol
_atom_site_label
_atom_site_fract_x
_atom_site_fract_y
_atom_site_fract_z
Si Si1 0.679601 0.510833 0.536613
Si Si2 0.715741 0.523332 0.903619
Si Si3 0.000000 0.666695 0.750000
Si Si4 0.371417 0.881966 0.986945
Si Si5 0.503229 0.750087 0.490212
Si Si6 0.762078 0.798365 0.276935
O O1 0.766799 0.470321 0.578916
O O2 0.713887 0.703521 0.619915
O O3 0.739230 0.380490 0.695864
O O4 0.500000 0.479843 0.250000
O O5 0.657809 0.702783 0.777460
O O6 0.562000 0.407059 0.663584
O O7 0.861403 0.454615 0.070793
O O8 0.933509 0.789969 0.576255
O O9 0.448757 0.885072 0.009433
O O10 0.248201 0.038651 0.801383
O O11 0.500000 0.925301 0.250000
O O12 0.368236 0.822432 0.346579
#
# Coordination Sequence:
#
# PCOD8117483 Si02
#       6
#     4   4   2   4   4   4
#     4  11  19  38  65  94 121 147 197 263 294 343
#     4  10  19  37  63  90 119 161 196 241 304 350
#     4  10  24  40  56  84 130 164 196 242 290 370
#     4  11  21  35  61  95 117 147 200 258 295 341
#     4  10  18  36  63  88 118 156 203 249 287 350
#     4  11  23  39  61  89 122 160 200 241 302 355
#
# _framework density 20.648413000000001
#
# number of rings (size 3 to 8) (size 9 to 14) (size 15 to 20)
#    0.000    1.455    5.455    3.273    0.000    0.727 
#    0.000    4.545    0.000    0.000    0.000    0.000 
#    0.000    0.000    0.000    0.000    0.000    0.000 
#
# Total GULP energy -272728.420824 kJ/mol
# GULP energy per Si atom -12396.746401 kJ/mol
# Density = 2.060142 g / cm^3
# Si number density = 20.648413 Si / 1000 Ang^3
#
#
#
# Elastic Constant Matrix: (Units=GPa)
#
#
# Indices 1 2 3 4 5 6 
#
# 1 83.4570 18.2494 24.5855 0.0000 -19.4397 0.0000
# 2 18.2494 108.8445 63.6159 0.0000 -25.3525 0.0000
# 3 24.5855 63.6159 109.0429 0.0000 -19.4746 0.0000
# 4 0.0000 0.0000 0.0000 7.3192 0.0000 -2.8390
# 5 -19.4397 -25.3525 -19.4746 0.0000 31.4233 0.0000
# 6 0.0000 0.0000 0.0000 -2.8390 0.0000 11.5801
#
#
#
# Elastic Compliance Matrix: (Units=1/GPa)
#
#
# Indices 1 2 3 4 5 6 
#
# 1 0.014366 0.000805 -0.002255 0.000000 0.008140 0.000000
# 2 0.000805 0.015495 -0.007758 0.000000 0.008191 0.000000
# 3 -0.002255 -0.007758 0.014436 0.000000 0.001292 0.000000
# 4 0.000000 0.000000 0.000000 0.150986 0.000000 0.037016
# 5 0.008140 0.008191 0.001292 0.000000 0.044269 0.000000
# 6 0.000000 0.000000 0.000000 0.037016 0.000000 0.095430
#
#
# Mechanical properties :
#
#
# Convention : Reuss Voigt Hill
#
# Bulk Modulus (GPa) = 38.63860 57.13847 47.88854
# Shear Modulus (GPa) = 13.81118 23.05743 18.43430
#
# Velocity S-wave (km/s) = 2.58906 3.34528 2.99117
# Velocity P-wave (km/s) = 5.26222 6.53096 5.93061
#
# Compressibility (1/GPa) = 0.02588086
#
# Stress axis : x y z
#
# Youngs Moduli (GPa) = 69.60649 64.53760 69.27022
#
# Poissons Ratio (x) = -0.05197 0.15622
# Poissons Ratio (y) = -0.05605 0.53742
# Poissons Ratio (z) = 0.15698 0.50071
#
# Static dielectric constant tensor:
#      x y z
#    x 3.880240 0.000000 -0.386710 
#    y 0.000000 3.687700 0.000000 
#    z -0.386710 0.000000 3.650030 
# 
# 
# High freq. dielectric constant tensor:
#      x y z
#    x 1.812900 0.000000 -0.028420 
#    y 0.000000 1.800270 0.000000 
#    z -0.028420 0.000000 1.779500 
# 
# From -- ./inp_files/49524.got.cif
#   From: 2010.06.25/outbox.cif.g09.slc.cpg/sg13_25_cif.got.tgz:49524.got - 2010.06.28 04:50:58.
