data_PCOD8117017
_publ_section_title
;
Structure prediction by ZEFSAII (Michael W. Deem and Ramdas Pophale) SiO2 
 PCOD8117017
Probable space group: P 2/C
;
_chemical_formula_sum "Si O2"
_cell_formula_units_Z 28
_cell_length_a 20.203867
_cell_length_b 11.408039
_cell_length_c 21.995732
_cell_angle_alpha 90.000000
_cell_angle_beta 161.739678
_cell_angle_gamma 90.000000
_cell_volume 1588.519965
_symmetry_space_group_name_H-M "P 2/C"
_symmetry_group_IT_number 13
_symmetry_cell_setting 'monoclinic'
loop_
_space_group_symop_operation_xyz
x,y,z
-x,y,1/2-z
-x,-y,-z
x,-y,1/2+z
loop_
_atom_site_type_symbol
_atom_site_label
_atom_site_fract_x
_atom_site_fract_y
_atom_site_fract_z
Si Si1 0.959571 0.819989 0.041501
Si Si2 0.498479 0.797827 0.898987
Si Si3 0.906967 0.466042 0.323020
Si Si4 0.107777 0.333594 0.779491
Si Si5 0.379714 0.748635 0.933792
Si Si6 0.802851 0.643748 0.330828
Si Si7 0.703707 0.002116 0.634877
O O1 0.011914 0.763799 0.151615
O O2 0.020408 0.735728 0.038171
O O3 0.087466 0.944161 0.149060
O O4 0.707490 0.832936 0.818957
O O5 0.443884 0.758088 0.919523
O O6 0.639247 0.692597 0.992686
O O7 0.643500 0.915004 0.025691
O O8 0.945765 0.539397 0.295529
O O9 0.783283 0.352462 0.195109
O O10 0.770417 0.544585 0.250837
O O11 0.124904 0.422373 0.544686
O O12 0.000000 0.324542 0.750000
O O13 0.264345 0.867267 0.857230
O O14 0.588731 0.716404 0.154889
O O15 0.500000 0.000000 0.500000
#
# Coordination Sequence:
#
# PCOD8117017 Si02
#       7
#     4   4   4   4   4   4   4
#     4  10  18  33  52  78 105 135 169 216 263 316
#     4  10  19  32  52  75 105 136 170 215 266 313
#     4  10  20  30  50  73 102 138 172 214 261 312
#     4  10  22  38  52  72 100 135 182 224 262 313
#     4  11  18  30  50  78 112 140 160 205 271 321
#     4  10  18  29  47  77 106 131 169 207 258 321
#     4   9  18  30  46  77 113 138 160 199 255 323
#
# _framework density 17.626469
#
# number of rings (size 3 to 8) (size 9 to 14) (size 15 to 20)
#    0.000    2.000    7.143    0.429    0.000    4.000 
#    0.000    0.000    0.000    3.429    0.000    4.000 
#    0.000    0.000    0.000    0.000    0.000    0.000 
#
# Total GULP energy -346961.309707 kJ/mol
# GULP energy per Si atom -12391.475347 kJ/mol
# Density = 1.758635 g / cm^3
# Si number density = 17.626469 Si / 1000 Ang^3
#
#
#
# Elastic Constant Matrix: (Units=GPa)
#
#
# Indices 1 2 3 4 5 6 
#
# 1 51.0902 28.0704 23.6766 0.0000 1.1516 0.0000
# 2 28.0704 124.3068 53.7093 0.0000 -1.2449 0.0000
# 3 23.6766 53.7093 126.1206 0.0000 -11.5736 0.0000
# 4 0.0000 0.0000 0.0000 35.8817 0.0000 -1.4807
# 5 1.1516 -1.2449 -11.5736 0.0000 7.8451 0.0000
# 6 0.0000 0.0000 0.0000 -1.4807 0.0000 8.9158
#
#
#
# Elastic Compliance Matrix: (Units=1/GPa)
#
#
# Indices 1 2 3 4 5 6 
#
# 1 0.023595 -0.003840 -0.003664 0.000000 -0.009478 0.000000
# 2 -0.003840 0.010682 -0.004188 0.000000 -0.003919 0.000000
# 3 -0.003664 -0.004188 0.012015 0.000000 0.017599 0.000000
# 4 0.000000 0.000000 0.000000 0.028062 0.000000 0.004661
# 5 -0.009478 -0.003919 0.017599 0.000000 0.154201 0.000000
# 6 0.000000 0.000000 0.000000 0.004661 0.000000 0.112935
#
#
# Mechanical properties :
#
#
# Convention : Reuss Voigt Hill
#
# Bulk Modulus (GPa) = 43.65209 56.93671 50.29440
# Shear Modulus (GPa) = 13.42253 23.59926 18.51089
#
# Velocity S-wave (km/s) = 2.76252 3.66300 3.24416
# Velocity P-wave (km/s) = 5.91559 7.08958 6.52902
#
# Compressibility (1/GPa) = 0.02290841
#
# Stress axis : x y z
#
# Youngs Moduli (GPa) = 42.38267 93.61656 83.22844
#
# Poissons Ratio (x) = 0.35947 0.30495
# Poissons Ratio (y) = 0.16274 0.34854
# Poissons Ratio (z) = 0.15529 0.39204
#
# Static dielectric constant tensor:
#      x y z
#    x 2.679760 0.000000 -0.132290 
#    y 0.000000 4.109370 0.000000 
#    z -0.132290 0.000000 3.436030 
# 
# 
# High freq. dielectric constant tensor:
#      x y z
#    x 1.606930 0.000000 -0.016860 
#    y 0.000000 1.695800 0.000000 
#    z -0.016860 0.000000 1.689140 
# 
# From -- ./inp_files/81101.got.cif
#   From: 2010.06.25/outbox.cif.g09.slc.cpg/sg13_41_cif.got.tgz:81101.got - 2010.06.28 04:50:58.
