data_PCOD8117784
_publ_section_title
;
Structure prediction by ZEFSAII (Michael W. Deem and Ramdas Pophale) SiO2 
 PCOD8117784
Probable space group: P 2/C
;
_chemical_formula_sum "Si O2"
_cell_formula_units_Z 30
_cell_length_a 20.045472
_cell_length_b 8.378737
_cell_length_c 8.965794
_cell_angle_alpha 90.000000
_cell_angle_beta 104.988298
_cell_angle_gamma 90.000000
_cell_volume 1454.625300
_symmetry_space_group_name_H-M "P 2/C"
_symmetry_group_IT_number 13
_symmetry_cell_setting 'monoclinic'
loop_
_space_group_symop_operation_xyz
x,y,z
-x,y,1/2-z
-x,-y,-z
x,-y,1/2+z
loop_
_atom_site_type_symbol
_atom_site_label
_atom_site_fract_x
_atom_site_fract_y
_atom_site_fract_z
Si Si1 0.793658 0.872586 0.307692
Si Si2 0.794751 0.685202 0.021785
Si Si3 0.296112 0.154187 0.244323
Si Si4 0.908527 0.122532 0.453566
Si Si5 0.437070 0.720963 0.789486
Si Si6 0.000000 0.964258 0.750000
Si Si7 0.278007 0.653535 0.011210
Si Si8 0.565911 0.401420 0.880821
O O1 0.765354 0.792796 0.439637
O O2 0.734193 0.990129 0.207490
O O3 0.861749 0.969339 0.389201
O O4 0.811261 0.732769 0.201061
O O5 0.737571 0.811770 0.935084
O O6 0.863747 0.717186 0.961007
O O7 0.763350 0.510039 0.987834
O O8 0.378276 0.145919 0.271983
O O9 0.278277 0.308214 0.335917
O O10 0.956627 0.151156 0.336184
O O11 0.952152 0.081017 0.625293
O O12 0.500000 0.819441 0.750000
O O13 0.424970 0.587649 0.653810
O O14 0.450367 0.629039 0.953760
O O15 0.357354 0.664575 0.117191
O O16 0.500000 0.328829 0.750000
#
# Coordination Sequence:
#
# PCOD8117784 Si02
#       8
#     4   4   4   4   4   2   4   4
#     4  11  23  39  62  93 124 159 205 255 310 370
#     4  11  21  37  61  91 124 157 204 254 302 354
#     4  10  21  37  57  88 119 159 206 254 315 366
#     4  10  21  39  66  99 120 176 202 249 287 372
#     4  10  19  33  54  81 116 159 206 256 310 366
#     4  10  20  40  68  94 132 164 218 228 298 374
#     4  11  23  38  61  92 124 161 207 266 315 358
#     4  10  20  34  55  85 119 162 211 254 308 373
#
# _framework density 20.623868000000002
#
# number of rings (size 3 to 8) (size 9 to 14) (size 15 to 20)
#    0.000    1.600    2.667    4.000    3.733    1.067 
#    0.000    0.667    0.000    8.800    0.000    0.000 
#    0.000    0.000    0.000    0.000    0.000    0.000 
#
# Total GULP energy -371648.544032 kJ/mol
# GULP energy per Si atom -12388.284801 kJ/mol
# Density = 2.057693 g / cm^3
# Si number density = 20.623868 Si / 1000 Ang^3
#
#
#
# Elastic Constant Matrix: (Units=GPa)
#
#
# Indices 1 2 3 4 5 6 
#
# 1 147.5475 45.6248 54.4734 0.0000 -10.5037 0.0000
# 2 45.6248 65.2383 19.8140 0.0000 -1.7915 0.0000
# 3 54.4734 19.8140 91.0061 0.0000 -2.6573 0.0000
# 4 0.0000 0.0000 0.0000 21.1891 0.0000 2.7134
# 5 -10.5037 -1.7915 -2.6573 0.0000 34.7542 0.0000
# 6 0.0000 0.0000 0.0000 2.7134 0.0000 22.5746
#
#
#
# Elastic Compliance Matrix: (Units=1/GPa)
#
#
# Indices 1 2 3 4 5 6 
#
# 1 0.010608 -0.005829 -0.005007 0.000000 0.002523 0.000000
# 2 -0.005829 0.019628 -0.000808 0.000000 -0.000812 0.000000
# 3 -0.005007 -0.000808 0.014147 0.000000 -0.000473 0.000000
# 4 0.000000 0.000000 0.000000 0.047932 0.000000 -0.005761
# 5 0.002523 -0.000812 -0.000473 0.000000 0.029458 0.000000
# 6 0.000000 0.000000 0.000000 -0.005761 0.000000 0.044990
#
#
# Mechanical properties :
#
#
# Convention : Reuss Voigt Hill
#
# Bulk Modulus (GPa) = 47.40329 60.40182 53.90256
# Shear Modulus (GPa) = 25.37005 27.96223 26.66614
#
# Velocity S-wave (km/s) = 3.51113 3.68614 3.59970
# Velocity P-wave (km/s) = 6.28267 6.88968 6.59317
#
# Compressibility (1/GPa) = 0.02109558
#
# Stress axis : x y z
#
# Youngs Moduli (GPa) = 94.26896 50.94763 70.68447
#
# Poissons Ratio (x) = 0.29696 0.35391
# Poissons Ratio (y) = 0.54947 0.05713
# Poissons Ratio (z) = 0.47199 0.04118
#
# Static dielectric constant tensor:
#      x y z
#    x 4.254270 0.000000 -0.044920 
#    y 0.000000 3.329450 0.000000 
#    z -0.044920 0.000000 3.772740 
# 
# 
# High freq. dielectric constant tensor:
#      x y z
#    x 1.823490 0.000000 -0.008090 
#    y 0.000000 1.762510 0.000000 
#    z -0.008090 0.000000 1.817380 
# 
# From -- ./inp_files/22789.got.cif
#   From: 2010.06.25/outbox.cif.g09.slc.cpg/sg13_12_cif.got.tgz:22789.got - 2010.06.28 04:50:58.
