data_PCOD8117639
_publ_section_title
;
Structure prediction by ZEFSAII (Michael W. Deem and Ramdas Pophale) SiO2 
 PCOD8117639
Probable space group: P 2/C
;
_chemical_formula_sum "Si O2"
_cell_formula_units_Z 14
_cell_length_a 8.982302
_cell_length_b 15.901519
_cell_length_c 5.162708
_cell_angle_alpha 90.000000
_cell_angle_beta 59.111213
_cell_angle_gamma 90.000000
_cell_volume 632.812171
_symmetry_space_group_name_H-M "P 2/C"
_symmetry_group_IT_number 13
_symmetry_cell_setting 'monoclinic'
loop_
_space_group_symop_operation_xyz
x,y,z
-x,y,1/2-z
-x,-y,-z
x,-y,1/2+z
loop_
_atom_site_type_symbol
_atom_site_label
_atom_site_fract_x
_atom_site_fract_y
_atom_site_fract_z
Si Si1 0.307219 0.034303 0.106000
Si Si2 0.809070 0.686799 0.469711
Si Si3 0.695238 0.225176 0.571859
Si Si4 0.500000 0.442732 0.250000
O O1 0.212487 0.023116 0.468771
O O2 0.306355 0.127899 0.999790
O O3 0.500000 0.000000 0.000000
O O4 0.772987 0.759232 0.287437
O O5 0.672134 0.612493 0.574529
O O6 0.000000 0.648878 0.250000
O O7 0.805909 0.726522 0.757845
O O8 0.500000 0.261084 0.750000
O O9 0.500000 0.500000 0.500000
#
# Coordination Sequence:
#
# PCOD8117639 Si02
#       4
#     4   4   4   2
#     4  10  19  30  56 100 124 171 237 280 334 385
#     4  12  27  46  70 103 139 177 221 277 337 402
#     4  12  21  40  70  99 131 183 238 275 329 404
#     4  12  26  46  76 106 134 170 218 268 334 414
#
# _framework density 22.123469
#
# number of rings (size 3 to 8) (size 9 to 14) (size 15 to 20)
#    0.000    0.571    5.714    4.286    4.000    1.143 
#    0.000    0.000    0.000   17.143    0.000    0.000 
#    0.000    0.000    0.000    0.000    0.000    0.000 
#
# Total GULP energy -173517.987081 kJ/mol
# GULP energy per Si atom -12394.141934 kJ/mol
# Density = 2.207312 g / cm^3
# Si number density = 22.123469 Si / 1000 Ang^3
#
#
#
# Elastic Constant Matrix: (Units=GPa)
#
#
# Indices 1 2 3 4 5 6 
#
# 1 88.8332 43.4496 62.5454 0.0000 10.1815 0.0000
# 2 43.4496 131.9137 53.3470 0.0000 4.6454 0.0000
# 3 62.5454 53.3470 147.6676 0.0000 17.7863 0.0000
# 4 0.0000 0.0000 0.0000 27.7117 0.0000 18.3260
# 5 10.1815 4.6454 17.7863 0.0000 68.6364 0.0000
# 6 0.0000 0.0000 0.0000 18.3260 0.0000 9.5486
#
#
#
# Elastic Compliance Matrix: (Units=1/GPa)
#
#
# Indices 1 2 3 4 5 6 
#
# 1 0.017139 -0.003185 -0.006016 0.000000 -0.000768 0.000000
# 2 -0.003185 0.009473 -0.002119 0.000000 0.000380 0.000000
# 3 -0.006016 -0.002119 0.010282 0.000000 -0.001629 0.000000
# 4 0.000000 0.000000 0.000000 -0.134043 0.000000 0.257260
# 5 -0.000768 0.000380 -0.001629 0.000000 0.015080 0.000000
# 6 0.000000 0.000000 0.000000 0.257260 0.000000 -0.389016
#
#
# Mechanical properties :
#
#
# Convention : Reuss Voigt Hill
#
# Bulk Modulus (GPa) = 70.15923 76.34429 73.25176
# Shear Modulus (GPa) = -11.26906 35.11750 11.92422
#
# Velocity S-wave (km/s) = -2.25937 3.98847 2.32412
# Velocity P-wave (km/s) = 4.99751 7.46952 6.35487
#
# Compressibility (1/GPa) = 0.01425329
#
# Stress axis : x y z
#
# Youngs Moduli (GPa) = 58.34742 105.55819 97.25904
#
# Poissons Ratio (x) = 0.33622 0.58511
# Poissons Ratio (y) = 0.18585 0.20611
# Poissons Ratio (z) = 0.35102 0.22369
#
# Static dielectric constant tensor:
#      x y z
#    x 3.121620 0.000000 -0.813500 
#    y 0.000000 4.635120 0.000000 
#    z -0.813500 0.000000 3.156960 
# 
# 
# High freq. dielectric constant tensor:
#      x y z
#    x 1.867830 0.000000 0.030560 
#    y 0.000000 1.859220 0.000000 
#    z 0.030560 0.000000 1.892430 
# 
# From -- ./inp_files/1010.got.cif
#   From: 2010.06.25/outbox.cif.g09.slc.cpg/sg13_1_cif.got.tgz:1010.got - 2010.06.28 04:50:58.
