data_PCOD8117603
_publ_section_title
;
Structure prediction by ZEFSAII (Michael W. Deem and Ramdas Pophale) SiO2 
 PCOD8117603
Probable space group: P 2/C
;
_chemical_formula_sum "Si O2"
_cell_formula_units_Z 32
_cell_length_a 12.652670
_cell_length_b 25.882803
_cell_length_c 5.247866
_cell_angle_alpha 90.000000
_cell_angle_beta 91.156036
_cell_angle_gamma 90.000000
_cell_volume 1718.255803
_symmetry_space_group_name_H-M "P 2/C"
_symmetry_group_IT_number 13
_symmetry_cell_setting 'monoclinic'
loop_
_space_group_symop_operation_xyz
x,y,z
-x,y,1/2-z
-x,-y,-z
x,-y,1/2+z
loop_
_atom_site_type_symbol
_atom_site_label
_atom_site_fract_x
_atom_site_fract_y
_atom_site_fract_z
Si Si1 0.122049 0.967387 0.268258
Si Si2 0.119284 0.568024 0.247218
Si Si3 0.799864 0.614889 0.748679
Si Si4 0.882945 0.809877 0.793528
Si Si5 0.708194 0.727980 0.762871
Si Si6 0.687064 0.485802 0.241411
Si Si7 0.620793 0.222917 0.756181
Si Si8 0.197993 0.142219 0.713081
O O1 0.202918 0.919408 0.249024
O O2 0.000000 0.948299 0.250000
O O3 0.145823 0.993665 0.539489
O O4 0.133013 0.605344 0.492313
O O5 0.201984 0.519855 0.248875
O O6 0.000000 0.545124 0.250000
O O7 0.130717 0.605303 0.001356
O O8 0.739968 0.668798 0.748664
O O9 0.704408 0.574553 0.738817
O O10 0.817413 0.757954 0.779051
O O11 0.846963 0.849224 0.571763
O O12 0.000000 0.790998 0.750000
O O13 0.878165 0.836074 0.070066
O O14 0.643113 0.743907 0.509696
O O15 0.641434 0.740749 0.012761
O O16 0.620031 0.499336 0.489097
O O17 0.500000 0.204915 0.750000
O O18 0.688262 0.169845 0.750494
#
# Coordination Sequence:
#
# PCOD8117603 Si02
#       8
#     4   4   4   4   4   4   4   4
#     4  10  19  30  48  76 109 143 176 207 240 283
#     4  10  19  29  43  64  95 138 181 209 234 287
#     4  10  19  31  44  64  97 128 162 208 256 295
#     4  10  19  31  48  71 103 141 174 202 244 305
#     4  10  21  35  52  78 104 128 166 214 262 311
#     4   8  16  27  41  59  86 123 169 204 238 286
#     4  10  21  39  61  79  98 128 171 222 268 313
#     4  10  20  34  53  75 103 139 176 214 252 296
#
# _framework density 18.623538
#
# number of rings (size 3 to 8) (size 9 to 14) (size 15 to 20)
#    0.000    2.250    0.000    3.375    0.000    6.500 
#    0.000    0.000    0.000    0.750    0.000    0.000 
#    0.000   90.000    0.000    0.000    0.000    0.000 
#
# Total GULP energy -396579.234846 kJ/mol
# GULP energy per Si atom -12393.101089 kJ/mol
# Density = 1.858115 g / cm^3
# Si number density = 18.623538 Si / 1000 Ang^3
#
#
#
# Elastic Constant Matrix: (Units=GPa)
#
#
# Indices 1 2 3 4 5 6 
#
# 1 66.3394 28.1619 11.6587 0.0000 -7.1156 0.0000
# 2 28.1619 117.9574 28.3046 0.0000 -0.5975 0.0000
# 3 11.6587 28.3046 139.8434 0.0000 -5.6153 0.0000
# 4 0.0000 0.0000 0.0000 21.1591 0.0000 -1.9247
# 5 -7.1156 -0.5975 -5.6153 0.0000 8.4610 0.0000
# 6 0.0000 0.0000 0.0000 -1.9247 0.0000 14.2975
#
#
#
# Elastic Compliance Matrix: (Units=1/GPa)
#
#
# Indices 1 2 3 4 5 6 
#
# 1 0.018565 -0.004341 -0.000056 0.000000 0.015269 0.000000
# 2 -0.004341 0.009928 -0.001814 0.000000 -0.004154 0.000000
# 3 -0.000056 -0.001814 0.007721 0.000000 0.004949 0.000000
# 4 0.000000 0.000000 0.000000 0.047847 0.000000 0.006441
# 5 0.015269 -0.004154 0.004949 0.000000 0.134022 0.000000
# 6 0.000000 0.000000 0.000000 0.006441 0.000000 0.070810
#
#
# Mechanical properties :
#
#
# Convention : Reuss Voigt Hill
#
# Bulk Modulus (GPa) = 42.03262 51.15453 46.59358
# Shear Modulus (GPa) = 16.16830 25.85118 21.00974
#
# Velocity S-wave (km/s) = 2.94966 3.72975 3.36241
# Velocity P-wave (km/s) = 5.84972 6.78788 6.33619
#
# Compressibility (1/GPa) = 0.02379105
#
# Stress axis : x y z
#
# Youngs Moduli (GPa) = 53.86598 100.72037 129.50855
#
# Poissons Ratio (x) = 0.43727 0.00724
# Poissons Ratio (y) = 0.23386 0.23498
# Poissons Ratio (z) = 0.00301 0.18275
#
# Static dielectric constant tensor:
#      x y z
#    x 3.043240 0.000000 -0.056120 
#    y 0.000000 3.247030 0.000000 
#    z -0.056120 0.000000 4.300190 
# 
# 
# High freq. dielectric constant tensor:
#      x y z
#    x 1.681990 0.000000 -0.003750 
#    y 0.000000 1.712670 0.000000 
#    z -0.003750 0.000000 1.760950 
# 
# From -- ./inp_files/4359.got.cif
#   From: 2010.06.25/outbox.cif.g09.slc.cpg/sg13_3_cif.got.tgz:4359.got - 2010.06.28 04:50:58.
