data_PCOD8117697
_publ_section_title
;
Structure prediction by ZEFSAII (Michael W. Deem and Ramdas Pophale) SiO2 
 PCOD8117697
Probable space group: P 2/C
;
_chemical_formula_sum "Si O2"
_cell_formula_units_Z 32
_cell_length_a 20.314351
_cell_length_b 9.077600
_cell_length_c 11.164125
_cell_angle_alpha 90.000000
_cell_angle_beta 57.202460
_cell_angle_gamma 90.000000
_cell_volume 1730.544740
_symmetry_space_group_name_H-M "P 2/C"
_symmetry_group_IT_number 13
_symmetry_cell_setting 'monoclinic'
loop_
_space_group_symop_operation_xyz
x,y,z
-x,y,1/2-z
-x,-y,-z
x,-y,1/2+z
loop_
_atom_site_type_symbol
_atom_site_label
_atom_site_fract_x
_atom_site_fract_y
_atom_site_fract_z
Si Si1 0.097285 0.592918 0.525657
Si Si2 0.261636 0.730161 0.388858
Si Si3 0.226466 0.754208 0.687666
Si Si4 0.331251 0.509326 0.666135
Si Si5 0.677089 0.010560 0.823988
Si Si6 0.608250 0.747791 0.539067
Si Si7 0.923649 0.389157 0.185341
Si Si8 0.564975 0.762076 0.854906
O O1 0.170815 0.703385 0.437871
O O2 0.097361 0.478787 0.415069
O O3 0.096886 0.527964 0.665175
O O4 0.012355 0.672023 0.596228
O O5 0.272565 0.744491 0.518301
O O6 0.316581 0.594528 0.295151
O O7 0.296627 0.882559 0.307489
O O8 0.253063 0.607581 0.732275
O O9 0.249071 0.904026 0.730693
O O10 0.132801 0.753400 0.764008
O O11 0.346440 0.402486 0.538237
O O12 0.405170 0.617986 0.604742
O O13 0.599914 0.913989 0.871753
O O14 0.660752 0.109607 0.957152
O O15 0.593125 0.744846 0.692581
O O16 0.528398 0.763273 0.540943
#
# Coordination Sequence:
#
# PCOD8117697 Si02
#       8
#     4   4   4   4   4   4   4   4
#     4   9  17  31  52  78 106 135 168 209 256 304
#     4  10  19  33  51  74 102 133 168 207 253 302
#     4  10  19  33  51  74 102 133 168 207 253 302
#     4  10  19  32  51  76  98 124 162 212 257 302
#     4  10  21  34  49  70 100 134 170 202 247 300
#     4  10  20  34  51  71  96 128 165 207 254 302
#     4   9  17  31  52  78 106 135 168 209 256 304
#     4  10  20  34  51  71  96 128 165 207 254 302
#
# _framework density 18.491288000000001
#
# number of rings (size 3 to 8) (size 9 to 14) (size 15 to 20)
#    0.000    2.250    1.250    2.250    0.000    0.000 
#    0.000    1.875    0.000   12.000    0.000    0.000 
#    0.000    0.000    0.000    0.000    0.000    0.000 
#
# Total GULP energy -396434.908466 kJ/mol
# GULP energy per Si atom -12388.590890 kJ/mol
# Density = 1.844920 g / cm^3
# Si number density = 18.491288 Si / 1000 Ang^3
#
#
#
# Elastic Constant Matrix: (Units=GPa)
#
#
# Indices 1 2 3 4 5 6 
#
# 1 52.3613 18.9907 -5.9390 0.0000 -2.9150 0.0000
# 2 18.9907 107.5044 15.8437 0.0000 -1.9941 0.0000
# 3 -5.9390 15.8437 50.5805 0.0000 3.3819 0.0000
# 4 0.0000 0.0000 0.0000 16.5494 0.0000 -6.3406
# 5 -2.9150 -1.9941 3.3819 0.0000 30.2689 0.0000
# 6 0.0000 0.0000 0.0000 -6.3406 0.0000 25.8765
#
#
#
# Elastic Compliance Matrix: (Units=1/GPa)
#
#
# Indices 1 2 3 4 5 6 
#
# 1 0.021140 -0.004259 0.003727 0.000000 0.001339 0.000000
# 2 -0.004259 0.010640 -0.003881 0.000000 0.000724 0.000000
# 3 0.003727 -0.003881 0.021578 0.000000 -0.002308 0.000000
# 4 0.000000 0.000000 0.000000 0.066685 0.000000 0.016340
# 5 0.001339 0.000724 -0.002308 0.000000 0.033472 0.000000
# 6 0.000000 0.000000 0.000000 0.016340 0.000000 0.042649
#
#
# Mechanical properties :
#
#
# Convention : Reuss Voigt Hill
#
# Bulk Modulus (GPa) = 22.45626 29.80411 26.13018
# Shear Modulus (GPa) = 22.74443 26.64237 24.69340
#
# Velocity S-wave (km/s) = 3.51095 3.79991 3.65829
# Velocity P-wave (km/s) = 5.34849 5.95024 5.65737
#
# Compressibility (1/GPa) = 0.04453102
#
# Stress axis : x y z
#
# Youngs Moduli (GPa) = 47.30394 93.98760 46.34329
#
# Poissons Ratio (x) = 0.40027 -0.17271
# Poissons Ratio (y) = 0.20146 0.17987
# Poissons Ratio (z) = -0.17629 0.36479
#
# Static dielectric constant tensor:
#      x y z
#    x 3.560400 0.000000 -0.053470 
#    y 0.000000 3.188080 0.000000 
#    z -0.053470 0.000000 3.534730 
# 
# 
# High freq. dielectric constant tensor:
#      x y z
#    x 1.721230 0.000000 -0.002470 
#    y 0.000000 1.693840 0.000000 
#    z -0.002470 0.000000 1.727820 
# 
# From -- ./inp_files/40415.got.cif
#   From: 2010.06.25/outbox.cif.g09.slc.cpg/sg13_21_cif.got.tgz:40415.got - 2010.06.28 04:50:58.
