data_PCOD8117881
_publ_section_title
;
Structure prediction by ZEFSAII (Michael W. Deem and Ramdas Pophale) SiO2 
 PCOD8117881
Probable space group: P 2/C
;
_chemical_formula_sum "Si O2"
_cell_formula_units_Z 24
_cell_length_a 13.453724
_cell_length_b 12.064874
_cell_length_c 31.101584
_cell_angle_alpha 90.000000
_cell_angle_beta 15.093645
_cell_angle_gamma 90.000000
_cell_volume 1314.572344
_symmetry_space_group_name_H-M "P 2/C"
_symmetry_group_IT_number 13
_symmetry_cell_setting 'monoclinic'
loop_
_space_group_symop_operation_xyz
x,y,z
-x,y,1/2-z
-x,-y,-z
x,-y,1/2+z
loop_
_atom_site_type_symbol
_atom_site_label
_atom_site_fract_x
_atom_site_fract_y
_atom_site_fract_z
Si Si1 0.622670 0.907426 0.532319
Si Si2 0.097708 0.121536 0.756976
Si Si3 0.123019 0.378080 0.436470
Si Si4 0.226280 0.766201 0.484170
Si Si5 0.252900 0.968321 0.814928
Si Si6 0.471312 0.773411 0.671496
O O1 0.491689 0.794427 0.611484
O O2 0.699534 0.885889 0.449697
O O3 0.309473 0.003096 0.667647
O O4 0.041868 0.937396 0.376016
O O5 0.352887 0.217307 0.672573
O O6 0.000000 0.160816 0.750000
O O7 0.500000 0.374949 0.250000
O O8 0.202562 0.309873 0.447222
O O9 0.000000 0.500000 0.500000
O O10 0.780241 0.322844 0.551914
O O11 0.061247 0.882405 0.534203
O O12 0.947784 0.727759 0.639990
O O13 0.500000 0.022068 0.750000
O O14 0.532484 0.896712 0.666781
#
# Coordination Sequence:
#
# PCOD8117881 Si02
#       6
#     4   4   4   4   4   4
#     4  11  20  30  48  72 100 134 177 207 245 303
#     4  11  21  33  48  70  99 138 177 214 249 292
#     4  10  19  34  56  78 108 133 165 207 261 311
#     4   8  17  34  48  67 102 133 162 206 254 289
#     4   9  15  28  48  66  99 136 159 188 252 298
#     4   9  17  33  48  73 104 135 162 208 254 304
#
# _framework density 18.256886999999999
#
# number of rings (size 3 to 8) (size 9 to 14) (size 15 to 20)
#    1.000    1.333    3.333    0.500    0.000    3.333 
#    0.000    0.000    0.000    0.000    0.000   11.667 
#    0.000    0.000    0.000    0.000    0.000    0.000 
#
# Total GULP energy -297381.917145 kJ/mol
# GULP energy per Si atom -12390.913214 kJ/mol
# Density = 1.821533 g / cm^3
# Si number density = 18.256887 Si / 1000 Ang^3
#
#
#
# Elastic Constant Matrix: (Units=GPa)
#
#
# Indices 1 2 3 4 5 6 
#
# 1 76.3728 26.2147 21.6729 0.0009 8.2403 -0.0001
# 2 26.2147 67.4936 10.8536 0.0006 0.9774 0.0000
# 3 21.6729 10.8536 44.2707 0.0030 11.8339 -0.0014
# 4 0.0009 0.0006 0.0030 20.9278 -0.0004 3.8434
# 5 8.2403 0.9774 11.8339 -0.0004 29.6094 0.0002
# 6 -0.0001 0.0000 -0.0014 3.8434 0.0002 17.8805
#
#
#
# Elastic Compliance Matrix: (Units=1/GPa)
#
#
# Indices 1 2 3 4 5 6 
#
# 1 0.017045 -0.005554 -0.006453 0.000000 -0.001981 0.000000
# 2 -0.005554 0.017267 -0.001988 0.000000 0.001770 0.000000
# 3 -0.006453 -0.001988 0.028816 -0.000005 -0.009655 0.000003
# 4 0.000000 0.000000 -0.000005 0.049747 0.000002 -0.010693
# 5 -0.001981 0.001770 -0.009655 0.000002 0.038125 -0.000002
# 6 0.000000 0.000000 0.000003 -0.010693 -0.000002 0.058225
#
#
# Mechanical properties :
#
#
# Convention : Reuss Voigt Hill
#
# Bulk Modulus (GPa) = 28.45869 33.95772 31.20821
# Shear Modulus (GPa) = 20.08613 22.30991 21.19802
#
# Velocity S-wave (km/s) = 3.32052 3.49950 3.41118
# Velocity P-wave (km/s) = 5.50662 5.91346 5.71366
#
# Compressibility (1/GPa) = 0.03513865
#
# Stress axis : x y z
#
# Youngs Moduli (GPa) = 58.66789 57.91272 34.70326
#
# Poissons Ratio (x) = 0.32164 0.22395
# Poissons Ratio (y) = 0.32584 0.06897
# Poissons Ratio (z) = 0.37860 0.11510
#
# Static dielectric constant tensor:
#      x y z
#    x 3.314170 0.000000 0.126190 
#    y 0.000000 3.056560 0.000000 
#    z 0.126190 0.000000 3.281730 
# 
# 
# High freq. dielectric constant tensor:
#      x y z
#    x 1.695780 0.000000 0.010200 
#    y 0.000000 1.649050 0.000000 
#    z 0.010200 0.000000 1.699760 
# 
# From -- ./inp_files/92423.got.cif
#   From: 2010.06.25/outbox.cif.g09.slc.cpg/sg13_47_cif.got.tgz:92423.got - 2010.06.28 04:50:58.
