data_PCOD8117075
_publ_section_title
;
Structure prediction by ZEFSAII (Michael W. Deem and Ramdas Pophale) SiO2 
 PCOD8117075
Probable space group: P 2/C
;
_chemical_formula_sum "Si O2"
_cell_formula_units_Z 22
_cell_length_a 8.110951
_cell_length_b 14.922581
_cell_length_c 8.769892
_cell_angle_alpha 90.000000
_cell_angle_beta 84.973942
_cell_angle_gamma 90.000000
_cell_volume 1057.394064
_symmetry_space_group_name_H-M "P 2/C"
_symmetry_group_IT_number 13
_symmetry_cell_setting 'monoclinic'
loop_
_space_group_symop_operation_xyz
x,y,z
-x,y,1/2-z
-x,-y,-z
x,-y,1/2+z
loop_
_atom_site_type_symbol
_atom_site_label
_atom_site_fract_x
_atom_site_fract_y
_atom_site_fract_z
Si Si1 0.584428 0.287568 0.949864
Si Si2 0.684335 0.417763 0.180615
Si Si3 0.500000 0.018842 0.250000
Si Si4 0.157374 0.247697 0.831471
Si Si5 0.630275 0.880020 0.003874
Si Si6 0.743974 0.402848 0.508583
O O1 0.687851 0.273448 0.788054
O O2 0.521612 0.189010 0.995093
O O3 0.435996 0.359177 0.942075
O O4 0.694712 0.326403 0.080162
O O5 0.500000 0.441963 0.250000
O O6 0.789625 0.405136 0.325970
O O7 0.756791 0.498117 0.074536
O O8 0.635810 0.077745 0.333504
O O9 0.603881 0.958997 0.126095
O O10 0.205400 0.171891 0.952497
O O11 0.116288 0.339595 0.925213
O O12 0.000000 0.213378 0.750000
#
# Coordination Sequence:
#
# PCOD8117075 Si02
#       6
#     4   4   2   4   4   4
#     4  10  19  34  56  82 112 146 188 232 280 325
#     4  10  18  30  56  86 110 140 194 245 277 316
#     4  10  20  36  66  90 108 134 182 240 284 334
#     4  11  22  38  55  79 118 158 187 222 275 336
#     4  10  20  37  62  87 113 139 183 230 287 329
#     4  10  19  33  55  82 109 147 193 238 276 320
#
# _framework density 20.805866999999999
#
# number of rings (size 3 to 8) (size 9 to 14) (size 15 to 20)
#    0.000    1.818    1.818    6.000    6.364    0.000 
#    0.000    5.455    0.000    0.000    0.000    0.000 
#    0.000    0.000    0.000    0.000    0.000    0.000 
#
# Total GULP energy -272645.231246 kJ/mol
# GULP energy per Si atom -12392.965057 kJ/mol
# Density = 2.075851 g / cm^3
# Si number density = 20.805867 Si / 1000 Ang^3
#
#
#
# Elastic Constant Matrix: (Units=GPa)
#
#
# Indices 1 2 3 4 5 6 
#
# 1 36.2054 24.2714 23.4332 0.0000 20.3150 0.0000
# 2 24.2714 133.3774 83.2836 0.0000 22.4883 0.0000
# 3 23.4332 83.2836 133.9993 0.0000 28.0811 0.0000
# 4 0.0000 0.0000 0.0000 47.6924 0.0000 6.3652
# 5 20.3150 22.4883 28.0811 0.0000 25.1799 0.0000
# 6 0.0000 0.0000 0.0000 6.3652 0.0000 9.0127
#
#
#
# Elastic Compliance Matrix: (Units=1/GPa)
#
#
# Indices 1 2 3 4 5 6 
#
# 1 0.051529 -0.003649 0.001678 0.000000 -0.040186 0.000000
# 2 -0.003649 0.012712 -0.007178 0.000000 -0.000404 0.000000
# 3 0.001678 -0.007178 0.013795 0.000000 -0.010328 0.000000
# 4 0.000000 0.000000 0.000000 0.023150 0.000000 -0.016350
# 5 -0.040186 -0.000404 -0.010328 0.000000 0.084014 0.000000
# 6 0.000000 0.000000 0.000000 -0.016350 0.000000 0.122502
#
#
# Mechanical properties :
#
#
# Convention : Reuss Voigt Hill
#
# Bulk Modulus (GPa) = 16.73993 62.83985 39.78989
# Shear Modulus (GPa) = 14.45460 27.88325 21.16893
#
# Velocity S-wave (km/s) = 2.63865 3.66480 3.19321
# Velocity P-wave (km/s) = 4.16491 6.94090 5.72375
#
# Compressibility (1/GPa) = 0.05973741
#
# Stress axis : x y z
#
# Youngs Moduli (GPa) = 19.40667 78.66791 72.49183
#
# Poissons Ratio (x) = 0.28710 -0.12168
# Poissons Ratio (y) = 0.07082 0.52033
# Poissons Ratio (z) = -0.03257 0.56466
#
# Static dielectric constant tensor:
#      x y z
#    x 3.133880 0.000000 0.316710 
#    y 0.000000 3.986260 0.000000 
#    z 0.316710 0.000000 4.415400 
# 
# 
# High freq. dielectric constant tensor:
#      x y z
#    x 1.745200 0.000000 0.019890 
#    y 0.000000 1.822470 0.000000 
#    z 0.019890 0.000000 1.841250 
# 
# From -- ./inp_files/12266.got.cif
#   From: 2010.06.25/outbox.cif.g09.slc.cpg/sg13_7_cif.got.tgz:12266.got - 2010.06.28 04:50:58.
