data_PCOD8117290
_publ_section_title
;
Structure prediction by ZEFSAII (Michael W. Deem and Ramdas Pophale) SiO2 
 PCOD8117290
Probable space group: P 2/C
;
_chemical_formula_sum "Si O2"
_cell_formula_units_Z 26
_cell_length_a 11.482687
_cell_length_b 8.548245
_cell_length_c 15.164556
_cell_angle_alpha 90.000000
_cell_angle_beta 122.644082
_cell_angle_gamma 90.000000
_cell_volume 1253.376903
_symmetry_space_group_name_H-M "P 2/C"
_symmetry_group_IT_number 13
_symmetry_cell_setting 'monoclinic'
loop_
_space_group_symop_operation_xyz
x,y,z
-x,y,1/2-z
-x,-y,-z
x,-y,1/2+z
loop_
_atom_site_type_symbol
_atom_site_label
_atom_site_fract_x
_atom_site_fract_y
_atom_site_fract_z
Si Si1 0.751674 0.868324 0.132431
Si Si2 0.584576 0.362017 0.660805
Si Si3 0.176752 0.047372 0.498237
Si Si4 0.136792 0.078772 0.167254
Si Si5 0.177893 0.441503 0.198554
Si Si6 0.296998 0.357824 0.610292
Si Si7 0.000000 0.641407 0.250000
O O1 0.613663 0.767408 0.097331
O O2 0.875868 0.748218 0.164272
O O3 0.722131 0.971058 0.033247
O O4 0.785802 0.981755 0.227089
O O5 0.681421 0.516719 0.688446
O O6 0.423141 0.412103 0.597443
O O7 0.634439 0.282313 0.773746
O O8 0.205337 0.231382 0.521754
O O9 0.022372 0.026649 0.398630
O O10 0.203432 0.955962 0.599694
O O11 0.150057 0.260086 0.194380
O O12 0.200388 0.497529 0.104832
O O13 0.048773 0.534549 0.187853
#
# Coordination Sequence:
#
# PCOD8117290 Si02
#       7
#     4   4   4   4   4   4   2
#     4  11  20  38  59  84 118 155 195 245 293 351
#     4   8  18  39  61  74 115 158 193 237 291 343
#     4  11  22  34  60  86 121 154 191 245 293 356
#     4  11  22  36  55  92 121 149 195 243 297 352
#     4   9  20  34  57  84 113 154 193 239 298 343
#     4   9  18  39  57  80 111 160 196 232 292 349
#     4  10  18  34  54  82 116 156 184 234 300 344
#
# _framework density 20.743960000000001
#
# number of rings (size 3 to 8) (size 9 to 14) (size 15 to 20)
#    0.923    1.231    3.077    0.000    4.308    1.231 
#    0.000    3.077    0.000    1.846    0.000    0.000 
#    0.000    0.000    0.000    0.000    0.000    0.000 
#
# Total GULP energy -322162.953510 kJ/mol
# GULP energy per Si atom -12390.882827 kJ/mol
# Density = 2.069675 g / cm^3
# Si number density = 20.743960 Si / 1000 Ang^3
#
#
#
# Elastic Constant Matrix: (Units=GPa)
#
#
# Indices 1 2 3 4 5 6 
#
# 1 116.0264 39.3328 18.5957 0.0000 -22.1089 0.0000
# 2 39.3328 114.2620 19.8564 0.0000 -16.0926 0.0000
# 3 18.5957 19.8564 46.0501 0.0000 -18.9362 0.0000
# 4 0.0000 0.0000 0.0000 12.8318 0.0000 3.2511
# 5 -22.1089 -16.0926 -18.9362 0.0000 16.9139 0.0000
# 6 0.0000 0.0000 0.0000 3.2511 0.0000 8.3959
#
#
#
# Elastic Compliance Matrix: (Units=1/GPa)
#
#
# Indices 1 2 3 4 5 6 
#
# 1 0.012189 -0.002313 0.003191 0.000000 0.017304 0.000000
# 2 -0.002313 0.010559 -0.001355 0.000000 0.005506 0.000000
# 3 0.003191 -0.001355 0.041133 0.000000 0.048933 0.000000
# 4 0.000000 0.000000 0.000000 0.086409 0.000000 -0.033460
# 5 0.017304 0.005506 0.048933 0.000000 0.141765 0.000000
# 6 0.000000 0.000000 0.000000 -0.033460 0.000000 0.132063
#
#
# Mechanical properties :
#
#
# Convention : Reuss Voigt Hill
#
# Bulk Modulus (GPa) = 15.89149 47.98982 31.94065
# Shear Modulus (GPa) = 11.20958 20.86521 16.03740
#
# Velocity S-wave (km/s) = 2.32713 3.17495 2.78350
# Velocity P-wave (km/s) = 3.85980 6.05186 5.07558
#
# Compressibility (1/GPa) = 0.06292677
#
# Stress axis : x y z
#
# Youngs Moduli (GPa) = 82.04252 94.70623 24.31150
#
# Poissons Ratio (x) = 0.21908 -0.07758
# Poissons Ratio (y) = 0.18978 0.03294
# Poissons Ratio (z) = -0.26181 0.12831
#
# Static dielectric constant tensor:
#      x y z
#    x 3.978270 0.000000 -0.212000 
#    y 0.000000 3.509140 0.000000 
#    z -0.212000 0.000000 3.312020 
# 
# 
# High freq. dielectric constant tensor:
#      x y z
#    x 1.819990 0.000000 -0.018120 
#    y 0.000000 1.800740 0.000000 
#    z -0.018120 0.000000 1.772340 
# 
# From -- ./inp_files/50169.got.cif
#   From: 2010.06.25/outbox.cif.g09.slc.cpg/sg13_26_cif.got.tgz:50169.got - 2010.06.28 04:50:58.
