data_PCOD8117695
_publ_section_title
;
Structure prediction by ZEFSAII (Michael W. Deem and Ramdas Pophale) SiO2 
 PCOD8117695
Probable space group: P 2/C
;
_chemical_formula_sum "Si O2"
_cell_formula_units_Z 32
_cell_length_a 6.395195
_cell_length_b 20.416103
_cell_length_c 18.163128
_cell_angle_alpha 90.000000
_cell_angle_beta 132.265196
_cell_angle_gamma 90.000000
_cell_volume 1754.980705
_symmetry_space_group_name_H-M "P 2/C"
_symmetry_group_IT_number 13
_symmetry_cell_setting 'monoclinic'
loop_
_space_group_symop_operation_xyz
x,y,z
-x,y,1/2-z
-x,-y,-z
x,-y,1/2+z
loop_
_atom_site_type_symbol
_atom_site_label
_atom_site_fract_x
_atom_site_fract_y
_atom_site_fract_z
Si Si1 0.739342 0.407270 0.458172
Si Si2 0.784200 0.925965 0.851619
Si Si3 0.161286 0.020080 0.862481
Si Si4 0.430305 0.903000 0.545106
Si Si5 0.123261 0.418608 0.355802
Si Si6 0.927813 0.808308 0.652113
Si Si7 0.197914 0.691511 0.640252
Si Si8 0.789562 0.520655 0.353265
O O1 0.462157 0.414554 0.443820
O O2 0.737878 0.331277 0.428587
O O3 0.694200 0.463822 0.386626
O O4 0.037888 0.419590 0.569312
O O5 0.500000 0.953679 0.750000
O O6 0.779703 0.897719 0.934208
O O7 0.867297 0.868582 0.814905
O O8 0.994571 0.986629 0.891215
O O9 0.000000 0.041605 0.750000
O O10 0.391929 0.967541 0.891099
O O11 0.283411 0.085253 0.930755
O O12 0.606589 0.835677 0.576119
O O13 0.000000 0.393432 0.250000
O O14 0.982365 0.371115 0.380561
O O15 0.007531 0.491490 0.344648
O O16 0.000000 0.779213 0.750000
O O17 0.993162 0.753829 0.605088
O O18 0.500000 0.703106 0.750000
O O19 0.500000 0.548997 0.250000
#
# Coordination Sequence:
#
# PCOD8117695 Si02
#       8
#     4   4   4   4   4   4   4   4
#     4  10  20  33  49  76 108 136 171 216 258 315
#     4  11  17  32  51  75 108 136 167 209 268 320
#     4  10  19  32  51  76 107 139 170 209 260 320
#     4  10  20  33  49  76 108 136 171 216 258 315
#     4  11  17  32  51  75 108 136 167 209 268 320
#     4  11  22  33  50  75 102 136 172 215 264 320
#     4  11  22  33  50  75 102 136 172 215 264 320
#     4  10  19  32  51  76 107 139 170 209 260 320
#
# _framework density 18.233819
#
# number of rings (size 3 to 8) (size 9 to 14) (size 15 to 20)
#    0.000    1.500    5.000    3.000    0.000    0.000 
#    0.000    0.000    0.000    0.000    6.500    0.000 
#    0.000    0.000    0.000    0.000    0.000    0.000 
#
# Total GULP energy -396437.275545 kJ/mol
# GULP energy per Si atom -12388.664861 kJ/mol
# Density = 1.819232 g / cm^3
# Si number density = 18.233819 Si / 1000 Ang^3
#
#
#
# Elastic Constant Matrix: (Units=GPa)
#
#
# Indices 1 2 3 4 5 6 
#
# 1 93.4415 20.9644 24.8957 0.0000 5.9717 0.0000
# 2 20.9644 62.5023 26.9731 0.0000 4.3054 0.0000
# 3 24.8957 26.9731 105.2971 0.0000 5.3739 0.0000
# 4 0.0000 0.0000 0.0000 17.5686 0.0000 -1.2468
# 5 5.9717 4.3054 5.3739 0.0000 19.9559 0.0000
# 6 0.0000 0.0000 0.0000 -1.2468 0.0000 22.8036
#
#
#
# Elastic Compliance Matrix: (Units=1/GPa)
#
#
# Indices 1 2 3 4 5 6 
#
# 1 0.012058 -0.003036 -0.001949 0.000000 -0.002428 0.000000
# 2 -0.003036 0.018894 -0.004016 0.000000 -0.002087 0.000000
# 3 -0.001949 -0.004016 0.011065 0.000000 -0.001530 0.000000
# 4 0.000000 0.000000 0.000000 0.057141 0.000000 0.003124
# 5 -0.002428 -0.002087 -0.001530 0.000000 0.051699 0.000000
# 6 0.000000 0.000000 0.000000 0.003124 0.000000 0.044024
#
#
# Mechanical properties :
#
#
# Convention : Reuss Voigt Hill
#
# Bulk Modulus (GPa) = 41.64087 45.21193 43.42640
# Shear Modulus (GPa) = 22.63598 24.62614 23.63106
#
# Velocity S-wave (km/s) = 3.52721 3.67900 3.60391
# Velocity P-wave (km/s) = 6.28292 6.54952 6.41760
#
# Compressibility (1/GPa) = 0.02401487
#
# Stress axis : x y z
#
# Youngs Moduli (GPa) = 82.93581 52.92562 90.37871
#
# Poissons Ratio (x) = 0.16068 0.17616
# Poissons Ratio (y) = 0.25178 0.36294
# Poissons Ratio (z) = 0.16166 0.21254
#
# Static dielectric constant tensor:
#      x y z
#    x 3.763410 0.000000 0.003230 
#    y 0.000000 3.118320 0.000000 
#    z 0.003230 0.000000 3.156190 
# 
# 
# High freq. dielectric constant tensor:
#      x y z
#    x 1.731030 0.000000 0.004510 
#    y 0.000000 1.666590 0.000000 
#    z 0.004510 0.000000 1.676610 
# 
# From -- ./inp_files/61853.got.cif
#   From: 2010.06.25/outbox.cif.g09.slc.cpg/sg13_31_cif.got.tgz:61853.got - 2010.06.28 04:50:58.
