data_PCOD8117232
_publ_section_title
;
Structure prediction by ZEFSAII (Michael W. Deem and Ramdas Pophale) SiO2 
 PCOD8117232
Probable space group: P 2/C
;
_chemical_formula_sum "Si O2"
_cell_formula_units_Z 16
_cell_length_a 8.641490
_cell_length_b 6.913873
_cell_length_c 23.957308
_cell_angle_alpha 90.000000
_cell_angle_beta 141.458842
_cell_angle_gamma 90.000000
_cell_volume 891.845298
_symmetry_space_group_name_H-M "P 2/C"
_symmetry_group_IT_number 13
_symmetry_cell_setting 'monoclinic'
loop_
_space_group_symop_operation_xyz
x,y,z
-x,y,1/2-z
-x,-y,-z
x,-y,1/2+z
loop_
_atom_site_type_symbol
_atom_site_label
_atom_site_fract_x
_atom_site_fract_y
_atom_site_fract_z
Si Si1 0.050264 0.389175 0.591809
Si Si2 0.368565 0.652288 0.607889
Si Si3 0.415890 0.935513 0.165728
Si Si4 0.193863 0.377904 0.756332
O O1 0.220836 0.565992 0.619028
O O2 0.165155 0.188344 0.601735
O O3 0.042131 0.403329 0.656118
O O4 0.772079 0.405925 0.489143
O O5 0.647927 0.570254 0.685140
O O6 0.372459 0.883198 0.613556
O O7 0.500000 0.010318 0.250000
O O8 0.625181 0.804558 0.196240
O O9 0.000000 0.337579 0.750000
#
# Coordination Sequence:
#
# PCOD8117232 Si02
#       4
#     4   4   4   4
#     4   9  19  33  52  77  97 122 166 210 240 282
#     4  10  18  33  56  74  94 128 167 204 245 284
#     4   9  17  32  52  72  97 128 163 202 242 284
#     4  10  21  34  47  72 107 132 158 198 242 294
#
# _framework density 17.940329999999999
#
# number of rings (size 3 to 8) (size 9 to 14) (size 15 to 20)
#    0.000    2.500    0.000    4.500    0.000    2.000 
#    0.000    1.250    0.000    0.000    0.000    0.000 
#    0.000    0.000    0.000    0.000    0.000    0.000 
#
# Total GULP energy -198428.004803 kJ/mol
# GULP energy per Si atom -12401.750300 kJ/mol
# Density = 1.789950 g / cm^3
# Si number density = 17.940330 Si / 1000 Ang^3
#
#
#
# Elastic Constant Matrix: (Units=GPa)
#
#
# Indices 1 2 3 4 5 6 
#
# 1 102.6317 18.9015 49.3572 0.0000 -11.4950 0.0000
# 2 18.9015 87.5177 26.2551 0.0000 -2.8534 0.0000
# 3 49.3572 26.2551 91.8096 0.0000 -12.1414 0.0000
# 4 0.0000 0.0000 0.0000 22.4491 0.0000 -4.2965
# 5 -11.4950 -2.8534 -12.1414 0.0000 18.6474 0.0000
# 6 0.0000 0.0000 0.0000 -4.2965 0.0000 8.8340
#
#
#
# Elastic Compliance Matrix: (Units=1/GPa)
#
#
# Indices 1 2 3 4 5 6 
#
# 1 0.013452 -0.000835 -0.006470 0.000000 0.003952 0.000000
# 2 -0.000835 0.012554 -0.003233 0.000000 -0.000699 0.000000
# 3 -0.006470 -0.003233 0.016088 0.000000 0.005991 0.000000
# 4 0.000000 0.000000 0.000000 0.049117 0.000000 0.023888
# 5 0.003952 -0.000699 0.005991 0.000000 0.059857 0.000000
# 6 0.000000 0.000000 0.000000 0.023888 0.000000 0.124818
#
#
# Mechanical properties :
#
#
# Convention : Reuss Voigt Hill
#
# Bulk Modulus (GPa) = 47.58494 52.33184 49.95839
# Shear Modulus (GPa) = 16.44912 22.48245 19.46579
#
# Velocity S-wave (km/s) = 3.03129 3.54387 3.29755
# Velocity P-wave (km/s) = 6.23163 6.78075 6.51198
#
# Compressibility (1/GPa) = 0.02101505
#
# Stress axis : x y z
#
# Youngs Moduli (GPa) = 74.34057 79.65651 62.15999
#
# Poissons Ratio (x) = 0.06654 0.40219
# Poissons Ratio (y) = 0.06210 0.20099
# Poissons Ratio (z) = 0.48100 0.25757
#
# Static dielectric constant tensor:
#      x y z
#    x 2.941610 0.000000 -0.008800 
#    y 0.000000 3.225030 0.000000 
#    z -0.008800 0.000000 3.424710 
# 
# 
# High freq. dielectric constant tensor:
#      x y z
#    x 1.659240 0.000000 -0.002950 
#    y 0.000000 1.695740 0.000000 
#    z -0.002950 0.000000 1.708080 
# 
# From -- ./inp_files/45121.got.cif
#   From: 2010.06.25/outbox.cif.g09.slc.cpg/sg13_23_cif.got.tgz:45121.got - 2010.06.28 04:50:58.
