data_PCOD8117079
_publ_section_title
;
Structure prediction by ZEFSAII (Michael W. Deem and Ramdas Pophale) SiO2 
 PCOD8117079
Probable space group: P 2/C
;
_chemical_formula_sum "Si O2"
_cell_formula_units_Z 26
_cell_length_a 21.215914
_cell_length_b 5.356875
_cell_length_c 21.453580
_cell_angle_alpha 90.000000
_cell_angle_beta 29.684999
_cell_angle_gamma 90.000000
_cell_volume 1207.483086
_symmetry_space_group_name_H-M "P 2/C"
_symmetry_group_IT_number 13
_symmetry_cell_setting 'monoclinic'
loop_
_space_group_symop_operation_xyz
x,y,z
-x,y,1/2-z
-x,-y,-z
x,-y,1/2+z
loop_
_atom_site_type_symbol
_atom_site_label
_atom_site_fract_x
_atom_site_fract_y
_atom_site_fract_z
Si Si1 0.396801 0.397244 0.029546
Si Si2 0.909560 0.423320 0.207529
Si Si3 0.077471 0.929732 0.372779
Si Si4 0.653765 0.104019 0.894900
Si Si5 0.600648 0.397275 0.609708
Si Si6 0.735693 0.108371 0.969034
Si Si7 0.000000 0.327211 0.750000
O O1 0.242708 0.402196 0.152841
O O2 0.437793 0.138067 0.027926
O O3 0.426120 0.638761 0.048366
O O4 0.463865 0.408126 0.904120
O O5 0.959623 0.151816 0.143110
O O6 0.978321 0.481945 0.212506
O O7 0.953178 0.648999 0.123729
O O8 0.230942 0.933474 0.253034
O O9 0.000000 0.000000 0.500000
O O10 0.711970 0.128755 0.915149
O O11 0.500000 0.352767 0.750000
O O12 0.667494 0.662907 0.563910
O O13 0.694227 0.158961 0.531794
O O14 0.883182 0.137799 0.857680
#
# Coordination Sequence:
#
# PCOD8117079 Si02
#       7
#     4   4   4   4   4   4   2
#     4   8  14  27  39  59  84 110 159 179 233 270
#     4  10  20  30  46  70  91 135 163 198 240 284
#     4  10  18  31  44  63  93 128 169 201 244 283
#     4   8  14  27  39  59  84 112 158 178 235 268
#     4  10  18  31  44  63  92 128 169 200 244 284
#     4  10  20  30  46  69  92 134 162 200 239 283
#     4  12  20  34  52  70 112 126 188 188 224 330
#
# _framework density 21.532392999999999
#
# number of rings (size 3 to 8) (size 9 to 14) (size 15 to 20)
#    0.000    2.462    4.615    0.923    0.000    2.462 
#    0.000    0.000    0.000    0.000    0.000    0.000 
#    0.000    0.000    0.000  249.231    0.000    0.000 
#
# Total GULP energy -322109.347140 kJ/mol
# GULP energy per Si atom -12388.821044 kJ/mol
# Density = 2.148338 g / cm^3
# Si number density = 21.532393 Si / 1000 Ang^3
#
#
#
# Elastic Constant Matrix: (Units=GPa)
#
#
# Indices 1 2 3 4 5 6 
#
# 1 42.4860 33.4088 18.9590 0.0000 -3.9853 0.0000
# 2 33.4088 198.6885 49.6270 0.0000 0.4591 0.0000
# 3 18.9590 49.6270 123.9237 0.0000 21.3671 0.0000
# 4 0.0000 0.0000 0.0000 30.4435 0.0000 -2.8345
# 5 -3.9853 0.4591 21.3671 0.0000 21.6910 0.0000
# 6 0.0000 0.0000 0.0000 -2.8345 0.0000 32.7284
#
#
#
# Elastic Compliance Matrix: (Units=1/GPa)
#
#
# Indices 1 2 3 4 5 6 
#
# 1 0.029622 -0.003814 -0.004766 0.000000 0.010218 0.000000
# 2 -0.003814 0.006200 -0.002115 0.000000 0.001252 0.000000
# 3 -0.004766 -0.002115 0.011792 0.000000 -0.012447 0.000000
# 4 0.000000 0.000000 0.000000 0.033115 0.000000 0.002868
# 5 0.010218 0.001252 -0.012447 0.000000 0.060214 0.000000
# 6 0.000000 0.000000 0.000000 0.002868 0.000000 0.030803
#
#
# Mechanical properties :
#
#
# Convention : Reuss Voigt Hill
#
# Bulk Modulus (GPa) = 38.13513 63.23197 50.68355
# Shear Modulus (GPa) = 24.76771 34.51282 29.64026
#
# Velocity S-wave (km/s) = 3.39522 4.00788 3.71420
# Velocity P-wave (km/s) = 5.75491 7.13072 6.47944
#
# Compressibility (1/GPa) = 0.02622254
#
# Stress axis : x y z
#
# Youngs Moduli (GPa) = 33.75907 161.29846 84.80508
#
# Poissons Ratio (x) = 0.61517 0.40421
# Poissons Ratio (y) = 0.12875 0.17937
# Poissons Ratio (z) = 0.16091 0.34115
#
# Static dielectric constant tensor:
#      x y z
#    x 3.432090 0.000000 -0.058780 
#    y 0.000000 5.622010 0.000000 
#    z -0.058780 0.000000 3.583000 
# 
# 
# High freq. dielectric constant tensor:
#      x y z
#    x 1.824210 0.000000 -0.006410 
#    y 0.000000 1.900190 0.000000 
#    z -0.006410 0.000000 1.819670 
# 
# From -- ./inp_files/81880.got.cif
#   From: 2010.06.25/outbox.cif.g09.slc.cpg/sg13_41_cif.got.tgz:81880.got - 2010.06.28 04:50:58.
