data_PCOD8117797
_publ_section_title
;
Structure prediction by ZEFSAII (Michael W. Deem and Ramdas Pophale) SiO2 
 PCOD8117797
Probable space group: P 2/C
;
_chemical_formula_sum "Si O2"
_cell_formula_units_Z 32
_cell_length_a 13.614149
_cell_length_b 9.608930
_cell_length_c 18.634702
_cell_angle_alpha 90.000000
_cell_angle_beta 43.448072
_cell_angle_gamma 90.000000
_cell_volume 1676.428488
_symmetry_space_group_name_H-M "P 2/C"
_symmetry_group_IT_number 13
_symmetry_cell_setting 'monoclinic'
loop_
_space_group_symop_operation_xyz
x,y,z
-x,y,1/2-z
-x,-y,-z
x,-y,1/2+z
loop_
_atom_site_type_symbol
_atom_site_label
_atom_site_fract_x
_atom_site_fract_y
_atom_site_fract_z
Si Si1 0.148619 0.455695 0.354243
Si Si2 0.346910 0.182581 0.863808
Si Si3 0.169082 0.554769 0.500968
Si Si4 0.128124 0.040879 0.877854
Si Si5 0.875618 0.285670 0.721086
Si Si6 0.324118 0.801277 0.766348
Si Si7 0.370647 0.115899 0.404863
Si Si8 0.193381 0.683486 0.088387
O O1 0.154367 0.460437 0.437393
O O2 0.187762 0.608963 0.304520
O O3 0.276156 0.350943 0.265821
O O4 0.997854 0.399520 0.400568
O O5 0.500000 0.227013 0.750000
O O6 0.272881 0.312543 0.942086
O O7 0.246618 0.133148 0.853448
O O8 0.364314 0.052257 0.909108
O O9 0.245175 0.460659 0.522970
O O10 0.088441 0.133496 0.830095
O O11 0.196779 0.902291 0.808889
O O12 0.000000 0.000000 0.000000
O O13 0.770809 0.295014 0.846038
O O14 0.026746 0.338180 0.666724
O O15 0.473570 0.837611 0.649200
O O16 0.341723 0.820188 0.842217
O O17 0.252898 0.177627 0.519974
#
# Coordination Sequence:
#
# PCOD8117797 Si02
#       8
#     4   4   4   4   4   4   4   4
#     4  10  19  34  55  84 112 141 196 250 282 333
#     4  11  20  34  55  88 117 142 188 250 290 336
#     4  10  20  32  56  82 109 148 191 238 292 342
#     4  11  20  34  60  88 112 148 193 245 287 339
#     4  10  21  38  58  83 117 148 191 243 289 342
#     4  10  19  33  55  83 114 141 195 242 283 330
#     4  10  19  35  54  82 114 150 186 231 290 352
#     4  10  21  38  57  81 115 156 187 230 298 356
#
# _framework density 19.088197000000001
#
# number of rings (size 3 to 8) (size 9 to 14) (size 15 to 20)
#    0.000    1.750    5.000    2.250    1.750    1.000 
#    0.000    2.500    0.000    4.500    0.000    0.000 
#    0.000    0.000    0.000    0.000    0.000    0.000 
#
# Total GULP energy -396445.440561 kJ/mol
# GULP energy per Si atom -12388.920018 kJ/mol
# Density = 1.904475 g / cm^3
# Si number density = 19.088197 Si / 1000 Ang^3
#
#
#
# Elastic Constant Matrix: (Units=GPa)
#
#
# Indices 1 2 3 4 5 6 
#
# 1 44.8720 31.3762 33.0967 0.0000 -2.1601 0.0000
# 2 31.3762 121.6373 50.4598 0.0000 -6.3032 0.0000
# 3 33.0967 50.4598 83.3261 0.0000 3.1891 0.0000
# 4 0.0000 0.0000 0.0000 31.0646 0.0000 -6.0793
# 5 -2.1601 -6.3032 3.1891 0.0000 30.1030 0.0000
# 6 0.0000 0.0000 0.0000 -6.0793 0.0000 26.4095
#
#
#
# Elastic Compliance Matrix: (Units=1/GPa)
#
#
# Indices 1 2 3 4 5 6 
#
# 1 0.033202 -0.003885 -0.010940 0.000000 0.002728 0.000000
# 2 -0.003885 0.011713 -0.005656 0.000000 0.002773 0.000000
# 3 -0.010940 -0.005656 0.019928 0.000000 -0.004081 0.000000
# 4 0.000000 0.000000 0.000000 0.033710 0.000000 0.007760
# 5 0.002728 0.002773 -0.004081 0.000000 0.034428 0.000000
# 6 0.000000 0.000000 0.000000 0.007760 0.000000 0.039651
#
#
# Mechanical properties :
#
#
# Convention : Reuss Voigt Hill
#
# Bulk Modulus (GPa) = 41.87322 53.30008 47.58665
# Shear Modulus (GPa) = 22.56780 26.50894 24.53837
#
# Velocity S-wave (km/s) = 3.44218 3.73065 3.58931
# Velocity P-wave (km/s) = 6.14674 6.82207 6.49319
#
# Compressibility (1/GPa) = 0.02388161
#
# Stress axis : x y z
#
# Youngs Moduli (GPa) = 30.11846 85.37174 50.18145
#
# Poissons Ratio (x) = 0.33167 0.54896
# Poissons Ratio (y) = 0.11701 0.28385
# Poissons Ratio (z) = 0.32948 0.48290
#
# Static dielectric constant tensor:
#      x y z
#    x 3.464280 0.000000 -0.071000 
#    y 0.000000 3.619960 0.000000 
#    z -0.071000 0.000000 3.677890 
# 
# 
# High freq. dielectric constant tensor:
#      x y z
#    x 1.711130 0.000000 -0.019340 
#    y 0.000000 1.749050 0.000000 
#    z -0.019340 0.000000 1.727040 
# 
# From -- ./inp_files/79792.got.cif
#   From: 2010.06.25/outbox.cif.g09.slc.cpg/sg13_40_cif.got.tgz:79792.got - 2010.06.28 04:50:58.
