data_PCOD8117674
_publ_section_title
;
Structure prediction by ZEFSAII (Michael W. Deem and Ramdas Pophale) SiO2 
 PCOD8117674
Probable space group: P 2/C
;
_chemical_formula_sum "Si O2"
_cell_formula_units_Z 24
_cell_length_a 10.349275
_cell_length_b 15.342491
_cell_length_c 17.405924
_cell_angle_alpha 90.000000
_cell_angle_beta 29.768527
_cell_angle_gamma 90.000000
_cell_volume 1372.207235
_symmetry_space_group_name_H-M "P 2/C"
_symmetry_group_IT_number 13
_symmetry_cell_setting 'monoclinic'
loop_
_space_group_symop_operation_xyz
x,y,z
-x,y,1/2-z
-x,-y,-z
x,-y,1/2+z
loop_
_atom_site_type_symbol
_atom_site_label
_atom_site_fract_x
_atom_site_fract_y
_atom_site_fract_z
Si Si1 0.262343 0.602240 0.067570
Si Si2 0.026198 0.748855 0.645354
Si Si3 0.736990 0.589835 0.934492
Si Si4 0.477117 0.939203 0.850812
Si Si5 0.513340 0.737984 0.654252
Si Si6 0.023467 0.941595 0.646943
O O1 0.288125 0.506078 0.014520
O O2 0.000000 0.615001 0.250000
O O3 0.493511 0.613426 0.008214
O O4 0.274221 0.675447 0.995470
O O5 0.233472 0.670655 0.519983
O O6 0.110047 0.844814 0.572693
O O7 0.000000 0.757672 0.750000
O O8 0.761958 0.718883 0.742061
O O9 0.000000 0.587987 0.750000
O O10 0.500000 0.962872 0.750000
O O11 0.406026 0.838056 0.899776
O O12 0.744595 0.965687 0.754486
O O13 0.239476 0.991512 0.008847
O O14 0.500000 0.713192 0.750000
O O15 0.000000 0.947032 0.750000
#
# Coordination Sequence:
#
# PCOD8117674 Si02
#       6
#     4   4   4   4   4   4
#     4  10  19  31  55  86 103 130 180 226 253 294
#     4   9  16  33  58  72  98 148 182 196 252 335
#     4   9  16  32  58  75 102 140 181 201 254 323
#     4  10  21  37  55  75 107 145 174 207 267 325
#     4  10  20  35  54  78 108 143 172 210 267 321
#     4  10  20  34  56  81 103 133 180 223 257 299
#
# _framework density 17.490068999999998
#
# number of rings (size 3 to 8) (size 9 to 14) (size 15 to 20)
#    0.000    2.333    3.333    1.000    0.000    0.667 
#    3.000    0.833    0.000    0.000    0.000    0.000 
#    0.000    0.000    0.000    0.000    0.000    0.000 
#
# Total GULP energy -297389.444618 kJ/mol
# GULP energy per Si atom -12391.226859 kJ/mol
# Density = 1.745026 g / cm^3
# Si number density = 17.490069 Si / 1000 Ang^3
#
#
#
# Elastic Constant Matrix: (Units=GPa)
#
#
# Indices 1 2 3 4 5 6 
#
# 1 114.3123 42.8138 55.7108 0.0000 -5.8226 0.0000
# 2 42.8138 138.2067 71.7575 0.0000 -2.5353 0.0000
# 3 55.7108 71.7575 87.3349 0.0000 -9.2544 0.0000
# 4 0.0000 0.0000 0.0000 -57.8706 0.0000 -26.2766
# 5 -5.8226 -2.5353 -9.2544 0.0000 19.1862 0.0000
# 6 0.0000 0.0000 0.0000 -26.2766 0.0000 11.5628
#
#
#
# Elastic Compliance Matrix: (Units=1/GPa)
#
#
# Indices 1 2 3 4 5 6 
#
# 1 0.012713 0.000487 -0.008530 0.000000 -0.000192 0.000000
# 2 0.000487 0.012866 -0.011262 0.000000 -0.003584 0.000000
# 3 -0.008530 -0.011262 0.027098 0.000000 0.008994 0.000000
# 4 0.000000 0.000000 0.000000 -0.008504 0.000000 -0.019327
# 5 -0.000192 -0.003584 0.008994 0.000000 0.055927 0.000000
# 6 0.000000 0.000000 0.000000 -0.019327 0.000000 0.042564
#
#
# Mechanical properties :
#
#
# Convention : Reuss Voigt Hill
#
# Bulk Modulus (GPa) = 71.08801 75.60201 73.34501
# Shear Modulus (GPa) = 26.88726 5.88046 16.38386
#
# Velocity S-wave (km/s) = 3.92508 1.83561 3.06396
# Velocity P-wave (km/s) = 7.82781 6.91463 7.38535
#
# Compressibility (1/GPa) = 0.01406707
#
# Stress axis : x y z
#
# Youngs Moduli (GPa) = 78.65986 77.72408 36.90361
#
# Poissons Ratio (x) = -0.03786 0.31479
# Poissons Ratio (y) = -0.03832 0.41560
# Poissons Ratio (z) = 0.67098 0.87531
#
# Static dielectric constant tensor:
#      x y z
#    x 3.128100 0.000000 0.000420 
#    y 0.000000 4.200230 0.000000 
#    z 0.000420 0.000000 2.700950 
# 
# 
# High freq. dielectric constant tensor:
#      x y z
#    x 1.680380 0.000000 -0.020930 
#    y 0.000000 1.700200 0.000000 
#    z -0.020930 0.000000 1.635510 
# 
# From -- ./inp_files/19497.got.cif
#   From: 2010.06.25/outbox.cif.g09.slc.cpg/sg13_10_cif.got.tgz:19497.got - 2010.06.28 04:50:58.
