data_PCOD8117598
_publ_section_title
;
Structure prediction by ZEFSAII (Michael W. Deem and Ramdas Pophale) SiO2 
 PCOD8117598
Probable space group: P 2/C
;
_chemical_formula_sum "Si O2"
_cell_formula_units_Z 20
_cell_length_a 7.954513
_cell_length_b 18.889416
_cell_length_c 7.965724
_cell_angle_alpha 90.000000
_cell_angle_beta 60.149632
_cell_angle_gamma 90.000000
_cell_volume 1038.104004
_symmetry_space_group_name_H-M "P 2/C"
_symmetry_group_IT_number 13
_symmetry_cell_setting 'monoclinic'
loop_
_space_group_symop_operation_xyz
x,y,z
-x,y,1/2-z
-x,-y,-z
x,-y,1/2+z
loop_
_atom_site_type_symbol
_atom_site_label
_atom_site_fract_x
_atom_site_fract_y
_atom_site_fract_z
Si Si1 0.500000 0.206880 0.750000
Si Si2 0.495007 0.689433 0.940527
Si Si3 0.000000 0.003733 0.750000
Si Si4 0.779945 0.572630 0.307564
Si Si5 0.720458 0.072273 0.626579
Si Si6 0.781581 0.422449 0.414106
O O1 0.477071 0.250899 0.590960
O O2 0.691849 0.157413 0.636734
O O3 0.500000 0.723130 0.750000
O O4 0.688474 0.644431 0.870117
O O5 0.316304 0.635605 0.041060
O O6 0.124474 0.054347 0.806893
O O7 0.170029 0.954256 0.592816
O O8 0.686736 0.496740 0.402559
O O9 0.000000 0.571896 0.250000
O O10 0.750268 0.586756 0.126846
O O11 0.500000 0.038047 0.750000
O O12 0.000000 0.421961 0.250000
#
# Coordination Sequence:
#
# PCOD8117598 Si02
#       6
#     2   4   2   4   4   4
#     4  10  24  46  54  94 136 164 206 266 314 392
#     4  12  23  43  59  84 123 172 203 252 328 378
#     4  10  18  42  72 100 124 178 208 258 324 368
#     4  11  21  37  59  87 114 154 218 274 318 373
#     4   9  21  40  67 101 136 162 214 264 310 385
#     4  11  21  37  59  87 114 154 218 274 318 373
#
# _framework density 19.265892999999998
#
# number of rings (size 3 to 8) (size 9 to 14) (size 15 to 20)
#    0.600    0.800    2.000    6.000    0.000    0.000 
#   10.800    0.000    0.000    0.000    0.000    0.000 
#    0.000    0.000    0.000    0.000    0.000    0.000 
#
# Total GULP energy -247791.557149 kJ/mol
# GULP energy per Si atom -12389.577857 kJ/mol
# Density = 1.922204 g / cm^3
# Si number density = 19.265893 Si / 1000 Ang^3
#
#
#
# Elastic Constant Matrix: (Units=GPa)
#
#
# Indices 1 2 3 4 5 6 
#
# 1 79.1437 22.6111 23.8267 0.0000 -1.8084 0.0000
# 2 22.6111 93.9927 11.7512 0.0000 -0.7226 0.0000
# 3 23.8267 11.7512 79.2850 0.0000 8.9897 0.0000
# 4 0.0000 0.0000 0.0000 29.0796 0.0000 -2.3856
# 5 -1.8084 -0.7226 8.9897 0.0000 48.6030 0.0000
# 6 0.0000 0.0000 0.0000 -2.3856 0.0000 31.7259
#
#
#
# Elastic Compliance Matrix: (Units=1/GPa)
#
#
# Indices 1 2 3 4 5 6 
#
# 1 0.014774 -0.003027 -0.004135 0.000000 0.001270 0.000000
# 2 -0.003027 0.011471 -0.000814 0.000000 0.000208 0.000000
# 3 -0.004135 -0.000814 0.014295 0.000000 -0.002810 0.000000
# 4 0.000000 0.000000 0.000000 0.034602 0.000000 0.002602
# 5 0.001270 0.000208 -0.002810 0.000000 0.021145 0.000000
# 6 0.000000 0.000000 0.000000 0.002602 0.000000 0.031716
#
#
# Mechanical properties :
#
#
# Convention : Reuss Voigt Hill
#
# Bulk Modulus (GPa) = 40.67267 40.97771 40.82519
# Shear Modulus (GPa) = 32.86224 34.83053 33.84639
#
# Velocity S-wave (km/s) = 4.13452 4.25654 4.19597
# Velocity P-wave (km/s) = 6.62943 6.74338 6.68665
#
# Compressibility (1/GPa) = 0.02458654
#
# Stress axis : x y z
#
# Youngs Moduli (GPa) = 67.68621 87.17821 69.95612
#
# Poissons Ratio (x) = 0.26392 0.28928
# Poissons Ratio (y) = 0.20491 0.05694
# Poissons Ratio (z) = 0.27989 0.07096
#
# Static dielectric constant tensor:
#      x y z
#    x 3.555750 0.000000 0.063980 
#    y 0.000000 3.410120 0.000000 
#    z 0.063980 0.000000 3.736140 
# 
# 
# High freq. dielectric constant tensor:
#      x y z
#    x 1.762690 0.000000 -0.000060 
#    y 0.000000 1.727800 0.000000 
#    z -0.000060 0.000000 1.762810 
# 
# From -- ./inp_files/13037.got.cif
#   From: 2010.06.25/outbox.cif.g09.slc.cpg/sg13_7_cif.got.tgz:13037.got - 2010.06.28 04:50:58.
