data_PCOD8117019
_publ_section_title
;
Structure prediction by ZEFSAII (Michael W. Deem and Ramdas Pophale) SiO2 
 PCOD8117019
Probable space group: P 2/C
;
_chemical_formula_sum "Si O2"
_cell_formula_units_Z 30
_cell_length_a 5.299257
_cell_length_b 14.918215
_cell_length_c 19.551447
_cell_angle_alpha 90.000000
_cell_angle_beta 99.624318
_cell_angle_gamma 90.000000
_cell_volume 1523.893798
_symmetry_space_group_name_H-M "P 2/C"
_symmetry_group_IT_number 13
_symmetry_cell_setting 'monoclinic'
loop_
_space_group_symop_operation_xyz
x,y,z
-x,y,1/2-z
-x,-y,-z
x,-y,1/2+z
loop_
_atom_site_type_symbol
_atom_site_label
_atom_site_fract_x
_atom_site_fract_y
_atom_site_fract_z
Si Si1 0.268161 0.524386 0.284687
Si Si2 0.548953 0.067569 0.603849
Si Si3 0.463390 0.876447 0.944922
Si Si4 0.020669 0.219480 0.031222
Si Si5 0.970072 0.397215 0.976594
Si Si6 0.439309 0.441227 0.931283
Si Si7 0.935955 0.833977 0.370331
Si Si8 0.000000 0.300616 0.750000
O O1 0.500000 0.488647 0.250000
O O2 0.348355 0.496142 0.364970
O O3 0.000000 0.477513 0.250000
O O4 0.238645 0.633227 0.279553
O O5 0.504643 0.092037 0.523544
O O6 0.326726 0.108268 0.642039
O O7 0.826042 0.102731 0.639848
O O8 0.544210 0.959469 0.608111
O O9 0.190327 0.826458 0.929902
O O10 0.698825 0.812937 0.933193
O O11 0.992360 0.327280 0.040539
O O12 0.972029 0.205342 0.947993
O O13 0.204169 0.373563 0.935996
O O14 0.000000 0.500000 0.000000
O O15 0.696847 0.385280 0.925273
O O16 0.500000 0.500000 0.000000
O O17 0.918110 0.757482 0.312029
#
# Coordination Sequence:
#
# PCOD8117019 Si02
#       8
#     4   4   4   4   4   4   4   2
#     4  10  22  34  51  73 105 145 189 234 266 326
#     4   9  18  31  45  66  92 127 167 210 255 289
#     4   9  17  30  47  67  92 125 167 210 252 308
#     4  10  18  29  48  70  95 136 176 204 263 324
#     4  10  20  32  49  74 105 142 178 224 275 334
#     4  10  20  35  53  72 103 150 189 229 283 335
#     4  10  20  29  46  66  96 140 173 205 247 312
#     4  10  24  32  48  70 112 146 188 212 262 332
#
# _framework density 19.686409999999999
#
# number of rings (size 3 to 8) (size 9 to 14) (size 15 to 20)
#    0.400    1.867    0.000    3.200    3.733    4.267 
#    0.000    0.000    0.000    0.000    0.000    0.000 
#    0.000    0.000  317.333    0.400    8.000    0.000 
#
# Total GULP energy -371672.343075 kJ/mol
# GULP energy per Si atom -12389.078103 kJ/mol
# Density = 1.964160 g / cm^3
# Si number density = 19.686410 Si / 1000 Ang^3
#
#
#
# Elastic Constant Matrix: (Units=GPa)
#
#
# Indices 1 2 3 4 5 6 
#
# 1 188.8624 20.4371 17.0425 0.0000 -9.2805 0.0000
# 2 20.4371 78.0213 -2.8873 0.0000 -1.9947 0.0000
# 3 17.0425 -2.8873 56.8809 0.0000 5.4192 0.0000
# 4 0.0000 0.0000 0.0000 22.0310 0.0000 2.7913
# 5 -9.2805 -1.9947 5.4192 0.0000 19.6174 0.0000
# 6 0.0000 0.0000 0.0000 2.7913 0.0000 7.2150
#
#
#
# Elastic Compliance Matrix: (Units=1/GPa)
#
#
# Indices 1 2 3 4 5 6 
#
# 1 0.005807 -0.001518 -0.002120 0.000000 0.003178 0.000000
# 2 -0.001518 0.013264 0.001097 0.000000 0.000327 0.000000
# 3 -0.002120 0.001097 0.018852 0.000000 -0.006099 0.000000
# 4 0.000000 0.000000 0.000000 0.047730 0.000000 -0.018466
# 5 0.003178 0.000327 -0.006099 0.000000 0.054197 0.000000
# 6 0.000000 0.000000 0.000000 -0.018466 0.000000 0.145745
#
#
# Mechanical properties :
#
#
# Convention : Reuss Voigt Hill
#
# Bulk Modulus (GPa) = 30.44974 43.66101 37.05538
# Shear Modulus (GPa) = 16.57700 29.05084 22.81392
#
# Velocity S-wave (km/s) = 2.90496 3.84563 3.40791
# Velocity P-wave (km/s) = 5.17230 6.47648 5.86078
#
# Compressibility (1/GPa) = 0.03284100
#
# Stress axis : x y z
#
# Youngs Moduli (GPa) = 172.21843 75.39403 53.04360
#
# Poissons Ratio (x) = 0.11446 0.11243
# Poissons Ratio (y) = 0.26146 -0.05819
# Poissons Ratio (z) = 0.36503 -0.08270
#
# Static dielectric constant tensor:
#      x y z
#    x 4.627810 0.000000 -0.115620 
#    y 0.000000 3.461920 0.000000 
#    z -0.115620 0.000000 3.127050 
# 
# 
# High freq. dielectric constant tensor:
#      x y z
#    x 1.799120 0.000000 -0.009380 
#    y 0.000000 1.742500 0.000000 
#    z -0.009380 0.000000 1.711450 
# 
# From -- ./inp_files/61411.got.cif
#   From: 2010.06.25/outbox.cif.g09.slc.cpg/sg13_31_cif.got.tgz:61411.got - 2010.06.28 04:50:58.
