data_PCOD8117088
_publ_section_title
;
Structure prediction by ZEFSAII (Michael W. Deem and Ramdas Pophale) SiO2 
 PCOD8117088
Probable space group: P 2/C
;
_chemical_formula_sum "Si O2"
_cell_formula_units_Z 24
_cell_length_a 13.531258
_cell_length_b 12.610459
_cell_length_c 10.432741
_cell_angle_alpha 90.000000
_cell_angle_beta 126.336439
_cell_angle_gamma 90.000000
_cell_volume 1434.038679
_symmetry_space_group_name_H-M "P 2/C"
_symmetry_group_IT_number 13
_symmetry_cell_setting 'monoclinic'
loop_
_space_group_symop_operation_xyz
x,y,z
-x,y,1/2-z
-x,-y,-z
x,-y,1/2+z
loop_
_atom_site_type_symbol
_atom_site_label
_atom_site_fract_x
_atom_site_fract_y
_atom_site_fract_z
Si Si1 0.497604 0.597324 0.594848
Si Si2 0.929229 0.867266 0.823296
Si Si3 0.710725 0.760013 0.768406
Si Si4 0.517856 0.928023 0.632425
Si Si5 0.696357 0.761022 0.039063
Si Si6 0.086235 0.109555 0.696017
O O1 0.500000 0.568708 0.750000
O O2 0.500000 0.500000 0.500000
O O3 0.616520 0.669031 0.650443
O O4 0.368037 0.653954 0.458594
O O5 0.000000 0.834043 0.750000
O O6 0.826511 0.775823 0.763229
O O7 0.021029 0.865129 0.013194
O O8 0.873036 0.986061 0.765965
O O9 0.650335 0.876184 0.721526
O O10 0.758847 0.736862 0.949423
O O11 0.500000 0.996509 0.750000
O O12 0.418079 0.836980 0.570650
O O13 0.500000 0.000000 0.500000
O O14 0.794758 0.813788 0.209620
O O15 0.000000 0.136142 0.750000
#
# Coordination Sequence:
#
# PCOD8117088 Si02
#       6
#     4   4   4   4   4   4
#     4   9  19  37  59  77  95 124 164 216 268 309
#     4  10  20  31  47  77 108 138 171 205 236 274
#     4   9  17  33  52  69  99 134 165 201 248 305
#     4   9  17  29  45  68  98 129 161 200 242 291
#     4   9  17  32  53  72  94 134 171 195 246 310
#     4  10  18  31  51  71 105 144 174 197 229 296
#
# _framework density 16.735949999999999
#
# number of rings (size 3 to 8) (size 9 to 14) (size 15 to 20)
#    0.000    2.667    1.667    3.000    0.000    0.000 
#    6.000    1.667    0.000    2.000    0.000    0.000 
#    0.000    0.000    0.000    0.000    0.000    0.000 
#
# Total GULP energy -297315.389272 kJ/mol
# GULP energy per Si atom -12388.141220 kJ/mol
# Density = 1.669786 g / cm^3
# Si number density = 16.735950 Si / 1000 Ang^3
#
#
#
# Elastic Constant Matrix: (Units=GPa)
#
#
# Indices 1 2 3 4 5 6 
#
# 1 125.7621 54.5101 48.2385 0.0000 -9.0274 0.0000
# 2 54.5101 78.6197 41.7758 0.0000 -4.1313 0.0000
# 3 48.2385 41.7758 82.4246 0.0000 -5.7264 0.0000
# 4 0.0000 0.0000 0.0000 25.3122 0.0000 0.0183
# 5 -9.0274 -4.1313 -5.7264 0.0000 29.9905 0.0000
# 6 0.0000 0.0000 0.0000 0.0183 0.0000 27.0673
#
#
#
# Elastic Compliance Matrix: (Units=1/GPa)
#
#
# Indices 1 2 3 4 5 6 
#
# 1 0.012354 -0.006420 -0.003830 0.000000 0.002103 0.000000
# 2 -0.006420 0.020759 -0.006790 0.000000 -0.000369 0.000000
# 3 -0.003830 -0.006790 0.017908 0.000000 0.001331 0.000000
# 4 0.000000 0.000000 0.000000 0.039507 0.000000 -0.000027
# 5 0.002103 -0.000369 0.001331 0.000000 0.034180 0.000000
# 6 0.000000 0.000000 0.000000 -0.000027 0.000000 0.036945
#
#
# Mechanical properties :
#
#
# Convention : Reuss Voigt Hill
#
# Bulk Modulus (GPa) = 59.02861 63.98392 61.50627
# Shear Modulus (GPa) = 24.82863 25.95948 25.39405
#
# Velocity S-wave (km/s) = 3.85587 3.94270 3.89953
# Velocity P-wave (km/s) = 7.42770 7.68381 7.55684
#
# Compressibility (1/GPa) = 0.01694094
#
# Stress axis : x y z
#
# Youngs Moduli (GPa) = 80.94346 48.17151 55.84142
#
# Poissons Ratio (x) = 0.30926 0.21389
# Poissons Ratio (y) = 0.51965 0.37916
# Poissons Ratio (z) = 0.31004 0.32708
#
# Static dielectric constant tensor:
#      x y z
#    x 3.000490 0.000000 -0.092800 
#    y 0.000000 2.746030 0.000000 
#    z -0.092800 0.000000 3.058810 
# 
# 
# High freq. dielectric constant tensor:
#      x y z
#    x 1.650730 0.000000 -0.001690 
#    y 0.000000 1.607130 0.000000 
#    z -0.001690 0.000000 1.641720 
# 
# From -- ./inp_files/33935.got.cif
#   From: 2010.06.25/outbox.cif.g09.slc.cpg/sg13_17_cif.got.tgz:33935.got - 2010.06.28 04:50:58.
