data_PCOD8117906
_publ_section_title
;
Structure prediction by ZEFSAII (Michael W. Deem and Ramdas Pophale) SiO2 
 PCOD8117906
Probable space group: P 2/C
;
_chemical_formula_sum "Si O2"
_cell_formula_units_Z 20
_cell_length_a 16.775932
_cell_length_b 10.534623
_cell_length_c 13.781241
_cell_angle_alpha 90.000000
_cell_angle_beta 155.533377
_cell_angle_gamma 90.000000
_cell_volume 1008.707778
_symmetry_space_group_name_H-M "P 2/C"
_symmetry_group_IT_number 13
_symmetry_cell_setting 'monoclinic'
loop_
_space_group_symop_operation_xyz
x,y,z
-x,y,1/2-z
-x,-y,-z
x,-y,1/2+z
loop_
_atom_site_type_symbol
_atom_site_label
_atom_site_fract_x
_atom_site_fract_y
_atom_site_fract_z
Si Si1 0.539337 0.083883 0.186663
Si Si2 0.207125 0.048283 0.202912
Si Si3 0.116036 0.332463 0.118541
Si Si4 0.223476 0.555068 0.357496
Si Si5 0.634405 0.375296 0.282481
O O1 0.500000 0.025908 0.250000
O O2 0.736844 0.038983 0.350281
O O3 0.552394 0.234369 0.207917
O O4 0.358154 0.039171 0.924559
O O5 0.204105 0.193966 0.235590
O O6 0.000000 0.000000 0.000000
O O7 0.126791 0.417558 0.227870
O O8 0.245958 0.400009 0.181016
O O9 0.896975 0.334781 0.833683
O O10 0.224448 0.585556 0.472850
O O11 0.442756 0.540834 0.564034
#
# Coordination Sequence:
#
# PCOD8117906 Si02
#       5
#     4   4   4   4   4
#     4  10  20  38  60  85 110 148 197 233 272 349
#     4  10  22  37  59  85 117 149 185 237 293 331
#     4  10  21  35  56  84 115 144 185 235 276 335
#     4  10  19  34  57  82 112 144 189 225 275 332
#     4  10  19  35  60  83 107 149 189 228 277 332
#
# _framework density 19.827347
#
# number of rings (size 3 to 8) (size 9 to 14) (size 15 to 20)
#    0.000    2.000    2.000    2.400    0.000    0.800 
#    3.600    0.000    8.800    0.000    0.000    0.000 
#    0.000    0.000    0.000    0.000    0.000    0.000 
#
# Total GULP energy -247781.945308 kJ/mol
# GULP energy per Si atom -12389.097265 kJ/mol
# Density = 1.978222 g / cm^3
# Si number density = 19.827347 Si / 1000 Ang^3
#
#
#
# Elastic Constant Matrix: (Units=GPa)
#
#
# Indices 1 2 3 4 5 6 
#
# 1 94.8680 46.9439 29.6306 0.0000 3.8318 0.0000
# 2 46.9439 75.1155 30.3280 0.0000 -12.0016 0.0000
# 3 29.6306 30.3280 95.4282 0.0000 0.3971 0.0000
# 4 0.0000 0.0000 0.0000 19.2320 0.0000 -0.0922
# 5 3.8318 -12.0016 0.3971 0.0000 34.4627 0.0000
# 6 0.0000 0.0000 0.0000 -0.0922 0.0000 25.5208
#
#
#
# Elastic Compliance Matrix: (Units=1/GPa)
#
#
# Indices 1 2 3 4 5 6 
#
# 1 0.016493 -0.010463 -0.001773 0.000000 -0.005457 0.000000
# 2 -0.010463 0.022976 -0.004091 0.000000 0.009212 0.000000
# 3 -0.001773 -0.004091 0.012336 0.000000 -0.001370 0.000000
# 4 0.000000 0.000000 0.000000 0.051998 0.000000 0.000188
# 5 -0.005457 0.009212 -0.001370 0.000000 0.032847 0.000000
# 6 0.000000 0.000000 0.000000 0.000188 0.000000 0.039184
#
#
# Mechanical properties :
#
#
# Convention : Reuss Voigt Hill
#
# Bulk Modulus (GPa) = 52.22289 53.24630 52.73459
# Shear Modulus (GPa) = 23.26972 26.41038 24.84005
#
# Velocity S-wave (km/s) = 3.42953 3.65364 3.54336
# Velocity P-wave (km/s) = 6.48677 6.68671 6.58750
#
# Compressibility (1/GPa) = 0.01914869
#
# Stress axis : x y z
#
# Youngs Moduli (GPa) = 60.63269 43.52435 81.06642
#
# Poissons Ratio (x) = 0.45541 0.14373
# Poissons Ratio (y) = 0.63442 0.33167
# Poissons Ratio (z) = 0.10750 0.17807
#
# Static dielectric constant tensor:
#      x y z
#    x 3.885320 0.000000 0.194380 
#    y 0.000000 3.533000 0.000000 
#    z 0.194380 0.000000 3.594690 
# 
# 
# High freq. dielectric constant tensor:
#      x y z
#    x 1.777350 0.000000 0.015300 
#    y 0.000000 1.754320 0.000000 
#    z 0.015300 0.000000 1.777130 
# 
# From -- ./inp_files/34022.got.cif
#   From: 2010.06.25/outbox.cif.g09.slc.cpg/sg13_18_cif.got.tgz:34022.got - 2010.06.28 04:50:58.
