data_PCOD8117625
_publ_section_title
;
Structure prediction by ZEFSAII (Michael W. Deem and Ramdas Pophale) SiO2 
 PCOD8117625
Probable space group: P 2/C
;
_chemical_formula_sum "Si O2"
_cell_formula_units_Z 24
_cell_length_a 26.562086
_cell_length_b 4.905239
_cell_length_c 23.523922
_cell_angle_alpha 90.000000
_cell_angle_beta 23.630014
_cell_angle_gamma 90.000000
_cell_volume 1228.545444
_symmetry_space_group_name_H-M "P 2/C"
_symmetry_group_IT_number 13
_symmetry_cell_setting 'monoclinic'
loop_
_space_group_symop_operation_xyz
x,y,z
-x,y,1/2-z
-x,-y,-z
x,-y,1/2+z
loop_
_atom_site_type_symbol
_atom_site_label
_atom_site_fract_x
_atom_site_fract_y
_atom_site_fract_z
Si Si1 0.854145 0.212362 0.741262
Si Si2 0.576801 0.767194 0.353345
Si Si3 0.038875 0.847317 0.147232
Si Si4 0.019291 0.287345 0.430076
Si Si5 0.589210 0.270535 0.970252
Si Si6 0.171670 0.671424 0.464608
O O1 0.884523 0.534058 0.707771
O O2 0.912224 0.104545 0.740746
O O3 0.916938 0.014438 0.626033
O O4 0.704469 0.184343 0.891591
O O5 0.457247 0.572836 0.466858
O O6 0.632429 0.733182 0.359519
O O7 0.528553 0.074325 0.395962
O O8 0.679683 0.699575 0.198777
O O9 0.133555 0.633110 0.020521
O O10 0.000000 0.753187 0.250000
O O11 0.119024 0.126217 0.067715
O O12 0.000000 0.500000 0.500000
O O13 0.888959 0.239477 0.532697
#
# Coordination Sequence:
#
# PCOD8117625 Si02
#       6
#     4   4   4   4   4   4
#     4  10  20  33  51  75 101 135 172 209 258 309
#     4  10  20  33  51  76 107 142 170 199 244 306
#     4  10  21  37  57  77  99 132 174 226 274 305
#     4  10  19  30  49  76 105 131 162 211 261 310
#     4  10  20  33  51  75 108 143 170 198 242 308
#     4  10  20  34  54  78 103 134 173 214 261 313
#
# _framework density 19.535295000000001
#
# number of rings (size 3 to 8) (size 9 to 14) (size 15 to 20)
#    0.000    2.000    0.000    4.000    0.000    5.333 
#    0.000    0.000    0.000    6.000    0.000    0.000 
#    0.000    0.000    0.000    0.000    0.000    0.000 
#
# Total GULP energy -297470.113814 kJ/mol
# GULP energy per Si atom -12394.588076 kJ/mol
# Density = 1.949083 g / cm^3
# Si number density = 19.535295 Si / 1000 Ang^3
#
#
#
# Elastic Constant Matrix: (Units=GPa)
#
#
# Indices 1 2 3 4 5 6 
#
# 1 53.0088 -1.7051 39.5005 0.0000 -6.4876 0.0000
# 2 -1.7051 84.9982 8.5377 0.0000 -8.2329 0.0000
# 3 39.5005 8.5377 91.8680 0.0000 -7.8224 0.0000
# 4 0.0000 0.0000 0.0000 19.5101 0.0000 0.6861
# 5 -6.4876 -8.2329 -7.8224 0.0000 19.7311 0.0000
# 6 0.0000 0.0000 0.0000 0.6861 0.0000 19.2717
#
#
#
# Elastic Compliance Matrix: (Units=1/GPa)
#
#
# Indices 1 2 3 4 5 6 
#
# 1 0.028591 0.002325 -0.012033 0.000000 0.005601 0.000000
# 2 0.002325 0.012497 -0.001710 0.000000 0.005301 0.000000
# 3 -0.012033 -0.001710 0.016373 0.000000 0.001821 0.000000
# 4 0.000000 0.000000 0.000000 0.051320 0.000000 -0.001827
# 5 0.005601 0.005301 0.001821 0.000000 0.055457 0.000000
# 6 0.000000 0.000000 0.000000 -0.001827 0.000000 0.051954
#
#
# Mechanical properties :
#
#
# Convention : Reuss Voigt Hill
#
# Bulk Modulus (GPa) = 28.88012 35.83793 32.35903
# Shear Modulus (GPa) = 19.95461 23.93872 21.94666
#
# Velocity S-wave (km/s) = 3.19950 3.50438 3.35541
# Velocity P-wave (km/s) = 5.33524 5.89570 5.62246
#
# Compressibility (1/GPa) = 0.03462589
#
# Stress axis : x y z
#
# Youngs Moduli (GPa) = 34.97562 80.02085 61.07690
#
# Poissons Ratio (x) = -0.18602 0.73491
# Poissons Ratio (y) = -0.08131 0.10441
# Poissons Ratio (z) = 0.42085 0.13680
#
# Static dielectric constant tensor:
#      x y z
#    x 3.267410 0.000000 -0.045780 
#    y 0.000000 5.782280 0.000000 
#    z -0.045780 0.000000 3.287090 
# 
# 
# High freq. dielectric constant tensor:
#      x y z
#    x 1.715630 0.000000 -0.011620 
#    y 0.000000 1.788350 0.000000 
#    z -0.011620 0.000000 1.744540 
# 
# From -- ./inp_files/89330.got.cif
#   From: 2010.06.25/outbox.cif.g09.slc.cpg/sg13_45_cif.got.tgz:89330.got - 2010.06.28 04:50:58.
