data_PCOD8117278
_publ_section_title
;
Structure prediction by ZEFSAII (Michael W. Deem and Ramdas Pophale) SiO2 
 PCOD8117278
Probable space group: P 2/C
;
_chemical_formula_sum "Si O2"
_cell_formula_units_Z 32
_cell_length_a 16.379835
_cell_length_b 12.024136
_cell_length_c 9.073251
_cell_angle_alpha 90.000000
_cell_angle_beta 91.545699
_cell_angle_gamma 90.000000
_cell_volume 1786.357063
_symmetry_space_group_name_H-M "P 2/C"
_symmetry_group_IT_number 13
_symmetry_cell_setting 'monoclinic'
loop_
_space_group_symop_operation_xyz
x,y,z
-x,y,1/2-z
-x,-y,-z
x,-y,1/2+z
loop_
_atom_site_type_symbol
_atom_site_label
_atom_site_fract_x
_atom_site_fract_y
_atom_site_fract_z
Si Si1 0.441227 0.954393 0.625285
Si Si2 0.001093 0.385518 0.418654
Si Si3 0.407251 0.190265 0.710589
Si Si4 0.657326 0.363871 0.985204
Si Si5 0.825413 0.362291 0.429369
Si Si6 0.175632 0.596389 0.913527
Si Si7 0.339001 0.752433 0.508141
Si Si8 0.593257 0.437565 0.293519
O O1 0.500000 0.896745 0.750000
O O2 0.371102 0.870275 0.571079
O O3 0.500000 0.000000 0.500000
O O4 0.393905 0.058331 0.696423
O O5 0.091897 0.336657 0.455350
O O6 0.000000 0.419398 0.250000
O O7 0.000000 0.500000 0.500000
O O8 0.919216 0.313124 0.452546
O O9 0.500000 0.218853 0.750000
O O10 0.385816 0.247202 0.553388
O O11 0.350017 0.244125 0.833049
O O12 0.632719 0.450880 0.858194
O O13 0.754076 0.340293 0.993164
O O14 0.637067 0.406329 0.145751
O O15 0.819161 0.467013 0.538151
O O16 0.810360 0.401190 0.261464
O O17 0.757196 0.269235 0.464660
O O18 0.395423 0.657311 0.582630
O O19 0.500000 0.459096 0.250000
#
# Coordination Sequence:
#
# PCOD8117278 Si02
#       8
#     4   4   4   4   4   4   4   4
#     4  11  23  42  61  79 104 141 194 242 285 328
#     4   8  16  30  51  74 111 145 181 213 269 327
#     4  11  24  40  56  78 106 147 189 234 279 324
#     4  12  22  36  52  78 112 147 190 221 270 337
#     4  10  20  33  53  83 111 149 183 222 273 333
#     4  10  18  34  51  80 115 150 179 221 268 334
#     4  12  22  37  59  79 109 142 187 240 279 330
#     4  12  24  35  51  76 112 154 184 225 277 330
#
# _framework density 17.913553
#
# number of rings (size 3 to 8) (size 9 to 14) (size 15 to 20)
#    0.000    1.250    5.000    2.625    3.500    0.000 
#    0.000    0.000    0.000    0.000    0.000    0.875 
#    0.000    0.000    0.000    0.000    0.000    0.000 
#
# Total GULP energy -396450.682043 kJ/mol
# GULP energy per Si atom -12389.083814 kJ/mol
# Density = 1.787278 g / cm^3
# Si number density = 17.913553 Si / 1000 Ang^3
#
#
#
# Elastic Constant Matrix: (Units=GPa)
#
#
# Indices 1 2 3 4 5 6 
#
# 1 167.5921 44.0496 29.6282 0.0000 7.6692 0.0000
# 2 44.0496 62.4217 20.6927 0.0000 2.9186 0.0000
# 3 29.6282 20.6927 54.5448 0.0000 -4.5282 0.0000
# 4 0.0000 0.0000 0.0000 23.0455 0.0000 -0.0489
# 5 7.6692 2.9186 -4.5282 0.0000 26.7102 0.0000
# 6 0.0000 0.0000 0.0000 -0.0489 0.0000 19.6194
#
#
#
# Elastic Compliance Matrix: (Units=1/GPa)
#
#
# Indices 1 2 3 4 5 6 
#
# 1 0.007710 -0.004450 -0.002681 0.000000 -0.002182 0.000000
# 2 -0.004450 0.021171 -0.005782 0.000000 -0.002016 0.000000
# 3 -0.002681 -0.005782 0.022415 0.000000 0.005202 0.000000
# 4 0.000000 0.000000 0.000000 0.043393 0.000000 0.000108
# 5 -0.002182 -0.002016 0.005202 0.000000 0.039168 0.000000
# 6 0.000000 0.000000 0.000000 0.000108 0.000000 0.050970
#
#
# Mechanical properties :
#
#
# Convention : Reuss Voigt Hill
#
# Bulk Modulus (GPa) = 39.26084 52.58885 45.92484
# Shear Modulus (GPa) = 22.81605 26.55423 24.68514
#
# Velocity S-wave (km/s) = 3.57273 3.85431 3.71619
# Velocity P-wave (km/s) = 6.24369 7.01629 6.64123
#
# Compressibility (1/GPa) = 0.02547067
#
# Stress axis : x y z
#
# Youngs Moduli (GPa) = 129.69500 47.23346 44.61267
#
# Poissons Ratio (x) = 0.21020 0.11961
# Poissons Ratio (y) = 0.57718 0.25794
# Poissons Ratio (z) = 0.34772 0.27310
#
# Static dielectric constant tensor:
#      x y z
#    x 4.053570 0.000000 0.029300 
#    y 0.000000 3.077430 0.000000 
#    z 0.029300 0.000000 3.582490 
# 
# 
# High freq. dielectric constant tensor:
#      x y z
#    x 1.703680 0.000000 0.004580 
#    y 0.000000 1.644160 0.000000 
#    z 0.004580 0.000000 1.714830 
# 
# From -- ./inp_files/21581.got.cif
#   From: 2010.06.25/outbox.cif.g09.slc.cpg/sg13_11_cif.got.tgz:21581.got - 2010.06.28 04:50:58.
