data_PCOD8117249
_publ_section_title
;
Structure prediction by ZEFSAII (Michael W. Deem and Ramdas Pophale) SiO2 
 PCOD8117249
Probable space group: P 2/C
;
_chemical_formula_sum "Si O2"
_cell_formula_units_Z 24
_cell_length_a 15.965059
_cell_length_b 9.972570
_cell_length_c 21.438649
_cell_angle_alpha 90.000000
_cell_angle_beta 19.252578
_cell_angle_gamma 90.000000
_cell_volume 1125.479560
_symmetry_space_group_name_H-M "P 2/C"
_symmetry_group_IT_number 13
_symmetry_cell_setting 'monoclinic'
loop_
_space_group_symop_operation_xyz
x,y,z
-x,y,1/2-z
-x,-y,-z
x,-y,1/2+z
loop_
_atom_site_type_symbol
_atom_site_label
_atom_site_fract_x
_atom_site_fract_y
_atom_site_fract_z
Si Si1 0.484973 0.369990 0.688273
Si Si2 0.013526 0.204522 0.029130
Si Si3 0.359081 0.952245 0.786974
Si Si4 0.707983 0.129974 0.465239
Si Si5 0.657111 0.704503 0.885541
Si Si6 0.725147 0.547780 0.420926
O O1 0.500000 0.407680 0.750000
O O2 0.683549 0.250003 0.533196
O O3 0.548397 0.501409 0.603145
O O4 0.200169 0.319681 0.871299
O O5 0.803226 0.172556 0.124534
O O6 0.887705 0.250040 0.181137
O O7 0.174534 0.073842 0.934448
O O8 0.500000 0.902474 0.750000
O O9 0.557678 0.998599 0.593833
O O10 0.585795 0.180273 0.485672
O O11 0.000000 0.092282 0.250000
O O12 0.761366 0.573887 0.847653
O O13 0.407855 0.672533 0.019918
O O14 0.000000 0.597541 0.250000
#
# Coordination Sequence:
#
# PCOD8117249 Si02
#       6
#     4   4   4   4   4   4
#     4  10  18  33  58  80 103 141 184 222 260 313
#     4  10  20  36  56  80 109 140 180 222 266 316
#     4  10  21  37  56  80 110 142 178 223 267 315
#     4  10  18  33  58  80 103 141 184 222 260 313
#     4  10  20  36  56  80 109 140 180 222 266 316
#     4  10  21  37  56  80 110 142 178 223 267 315
#
# _framework density 21.324244
#
# number of rings (size 3 to 8) (size 9 to 14) (size 15 to 20)
#    0.000    2.000    0.000    7.000    0.000    1.333 
#    0.000   16.667    0.000    0.000    0.000    0.000 
#    0.000    0.000    0.000    0.000    0.000    0.000 
#
# Total GULP energy -297660.473100 kJ/mol
# GULP energy per Si atom -12402.519713 kJ/mol
# Density = 2.127571 g / cm^3
# Si number density = 21.324244 Si / 1000 Ang^3
#
#
#
# Elastic Constant Matrix: (Units=GPa)
#
#
# Indices 1 2 3 4 5 6 
#
# 1 148.0791 46.2640 85.5165 0.0000 -8.6200 0.0000
# 2 46.2640 41.9877 45.6673 0.0000 -0.8343 0.0000
# 3 85.5165 45.6673 144.3409 0.0000 3.8023 0.0000
# 4 0.0000 0.0000 0.0000 10.1979 0.0000 3.2684
# 5 -8.6200 -0.8343 3.8023 0.0000 43.4322 0.0000
# 6 0.0000 0.0000 0.0000 3.2684 0.0000 7.5854
#
#
#
# Elastic Compliance Matrix: (Units=1/GPa)
#
#
# Indices 1 2 3 4 5 6 
#
# 1 0.012203 -0.008314 -0.004670 0.000000 0.002671 0.000000
# 2 -0.008314 0.042102 -0.008392 0.000000 -0.000106 0.000000
# 3 -0.004670 -0.008392 0.012407 0.000000 -0.002174 0.000000
# 4 0.000000 0.000000 0.000000 0.113770 0.000000 -0.049022
# 5 0.002671 -0.000106 -0.002174 0.000000 0.023743 0.000000
# 6 0.000000 0.000000 0.000000 -0.049022 0.000000 0.152955
#
#
# Mechanical properties :
#
#
# Convention : Reuss Voigt Hill
#
# Bulk Modulus (GPa) = 41.73424 76.58926 59.16175
# Shear Modulus (GPa) = 12.25734 22.70710 17.48222
#
# Velocity S-wave (km/s) = 2.40012 3.26674 2.86637
# Velocity P-wave (km/s) = 5.22441 7.08684 6.22566
#
# Compressibility (1/GPa) = 0.02396114
#
# Stress axis : x y z
#
# Youngs Moduli (GPa) = 81.94815 23.75161 80.59833
#
# Poissons Ratio (x) = 0.19746 0.37638
# Poissons Ratio (y) = 0.68128 0.67641
# Poissons Ratio (z) = 0.38268 0.19933
#
# Static dielectric constant tensor:
#      x y z
#    x 3.941330 0.000000 0.075490 
#    y 0.000000 3.432550 0.000000 
#    z 0.075490 0.000000 4.000780 
# 
# 
# High freq. dielectric constant tensor:
#      x y z
#    x 1.842820 0.000000 0.006260 
#    y 0.000000 1.791960 0.000000 
#    z 0.006260 0.000000 1.847780 
# 
# From -- ./inp_files/80138.got.cif
#   From: 2010.06.25/outbox.cif.g09.slc.cpg/sg13_41_cif.got.tgz:80138.got - 2010.06.28 04:50:58.
