data_PCOD8117754
_publ_section_title
;
Structure prediction by ZEFSAII (Michael W. Deem and Ramdas Pophale) SiO2 
 PCOD8117754
Probable space group: P 2/C
;
_chemical_formula_sum "Si O2"
_cell_formula_units_Z 24
_cell_length_a 18.459543
_cell_length_b 9.228766
_cell_length_c 24.425224
_cell_angle_alpha 90.000000
_cell_angle_beta 18.925137
_cell_angle_gamma 90.000000
_cell_volume 1349.564192
_symmetry_space_group_name_H-M "P 2/C"
_symmetry_group_IT_number 13
_symmetry_cell_setting 'monoclinic'
loop_
_space_group_symop_operation_xyz
x,y,z
-x,y,1/2-z
-x,-y,-z
x,-y,1/2+z
loop_
_atom_site_type_symbol
_atom_site_label
_atom_site_fract_x
_atom_site_fract_y
_atom_site_fract_z
Si Si1 0.404305 0.569464 0.759367
Si Si2 0.324420 0.271361 0.767461
Si Si3 0.880136 0.593411 0.390030
Si Si4 0.161886 0.258906 0.087107
Si Si5 0.031453 0.764871 0.066288
Si Si6 0.757803 0.071356 0.574219
O O1 0.500000 0.518845 0.750000
O O2 0.281749 0.433292 0.819893
O O3 0.615627 0.627773 0.573513
O O4 0.228703 0.698861 0.888136
O O5 0.586889 0.250118 0.569730
O O6 0.220347 0.158617 0.884938
O O7 0.204130 0.249159 0.795677
O O8 0.913552 0.421631 0.374183
O O9 0.990724 0.678196 0.361282
O O10 0.000000 0.650801 0.250000
O O11 0.000000 0.195587 0.250000
O O12 0.143255 0.167064 0.045420
O O13 0.087046 0.931532 0.036005
O O14 0.500000 0.027307 0.750000
#
# Coordination Sequence:
#
# PCOD8117754 Si02
#       6
#     4   4   4   4   4   4
#     4   9  17  32  52  72  97 132 166 196 241 298
#     4  10  19  33  52  75 100 128 164 207 245 285
#     4   9  18  34  52  71  98 132 167 198 240 299
#     4   9  19  37  55  69  95 138 172 192 236 306
#     4  11  20  31  50  80 103 122 161 214 249 277
#     4  10  19  33  52  71  98 134 165 195 242 299
#
# _framework density 17.783518000000001
#
# number of rings (size 3 to 8) (size 9 to 14) (size 15 to 20)
#    0.000    2.333    0.000    6.000    0.000    0.667 
#    0.000   10.000    0.000    0.000    0.000    0.000 
#    0.000    0.000    0.000    0.000    0.000    0.000 
#
# Total GULP energy -297634.674379 kJ/mol
# GULP energy per Si atom -12401.444766 kJ/mol
# Density = 1.774304 g / cm^3
# Si number density = 17.783518 Si / 1000 Ang^3
#
#
#
# Elastic Constant Matrix: (Units=GPa)
#
#
# Indices 1 2 3 4 5 6 
#
# 1 120.1000 62.5165 61.2387 0.0000 -2.7916 0.0000
# 2 62.5165 89.9843 45.0032 0.0000 -0.2626 0.0000
# 3 61.2387 45.0032 100.4244 0.0000 21.5367 0.0000
# 4 0.0000 0.0000 0.0000 20.0565 0.0000 -3.8327
# 5 -2.7916 -0.2626 21.5367 0.0000 29.5009 0.0000
# 6 0.0000 0.0000 0.0000 -3.8327 0.0000 9.7474
#
#
#
# Elastic Compliance Matrix: (Units=1/GPa)
#
#
# Indices 1 2 3 4 5 6 
#
# 1 0.016657 -0.007265 -0.008567 0.000000 0.007766 0.000000
# 2 -0.007265 0.018351 -0.004364 0.000000 0.002662 0.000000
# 3 -0.008567 -0.004364 0.020535 0.000000 -0.015841 0.000000
# 4 0.000000 0.000000 0.000000 0.053910 0.000000 0.021198
# 5 0.007766 0.002662 -0.015841 0.000000 0.046220 0.000000
# 6 0.000000 0.000000 0.000000 0.021198 0.000000 0.110927
#
#
# Mechanical properties :
#
#
# Convention : Reuss Voigt Hill
#
# Bulk Modulus (GPa) = 66.00736 72.00283 69.00510
# Shear Modulus (GPa) = 16.02346 21.31098 18.66722
#
# Velocity S-wave (km/s) = 3.00497 3.46548 3.24341
# Velocity P-wave (km/s) = 7.01695 7.52258 7.27416
#
# Compressibility (1/GPa) = 0.01514982
#
# Stress axis : x y z
#
# Youngs Moduli (GPa) = 60.03458 54.49323 48.69771
#
# Poissons Ratio (x) = 0.39590 0.41720
# Poissons Ratio (y) = 0.43616 0.21253
# Poissons Ratio (z) = 0.51433 0.23782
#
# Static dielectric constant tensor:
#      x y z
#    x 3.156580 0.000000 0.118560 
#    y 0.000000 3.228550 0.000000 
#    z 0.118560 0.000000 3.405620 
# 
# 
# High freq. dielectric constant tensor:
#      x y z
#    x 1.676070 0.000000 0.005590 
#    y 0.000000 1.687910 0.000000 
#    z 0.005590 0.000000 1.683740 
# 
# From -- ./inp_files/46032.got.cif
#   From: 2010.06.25/outbox.cif.g09.slc.cpg/sg13_24_cif.got.tgz:46032.got - 2010.06.28 04:50:58.
