data_PCOD8117318
_publ_section_title
;
Structure prediction by ZEFSAII (Michael W. Deem and Ramdas Pophale) SiO2 
 PCOD8117318
Probable space group: P 2/C
;
_chemical_formula_sum "Si O2"
_cell_formula_units_Z 24
_cell_length_a 16.329156
_cell_length_b 11.390708
_cell_length_c 11.620917
_cell_angle_alpha 90.000000
_cell_angle_beta 145.066251
_cell_angle_gamma 90.000000
_cell_volume 1237.736208
_symmetry_space_group_name_H-M "P 2/C"
_symmetry_group_IT_number 13
_symmetry_cell_setting 'monoclinic'
loop_
_space_group_symop_operation_xyz
x,y,z
-x,y,1/2-z
-x,-y,-z
x,-y,1/2+z
loop_
_atom_site_type_symbol
_atom_site_label
_atom_site_fract_x
_atom_site_fract_y
_atom_site_fract_z
Si Si1 0.667753 0.820123 0.456203
Si Si2 0.875322 0.261478 0.865509
Si Si3 0.169091 0.653882 0.427024
Si Si4 0.860459 0.053907 0.016237
Si Si5 0.177744 0.192914 0.137648
Si Si6 0.834433 0.609534 0.536722
O O1 0.500000 0.812649 0.250000
O O2 0.726312 0.929236 0.447805
O O3 0.703796 0.840387 0.631960
O O4 0.738212 0.699061 0.497005
O O5 0.792919 0.283759 0.650302
O O6 0.836298 0.136906 0.877727
O O7 0.821125 0.367576 0.884521
O O8 0.046579 0.262369 0.045396
O O9 0.247603 0.723805 0.620410
O O10 0.219505 0.519195 0.489681
O O11 0.000000 0.661328 0.250000
O O12 0.879006 0.922903 0.992351
O O13 0.000000 0.091538 0.250000
O O14 0.000000 0.632328 0.750000
#
# Coordination Sequence:
#
# PCOD8117318 Si02
#       6
#     4   4   4   4   4   4
#     4  11  24  40  58  82 117 157 193 232 287 342
#     4  10  18  34  57  92 117 139 187 244 285 337
#     4   9  21  30  57  94 117 141 187 245 297 325
#     4  11  21  37  65  87 111 153 190 237 292 335
#     4  11  21  35  60  87 119 144 192 240 286 338
#     4  10  19  37  61  84 112 153 191 237 288 335
#
# _framework density 19.390236999999999
#
# number of rings (size 3 to 8) (size 9 to 14) (size 15 to 20)
#    0.000    1.667    3.333    3.000    4.667    2.667 
#    0.000    0.833    0.000    0.000    0.000    0.000 
#    0.000    0.000    0.000    0.000    0.000    0.000 
#
# Total GULP energy -297539.781806 kJ/mol
# GULP energy per Si atom -12397.490909 kJ/mol
# Density = 1.934610 g / cm^3
# Si number density = 19.390237 Si / 1000 Ang^3
#
#
#
# Elastic Constant Matrix: (Units=GPa)
#
#
# Indices 1 2 3 4 5 6 
#
# 1 88.7850 38.2034 49.8893 0.0000 -19.0110 0.0000
# 2 38.2034 97.4246 23.2334 0.0000 -10.1556 0.0000
# 3 49.8893 23.2334 72.8080 0.0000 -10.1747 0.0000
# 4 0.0000 0.0000 0.0000 11.8980 0.0000 -9.9876
# 5 -19.0110 -10.1556 -10.1747 0.0000 36.8148 0.0000
# 6 0.0000 0.0000 0.0000 -9.9876 0.0000 19.1525
#
#
#
# Elastic Compliance Matrix: (Units=1/GPa)
#
#
# Indices 1 2 3 4 5 6 
#
# 1 0.021728 -0.004885 -0.012430 0.000000 0.006437 0.000000
# 2 -0.004885 0.012377 -0.000497 0.000000 0.000754 0.000000
# 3 -0.012430 -0.000497 0.022358 0.000000 -0.000377 0.000000
# 4 0.000000 0.000000 0.000000 0.149485 0.000000 0.077954
# 5 0.006437 0.000754 -0.000377 0.000000 0.030591 0.000000
# 6 0.000000 0.000000 0.000000 0.077954 0.000000 0.092864
#
#
# Mechanical properties :
#
#
# Convention : Reuss Voigt Hill
#
# Bulk Modulus (GPa) = 47.98631 53.51887 50.75259
# Shear Modulus (GPa) = 13.44181 23.41913 18.43047
#
# Velocity S-wave (km/s) = 2.63577 3.47908 3.08637
# Velocity P-wave (km/s) = 5.83648 6.61812 6.23955
#
# Compressibility (1/GPa) = 0.02083928
#
# Stress axis : x y z
#
# Youngs Moduli (GPa) = 46.02327 80.79468 44.72679
#
# Poissons Ratio (x) = 0.39468 0.55596
# Poissons Ratio (y) = 0.22482 0.02222
# Poissons Ratio (z) = 0.57207 0.04014
#
# Static dielectric constant tensor:
#      x y z
#    x 3.749180 0.000000 -0.484700 
#    y 0.000000 3.543700 0.000000 
#    z -0.484700 0.000000 3.277980 
# 
# 
# High freq. dielectric constant tensor:
#      x y z
#    x 1.752820 0.000000 -0.042930 
#    y 0.000000 1.758550 0.000000 
#    z -0.042930 0.000000 1.716640 
# 
# From -- ./inp_files/29328.got.cif
#   From: 2010.06.25/outbox.cif.g09.slc.cpg/sg13_15_cif.got.tgz:29328.got - 2010.06.28 04:50:58.
