data_PCOD8117030
_publ_section_title
;
Structure prediction by ZEFSAII (Michael W. Deem and Ramdas Pophale) SiO2 
 PCOD8117030
Probable space group: P 2/C
;
_chemical_formula_sum "Si O2"
_cell_formula_units_Z 20
_cell_length_a 14.245748
_cell_length_b 17.360476
_cell_length_c 5.304092
_cell_angle_alpha 90.000000
_cell_angle_beta 111.860782
_cell_angle_gamma 90.000000
_cell_volume 1217.443051
_symmetry_space_group_name_H-M "P 2/C"
_symmetry_group_IT_number 13
_symmetry_cell_setting 'monoclinic'
loop_
_space_group_symop_operation_xyz
x,y,z
-x,y,1/2-z
-x,-y,-z
x,-y,1/2+z
loop_
_atom_site_type_symbol
_atom_site_label
_atom_site_fract_x
_atom_site_fract_y
_atom_site_fract_z
Si Si1 0.880898 0.284632 0.130883
Si Si2 0.299659 0.909545 0.549587
Si Si3 0.118842 0.806546 0.368856
Si Si4 0.120719 0.457154 0.370719
Si Si5 0.383173 0.922211 0.133106
O O1 0.847275 0.240670 0.350192
O O2 0.834662 0.370517 0.084671
O O3 0.000000 0.292395 0.250000
O O4 0.847278 0.240690 0.844291
O O5 0.181397 0.886440 0.431378
O O6 0.354939 0.874336 0.356142
O O7 0.313038 0.001541 0.562921
O O8 0.354975 0.874343 0.853596
O O9 0.000000 0.826768 0.250000
O O10 0.161246 0.499998 0.661251
O O11 0.000000 0.456549 0.250000
O O12 0.500000 0.946802 0.250000
#
# Coordination Sequence:
#
# PCOD8117030 Si02
#       5
#     4   4   4   4   4
#     4   9  17  28  40  55  81 116 149 182 213 243
#     4  10  18  30  47  66  84 111 145 176 213 263
#     4  10  19  30  42  59  87 121 153 177 204 249
#     4   9  15  23  37  56  75 100 143 190 218 237
#     4  10  19  33  50  68  86 104 138 181 227 274
#
# _framework density 16.427873999999999
#
# number of rings (size 3 to 8) (size 9 to 14) (size 15 to 20)
#    0.000    2.400    0.000    5.400    0.000    4.800 
#    0.000    4.000    0.000    0.000    0.000    0.000 
#    0.000    0.000    0.000    0.000    0.000  412.000 
#
# Total GULP energy -247818.017526 kJ/mol
# GULP energy per Si atom -12390.900876 kJ/mol
# Density = 1.639048 g / cm^3
# Si number density = 16.427874 Si / 1000 Ang^3
#
#
#
# Elastic Constant Matrix: (Units=GPa)
#
#
# Indices 1 2 3 4 5 6 
#
# 1 68.8848 48.1438 53.9772 0.0000 -5.0428 0.0000
# 2 48.1438 72.6096 38.8407 0.0000 4.0274 0.0000
# 3 53.9772 38.8407 159.5127 0.0000 -34.5524 0.0000
# 4 0.0000 0.0000 0.0000 10.9053 0.0000 -3.1760
# 5 -5.0428 4.0274 -34.5524 0.0000 26.0829 0.0000
# 6 0.0000 0.0000 0.0000 -3.1760 0.0000 3.6290
#
#
#
# Elastic Compliance Matrix: (Units=1/GPa)
#
#
# Indices 1 2 3 4 5 6 
#
# 1 0.032033 -0.017850 -0.006388 0.000000 0.000487 0.000000
# 2 -0.017850 0.028184 -0.003524 0.000000 -0.012471 0.000000
# 3 -0.006388 -0.003524 0.012817 0.000000 0.016288 0.000000
# 4 0.000000 0.000000 0.000000 0.123065 0.000000 0.107701
# 5 0.000487 -0.012471 0.016288 0.000000 0.061936 0.000000
# 6 0.000000 0.000000 0.000000 0.107701 0.000000 0.369811
#
#
# Mechanical properties :
#
#
# Convention : Reuss Voigt Hill
#
# Bulk Modulus (GPa) = 57.10565 64.77005 60.93785
# Shear Modulus (GPa) = 7.25472 18.79315 13.02394
#
# Velocity S-wave (km/s) = 2.10373 3.38595 2.81872
# Velocity P-wave (km/s) = 6.38262 7.40261 6.91146
#
# Compressibility (1/GPa) = 0.01751140
#
# Stress axis : x y z
#
# Youngs Moduli (GPa) = 31.21763 35.48069 78.02213
#
# Poissons Ratio (x) = 0.63332 0.49839
# Poissons Ratio (y) = 0.55722 0.27496
# Poissons Ratio (z) = 0.19941 0.12504
#
# Static dielectric constant tensor:
#      x y z
#    x 2.902980 0.000000 -0.666400 
#    y 0.000000 2.910990 0.000000 
#    z -0.666400 0.000000 4.430860 
# 
# 
# High freq. dielectric constant tensor:
#      x y z
#    x 1.586980 0.000000 -0.032990 
#    y 0.000000 1.595900 0.000000 
#    z -0.032990 0.000000 1.662580 
# 
# From -- ./inp_files/2131.got.cif
#   From: 2010.06.25/outbox.cif.g09.slc.cpg/sg13_2_cif.got.tgz:2131.got - 2010.06.28 04:50:58.
