data_PCOD8117536
_publ_section_title
;
Structure prediction by ZEFSAII (Michael W. Deem and Ramdas Pophale) SiO2 
 PCOD8117536
Probable space group: P 2/C
;
_chemical_formula_sum "Si O2"
_cell_formula_units_Z 26
_cell_length_a 20.287059
_cell_length_b 9.701427
_cell_length_c 15.195431
_cell_angle_alpha 90.000000
_cell_angle_beta 153.212628
_cell_angle_gamma 90.000000
_cell_volume 1347.835203
_symmetry_space_group_name_H-M "P 2/C"
_symmetry_group_IT_number 13
_symmetry_cell_setting 'monoclinic'
loop_
_space_group_symop_operation_xyz
x,y,z
-x,y,1/2-z
-x,-y,-z
x,-y,1/2+z
loop_
_atom_site_type_symbol
_atom_site_label
_atom_site_fract_x
_atom_site_fract_y
_atom_site_fract_z
Si Si1 0.299207 0.740221 0.659541
Si Si2 0.774839 0.229976 0.082045
Si Si3 0.024747 0.044451 0.428783
Si Si4 0.616436 0.459620 0.814418
Si Si5 0.569356 0.742872 0.503038
Si Si6 0.331463 0.950702 0.203803
Si Si7 0.000000 0.836572 0.250000
O O1 0.368578 0.621458 0.682729
O O2 0.128781 0.737071 0.433698
O O3 0.366699 0.890631 0.721112
O O4 0.323299 0.702008 0.789955
O O5 0.940168 0.188889 0.307559
O O6 0.766178 0.382498 0.026050
O O7 0.670399 0.223145 0.041325
O O8 0.710820 0.121380 0.937112
O O9 0.197460 0.058893 0.614364
O O10 0.954722 0.931457 0.279364
O O11 0.000000 0.000000 0.500000
O O12 0.500000 0.435774 0.750000
O O13 0.547949 0.380774 0.648726
O O14 0.476110 0.880149 0.416670
#
# Coordination Sequence:
#
# PCOD8117536 Si02
#       7
#     4   4   4   4   4   4   2
#     4  11  20  38  57  82 123 150 192 247 295 355
#     4  10  18  38  61  85 117 158 197 243 298 358
#     4  11  20  37  63  86 124 153 191 252 301 351
#     4   9  21  37  57  83 119 160 195 243 299 349
#     4  10  21  37  62  88 115 155 204 245 298 350
#     4  10  20  36  58  93 115 149 203 243 301 353
#     4  10  22  40  54  90 120 154 196 242 306 342
#
# _framework density 19.290192000000001
#
# number of rings (size 3 to 8) (size 9 to 14) (size 15 to 20)
#    0.000    1.846    3.077    4.154    0.000    1.231 
#    8.308    0.000    0.000    2.769    0.000    0.000 
#    0.000    0.000    0.000    0.000    0.000    0.000 
#
# Total GULP energy -322185.206367 kJ/mol
# GULP energy per Si atom -12391.738706 kJ/mol
# Density = 1.924629 g / cm^3
# Si number density = 19.290192 Si / 1000 Ang^3
#
#
#
# Elastic Constant Matrix: (Units=GPa)
#
#
# Indices 1 2 3 4 5 6 
#
# 1 53.5570 20.2455 19.1553 0.0000 -16.2236 0.0000
# 2 20.2455 122.8034 32.3155 0.0000 2.7021 0.0000
# 3 19.1553 32.3155 95.0289 0.0000 -11.1008 0.0000
# 4 0.0000 0.0000 0.0000 20.5263 0.0000 3.4357
# 5 -16.2236 2.7021 -11.1008 0.0000 31.0663 0.0000
# 6 0.0000 0.0000 0.0000 3.4357 0.0000 28.2284
#
#
#
# Elastic Compliance Matrix: (Units=1/GPa)
#
#
# Indices 1 2 3 4 5 6 
#
# 1 0.024645 -0.003744 -0.002247 0.000000 0.012393 0.000000
# 2 -0.003744 0.009626 -0.002969 0.000000 -0.003854 0.000000
# 3 -0.002247 -0.002969 0.012396 0.000000 0.003514 0.000000
# 4 0.000000 0.000000 0.000000 0.049731 0.000000 -0.006053
# 5 0.012393 -0.003854 0.003514 0.000000 0.040252 0.000000
# 6 0.000000 0.000000 0.000000 -0.006053 0.000000 0.036162
#
#
# Mechanical properties :
#
#
# Convention : Reuss Voigt Hill
#
# Bulk Modulus (GPa) = 34.78596 46.09133 40.43864
# Shear Modulus (GPa) = 24.96061 29.27571 27.11816
#
# Velocity S-wave (km/s) = 3.60106 3.89993 3.75347
# Velocity P-wave (km/s) = 5.94662 6.65017 6.30821
#
# Compressibility (1/GPa) = 0.02874723
#
# Stress axis : x y z
#
# Youngs Moduli (GPa) = 40.57646 103.88008 80.67017
#
# Poissons Ratio (x) = 0.38897 0.18124
# Poissons Ratio (y) = 0.15194 0.23951
# Poissons Ratio (z) = 0.09116 0.30842
#
# Static dielectric constant tensor:
#      x y z
#    x 3.366650 0.000000 -0.020330 
#    y 0.000000 3.599440 0.000000 
#    z -0.020330 0.000000 3.885900 
# 
# 
# High freq. dielectric constant tensor:
#      x y z
#    x 1.737480 0.000000 -0.012320 
#    y 0.000000 1.741860 0.000000 
#    z -0.012320 0.000000 1.759280 
# 
# From -- ./inp_files/57311.got.cif
#   From: 2010.06.25/outbox.cif.g09.slc.cpg/sg13_29_cif.got.tgz:57311.got - 2010.06.28 04:50:58.
