data_PCOD8117616
_publ_section_title
;
Structure prediction by ZEFSAII (Michael W. Deem and Ramdas Pophale) SiO2 
 PCOD8117616
Probable space group: P 2/C
;
_chemical_formula_sum "Si O2"
_cell_formula_units_Z 28
_cell_length_a 12.439204
_cell_length_b 25.555586
_cell_length_c 5.052365
_cell_angle_alpha 90.000000
_cell_angle_beta 109.567880
_cell_angle_gamma 90.000000
_cell_volume 1513.342257
_symmetry_space_group_name_H-M "P 2/C"
_symmetry_group_IT_number 13
_symmetry_cell_setting 'monoclinic'
loop_
_space_group_symop_operation_xyz
x,y,z
-x,y,1/2-z
-x,-y,-z
x,-y,1/2+z
loop_
_atom_site_type_symbol
_atom_site_label
_atom_site_fract_x
_atom_site_fract_y
_atom_site_fract_z
Si Si1 0.926598 0.910698 0.444502
Si Si2 0.627173 0.856610 0.924795
Si Si3 0.297840 0.032895 0.842269
Si Si4 0.135095 0.286855 0.367525
Si Si5 0.240600 0.824543 0.983991
Si Si6 0.864990 0.351467 0.631791
Si Si7 0.136156 0.531553 0.358693
O O1 0.836654 0.953707 0.268754
O O2 0.865115 0.858939 0.502781
O O3 0.000000 0.894128 0.250000
O O4 0.000000 0.934081 0.750000
O O5 0.500000 0.839082 0.750000
O O6 0.706898 0.851472 0.733178
O O7 0.628037 0.916130 0.030951
O O8 0.668971 0.820182 0.201286
O O9 0.329051 0.012228 0.576818
O O10 0.198305 0.232558 0.372291
O O11 0.177315 0.313143 0.672667
O O12 0.000000 0.276983 0.250000
O O13 0.175624 0.326696 0.175592
O O14 0.813113 0.409723 0.617361
O O15 0.000000 0.356215 0.750000
O O16 0.182779 0.502786 0.656128
O O17 0.000000 0.533700 0.250000
#
# Coordination Sequence:
#
# PCOD8117616 Si02
#       7
#     4   4   4   4   4   4   4
#     4  11  22  36  55  78 108 140 166 197 237 292
#     4  11  24  42  61  78  99 127 164 211 254 302
#     4  11  23  38  56  81 105 129 165 201 242 298
#     4  10  19  30  48  71 100 132 163 206 249 291
#     4  11  22  38  57  79 102 130 172 206 249 307
#     4   9  17  27  39  63  94 128 173 213 246 283
#     4   9  15  23  36  53  81 125 175 219 245 268
#
# _framework density 18.502092999999999
#
# number of rings (size 3 to 8) (size 9 to 14) (size 15 to 20)
#    0.000    1.714    0.000    6.857    0.000    7.429 
#    0.000    0.000    0.000    0.000    0.000    0.000 
#    0.000    0.000    0.000    0.000    0.000  180.000 
#
# Total GULP energy -347224.072388 kJ/mol
# GULP energy per Si atom -12400.859728 kJ/mol
# Density = 1.845998 g / cm^3
# Si number density = 18.502093 Si / 1000 Ang^3
#
#
#
# Elastic Constant Matrix: (Units=GPa)
#
#
# Indices 1 2 3 4 5 6 
#
# 1 30.1340 12.1442 21.3358 0.0000 -4.7098 0.0000
# 2 12.1442 97.2414 26.1719 0.0000 -6.9653 0.0000
# 3 21.3358 26.1719 108.8238 0.0000 -13.2503 0.0000
# 4 0.0000 0.0000 0.0000 26.0145 0.0000 -6.9156
# 5 -4.7098 -6.9653 -13.2503 0.0000 28.6597 0.0000
# 6 0.0000 0.0000 0.0000 -6.9156 0.0000 10.2109
#
#
#
# Elastic Compliance Matrix: (Units=1/GPa)
#
#
# Indices 1 2 3 4 5 6 
#
# 1 0.039546 -0.002938 -0.006721 0.000000 0.002678 0.000000
# 2 -0.002938 0.011278 -0.001972 0.000000 0.001346 0.000000
# 3 -0.006721 -0.001972 0.011432 0.000000 0.003702 0.000000
# 4 0.000000 0.000000 0.000000 0.046881 0.000000 0.031751
# 5 0.002678 0.001346 0.003702 0.000000 0.037371 0.000000
# 6 0.000000 0.000000 0.000000 0.031751 0.000000 0.119438
#
#
# Mechanical properties :
#
#
# Convention : Reuss Voigt Hill
#
# Bulk Modulus (GPa) = 25.64533 39.50035 32.57284
# Shear Modulus (GPa) = 16.54504 24.74686 20.64595
#
# Velocity S-wave (km/s) = 2.99360 3.66118 3.34409
# Velocity P-wave (km/s) = 5.08328 6.26640 5.70559
#
# Compressibility (1/GPa) = 0.03899345
#
# Stress axis : x y z
#
# Youngs Moduli (GPa) = 25.28691 88.66907 87.47484
#
# Poissons Ratio (x) = 0.26052 0.58789
# Poissons Ratio (y) = 0.07430 0.17253
# Poissons Ratio (z) = 0.16995 0.17489
#
# Static dielectric constant tensor:
#      x y z
#    x 3.000100 0.000000 -0.132730 
#    y 0.000000 3.406330 0.000000 
#    z -0.132730 0.000000 3.727660 
# 
# 
# High freq. dielectric constant tensor:
#      x y z
#    x 1.664770 0.000000 -0.025110 
#    y 0.000000 1.715660 0.000000 
#    z -0.025110 0.000000 1.738700 
# 
# From -- ./inp_files/3943.got.cif
#   From: 2010.06.25/outbox.cif.g09.slc.cpg/sg13_2_cif.got.tgz:3943.got - 2010.06.28 04:50:58.
