data_PCOD8117885
_publ_section_title
;
Structure prediction by ZEFSAII (Michael W. Deem and Ramdas Pophale) SiO2 
 PCOD8117885
Probable space group: P 2/C
;
_chemical_formula_sum "Si O2"
_cell_formula_units_Z 28
_cell_length_a 23.333078
_cell_length_b 9.059342
_cell_length_c 18.014237
_cell_angle_alpha 90.000000
_cell_angle_beta 22.364980
_cell_angle_gamma 90.000000
_cell_volume 1448.922535
_symmetry_space_group_name_H-M "P 2/C"
_symmetry_group_IT_number 13
_symmetry_cell_setting 'monoclinic'
loop_
_space_group_symop_operation_xyz
x,y,z
-x,y,1/2-z
-x,-y,-z
x,-y,1/2+z
loop_
_atom_site_type_symbol
_atom_site_label
_atom_site_fract_x
_atom_site_fract_y
_atom_site_fract_z
Si Si1 0.419546 0.877587 0.206744
Si Si2 0.662221 0.903593 0.570132
Si Si3 0.046205 0.230392 0.295697
Si Si4 0.213635 0.627026 0.454791
Si Si5 0.836464 0.302419 0.968911
Si Si6 0.763606 0.083220 0.316599
Si Si7 0.166082 0.031444 0.427852
O O1 0.372484 0.707242 0.252978
O O2 0.365399 0.946010 0.350277
O O3 0.334086 0.972230 0.245716
O O4 0.598671 0.871999 0.984815
O O5 0.500000 0.828945 0.750000
O O6 0.763299 0.784734 0.489228
O O7 0.748048 0.946426 0.391879
O O8 0.903378 0.342792 0.473739
O O9 0.149753 0.218775 0.245553
O O10 0.967534 0.068058 0.375661
O O11 0.144458 0.291027 0.110029
O O12 0.253528 0.454463 0.410782
O O13 0.000000 0.357938 0.750000
O O14 0.845180 0.199847 0.030724
O O15 0.857957 0.031396 0.132049
#
# Coordination Sequence:
#
# PCOD8117885 Si02
#       7
#     4   4   4   4   4   4   4
#     4   9  19  36  60  79 110 151 186 220 273 338
#     4   9  19  34  55  83 106 137 189 236 265 322
#     4  10  19  34  56  81 107 139 189 229 271 322
#     4  10  20  37  54  80 106 149 190 227 265 338
#     4  11  21  36  57  80 109 148 189 224 279 330
#     4  11  19  35  59  88 112 138 188 235 283 318
#     4  10  22  34  59  85 114 145 179 234 284 333
#
# _framework density 19.324705000000002
#
# number of rings (size 3 to 8) (size 9 to 14) (size 15 to 20)
#    0.000    2.000    2.857    1.714    6.000    0.000 
#    2.571    1.429    6.286    0.000    0.000    0.000 
#    0.000    0.000    0.000    0.000    0.000    0.000 
#
# Total GULP energy -346943.721857 kJ/mol
# GULP energy per Si atom -12390.847209 kJ/mol
# Density = 1.928072 g / cm^3
# Si number density = 19.324705 Si / 1000 Ang^3
#
#
#
# Elastic Constant Matrix: (Units=GPa)
#
#
# Indices 1 2 3 4 5 6 
#
# 1 106.1560 30.1992 24.4728 0.0000 0.4447 0.0000
# 2 30.1992 121.8801 28.1529 0.0000 4.5652 0.0000
# 3 24.4728 28.1529 34.0048 0.0000 -8.3640 0.0000
# 4 0.0000 0.0000 0.0000 15.4756 0.0000 1.5668
# 5 0.4447 4.5652 -8.3640 0.0000 38.2718 0.0000
# 6 0.0000 0.0000 0.0000 1.5668 0.0000 -0.7354
#
#
#
# Elastic Compliance Matrix: (Units=1/GPa)
#
#
# Indices 1 2 3 4 5 6 
#
# 1 0.011529 -0.000958 -0.007936 0.000000 -0.001754 0.000000
# 2 -0.000958 0.010614 -0.008884 0.000000 -0.003197 0.000000
# 3 -0.007936 -0.008884 0.045187 0.000000 0.011027 0.000000
# 4 0.000000 0.000000 0.000000 0.053152 0.000000 0.113250
# 5 -0.001754 -0.003197 0.011027 0.000000 0.028940 0.000000
# 6 0.000000 0.000000 0.000000 0.113250 0.000000 -1.118570
#
#
# Mechanical properties :
#
#
# Convention : Reuss Voigt Hill
#
# Bulk Modulus (GPa) = 31.47240 47.52117 39.49679
# Shear Modulus (GPa) = -5.41712 22.55013 8.56650
#
# Velocity S-wave (km/s) = -1.67610 3.41971 2.10774
# Velocity P-wave (km/s) = 3.54623 6.34325 5.13870
#
# Compressibility (1/GPa) = 0.03177387
#
# Stress axis : x y z
#
# Youngs Moduli (GPa) = 86.73408 94.21489 22.13039
#
# Poissons Ratio (x) = 0.09025 0.17563
# Poissons Ratio (y) = 0.08309 0.19661
# Poissons Ratio (z) = 0.68832 0.83703
#
# Static dielectric constant tensor:
#      x y z
#    x 3.725540 0.000000 -0.383630 
#    y 0.000000 3.252590 0.000000 
#    z -0.383630 0.000000 3.510040 
# 
# 
# High freq. dielectric constant tensor:
#      x y z
#    x 1.752120 0.000000 -0.026140 
#    y 0.000000 1.722730 0.000000 
#    z -0.026140 0.000000 1.747310 
# 
# From -- ./inp_files/82424.got.cif
#   From: 2010.06.25/outbox.cif.g09.slc.cpg/sg13_42_cif.got.tgz:82424.got - 2010.06.28 04:50:58.
