data_PCOD8117524
_publ_section_title
;
Structure prediction by ZEFSAII (Michael W. Deem and Ramdas Pophale) SiO2 
 PCOD8117524
Probable space group: P 2/C
;
_chemical_formula_sum "Si O2"
_cell_formula_units_Z 30
_cell_length_a 21.522365
_cell_length_b 5.436067
_cell_length_c 18.772459
_cell_angle_alpha 90.000000
_cell_angle_beta 40.370171
_cell_angle_gamma 90.000000
_cell_volume 1422.608856
_symmetry_space_group_name_H-M "P 2/C"
_symmetry_group_IT_number 13
_symmetry_cell_setting 'monoclinic'
loop_
_space_group_symop_operation_xyz
x,y,z
-x,y,1/2-z
-x,-y,-z
x,-y,1/2+z
loop_
_atom_site_type_symbol
_atom_site_label
_atom_site_fract_x
_atom_site_fract_y
_atom_site_fract_z
Si Si1 0.487769 0.749749 0.054549
Si Si2 0.685445 0.210941 0.422898
Si Si3 0.159286 0.959716 0.129249
Si Si4 0.164420 0.596957 0.245254
Si Si5 0.714276 0.087236 0.759122
Si Si6 0.857129 0.934542 0.523495
Si Si7 0.038446 0.447984 0.068722
Si Si8 0.000000 0.663396 0.750000
O O1 0.380053 0.754497 0.181334
O O2 0.500000 0.500000 0.000000
O O3 0.572853 0.743988 0.040318
O O4 0.500000 0.000000 0.000000
O O5 0.746506 0.457464 0.367441
O O6 0.732986 0.028436 0.438708
O O7 0.685703 0.115121 0.341719
O O8 0.122343 0.743097 0.213307
O O9 0.163258 0.900371 0.042414
O O10 0.083880 0.174304 0.212721
O O11 0.201526 0.751254 0.279606
O O12 0.073951 0.445418 0.356539
O O13 0.755489 0.958546 0.652317
O O14 0.908162 0.688124 0.510264
O O15 0.917755 0.181503 0.488115
O O16 0.046619 0.495723 0.146711
#
# Coordination Sequence:
#
# PCOD8117524 Si02
#       8
#     4   4   4   4   4   4   4   2
#     4  10  20  39  64  91 115 151 200 253 302 353
#     4  10  21  38  64  93 114 154 210 261 297 352
#     4  10  21  37  59  89 122 158 210 249 300 356
#     4  11  20  37  63  88 121 160 209 260 290 358
#     4  10  24  40  61  89 126 157 201 255 317 365
#     4  11  26  40  57  89 128 170 195 245 312 374
#     4  11  23  37  58  87 124 166 205 242 300 362
#     4  10  18  38  58  84 122 166 210 252 286 362
#
# _framework density 21.088017000000001
#
# number of rings (size 3 to 8) (size 9 to 14) (size 15 to 20)
#    0.000    1.600    2.667    2.400    5.600    1.600 
#    0.000    0.667    0.000    0.000    0.000    0.000 
#    0.000    0.000    0.000    0.000    0.000    0.000 
#
# Total GULP energy -371691.240339 kJ/mol
# GULP energy per Si atom -12389.708011 kJ/mol
# Density = 2.104002 g / cm^3
# Si number density = 21.088017 Si / 1000 Ang^3
#
#
#
# Elastic Constant Matrix: (Units=GPa)
#
#
# Indices 1 2 3 4 5 6 
#
# 1 88.6918 22.9382 47.2850 0.0000 -24.7565 0.0000
# 2 22.9382 110.6771 25.7680 0.0000 -12.2434 0.0000
# 3 47.2850 25.7680 96.2414 0.0000 -22.5163 0.0000
# 4 0.0000 0.0000 0.0000 25.0792 0.0000 -5.8553
# 5 -24.7565 -12.2434 -22.5163 0.0000 35.9032 0.0000
# 6 0.0000 0.0000 0.0000 -5.8553 0.0000 22.5067
#
#
#
# Elastic Compliance Matrix: (Units=1/GPa)
#
#
# Indices 1 2 3 4 5 6 
#
# 1 0.017010 -0.001244 -0.006304 0.000000 0.007351 0.000000
# 2 -0.001244 0.009846 -0.001688 0.000000 0.001441 0.000000
# 3 -0.006304 -0.001688 0.014987 0.000000 0.004477 0.000000
# 4 0.000000 0.000000 0.000000 0.042452 0.000000 0.011044
# 5 0.007351 0.001441 0.004477 0.000000 0.036220 0.000000
# 6 0.000000 0.000000 0.000000 0.011044 0.000000 0.047305
#
#
# Mechanical properties :
#
#
# Convention : Reuss Voigt Hill
#
# Bulk Modulus (GPa) = 42.78996 54.17695 48.48346
# Shear Modulus (GPa) = 25.76239 30.00575 27.88407
#
# Velocity S-wave (km/s) = 3.49902 3.77620 3.64025
# Velocity P-wave (km/s) = 6.05470 6.69026 6.38040
#
# Compressibility (1/GPa) = 0.02336997
#
# Stress axis : x y z
#
# Youngs Moduli (GPa) = 58.79006 101.56920 66.72434
#
# Poissons Ratio (x) = 0.12639 0.42064
# Poissons Ratio (y) = 0.07316 0.11260
# Poissons Ratio (z) = 0.37062 0.17140
#
# Static dielectric constant tensor:
#      x y z
#    x 3.993820 0.000000 -0.490570 
#    y 0.000000 3.872760 0.000000 
#    z -0.490570 0.000000 3.996280 
# 
# 
# High freq. dielectric constant tensor:
#      x y z
#    x 1.821780 0.000000 -0.023310 
#    y 0.000000 1.836220 0.000000 
#    z -0.023310 0.000000 1.806140 
# 
# From -- ./inp_files/81982.got.cif
#   From: 2010.06.25/outbox.cif.g09.slc.cpg/sg13_41_cif.got.tgz:81982.got - 2010.06.28 04:50:58.
