data_PCOD8117465
_publ_section_title
;
Structure prediction by ZEFSAII (Michael W. Deem and Ramdas Pophale) SiO2 
 PCOD8117465
Probable space group: P 2/C
;
_chemical_formula_sum "Si O2"
_cell_formula_units_Z 30
_cell_length_a 14.626925
_cell_length_b 8.994610
_cell_length_c 23.095242
_cell_angle_alpha 90.000000
_cell_angle_beta 29.077375
_cell_angle_gamma 90.000000
_cell_volume 1476.676952
_symmetry_space_group_name_H-M "P 2/C"
_symmetry_group_IT_number 13
_symmetry_cell_setting 'monoclinic'
loop_
_space_group_symop_operation_xyz
x,y,z
-x,y,1/2-z
-x,-y,-z
x,-y,1/2+z
loop_
_atom_site_type_symbol
_atom_site_label
_atom_site_fract_x
_atom_site_fract_y
_atom_site_fract_z
Si Si1 0.561034 0.862431 0.043566
Si Si2 0.021659 0.937459 0.672323
Si Si3 0.475063 0.677744 0.855737
Si Si4 0.378304 0.821951 0.620647
Si Si5 0.317453 0.058658 0.321977
Si Si6 0.912566 0.813393 0.450843
Si Si7 0.500000 0.573488 0.250000
Si Si8 0.283423 0.760770 0.287336
O O1 0.447688 0.749425 0.148106
O O2 0.475959 0.029453 0.093046
O O3 0.774821 0.861362 0.949446
O O4 0.550856 0.798524 0.984124
O O5 0.000000 0.991174 0.750000
O O6 0.849145 0.828215 0.751464
O O7 0.000100 0.083660 0.646600
O O8 0.557229 0.679676 0.875960
O O9 0.612833 0.786919 0.744307
O O10 0.465356 0.521724 0.827428
O O11 0.260034 0.724881 0.980087
O O12 0.500000 0.981817 0.250000
O O13 0.153469 0.090497 0.457860
O O14 0.242414 0.937359 0.318710
O O15 0.081966 0.700880 0.375617
O O16 0.329434 0.678832 0.322748
#
# Coordination Sequence:
#
# PCOD8117465 Si02
#       8
#     4   4   4   4   4   4   2   4
#     4  10  19  35  58  97 121 147 193 261 309 356
#     4  10  19  32  59 102 126 146 192 255 318 366
#     4  11  21  43  57  83 122 166 205 246 303 367
#     4  10  19  34  64  87 123 158 194 246 314 369
#     4  10  18  36  60  82 115 150 195 249 307 353
#     4  11  20  33  62  86 120 154 201 251 307 362
#     4  12  28  42  56  78 128 174 210 248 296 354
#     4  12  23  38  58  91 123 153 204 261 304 351
#
# _framework density 20.315885999999999
#
# number of rings (size 3 to 8) (size 9 to 14) (size 15 to 20)
#    0.000    1.333    6.667    1.200    0.000    0.533 
#    0.000    0.667    0.000    0.000    0.000    0.000 
#    0.000    0.000    0.000    0.000    0.000    0.000 
#
# Total GULP energy -371748.437270 kJ/mol
# GULP energy per Si atom -12391.614576 kJ/mol
# Density = 2.026965 g / cm^3
# Si number density = 20.315886 Si / 1000 Ang^3
#
#
#
# Elastic Constant Matrix: (Units=GPa)
#
#
# Indices 1 2 3 4 5 6 
#
# 1 141.7981 38.5193 60.1630 0.0000 -17.0125 0.0000
# 2 38.5193 52.2665 26.3612 0.0000 0.2213 0.0000
# 3 60.1630 26.3612 120.9737 0.0000 -15.5515 0.0000
# 4 0.0000 0.0000 0.0000 6.2597 0.0000 9.0614
# 5 -17.0125 0.2213 -15.5515 0.0000 32.7407 0.0000
# 6 0.0000 0.0000 0.0000 9.0614 0.0000 33.0363
#
#
#
# Elastic Compliance Matrix: (Units=1/GPa)
#
#
# Indices 1 2 3 4 5 6 
#
# 1 0.010656 -0.006125 -0.003459 0.000000 0.003935 0.000000
# 2 -0.006125 0.025214 -0.003066 0.000000 -0.004810 0.000000
# 3 -0.003459 -0.003066 0.011104 0.000000 0.003498 0.000000
# 4 0.000000 0.000000 0.000000 0.264953 0.000000 -0.072673
# 5 0.003935 -0.004810 0.003498 0.000000 0.034282 0.000000
# 6 0.000000 0.000000 0.000000 -0.072673 0.000000 0.050203
#
#
# Mechanical properties :
#
#
# Convention : Reuss Voigt Hill
#
# Bulk Modulus (GPa) = 46.14013 62.79168 54.46591
# Shear Modulus (GPa) = 11.65673 27.07366 19.36519
#
# Velocity S-wave (km/s) = 2.39796 3.65449 3.09075
# Velocity P-wave (km/s) = 5.51612 6.98440 6.29323
#
# Compressibility (1/GPa) = 0.02167311
#
# Stress axis : x y z
#
# Youngs Moduli (GPa) = 93.84490 39.66075 90.05595
#
# Poissons Ratio (x) = 0.24294 0.31148
# Poissons Ratio (y) = 0.57483 0.27614
# Poissons Ratio (z) = 0.32458 0.12161
#
# Static dielectric constant tensor:
#      x y z
#    x 4.144730 0.000000 -0.097100 
#    y 0.000000 3.206950 0.000000 
#    z -0.097100 0.000000 3.781120 
# 
# 
# High freq. dielectric constant tensor:
#      x y z
#    x 1.817950 0.000000 -0.005310 
#    y 0.000000 1.730940 0.000000 
#    z -0.005310 0.000000 1.801290 
# 
# From -- ./inp_files/87300.got.cif
#   From: 2010.06.25/outbox.cif.g09.slc.cpg/sg13_44_cif.got.tgz:87300.got - 2010.06.28 04:50:58.
