data_PCOD8117312
_publ_section_title
;
Structure prediction by ZEFSAII (Michael W. Deem and Ramdas Pophale) SiO2 
 PCOD8117312
Probable space group: P 2/C
;
_chemical_formula_sum "Si O2"
_cell_formula_units_Z 20
_cell_length_a 11.285361
_cell_length_b 12.197818
_cell_length_c 10.027520
_cell_angle_alpha 90.000000
_cell_angle_beta 50.014305
_cell_angle_gamma 90.000000
_cell_volume 1057.635620
_symmetry_space_group_name_H-M "P 2/C"
_symmetry_group_IT_number 13
_symmetry_cell_setting 'monoclinic'
loop_
_space_group_symop_operation_xyz
x,y,z
-x,y,1/2-z
-x,-y,-z
x,-y,1/2+z
loop_
_atom_site_type_symbol
_atom_site_label
_atom_site_fract_x
_atom_site_fract_y
_atom_site_fract_z
Si Si1 0.204728 0.182345 0.200348
Si Si2 0.562863 0.655263 0.847208
Si Si3 0.100827 0.952782 0.309022
Si Si4 0.630649 0.584952 0.269152
Si Si5 0.864765 0.238913 0.537210
O O1 0.341573 0.239777 0.178256
O O2 0.047589 0.234872 0.375168
O O3 0.222862 0.050546 0.197437
O O4 0.224102 0.201515 0.030017
O O5 0.500000 0.689342 0.750000
O O6 0.665104 0.544335 0.761042
O O7 0.425213 0.634398 0.050473
O O8 0.177581 0.840124 0.306212
O O9 0.000000 0.929461 0.250000
O O10 0.000000 0.000000 0.500000
O O11 0.500000 0.604359 0.250000
O O12 0.796204 0.640505 0.117070
#
# Coordination Sequence:
#
# PCOD8117312 Si02
#       5
#     4   4   4   4   4
#     4  10  19  37  60  85 115 149 189 235 281 331
#     4  10  22  38  58  83 115 152 189 232 284 339
#     4  10  18  34  57  85 115 148 182 228 289 336
#     4  10  20  38  60  81 113 156 188 225 289 344
#     4  10  20  35  62  86 111 152 189 233 280 336
#
# _framework density 18.910102999999999
#
# number of rings (size 3 to 8) (size 9 to 14) (size 15 to 20)
#    0.000    2.000    6.000    0.000    0.000    4.000 
#    0.000    2.000    4.400    0.000    0.000    0.000 
#    0.000    0.000    0.000    0.000    0.000    0.000 
#
# Total GULP energy -247810.653677 kJ/mol
# GULP energy per Si atom -12390.532684 kJ/mol
# Density = 1.886706 g / cm^3
# Si number density = 18.910103 Si / 1000 Ang^3
#
#
#
# Elastic Constant Matrix: (Units=GPa)
#
#
# Indices 1 2 3 4 5 6 
#
# 1 84.9990 45.6588 32.5116 0.0000 28.2002 0.0000
# 2 45.6588 102.8677 23.0885 0.0000 7.7980 0.0000
# 3 32.5116 23.0885 72.2717 0.0000 31.5119 0.0000
# 4 0.0000 0.0000 0.0000 33.6649 0.0000 -8.4580
# 5 28.2002 7.7980 31.5119 0.0000 33.6193 0.0000
# 6 0.0000 0.0000 0.0000 -8.4580 0.0000 51.4573
#
#
#
# Elastic Compliance Matrix: (Units=1/GPa)
#
#
# Indices 1 2 3 4 5 6 
#
# 1 0.021644 -0.008380 0.000015 0.000000 -0.016226 0.000000
# 2 -0.008380 0.013745 -0.003883 0.000000 0.007481 0.000000
# 3 0.000015 -0.003883 0.024832 0.000000 -0.022387 0.000000
# 4 0.000000 0.000000 0.000000 0.030984 0.000000 0.005093
# 5 -0.016226 0.007481 -0.022387 0.000000 0.062604 0.000000
# 6 0.000000 0.000000 0.000000 0.005093 0.000000 0.020271
#
#
# Mechanical properties :
#
#
# Convention : Reuss Voigt Hill
#
# Bulk Modulus (GPa) = 27.99181 51.40623 39.69902
# Shear Modulus (GPa) = 23.75482 34.34027 29.04755
#
# Velocity S-wave (km/s) = 3.54813 4.26605 3.92355
# Velocity P-wave (km/s) = 5.62320 7.17698 6.44707
#
# Compressibility (1/GPa) = 0.03572473
#
# Stress axis : x y z
#
# Youngs Moduli (GPa) = 46.20267 72.75183 40.27133
#
# Poissons Ratio (x) = 0.60968 -0.00062
# Poissons Ratio (y) = 0.38719 0.15638
# Poissons Ratio (z) = -0.00072 0.28251
#
# Static dielectric constant tensor:
#      x y z
#    x 3.231700 0.000000 0.414180 
#    y 0.000000 4.059900 0.000000 
#    z 0.414180 0.000000 3.764690 
# 
# 
# High freq. dielectric constant tensor:
#      x y z
#    x 1.708210 0.000000 0.031650 
#    y 0.000000 1.738810 0.000000 
#    z 0.031650 0.000000 1.739320 
# 
# From -- ./inp_files/15509.got.cif
#   From: 2010.06.25/outbox.cif.g09.slc.cpg/sg13_8_cif.got.tgz:15509.got - 2010.06.28 04:50:58.
