data_PCOD8117619
_publ_section_title
;
Structure prediction by ZEFSAII (Michael W. Deem and Ramdas Pophale) SiO2 
 PCOD8117619
Probable space group: P 2/C
;
_chemical_formula_sum "Si O2"
_cell_formula_units_Z 20
_cell_length_a 9.904007
_cell_length_b 19.479525
_cell_length_c 5.292522
_cell_angle_alpha 90.000000
_cell_angle_beta 94.023926
_cell_angle_gamma 90.000000
_cell_volume 1018.544583
_symmetry_space_group_name_H-M "P 2/C"
_symmetry_group_IT_number 13
_symmetry_cell_setting 'monoclinic'
loop_
_space_group_symop_operation_xyz
x,y,z
-x,y,1/2-z
-x,-y,-z
x,-y,1/2+z
loop_
_atom_site_type_symbol
_atom_site_label
_atom_site_fract_x
_atom_site_fract_y
_atom_site_fract_z
Si Si1 0.114226 0.327616 0.090392
Si Si2 0.000000 0.792794 0.250000
Si Si3 0.290086 0.162223 0.759596
Si Si4 0.648222 0.243453 0.226352
Si Si5 0.500000 0.954950 0.250000
Si Si6 0.149983 0.472111 0.964835
O O1 0.247984 0.306618 0.261461
O O2 0.151273 0.389750 0.904879
O O3 0.000000 0.361491 0.250000
O O4 0.051072 0.257908 0.973803
O O5 0.873188 0.841409 0.310345
O O6 0.351686 0.210047 0.550347
O O7 0.361490 0.088929 0.738006
O O8 0.319382 0.189584 0.045017
O O9 0.500000 0.274396 0.250000
O O10 0.500000 0.000000 0.500000
O O11 0.225255 0.490215 0.240231
O O12 0.000000 0.500000 0.000000
#
# Coordination Sequence:
#
# PCOD8117619 Si02
#       6
#     4   2   4   4   2   4
#     4  11  20  32  56  86 113 145 197 238 294 343
#     4  10  22  36  58  92 120 144 182 254 304 328
#     4  11  22  39  62  87 119 149 187 236 287 333
#     4  11  21  37  58  86 119 148 187 241 293 337
#     4  12  24  42  64  88 114 160 200 218 260 350
#     4  10  19  30  48  73 110 147 189 235 278 334
#
# _framework density 19.635860999999998
#
# number of rings (size 3 to 8) (size 9 to 14) (size 15 to 20)
#    0.000    1.200    6.000    2.400    0.000    0.000 
#    0.000    1.000    0.000    1.200    0.000    0.000 
#    0.000    0.000    0.000    0.000    0.000    0.000 
#
# Total GULP energy -247787.326373 kJ/mol
# GULP energy per Si atom -12389.366319 kJ/mol
# Density = 1.959117 g / cm^3
# Si number density = 19.635861 Si / 1000 Ang^3
#
#
#
# Elastic Constant Matrix: (Units=GPa)
#
#
# Indices 1 2 3 4 5 6 
#
# 1 125.4907 48.6495 15.4352 0.0000 3.5873 0.0000
# 2 48.6495 112.1288 29.3907 0.0000 5.7854 0.0000
# 3 15.4352 29.3907 108.5590 0.0000 -8.6499 0.0000
# 4 0.0000 0.0000 0.0000 21.3363 0.0000 -3.3071
# 5 3.5873 5.7854 -8.6499 0.0000 24.6827 0.0000
# 6 0.0000 0.0000 0.0000 -3.3071 0.0000 2.5226
#
#
#
# Elastic Compliance Matrix: (Units=1/GPa)
#
#
# Indices 1 2 3 4 5 6 
#
# 1 0.009594 -0.004052 -0.000311 0.000000 -0.000554 0.000000
# 2 -0.004052 0.011572 -0.002804 0.000000 -0.003106 0.000000
# 3 -0.000311 -0.002804 0.010360 0.000000 0.004333 0.000000
# 4 0.000000 0.000000 0.000000 0.058821 0.000000 0.077115
# 5 -0.000554 -0.003106 0.004333 0.000000 0.042841 0.000000
# 6 0.000000 0.000000 0.000000 0.077115 0.000000 0.497521
#
#
# Mechanical properties :
#
#
# Convention : Reuss Voigt Hill
#
# Bulk Modulus (GPa) = 58.17133 59.23658 58.70396
# Shear Modulus (GPa) = 7.68314 26.55519 17.11916
#
# Velocity S-wave (km/s) = 1.98023 3.68146 2.95588
# Velocity P-wave (km/s) = 5.90913 6.95010 6.45065
#
# Compressibility (1/GPa) = 0.01719060
#
# Stress axis : x y z
#
# Youngs Moduli (GPa) = 104.23401 86.41692 96.52262
#
# Poissons Ratio (x) = 0.35019 0.03002
# Poissons Ratio (y) = 0.42240 0.27067
# Poissons Ratio (z) = 0.03242 0.24233
#
# Static dielectric constant tensor:
#      x y z
#    x 3.965030 0.000000 -0.293190 
#    y 0.000000 3.470360 0.000000 
#    z -0.293190 0.000000 4.515950 
# 
# 
# High freq. dielectric constant tensor:
#      x y z
#    x 1.745070 0.000000 -0.002020 
#    y 0.000000 1.744100 0.000000 
#    z -0.002020 0.000000 1.782660 
# 
# From -- ./inp_files/1850.got.cif
#   From: 2010.06.25/outbox.cif.g09.slc.cpg/sg13_1_cif.got.tgz:1850.got - 2010.06.28 04:50:58.
