data_PCOD8117366
_publ_section_title
;
Structure prediction by ZEFSAII (Michael W. Deem and Ramdas Pophale) SiO2 
 PCOD8117366
Probable space group: P 2/C
;
_chemical_formula_sum "Si O2"
_cell_formula_units_Z 20
_cell_length_a 7.990270
_cell_length_b 8.857292
_cell_length_c 12.947910
_cell_angle_alpha 90.000000
_cell_angle_beta 87.056355
_cell_angle_gamma 90.000000
_cell_volume 915.142388
_symmetry_space_group_name_H-M "P 2/C"
_symmetry_group_IT_number 13
_symmetry_cell_setting 'monoclinic'
loop_
_space_group_symop_operation_xyz
x,y,z
-x,y,1/2-z
-x,-y,-z
x,-y,1/2+z
loop_
_atom_site_type_symbol
_atom_site_label
_atom_site_fract_x
_atom_site_fract_y
_atom_site_fract_z
Si Si1 0.000000 0.969776 0.750000
Si Si2 0.304146 0.847213 0.013778
Si Si3 0.977967 0.273530 0.418071
Si Si4 0.000000 0.476072 0.750000
Si Si5 0.658701 0.811464 0.039059
Si Si6 0.746464 0.785348 0.252571
O O1 0.136007 0.080777 0.795662
O O2 0.066937 0.865947 0.655174
O O3 0.316762 0.847761 0.137028
O O4 0.286605 0.014884 0.972072
O O5 0.489085 0.780159 0.977062
O O6 0.148959 0.749680 0.977340
O O7 0.815548 0.291734 0.496945
O O8 0.007211 0.424888 0.353103
O O9 0.835289 0.375040 0.764267
O O10 0.615922 0.769846 0.161331
#
# Coordination Sequence:
#
# PCOD8117366 Si02
#       6
#     2   4   4   2   4   4
#     4  10  18  34  66  86 116 164 206 254 308 340
#     4  11  23  39  67  98 124 162 213 265 314 367
#     4  11  21  43  63  92 124 168 208 261 300 381
#     4  10  26  40  66  92 130 170 212 246 326 372
#     4  11  23  39  67  98 124 162 213 265 314 367
#     4  11  21  40  61  94 128 164 204 264 305 375
#
# _framework density 21.854520999999998
#
# number of rings (size 3 to 8) (size 9 to 14) (size 15 to 20)
#    0.000    1.200    4.000    3.600    0.000    3.200 
#    0.000   10.000    0.000    0.000    0.000    0.000 
#    0.000    0.000    0.000    0.000    0.000    0.000 
#
# Total GULP energy -247831.810764 kJ/mol
# GULP energy per Si atom -12391.590538 kJ/mol
# Density = 2.180478 g / cm^3
# Si number density = 21.854521 Si / 1000 Ang^3
#
#
#
# Elastic Constant Matrix: (Units=GPa)
#
#
# Indices 1 2 3 4 5 6 
#
# 1 114.6219 23.1483 36.8759 0.0000 25.0268 0.0000
# 2 23.1483 78.3517 23.7503 0.0000 5.9611 0.0000
# 3 36.8759 23.7503 123.1801 0.0000 5.4169 0.0000
# 4 0.0000 0.0000 0.0000 26.2045 0.0000 -5.3745
# 5 25.0268 5.9611 5.4169 0.0000 27.1198 0.0000
# 6 0.0000 0.0000 0.0000 -5.3745 0.0000 0.5491
#
#
#
# Elastic Compliance Matrix: (Units=1/GPa)
#
#
# Indices 1 2 3 4 5 6 
#
# 1 0.012299 -0.001984 -0.002844 0.000000 -0.010346 0.000000
# 2 -0.001984 0.014043 -0.002077 0.000000 -0.000841 0.000000
# 3 -0.002844 -0.002077 0.009316 0.000000 0.001220 0.000000
# 4 0.000000 0.000000 0.000000 -0.037880 0.000000 -0.370753
# 5 -0.010346 -0.000841 0.001220 0.000000 0.046362 0.000000
# 6 0.000000 0.000000 0.000000 -0.370753 0.000000 -1.807674
#
#
# Mechanical properties :
#
#
# Convention : Reuss Voigt Hill
#
# Bulk Modulus (GPa) = 45.77163 53.74475 49.75819
# Shear Modulus (GPa) = -2.86954 26.26663 11.69855
#
# Velocity S-wave (km/s) = -1.14711 3.47058 2.31615
# Velocity P-wave (km/s) = 4.38574 6.38008 5.47449
#
# Compressibility (1/GPa) = 0.02184759
#
# Stress axis : x y z
#
# Youngs Moduli (GPa) = 81.30724 71.21171 107.33747
#
# Poissons Ratio (x) = 0.14131 0.30531
# Poissons Ratio (y) = 0.16134 0.22289
# Poissons Ratio (z) = 0.23127 0.14787
#
# Static dielectric constant tensor:
#      x y z
#    x 4.130600 0.000000 0.101390 
#    y 0.000000 3.671560 0.000000 
#    z 0.101390 0.000000 4.021350 
# 
# 
# High freq. dielectric constant tensor:
#      x y z
#    x 1.861100 0.000000 0.006130 
#    y 0.000000 1.837180 0.000000 
#    z 0.006130 0.000000 1.871790 
# 
# From -- ./inp_files/28149.got.cif
#   From: 2010.06.25/outbox.cif.g09.slc.cpg/sg13_15_cif.got.tgz:28149.got - 2010.06.28 04:50:58.
