data_PCOD8117086
_publ_section_title
;
Structure prediction by ZEFSAII (Michael W. Deem and Ramdas Pophale) SiO2 
 PCOD8117086
Probable space group: P 2/C
;
_chemical_formula_sum "Si O2"
_cell_formula_units_Z 32
_cell_length_a 21.346812
_cell_length_b 15.864304
_cell_length_c 5.097472
_cell_angle_alpha 90.000000
_cell_angle_beta 108.721098
_cell_angle_gamma 90.000000
_cell_volume 1634.937430
_symmetry_space_group_name_H-M "P 2/C"
_symmetry_group_IT_number 13
_symmetry_cell_setting 'monoclinic'
loop_
_space_group_symop_operation_xyz
x,y,z
-x,y,1/2-z
-x,-y,-z
x,-y,1/2+z
loop_
_atom_site_type_symbol
_atom_site_label
_atom_site_fract_x
_atom_site_fract_y
_atom_site_fract_z
Si Si1 0.268758 0.271736 0.910626
Si Si2 0.575911 0.055072 0.867183
Si Si3 0.689548 0.821439 0.563826
Si Si4 0.864117 0.459569 0.137408
Si Si5 0.074353 0.285533 0.305472
Si Si6 0.718501 0.466936 0.535028
Si Si7 0.804061 0.054353 0.327178
Si Si8 0.872635 0.208351 0.629216
O O1 0.320780 0.243517 0.207463
O O2 0.274776 0.370690 0.870606
O O3 0.278475 0.222966 0.648610
O O4 0.197561 0.253962 0.940977
O O5 0.500000 0.084323 0.750000
O O6 0.619416 0.138949 0.889069
O O7 0.592755 0.987479 0.666505
O O8 0.735434 0.895219 0.746630
O O9 0.898729 0.484300 0.456637
O O10 0.874013 0.361762 0.079911
O O11 0.786794 0.484707 0.038850
O O12 0.091937 0.211524 0.538449
O O13 0.000000 0.317406 0.250000
O O14 0.081202 0.255155 0.017595
O O15 0.679552 0.519692 0.708334
O O16 0.863942 0.114178 0.503411
O O17 0.807813 0.975512 0.530415
#
# Coordination Sequence:
#
# PCOD8117086 Si02
#       8
#     4   4   4   4   4   4   4   4
#     4  11  21  34  55  81 111 148 183 227 280 327
#     4  10  20  35  56  83 122 167 198 223 263 318
#     4  11  21  34  54  85 119 147 186 227 265 320
#     4  10  20  33  52  75 102 134 168 208 256 319
#     4  12  24  39  58  78 104 139 179 219 271 345
#     4  10  18  31  50  73 105 141 175 215 271 330
#     4  11  21  35  57  82 105 133 171 222 273 319
#     4  11  22  39  57  77 105 137 175 223 281 335
#
# _framework density 19.572613
#
# number of rings (size 3 to 8) (size 9 to 14) (size 15 to 20)
#    0.000    1.250    0.000   10.125    0.000    0.500 
#    0.000    0.000    0.000    7.500    0.000    0.000 
#    0.000   10.000    0.000    0.000    0.000    0.000 
#
# Total GULP energy -396601.625946 kJ/mol
# GULP energy per Si atom -12393.800811 kJ/mol
# Density = 1.952806 g / cm^3
# Si number density = 19.572613 Si / 1000 Ang^3
#
#
#
# Elastic Constant Matrix: (Units=GPa)
#
#
# Indices 1 2 3 4 5 6 
#
# 1 51.1043 25.9406 26.6379 0.0000 -7.8760 0.0000
# 2 25.9406 89.0319 25.3271 0.0000 -2.5587 0.0000
# 3 26.6379 25.3271 114.0621 0.0000 -27.0859 0.0000
# 4 0.0000 0.0000 0.0000 34.6592 0.0000 -5.7517
# 5 -7.8760 -2.5587 -27.0859 0.0000 30.6718 0.0000
# 6 0.0000 0.0000 0.0000 -5.7517 0.0000 22.6976
#
#
#
# Elastic Compliance Matrix: (Units=1/GPa)
#
#
# Indices 1 2 3 4 5 6 
#
# 1 0.025100 -0.006129 -0.003912 0.000000 0.002479 0.000000
# 2 -0.006129 0.013557 -0.002131 0.000000 -0.002325 0.000000
# 3 -0.003912 -0.002131 0.012493 0.000000 0.009850 0.000000
# 4 0.000000 0.000000 0.000000 0.030119 0.000000 0.007632
# 5 0.002479 -0.002325 0.009850 0.000000 0.041744 0.000000
# 6 0.000000 0.000000 0.000000 0.007632 0.000000 0.045992
#
#
# Mechanical properties :
#
#
# Convention : Reuss Voigt Hill
#
# Bulk Modulus (GPa) = 37.30528 45.55661 41.43094
# Shear Modulus (GPa) = 24.71755 29.35857 27.03806
#
# Velocity S-wave (km/s) = 3.55754 3.87716 3.72078
# Velocity P-wave (km/s) = 5.99800 6.58554 6.29863
#
# Compressibility (1/GPa) = 0.02680586
#
# Stress axis : x y z
#
# Youngs Moduli (GPa) = 39.84013 73.76199 80.04450
#
# Poissons Ratio (x) = 0.45210 0.31315
# Poissons Ratio (y) = 0.24419 0.17057
# Poissons Ratio (z) = 0.15586 0.15718
#
# Static dielectric constant tensor:
#      x y z
#    x 3.257740 0.000000 -0.336970 
#    y 0.000000 3.617510 0.000000 
#    z -0.336970 0.000000 4.379690 
# 
# 
# High freq. dielectric constant tensor:
#      x y z
#    x 1.710420 0.000000 -0.032640 
#    y 0.000000 1.758430 0.000000 
#    z -0.032640 0.000000 1.791710 
# 
# From -- ./inp_files/7045.got.cif
#   From: 2010.06.25/outbox.cif.g09.slc.cpg/sg13_4_cif.got.tgz:7045.got - 2010.06.28 04:50:58.
