data_PCOD8117187
_publ_section_title
;
Structure prediction by ZEFSAII (Michael W. Deem and Ramdas Pophale) SiO2 
 PCOD8117187
Probable space group: P 2/C
;
_chemical_formula_sum "Si O2"
_cell_formula_units_Z 20
_cell_length_a 18.114940
_cell_length_b 7.041371
_cell_length_c 8.665684
_cell_angle_alpha 90.000000
_cell_angle_beta 52.043511
_cell_angle_gamma 90.000000
_cell_volume 871.538530
_symmetry_space_group_name_H-M "P 2/C"
_symmetry_group_IT_number 13
_symmetry_cell_setting 'monoclinic'
loop_
_space_group_symop_operation_xyz
x,y,z
-x,y,1/2-z
-x,-y,-z
x,-y,1/2+z
loop_
_atom_site_type_symbol
_atom_site_label
_atom_site_fract_x
_atom_site_fract_y
_atom_site_fract_z
Si Si1 0.407831 0.837942 0.289002
Si Si2 0.070577 0.568307 0.784517
Si Si3 0.776704 0.147453 0.307771
Si Si4 0.220739 0.751271 0.043818
Si Si5 0.592451 0.748870 0.572897
O O1 0.500000 0.744370 0.250000
O O2 0.311865 0.761486 0.488150
O O3 0.408862 0.062240 0.319504
O O4 0.408845 0.794582 0.106119
O O5 0.131283 0.740761 0.765353
O O6 0.134425 0.392737 0.645310
O O7 0.000000 0.651386 0.750000
O O8 0.000000 0.500000 0.000000
O O9 0.797686 0.926989 0.317019
O O10 0.756819 0.163955 0.152282
O O11 0.312191 0.641068 0.997761
O O12 0.500000 0.632597 0.750000
#
# Coordination Sequence:
#
# PCOD8117187 Si02
#       5
#     4   4   4   4   4
#     4  10  18  32  58  91 130 168 207 256 311 376
#     4  12  28  48  67  93 128 168 216 274 327 377
#     4  11  24  42  68  97 131 168 215 263 319 386
#     4  11  24  42  68  98 129 170 214 263 320 383
#     4  10  18  32  58  91 130 167 209 255 310 378
#
# _framework density 22.947921999999998
#
# number of rings (size 3 to 8) (size 9 to 14) (size 15 to 20)
#    0.000    1.200    2.000    8.400    5.600    1.600 
#    0.000    1.000    0.000    4.800    0.000    0.000 
#    0.000    0.000    0.000    0.000    0.000    0.000 
#
# Total GULP energy -247864.001688 kJ/mol
# GULP energy per Si atom -12393.200084 kJ/mol
# Density = 2.289569 g / cm^3
# Si number density = 22.947922 Si / 1000 Ang^3
#
#
#
# Elastic Constant Matrix: (Units=GPa)
#
#
# Indices 1 2 3 4 5 6 
#
# 1 182.2869 19.1363 40.5629 0.0000 -10.4917 0.0000
# 2 19.1363 45.0414 1.4272 0.0000 -9.9137 0.0000
# 3 40.5629 1.4272 103.5139 0.0000 -7.7441 0.0000
# 4 0.0000 0.0000 0.0000 27.5120 0.0000 -40.3394
# 5 -10.4917 -9.9137 -7.7441 0.0000 59.1051 0.0000
# 6 0.0000 0.0000 0.0000 -40.3394 0.0000 158.9077
#
#
#
# Elastic Compliance Matrix: (Units=1/GPa)
#
#
# Indices 1 2 3 4 5 6 
#
# 1 0.006308 -0.002520 -0.002409 0.000000 0.000382 0.000000
# 2 -0.002520 0.024059 0.000933 0.000000 0.003710 0.000000
# 3 -0.002409 0.000933 0.010676 0.000000 0.001128 0.000000
# 4 0.000000 0.000000 0.000000 0.057898 0.000000 0.014698
# 5 0.000382 0.003710 0.001128 0.000000 0.017757 0.000000
# 6 0.000000 0.000000 0.000000 0.014698 0.000000 0.010024
#
#
# Mechanical properties :
#
#
# Convention : Reuss Voigt Hill
#
# Bulk Modulus (GPa) = 30.25424 50.34387 40.29906
# Shear Modulus (GPa) = 34.30972 67.08600 50.69786
#
# Velocity S-wave (km/s) = 3.87086 5.41272 4.70537
# Velocity P-wave (km/s) = 5.76113 7.81340 6.86440
#
# Compressibility (1/GPa) = 0.03305321
#
# Stress axis : x y z
#
# Youngs Moduli (GPa) = 158.52036 41.56366 93.66881
#
# Poissons Ratio (x) = 0.10473 0.22562
# Poissons Ratio (y) = 0.39945 -0.08742
# Poissons Ratio (z) = 0.38183 -0.03879
#
# Static dielectric constant tensor:
#      x y z
#    x 4.593130 0.000000 -0.369120 
#    y 0.000000 3.484950 0.000000 
#    z -0.369120 0.000000 4.482530 
# 
# 
# High freq. dielectric constant tensor:
#      x y z
#    x 1.937920 0.000000 -0.005600 
#    y 0.000000 1.873530 0.000000 
#    z -0.005600 0.000000 1.920240 
# 
# From -- ./inp_files/21050.got.cif
#   From: 2010.06.25/outbox.cif.g09.slc.cpg/sg13_11_cif.got.tgz:21050.got - 2010.06.28 04:50:58.
