data_PCOD8117000
_publ_section_title
;
Structure prediction by ZEFSAII (Michael W. Deem and Ramdas Pophale) SiO2 
 PCOD8117000
Probable space group: P 2/C
;
_chemical_formula_sum "Si O2"
_cell_formula_units_Z 28
_cell_length_a 12.704535
_cell_length_b 12.746939
_cell_length_c 9.747845
_cell_angle_alpha 90.000000
_cell_angle_beta 67.621571
_cell_angle_gamma 90.000000
_cell_volume 1459.718769
_symmetry_space_group_name_H-M "P 2/C"
_symmetry_group_IT_number 13
_symmetry_cell_setting 'monoclinic'
loop_
_space_group_symop_operation_xyz
x,y,z
-x,y,1/2-z
-x,-y,-z
x,-y,1/2+z
loop_
_atom_site_type_symbol
_atom_site_label
_atom_site_fract_x
_atom_site_fract_y
_atom_site_fract_z
Si Si1 0.267980 0.122222 0.142890
Si Si2 0.091957 0.702793 0.815336
Si Si3 0.389447 0.571719 0.045714
Si Si4 0.998518 0.843517 0.405433
Si Si5 0.710400 0.439466 0.193290
Si Si6 0.816463 0.987135 0.075419
Si Si7 0.539137 0.260767 0.372934
O O1 0.167237 0.207344 0.205227
O O2 0.391546 0.176537 0.073882
O O3 0.263315 0.046415 0.276743
O O4 0.261173 0.057484 0.007035
O O5 0.164546 0.603771 0.832550
O O6 0.000000 0.663027 0.750000
O O7 0.028828 0.748586 0.979448
O O8 0.311849 0.550837 0.218479
O O9 0.500000 0.500000 0.000000
O O10 0.308427 0.541001 0.958050
O O11 0.431462 0.693243 0.013157
O O12 0.000000 0.799335 0.250000
O O13 0.121277 0.891086 0.380337
O O14 0.906268 0.935565 0.460545
O O15 0.618197 0.357636 0.292566
O O16 0.500000 0.206874 0.250000
#
# Coordination Sequence:
#
# PCOD8117000 Si02
#       7
#     4   4   4   4   4   4   4
#     4  10  18  30  49  74 105 144 186 220 263 312
#     4  10  19  32  50  75 110 146 177 216 266 321
#     4   9  16  33  59  80  99 129 177 224 273 335
#     4  10  18  29  47  71 107 145 184 219 256 301
#     4   9  18  32  56  82 102 132 175 219 276 328
#     4  10  18  27  47  74 102 140 188 224 251 311
#     4   8  16  31  53  75 101 136 175 219 274 326
#
# _framework density 19.181775999999999
#
# number of rings (size 3 to 8) (size 9 to 14) (size 15 to 20)
#    0.000    2.571    2.857    1.286    0.000    0.000 
#    0.000    2.857    3.143    3.429    0.000    0.000 
#    0.000    0.000    0.000    0.000    0.000    0.000 
#
# Total GULP energy -347085.298094 kJ/mol
# GULP energy per Si atom -12395.903503 kJ/mol
# Density = 1.913812 g / cm^3
# Si number density = 19.181776 Si / 1000 Ang^3
#
#
#
# Elastic Constant Matrix: (Units=GPa)
#
#
# Indices 1 2 3 4 5 6 
#
# 1 117.4447 45.8419 53.6182 0.0000 29.0175 0.0000
# 2 45.8419 50.7417 34.8421 0.0000 4.8560 0.0000
# 3 53.6182 34.8421 93.3752 0.0000 22.1334 0.0000
# 4 0.0000 0.0000 0.0000 24.5582 0.0000 -0.2572
# 5 29.0175 4.8560 22.1334 0.0000 29.6194 0.0000
# 6 0.0000 0.0000 0.0000 -0.2572 0.0000 32.8323
#
#
#
# Elastic Compliance Matrix: (Units=1/GPa)
#
#
# Indices 1 2 3 4 5 6 
#
# 1 0.018336 -0.013832 -0.002002 0.000000 -0.014200 0.000000
# 2 -0.013832 0.037269 -0.009391 0.000000 0.014458 0.000000
# 3 -0.002002 -0.009391 0.017662 0.000000 -0.009697 0.000000
# 4 0.000000 0.000000 0.000000 0.040723 0.000000 0.000319
# 5 -0.014200 0.014458 -0.009697 0.000000 0.052549 0.000000
# 6 0.000000 0.000000 0.000000 0.000319 0.000000 0.030460
#
#
# Mechanical properties :
#
#
# Convention : Reuss Voigt Hill
#
# Bulk Modulus (GPa) = 43.82716 58.90735 51.36725
# Shear Modulus (GPa) = 19.60377 25.88594 22.74485
#
# Velocity S-wave (km/s) = 3.20034 3.67755 3.44721
# Velocity P-wave (km/s) = 6.04600 6.98636 6.53312
#
# Compressibility (1/GPa) = 0.02281690
#
# Stress axis : x y z
#
# Youngs Moduli (GPa) = 54.53785 26.83225 56.61973
#
# Poissons Ratio (x) = 0.37114 0.11334
# Poissons Ratio (y) = 0.75436 0.53171
# Poissons Ratio (z) = 0.10917 0.25198
#
# Static dielectric constant tensor:
#      x y z
#    x 3.627870 0.000000 0.126600 
#    y 0.000000 3.343800 0.000000 
#    z 0.126600 0.000000 3.487460 
# 
# 
# High freq. dielectric constant tensor:
#      x y z
#    x 1.742950 0.000000 0.023430 
#    y 0.000000 1.713060 0.000000 
#    z 0.023430 0.000000 1.731920 
# 
# From -- ./inp_files/16451.got.cif
#   From: 2010.06.25/outbox.cif.g09.slc.cpg/sg13_9_cif.got.tgz:16451.got - 2010.06.28 04:50:58.
