data_PCOD8117376
_publ_section_title
;
Structure prediction by ZEFSAII (Michael W. Deem and Ramdas Pophale) SiO2 
 PCOD8117376
Probable space group: P 2/C
;
_chemical_formula_sum "Si O2"
_cell_formula_units_Z 26
_cell_length_a 20.580520
_cell_length_b 5.055255
_cell_length_c 19.336732
_cell_angle_alpha 90.000000
_cell_angle_beta 38.804674
_cell_angle_gamma 90.000000
_cell_volume 1260.722726
_symmetry_space_group_name_H-M "P 2/C"
_symmetry_group_IT_number 13
_symmetry_cell_setting 'monoclinic'
loop_
_space_group_symop_operation_xyz
x,y,z
-x,y,1/2-z
-x,-y,-z
x,-y,1/2+z
loop_
_atom_site_type_symbol
_atom_site_label
_atom_site_fract_x
_atom_site_fract_y
_atom_site_fract_z
Si Si1 0.408325 0.727047 0.142141
Si Si2 0.125086 0.705368 0.927459
Si Si3 0.619608 0.727588 0.025348
Si Si4 0.716225 0.225905 0.891401
Si Si5 0.500000 0.498068 0.750000
Si Si6 0.652025 0.768006 0.726185
Si Si7 0.901017 0.792972 0.142415
O O1 0.533667 0.725608 0.035074
O O2 0.361506 0.810039 0.108238
O O3 0.369091 0.433913 0.193467
O O4 0.374699 0.934967 0.229180
O O5 0.224898 0.756661 0.893062
O O6 0.136756 0.415567 0.884009
O O7 0.117105 0.913910 0.871546
O O8 0.021602 0.733724 0.060127
O O9 0.560382 0.692236 0.147032
O O10 0.700463 0.494243 0.945828
O O11 0.687584 0.993486 0.968813
O O12 0.835078 0.223644 0.767518
O O13 0.582827 0.688876 0.718182
#
# Coordination Sequence:
#
# PCOD8117376 Si02
#       7
#     4   4   4   4   2   4   4
#     4  11  21  35  55  86 113 148 182 230 289 354
#     4  10  18  35  55  86 114 152 168 236 271 348
#     4  11  24  36  55  76 116 152 192 230 279 323
#     4  12  20  36  56  86 115 145 176 244 287 346
#     4  10  26  42  54  82 106 162 204 228 262 348
#     4  11  20  37  60  79 118 149 193 230 273 325
#     4  10  20  32  57  86 119 137 186 213 302 341
#
# _framework density 20.623090999999999
#
# number of rings (size 3 to 8) (size 9 to 14) (size 15 to 20)
#    0.000    1.231    3.077    4.615    0.000    5.538 
#    0.000    0.000    0.000    0.923    0.000    4.308 
#    0.000    0.000    0.000    0.000    0.000    0.000 
#
# Total GULP energy -322420.212023 kJ/mol
# GULP energy per Si atom -12400.777385 kJ/mol
# Density = 2.057615 g / cm^3
# Si number density = 20.623091 Si / 1000 Ang^3
#
#
#
# Elastic Constant Matrix: (Units=GPa)
#
#
# Indices 1 2 3 4 5 6 
#
# 1 63.9919 6.8461 30.2907 0.0000 -10.5025 0.0000
# 2 6.8461 83.3883 21.9343 0.0000 -4.1370 0.0000
# 3 30.2907 21.9343 137.0662 0.0000 -21.5891 0.0000
# 4 0.0000 0.0000 0.0000 33.4551 0.0000 -2.0705
# 5 -10.5025 -4.1370 -21.5891 0.0000 35.5134 0.0000
# 6 0.0000 0.0000 0.0000 -2.0705 0.0000 12.4875
#
#
#
# Elastic Compliance Matrix: (Units=1/GPa)
#
#
# Indices 1 2 3 4 5 6 
#
# 1 0.017784 -0.000418 -0.003365 0.000000 0.003165 0.000000
# 2 -0.000418 0.012531 -0.001883 0.000000 0.000192 0.000000
# 3 -0.003365 -0.001883 0.009012 0.000000 0.004264 0.000000
# 4 0.000000 0.000000 0.000000 0.030201 0.000000 0.005008
# 5 0.003165 0.000192 0.004264 0.000000 0.031709 0.000000
# 6 0.000000 0.000000 0.000000 0.005008 0.000000 0.080910
#
#
# Mechanical properties :
#
#
# Convention : Reuss Voigt Hill
#
# Bulk Modulus (GPa) = 35.71886 44.73206 40.22546
# Shear Modulus (GPa) = 24.65356 31.31623 27.98490
#
# Velocity S-wave (km/s) = 3.46126 3.90103 3.68770
# Velocity P-wave (km/s) = 5.77332 6.48290 6.13837
#
# Compressibility (1/GPa) = 0.02799641
#
# Stress axis : x y z
#
# Youngs Moduli (GPa) = 56.23088 79.80110 110.95975
#
# Poissons Ratio (x) = 0.03335 0.37334
# Poissons Ratio (y) = 0.02350 0.20891
# Poissons Ratio (z) = 0.18920 0.15025
#
# Static dielectric constant tensor:
#      x y z
#    x 3.442920 0.000000 -0.372990 
#    y 0.000000 3.879840 0.000000 
#    z -0.372990 0.000000 3.878860 
# 
# 
# High freq. dielectric constant tensor:
#      x y z
#    x 1.758760 0.000000 -0.026900 
#    y 0.000000 1.831500 0.000000 
#    z -0.026900 0.000000 1.805160 
# 
# From -- ./inp_files/70249.got.cif
#   From: 2010.06.25/outbox.cif.g09.slc.cpg/sg13_36_cif.got.tgz:70249.got - 2010.06.28 04:50:58.
