data_PCOD8117561
_publ_section_title
;
Structure prediction by ZEFSAII (Michael W. Deem and Ramdas Pophale) SiO2 
 PCOD8117561
Probable space group: P 2/C
;
_chemical_formula_sum "Si O2"
_cell_formula_units_Z 26
_cell_length_a 8.861230
_cell_length_b 15.771583
_cell_length_c 16.707579
_cell_angle_alpha 90.000000
_cell_angle_beta 31.447132
_cell_angle_gamma 90.000000
_cell_volume 1218.185164
_symmetry_space_group_name_H-M "P 2/C"
_symmetry_group_IT_number 13
_symmetry_cell_setting 'monoclinic'
loop_
_space_group_symop_operation_xyz
x,y,z
-x,y,1/2-z
-x,-y,-z
x,-y,1/2+z
loop_
_atom_site_type_symbol
_atom_site_label
_atom_site_fract_x
_atom_site_fract_y
_atom_site_fract_z
Si Si1 0.822108 0.512942 0.447715
Si Si2 0.800993 0.949162 0.151610
Si Si3 0.312142 0.942396 0.642992
Si Si4 0.376817 0.603169 0.225393
Si Si5 0.607844 0.332231 0.951636
Si Si6 0.000000 0.373889 0.250000
Si Si7 0.154405 0.834864 0.101142
O O1 0.572576 0.480013 0.619071
O O2 0.689378 0.571496 0.437083
O O3 0.054647 0.569352 0.390400
O O4 0.976206 0.431728 0.339328
O O5 0.500000 0.917227 0.250000
O O6 0.968307 0.865571 0.108901
O O7 0.727568 0.014512 0.254153
O O8 0.000000 0.000000 0.000000
O O9 0.510732 0.859537 0.562203
O O10 0.000000 0.916820 0.750000
O O11 0.500000 0.000000 0.500000
O O12 0.500000 0.648103 0.250000
O O13 0.377218 0.671129 0.152251
O O14 0.831201 0.266718 0.892164
O O15 0.281524 0.313655 0.128862
O O16 0.000000 0.876665 0.250000
#
# Coordination Sequence:
#
# PCOD8117561 Si02
#       7
#     4   4   4   4   4   2   4
#     4  11  18  39  64  90 125 177 229 270 322 405
#     4  12  23  42  73 105 135 173 222 277 338 412
#     4  12  21  42  70  99 130 179 231 264 317 422
#     4  11  21  35  63  94 126 170 225 282 332 389
#     4  11  23  40  66  93 136 172 230 278 340 397
#     4  10  18  38  66  98 114 182 242 262 308 408
#     4  12  25  42  67 101 135 179 222 280 342 404
#
# _framework density 21.343225
#
# number of rings (size 3 to 8) (size 9 to 14) (size 15 to 20)
#    0.000    0.615    7.692    2.308    1.077    0.000 
#    0.000    3.077    3.385    3.692    0.000    0.000 
#    0.000    0.000    0.000    0.000    0.000    0.000 
#
# Total GULP energy -322291.707742 kJ/mol
# GULP energy per Si atom -12395.834913 kJ/mol
# Density = 2.129465 g / cm^3
# Si number density = 21.343225 Si / 1000 Ang^3
#
#
#
# Elastic Constant Matrix: (Units=GPa)
#
#
# Indices 1 2 3 4 5 6 
#
# 1 136.4296 47.5475 50.7957 0.0000 -13.6097 0.0000
# 2 47.5475 83.6104 32.5550 0.0000 -1.4758 0.0000
# 3 50.7957 32.5550 136.3770 0.0000 -19.7018 0.0000
# 4 0.0000 0.0000 0.0000 25.0495 0.0000 -8.3123
# 5 -13.6097 -1.4758 -19.7018 0.0000 48.9515 0.0000
# 6 0.0000 0.0000 0.0000 -8.3123 0.0000 30.6281
#
#
#
# Elastic Compliance Matrix: (Units=1/GPa)
#
#
# Indices 1 2 3 4 5 6 
#
# 1 0.010035 -0.004759 -0.002356 0.000000 0.001698 0.000000
# 2 -0.004759 0.015482 -0.002173 0.000000 -0.001731 0.000000
# 3 -0.002356 -0.002173 0.009157 0.000000 0.002965 0.000000
# 4 0.000000 0.000000 0.000000 0.043872 0.000000 0.011907
# 5 0.001698 -0.001731 0.002965 0.000000 0.022042 0.000000
# 6 0.000000 0.000000 0.000000 0.011907 0.000000 0.035881
#
#
# Mechanical properties :
#
#
# Convention : Reuss Voigt Hill
#
# Bulk Modulus (GPa) = 62.12280 68.69038 65.40659
# Shear Modulus (GPa) = 31.16949 35.96041 33.56495
#
# Velocity S-wave (km/s) = 3.82565 4.10916 3.96994
# Velocity P-wave (km/s) = 6.97739 7.40048 7.19205
#
# Compressibility (1/GPa) = 0.01609715
#
# Stress axis : x y z
#
# Youngs Moduli (GPa) = 99.64914 64.58932 109.20155
#
# Poissons Ratio (x) = 0.30741 0.25731
# Poissons Ratio (y) = 0.47427 0.23732
# Poissons Ratio (z) = 0.23480 0.14037
#
# Static dielectric constant tensor:
#      x y z
#    x 3.897020 0.000000 -0.300630 
#    y 0.000000 3.499690 0.000000 
#    z -0.300630 0.000000 4.607730 
# 
# 
# High freq. dielectric constant tensor:
#      x y z
#    x 1.827920 0.000000 -0.019700 
#    y 0.000000 1.803510 0.000000 
#    z -0.019700 0.000000 1.863210 
# 
# From -- ./inp_files/64751.got.cif
#   From: 2010.06.25/outbox.cif.g09.slc.cpg/sg13_33_cif.got.tgz:64751.got - 2010.06.28 04:50:58.
