data_PCOD8117240
_publ_section_title
;
Structure prediction by ZEFSAII (Michael W. Deem and Ramdas Pophale) SiO2 
 PCOD8117240
Probable space group: P 2/C
;
_chemical_formula_sum "Si O2"
_cell_formula_units_Z 20
_cell_length_a 16.039089
_cell_length_b 5.088430
_cell_length_c 22.473587
_cell_angle_alpha 90.000000
_cell_angle_beta 30.494506
_cell_angle_gamma 90.000000
_cell_volume 930.752190
_symmetry_space_group_name_H-M "P 2/C"
_symmetry_group_IT_number 13
_symmetry_cell_setting 'monoclinic'
loop_
_space_group_symop_operation_xyz
x,y,z
-x,y,1/2-z
-x,-y,-z
x,-y,1/2+z
loop_
_atom_site_type_symbol
_atom_site_label
_atom_site_fract_x
_atom_site_fract_y
_atom_site_fract_z
Si Si1 0.686232 0.589188 0.885686
Si Si2 0.813024 0.791719 0.504041
Si Si3 0.186844 0.091029 0.629582
Si Si4 0.190475 0.703189 0.426901
Si Si5 0.871062 0.532688 0.157989
O O1 0.699387 0.873097 0.908860
O O2 0.749322 0.606003 0.779184
O O3 0.796624 0.376173 0.851487
O O4 0.500000 0.500000 0.000000
O O5 0.729943 0.520761 0.578673
O O6 0.012590 0.754108 0.382063
O O7 0.756519 0.877539 0.473444
O O8 0.750075 0.013929 0.588272
O O9 0.000000 0.992364 0.750000
O O10 0.237055 0.659837 0.328980
O O11 0.990327 0.689950 0.555929
#
# Coordination Sequence:
#
# PCOD8117240 Si02
#       5
#     4   4   4   4   4
#     4  12  26  40  58  90 129 163 192 245 319 374
#     4  10  18  33  56  90 109 140 202 253 290 327
#     4  12  22  40  64  87 119 160 210 253 289 357
#     4   9  18  31  57  91 110 144 195 264 282 334
#     4   9  20  33  58  84 120 146 199 243 297 350
#
# _framework density 21.487997
#
# number of rings (size 3 to 8) (size 9 to 14) (size 15 to 20)
#    1.200    0.400    2.000    4.200    0.000    0.000 
#    0.000    0.000    0.000    7.200    0.000    0.000 
#    0.000    0.000    0.000    0.000    0.000    0.000 
#
# Total GULP energy -247902.012048 kJ/mol
# GULP energy per Si atom -12395.100602 kJ/mol
# Density = 2.143909 g / cm^3
# Si number density = 21.487997 Si / 1000 Ang^3
#
#
#
# Elastic Constant Matrix: (Units=GPa)
#
#
# Indices 1 2 3 4 5 6 
#
# 1 78.6566 12.5243 38.7014 0.0000 30.7758 0.0000
# 2 12.5243 97.1725 5.9861 0.0000 10.2160 0.0000
# 3 38.7014 5.9861 50.1449 0.0000 19.3563 0.0000
# 4 0.0000 0.0000 0.0000 16.0574 0.0000 5.4691
# 5 30.7758 10.2160 19.3563 0.0000 38.6776 0.0000
# 6 0.0000 0.0000 0.0000 5.4691 0.0000 41.9896
#
#
#
# Elastic Compliance Matrix: (Units=1/GPa)
#
#
# Indices 1 2 3 4 5 6 
#
# 1 0.024637 -0.001015 -0.014166 0.000000 -0.012246 0.000000
# 2 -0.001015 0.010629 0.000355 0.000000 -0.002177 0.000000
# 3 -0.014166 0.000355 0.032868 0.000000 -0.005270 0.000000
# 4 0.000000 0.000000 0.000000 0.065168 0.000000 -0.008488
# 5 -0.012246 -0.002177 -0.005270 0.000000 0.038811 0.000000
# 6 0.000000 0.000000 0.000000 -0.008488 0.000000 0.024921
#
#
# Mechanical properties :
#
#
# Convention : Reuss Voigt Hill
#
# Bulk Modulus (GPa) = 25.98714 37.82195 31.90455
# Shear Modulus (GPa) = 20.87570 30.59573 25.73572
#
# Velocity S-wave (km/s) = 3.12028 3.77749 3.46450
# Velocity P-wave (km/s) = 5.01015 6.05521 5.55730
#
# Compressibility (1/GPa) = 0.03848057
#
# Stress axis : x y z
#
# Youngs Moduli (GPa) = 40.58970 94.08348 30.42508
#
# Poissons Ratio (x) = 0.09552 0.43101
# Poissons Ratio (y) = 0.04121 -0.01081
# Poissons Ratio (z) = 0.57501 -0.03342
#
# Static dielectric constant tensor:
#      x y z
#    x 3.788570 0.000000 0.322760 
#    y 0.000000 3.792290 0.000000 
#    z 0.322760 0.000000 3.390800 
# 
# 
# High freq. dielectric constant tensor:
#      x y z
#    x 1.834520 0.000000 0.038920 
#    y 0.000000 1.845360 0.000000 
#    z 0.038920 0.000000 1.802380 
# 
# From -- ./inp_files/78957.got.cif
#   From: 2010.06.25/outbox.cif.g09.slc.cpg/sg13_40_cif.got.tgz:78957.got - 2010.06.28 04:50:58.
