data_PCOD8117651
_publ_section_title
;
Structure prediction by ZEFSAII (Michael W. Deem and Ramdas Pophale) SiO2 
 PCOD8117651
Probable space group: P 2/C
;
_chemical_formula_sum "Si O2"
_cell_formula_units_Z 28
_cell_length_a 12.168030
_cell_length_b 26.620182
_cell_length_c 5.134715
_cell_angle_alpha 90.000000
_cell_angle_beta 66.675325
_cell_angle_gamma 90.000000
_cell_volume 1527.287671
_symmetry_space_group_name_H-M "P 2/C"
_symmetry_group_IT_number 13
_symmetry_cell_setting 'monoclinic'
loop_
_space_group_symop_operation_xyz
x,y,z
-x,y,1/2-z
-x,-y,-z
x,-y,1/2+z
loop_
_atom_site_type_symbol
_atom_site_label
_atom_site_fract_x
_atom_site_fract_y
_atom_site_fract_z
Si Si1 0.500000 0.579696 0.750000
Si Si2 0.753977 0.531676 0.548543
Si Si3 0.756130 0.687950 0.956277
Si Si4 0.858266 0.857863 0.379103
Si Si5 0.860883 0.361740 0.857976
Si Si6 0.858002 0.797108 0.880028
Si Si7 0.142816 0.029522 0.612620
Si Si8 0.500000 0.648477 0.250000
O O1 0.614015 0.544367 0.676547
O O2 0.520240 0.613725 0.479989
O O3 0.786701 0.492122 0.294635
O O4 0.835741 0.580308 0.437470
O O5 0.817854 0.651458 0.108183
O O6 0.613486 0.684309 0.108694
O O7 0.792921 0.672435 0.631196
O O8 0.792709 0.744597 0.977239
O O9 0.813538 0.823739 0.658975
O O10 0.804767 0.914004 0.448806
O O11 0.000000 0.861638 0.250000
O O12 0.814976 0.832740 0.153500
O O13 0.000000 0.349915 0.750000
O O14 0.000000 0.787941 0.750000
O O15 0.000000 0.030973 0.750000
O O16 0.191592 0.998348 0.322111
#
# Coordination Sequence:
#
# PCOD8117651 Si02
#       8
#     2   4   4   4   4   4   4   2
#     4  12  22  43  62  88 112 142 180 223 270 320
#     4  12  24  40  62  88 111 144 178 220 271 317
#     4  12  23  41  61  85 109 143 186 225 276 324
#     4   9  17  28  42  66  99 136 177 218 260 306
#     4  12  25  42  62  84 115 147 180 219 264 329
#     4  10  19  31  49  72 101 136 174 216 261 318
#     4   9  15  23  37  58  89 133 179 216 252 300
#     4  12  22  41  66  84 112 140 176 233 272 320
#
# _framework density 18.333154
#
# number of rings (size 3 to 8) (size 9 to 14) (size 15 to 20)
#    0.000    1.143    2.857    5.143    0.000    5.143 
#    0.000    0.000    0.000    0.000    0.000    0.000 
#    0.000    0.000    0.000   12.857    0.000    5.714 
#
# Total GULP energy -347331.996383 kJ/mol
# GULP energy per Si atom -12404.714157 kJ/mol
# Density = 1.829143 g / cm^3
# Si number density = 18.333154 Si / 1000 Ang^3
#
#
#
# Elastic Constant Matrix: (Units=GPa)
#
#
# Indices 1 2 3 4 5 6 
#
# 1 52.7448 12.4901 20.2188 0.0000 -9.8722 0.0000
# 2 12.4901 118.4582 36.2951 0.0000 -5.8385 0.0000
# 3 20.2188 36.2951 105.4418 0.0000 12.8098 0.0000
# 4 0.0000 0.0000 0.0000 17.4423 0.0000 -1.4374
# 5 -9.8722 -5.8385 12.8098 0.0000 23.1818 0.0000
# 6 0.0000 0.0000 0.0000 -1.4374 0.0000 -8.1262
#
#
#
# Elastic Compliance Matrix: (Units=1/GPa)
#
#
# Indices 1 2 3 4 5 6 
#
# 1 0.023901 0.000074 -0.006268 0.000000 0.013661 0.000000
# 2 0.000074 0.009891 -0.003993 0.000000 0.004729 0.000000
# 3 -0.006268 -0.003993 0.013407 0.000000 -0.011083 0.000000
# 4 0.000000 0.000000 0.000000 0.056508 0.000000 -0.009996
# 5 0.013661 0.004729 -0.011083 0.000000 0.056270 0.000000
# 6 0.000000 0.000000 0.000000 -0.009996 0.000000 -0.121291
#
#
# Mechanical properties :
#
#
# Convention : Reuss Voigt Hill
#
# Bulk Modulus (GPa) = 37.28057 46.07255 41.67656
# Shear Modulus (GPa) = 73.52569 20.34230 46.93400
#
# Velocity S-wave (km/s) = 6.33975 3.33467 5.06519
# Velocity P-wave (km/s) = 8.60053 6.32550 7.54920
#
# Compressibility (1/GPa) = 0.02682363
#
# Stress axis : x y z
#
# Youngs Moduli (GPa) = 41.83845 101.10618 74.58858
#
# Poissons Ratio (x) = -0.00745 0.46754
# Poissons Ratio (y) = -0.00308 0.29785
# Poissons Ratio (z) = 0.26225 0.40373
#
# Static dielectric constant tensor:
#      x y z
#    x 3.244790 0.000000 0.250680 
#    y 0.000000 3.483600 0.000000 
#    z 0.250680 0.000000 3.614430 
# 
# 
# High freq. dielectric constant tensor:
#      x y z
#    x 1.670280 0.000000 0.026700 
#    y 0.000000 1.719750 0.000000 
#    z 0.026700 0.000000 1.726060 
# 
# From -- ./inp_files/4118.got.cif
#   From: 2010.06.25/outbox.cif.g09.slc.cpg/sg13_3_cif.got.tgz:4118.got - 2010.06.28 04:50:58.
