data_PCOD8117006
_publ_section_title
;
Structure prediction by ZEFSAII (Michael W. Deem and Ramdas Pophale) SiO2 
 PCOD8117006
Probable space group: P 2/C
;
_chemical_formula_sum "Si O2"
_cell_formula_units_Z 28
_cell_length_a 24.752111
_cell_length_b 8.512437
_cell_length_c 8.976955
_cell_angle_alpha 90.000000
_cell_angle_beta 136.750156
_cell_angle_gamma 90.000000
_cell_volume 1295.986623
_symmetry_space_group_name_H-M "P 2/C"
_symmetry_group_IT_number 13
_symmetry_cell_setting 'monoclinic'
loop_
_space_group_symop_operation_xyz
x,y,z
-x,y,1/2-z
-x,-y,-z
x,-y,1/2+z
loop_
_atom_site_type_symbol
_atom_site_label
_atom_site_fract_x
_atom_site_fract_y
_atom_site_fract_z
Si Si1 0.675981 0.818366 0.814694
Si Si2 0.411364 0.681870 0.604550
Si Si3 0.413425 0.318386 0.613107
Si Si4 0.847689 0.830251 0.120388
Si Si5 0.154763 0.827870 0.741347
Si Si6 0.322583 0.816325 0.174970
Si Si7 0.000864 0.826098 0.572395
O O1 0.611602 0.711712 0.770477
O O2 0.650566 0.794701 0.593241
O O3 0.671341 0.000122 0.851494
O O4 0.765362 0.750346 0.005128
O O5 0.500000 0.743104 0.750000
O O6 0.404318 0.499476 0.549903
O O7 0.342125 0.784054 0.386566
O O8 0.500000 0.256579 0.750000
O O9 0.393362 0.286728 0.744821
O O10 0.921935 0.741273 0.347688
O O11 0.843691 0.004239 0.176973
O O12 0.856228 0.836673 0.958525
O O13 0.079235 0.738742 0.665088
O O14 0.237244 0.746289 0.954410
O O15 0.000000 0.828919 0.750000
O O16 0.000000 0.000000 0.500000
#
# Coordination Sequence:
#
# PCOD8117006 Si02
#       7
#     4   4   4   4   4   4   4
#     4  11  23  37  61  91 121 154 198 252 305 348
#     4  11  25  41  61  84 117 162 202 249 301 363
#     4  11  23  43  61  84 119 158 204 245 297 367
#     4  10  19  32  52  82 120 155 193 244 298 353
#     4  10  19  32  52  82 120 155 193 244 298 353
#     4  11  23  37  61  91 121 154 198 252 305 348
#     4  10  18  28  50  80 119 160 191 233 294 360
#
# _framework density 21.605160999999999
#
# number of rings (size 3 to 8) (size 9 to 14) (size 15 to 20)
#    0.000    1.429    1.429    6.429    8.000    5.714 
#    0.000    0.000    0.000    0.000    0.000    6.000 
#    0.000    0.000    0.000    0.000    0.000    0.000 
#
# Total GULP energy -346959.905786 kJ/mol
# GULP energy per Si atom -12391.425207 kJ/mol
# Density = 2.155599 g / cm^3
# Si number density = 21.605161 Si / 1000 Ang^3
#
#
#
# Elastic Constant Matrix: (Units=GPa)
#
#
# Indices 1 2 3 4 5 6 
#
# 1 144.8152 26.7113 46.8172 0.0000 14.1318 0.0000
# 2 26.7113 33.8530 26.5641 0.0000 11.5753 0.0000
# 3 46.8172 26.5641 139.4351 0.0000 10.8598 0.0000
# 4 0.0000 0.0000 0.0000 18.0247 0.0000 -8.6559
# 5 14.1318 11.5753 10.8598 0.0000 48.7351 0.0000
# 6 0.0000 0.0000 0.0000 -8.6559 0.0000 11.8774
#
#
#
# Elastic Compliance Matrix: (Units=1/GPa)
#
#
# Indices 1 2 3 4 5 6 
#
# 1 0.008502 -0.004964 -0.001841 0.000000 -0.000876 0.000000
# 2 -0.004964 0.040066 -0.005432 0.000000 -0.006867 0.000000
# 3 -0.001841 -0.005432 0.008836 0.000000 -0.000145 0.000000
# 4 0.000000 0.000000 0.000000 0.085349 0.000000 0.062200
# 5 -0.000876 -0.006867 -0.000145 0.000000 0.022436 0.000000
# 6 0.000000 0.000000 0.000000 0.062200 0.000000 0.129523
#
#
# Mechanical properties :
#
#
# Convention : Reuss Voigt Hill
#
# Bulk Modulus (GPa) = 30.36639 57.58762 43.97700
# Shear Modulus (GPa) = 15.14411 30.26148 22.70279
#
# Velocity S-wave (km/s) = 2.65042 3.74660 3.24513
# Velocity P-wave (km/s) = 4.84272 6.74006 5.86858
#
# Compressibility (1/GPa) = 0.03293115
#
# Stress axis : x y z
#
# Youngs Moduli (GPa) = 117.62608 24.95856 113.17517
#
# Poissons Ratio (x) = 0.12390 0.20830
# Poissons Ratio (y) = 0.58393 0.61472
# Poissons Ratio (z) = 0.21649 0.13556
#
# Static dielectric constant tensor:
#      x y z
#    x 4.578810 0.000000 0.761520 
#    y 0.000000 3.115420 0.000000 
#    z 0.761520 0.000000 4.674790 
# 
# 
# High freq. dielectric constant tensor:
#      x y z
#    x 1.874750 0.000000 0.005970 
#    y 0.000000 1.778900 0.000000 
#    z 0.005970 0.000000 1.874250 
# 
# From -- ./inp_files/24607.got.cif
#   From: 2010.06.25/outbox.cif.g09.slc.cpg/sg13_13_cif.got.tgz:24607.got - 2010.06.28 04:50:58.
