data_PCOD8117029
_publ_section_title
;
Structure prediction by ZEFSAII (Michael W. Deem and Ramdas Pophale) SiO2 
 PCOD8117029
Probable space group: P 2/C
;
_chemical_formula_sum "Si O2"
_cell_formula_units_Z 28
_cell_length_a 18.406533
_cell_length_b 14.542671
_cell_length_c 8.770182
_cell_angle_alpha 90.000000
_cell_angle_beta 135.619253
_cell_angle_gamma 90.000000
_cell_volume 1641.968510
_symmetry_space_group_name_H-M "P 2/C"
_symmetry_group_IT_number 13
_symmetry_cell_setting 'monoclinic'
loop_
_space_group_symop_operation_xyz
x,y,z
-x,y,1/2-z
-x,-y,-z
x,-y,1/2+z
loop_
_atom_site_type_symbol
_atom_site_label
_atom_site_fract_x
_atom_site_fract_y
_atom_site_fract_z
Si Si1 0.391116 0.901396 0.155045
Si Si2 0.608884 0.901396 0.981698
Si Si3 0.119162 0.593267 0.108458
Si Si4 1.000000 0.100106 0.068493
Si Si5 0.880838 0.406733 0.250972
Si Si6 0.804247 0.214356 0.137108
Si Si7 0.195754 0.785644 0.224368
O O1 0.500000 0.866851 0.250000
O O2 0.398910 0.909791 0.348365
O O3 0.304899 0.828029 0.972315
O O4 0.360434 1.000000 0.040650
O O5 0.695100 0.828029 0.057617
O O6 0.500000 0.866852 0.750000
O O7 0.166534 0.500000 0.249801
O O8 0.184569 0.680885 0.267814
O O9 0.127061 0.585316 0.940591
O O10 0.000000 0.606532 0.981912
O O11 0.000000 0.094154 0.250000
O O12 0.101325 0.152990 0.157893
O O13 0.898675 0.152990 0.853918
O O14 0.000000 0.000000 0.000000
O O15 0.815431 0.319115 0.214106
O O16 0.811566 0.214722 0.967349
#
# Coordination Sequence:
#
# PCOD8117029 Si02
#       7
#     4   4   4   4   4   4   4
#     4  10  19  32  49  69  92 123 160 195 229 269
#     4  10  19  32  49  69  92 123 160 195 229 269
#     4   9  16  29  48  69  93 121 152 187 227 276
#     4  10  18  30  45  66  94 124 151 182 225 276
#     4   9  16  29  48  69  93 121 152 187 227 276
#     4   9  17  30  49  68  92 125 155 183 228 283
#     4   9  17  30  49  68  92 125 155 183 228 283
#
# _framework density 17.052702
#
# number of rings (size 3 to 8) (size 9 to 14) (size 15 to 20)
#    0.000    2.571    1.429    2.571    0.000    0.000 
#    0.000    5.714    0.000    0.857    0.000    6.000 
#    0.000    0.000    0.000    0.000    0.000    0.000 
#
# Total GULP energy -347124.430368 kJ/mol
# GULP energy per Si atom -12397.301085 kJ/mol
# Density = 1.701389 g / cm^3
# Si number density = 17.052702 Si / 1000 Ang^3
#
#
#
# Elastic Constant Matrix: (Units=GPa)
#
#
# Indices 1 2 3 4 5 6 
#
# 1 65.9332 57.3404 37.5009 0.0000 22.2018 0.0000
# 2 57.3404 179.6919 67.7034 0.0000 34.0024 0.0000
# 3 37.5009 67.7034 80.1824 0.0000 24.5512 0.0000
# 4 0.0000 0.0000 0.0000 28.1710 0.0000 1.0837
# 5 22.2018 34.0024 24.5512 0.0000 25.3093 0.0000
# 6 0.0000 0.0000 0.0000 1.0837 0.0000 27.8409
#
#
#
# Elastic Compliance Matrix: (Units=1/GPa)
#
#
# Indices 1 2 3 4 5 6 
#
# 1 0.025536 -0.004009 -0.004763 0.000000 -0.012395 0.000000
# 2 -0.004009 0.009508 -0.004721 0.000000 -0.004678 0.000000
# 3 -0.004763 -0.004721 0.021998 0.000000 -0.010818 0.000000
# 4 0.000000 0.000000 0.000000 0.035551 0.000000 -0.001384
# 5 -0.012395 -0.004678 -0.010818 0.000000 0.067162 0.000000
# 6 0.000000 0.000000 0.000000 -0.001384 0.000000 0.035972
#
#
# Mechanical properties :
#
#
# Convention : Reuss Voigt Hill
#
# Bulk Modulus (GPa) = 33.27112 72.32187 52.79649
# Shear Modulus (GPa) = 21.48391 27.14844 24.31617
#
# Velocity S-wave (km/s) = 3.55329 3.99436 3.78026
# Velocity P-wave (km/s) = 6.03222 7.98599 7.07685
#
# Compressibility (1/GPa) = 0.03005609
#
# Stress axis : x y z
#
# Youngs Moduli (GPa) = 39.16076 105.17132 45.45826
#
# Poissons Ratio (x) = 0.42159 0.21652
# Poissons Ratio (y) = 0.15698 0.21463
# Poissons Ratio (z) = 0.18653 0.49656
#
# Static dielectric constant tensor:
#      x y z
#    x 3.075930 0.000000 0.163800 
#    y 0.000000 3.432950 0.000000 
#    z 0.163800 0.000000 3.125850 
# 
# 
# High freq. dielectric constant tensor:
#      x y z
#    x 1.638420 0.000000 0.003910 
#    y 0.000000 1.664140 0.000000 
#    z 0.003910 0.000000 1.639610 
# 
# From -- ./inp_files/21958.got.cif
#   From: 2010.06.25/outbox.cif.g09.slc.cpg/sg13_11_cif.got.tgz:21958.got - 2010.06.28 04:50:58.
