data_PCOD8117716
_publ_section_title
;
Structure prediction by ZEFSAII (Michael W. Deem and Ramdas Pophale) SiO2 
 PCOD8117716
Probable space group: P 2/C
;
_chemical_formula_sum "Si O2"
_cell_formula_units_Z 32
_cell_length_a 18.609223
_cell_length_b 11.776882
_cell_length_c 24.567767
_cell_angle_alpha 90.000000
_cell_angle_beta 161.161554
_cell_angle_gamma 90.000000
_cell_volume 1738.574934
_symmetry_space_group_name_H-M "P 2/C"
_symmetry_group_IT_number 13
_symmetry_cell_setting 'monoclinic'
loop_
_space_group_symop_operation_xyz
x,y,z
-x,y,1/2-z
-x,-y,-z
x,-y,1/2+z
loop_
_atom_site_type_symbol
_atom_site_label
_atom_site_fract_x
_atom_site_fract_y
_atom_site_fract_z
Si Si1 0.702915 0.452096 0.328935
Si Si2 0.827694 0.220175 0.582966
Si Si3 0.121043 0.701383 0.892092
Si Si4 0.596347 0.691738 0.259285
Si Si5 0.968827 0.842855 0.567499
Si Si6 0.317001 0.224356 0.233998
Si Si7 0.184460 0.550305 0.474043
Si Si8 0.750700 0.921250 0.921306
O O1 0.717430 0.582705 0.318141
O O2 0.768220 0.355672 0.331978
O O3 0.867943 0.441053 0.499155
O O4 0.446889 0.430018 0.158919
O O5 0.581455 0.218221 0.432352
O O6 0.921317 0.346223 0.635673
O O7 0.831879 0.149569 0.530830
O O8 0.000000 0.167176 0.750000
O O9 0.016345 0.778179 0.864491
O O10 0.092439 0.568085 0.884637
O O11 0.000000 0.734252 0.750000
O O12 0.382661 0.731561 0.071413
O O13 0.500000 0.653377 0.250000
O O14 0.770011 0.793200 0.387688
O O15 0.203775 0.829415 0.705853
O O16 0.921279 0.975201 0.539635
O O17 0.238974 0.157468 0.124336
O O18 0.500000 0.967688 0.750000
#
# Coordination Sequence:
#
# PCOD8117716 Si02
#       8
#     4   4   4   4   4   4   4   4
#     4   9  13  28  53  78  98 128 173 219 253 292
#     4  10  20  35  57  80 101 136 178 215 255 312
#     4  10  19  32  53  77 106 145 177 207 251 317
#     4   9  16  31  52  75 101 136 180 209 245 308
#     4  11  21  35  52  79 108 137 169 223 267 302
#     4  10  21  34  55  80 107 130 171 226 271 299
#     4   9  14  29  54  78 100 130 178 216 245 297
#     4  10  20  36  57  75  99 136 182 215 250 310
#
# _framework density 18.40588
#
# number of rings (size 3 to 8) (size 9 to 14) (size 15 to 20)
#    0.000    2.250    5.000    1.875    0.000    1.000 
#    0.000    1.875    0.000    7.500    0.000    0.000 
#    0.000    0.000    0.000    0.000    0.000    0.000 
#
# Total GULP energy -396612.719281 kJ/mol
# GULP energy per Si atom -12394.147478 kJ/mol
# Density = 1.836399 g / cm^3
# Si number density = 18.405880 Si / 1000 Ang^3
#
#
#
# Elastic Constant Matrix: (Units=GPa)
#
#
# Indices 1 2 3 4 5 6 
#
# 1 77.1457 30.3464 55.0123 0.0000 -8.3955 0.0000
# 2 30.3464 82.2585 34.5414 0.0000 1.2095 0.0000
# 3 55.0123 34.5414 94.2949 0.0000 -19.8190 0.0000
# 4 0.0000 0.0000 0.0000 14.7433 0.0000 2.4696
# 5 -8.3955 1.2095 -19.8190 0.0000 26.9135 0.0000
# 6 0.0000 0.0000 0.0000 2.4696 0.0000 6.1482
#
#
#
# Elastic Compliance Matrix: (Units=1/GPa)
#
#
# Indices 1 2 3 4 5 6 
#
# 1 0.023048 -0.003127 -0.012731 0.000000 -0.002045 0.000000
# 2 -0.003127 0.015473 -0.004963 0.000000 -0.005325 0.000000
# 3 -0.012731 -0.004963 0.022553 0.000000 0.012860 0.000000
# 4 0.000000 0.000000 0.000000 0.072721 0.000000 -0.029211
# 5 -0.002045 -0.005325 0.012860 0.000000 0.046228 0.000000
# 6 0.000000 0.000000 0.000000 -0.029211 0.000000 0.174383
#
#
# Mechanical properties :
#
#
# Convention : Reuss Voigt Hill
#
# Bulk Modulus (GPa) = 51.45938 54.83325 53.14632
# Shear Modulus (GPa) = 12.42163 18.48092 15.45127
#
# Velocity S-wave (km/s) = 2.60065 3.17215 2.90051
# Velocity P-wave (km/s) = 6.08577 6.57819 6.33677
#
# Compressibility (1/GPa) = 0.01943280
#
# Stress axis : x y z
#
# Youngs Moduli (GPa) = 43.38708 64.63024 44.33975
#
# Poissons Ratio (x) = 0.20210 0.56448
# Poissons Ratio (y) = 0.13567 0.22005
# Poissons Ratio (z) = 0.55235 0.32075
#
# Static dielectric constant tensor:
#      x y z
#    x 3.129200 0.000000 -0.068020 
#    y 0.000000 3.481880 0.000000 
#    z -0.068020 0.000000 3.216480 
# 
# 
# High freq. dielectric constant tensor:
#      x y z
#    x 1.684370 0.000000 -0.007080 
#    y 0.000000 1.722740 0.000000 
#    z -0.007080 0.000000 1.691320 
# 
# From -- ./inp_files/88195.got.cif
#   From: 2010.06.25/outbox.cif.g09.slc.cpg/sg13_45_cif.got.tgz:88195.got - 2010.06.28 04:50:58.
