data_PCOD8117350
_publ_section_title
;
Structure prediction by ZEFSAII (Michael W. Deem and Ramdas Pophale) SiO2 
 PCOD8117350
Probable space group: P 2/C
;
_chemical_formula_sum "Si O2"
_cell_formula_units_Z 30
_cell_length_a 13.992577
_cell_length_b 9.149032
_cell_length_c 23.036595
_cell_angle_alpha 90.000000
_cell_angle_beta 31.367919
_cell_angle_gamma 90.000000
_cell_volume 1535.105630
_symmetry_space_group_name_H-M "P 2/C"
_symmetry_group_IT_number 13
_symmetry_cell_setting 'monoclinic'
loop_
_space_group_symop_operation_xyz
x,y,z
-x,y,1/2-z
-x,-y,-z
x,-y,1/2+z
loop_
_atom_site_type_symbol
_atom_site_label
_atom_site_fract_x
_atom_site_fract_y
_atom_site_fract_z
Si Si1 0.403716 0.323328 0.180179
Si Si2 0.785963 0.325710 0.465783
Si Si3 0.929767 0.150256 0.111192
Si Si4 0.086907 0.179189 0.903299
Si Si5 0.444580 0.365678 0.713931
Si Si6 0.685941 0.410304 0.394960
Si Si7 0.000000 0.373779 0.750000
Si Si8 0.822355 0.330876 0.955653
O O1 0.274942 0.218988 0.285772
O O2 0.382629 0.489493 0.212286
O O3 0.333539 0.307635 0.150625
O O4 0.615484 0.272411 0.072114
O O5 0.612858 0.284667 0.595229
O O6 0.733512 0.306535 0.425207
O O7 0.834294 0.494630 0.450720
O O8 0.955499 0.221765 0.395297
O O9 0.910214 0.977380 0.129683
O O10 0.037104 0.178380 0.996371
O O11 0.285609 0.247723 0.794493
O O12 0.936119 0.276835 0.950706
O O13 0.500000 0.411703 0.750000
O O14 0.500000 0.500000 0.500000
O O15 0.846948 0.525446 0.299250
O O16 0.093132 0.276742 0.650293
#
# Coordination Sequence:
#
# PCOD8117350 Si02
#       8
#     4   4   4   4   4   4   2   4
#     4  11  23  38  63  95 122 154 207 261 309 365
#     4  10  21  38  64  92 119 155 203 259 308 366
#     4  11  25  42  57  84 124 169 203 248 305 372
#     4  11  25  41  59  83 125 170 203 243 311 372
#     4  11  21  37  63  93 119 154 206 262 308 367
#     4  11  18  36  61  95 125 155 198 255 323 362
#     4  10  18  34  60  88 126 154 190 248 306 366
#     4  10  22  37  63  93 115 158 199 254 303 367
#
# _framework density 19.542629000000002
#
# number of rings (size 3 to 8) (size 9 to 14) (size 15 to 20)
#    0.000    1.333    5.333    3.200    3.733    2.133 
#    0.000    1.333    0.000    2.400    0.000    0.000 
#    0.000    0.000    0.000    0.000    0.000    0.000 
#
# Total GULP energy -372016.380074 kJ/mol
# GULP energy per Si atom -12400.546002 kJ/mol
# Density = 1.949815 g / cm^3
# Si number density = 19.542629 Si / 1000 Ang^3
#
#
#
# Elastic Constant Matrix: (Units=GPa)
#
#
# Indices 1 2 3 4 5 6 
#
# 1 119.1041 38.0200 29.3531 0.0000 -5.6573 0.0000
# 2 38.0200 60.4650 36.6137 0.0000 -4.9636 0.0000
# 3 29.3531 36.6137 131.0100 0.0000 -16.3339 0.0000
# 4 0.0000 0.0000 0.0000 13.4189 0.0000 2.4269
# 5 -5.6573 -4.9636 -16.3339 0.0000 32.2708 0.0000
# 6 0.0000 0.0000 0.0000 2.4269 0.0000 16.4793
#
#
#
# Elastic Compliance Matrix: (Units=1/GPa)
#
#
# Indices 1 2 3 4 5 6 
#
# 1 0.010557 -0.006261 -0.000539 0.000000 0.000615 0.000000
# 2 -0.006261 0.023623 -0.005212 0.000000 -0.000102 0.000000
# 3 -0.000539 -0.005212 0.009711 0.000000 0.004019 0.000000
# 4 0.000000 0.000000 0.000000 0.076561 0.000000 -0.011275
# 5 0.000615 -0.000102 0.004019 0.000000 0.033114 0.000000
# 6 0.000000 0.000000 0.000000 -0.011275 0.000000 0.062343
#
#
# Mechanical properties :
#
#
# Convention : Reuss Voigt Hill
#
# Bulk Modulus (GPa) = 50.33362 57.61698 53.97530
# Shear Modulus (GPa) = 20.27943 26.20662 23.24302
#
# Velocity S-wave (km/s) = 3.22483 3.66594 3.45244
# Velocity P-wave (km/s) = 6.29903 6.88952 6.60088
#
# Compressibility (1/GPa) = 0.01986744
#
# Stress axis : x y z
#
# Youngs Moduli (GPa) = 94.72649 42.33129 102.97161
#
# Poissons Ratio (x) = 0.26505 0.05547
# Poissons Ratio (y) = 0.59311 0.53668
# Poissons Ratio (z) = 0.05103 0.22063
#
# Static dielectric constant tensor:
#      x y z
#    x 3.714360 0.000000 0.154390 
#    y 0.000000 3.197790 0.000000 
#    z 0.154390 0.000000 3.876680 
# 
# 
# High freq. dielectric constant tensor:
#      x y z
#    x 1.773950 0.000000 -0.003450 
#    y 0.000000 1.713720 0.000000 
#    z -0.003450 0.000000 1.788520 
# 
# From -- ./inp_files/87282.got.cif
#   From: 2010.06.25/outbox.cif.g09.slc.cpg/sg13_44_cif.got.tgz:87282.got - 2010.06.28 04:50:58.
