data_PCOD8117308
_publ_section_title
;
Structure prediction by ZEFSAII (Michael W. Deem and Ramdas Pophale) SiO2 
 PCOD8117308
Probable space group: P 2/C
;
_chemical_formula_sum "Si O2"
_cell_formula_units_Z 30
_cell_length_a 9.035743
_cell_length_b 11.290802
_cell_length_c 16.928252
_cell_angle_alpha 90.000000
_cell_angle_beta 60.113521
_cell_angle_gamma 90.000000
_cell_volume 1497.362898
_symmetry_space_group_name_H-M "P 2/C"
_symmetry_group_IT_number 13
_symmetry_cell_setting 'monoclinic'
loop_
_space_group_symop_operation_xyz
x,y,z
-x,y,1/2-z
-x,-y,-z
x,-y,1/2+z
loop_
_atom_site_type_symbol
_atom_site_label
_atom_site_fract_x
_atom_site_fract_y
_atom_site_fract_z
Si Si1 0.715004 0.283960 0.904565
Si Si2 0.972267 0.615911 0.887468
Si Si3 0.406668 0.574714 0.459088
Si Si4 0.003997 0.879855 0.660407
Si Si5 0.729720 0.631633 0.578416
Si Si6 0.665262 0.119317 0.157683
Si Si7 0.000000 0.574311 0.250000
Si Si8 0.688316 0.967621 0.475559
O O1 0.525945 0.309153 0.917468
O O2 0.841320 0.339291 0.806675
O O3 0.745724 0.144598 0.907607
O O4 0.749671 0.343654 0.980102
O O5 0.998868 0.738434 0.834917
O O6 0.035363 0.508994 0.815651
O O7 0.081592 0.609481 0.938471
O O8 0.775937 0.613636 0.961758
O O9 0.500000 0.500000 0.500000
O O10 0.384721 0.489600 0.386996
O O11 0.000000 0.930392 0.750000
O O12 0.833662 0.920400 0.660132
O O13 0.174738 0.928090 0.573034
O O14 0.643817 0.739201 0.649117
O O15 0.500000 0.075740 0.250000
O O16 0.679287 0.056456 0.070481
O O17 0.500000 0.000000 0.500000
#
# Coordination Sequence:
#
# PCOD8117308 Si02
#       8
#     4   4   4   4   4   4   2   4
#     4  10  23  39  60  88 121 168 203 257 313 371
#     4  11  21  37  62  90 122 160 205 253 310 370
#     4  10  18  34  57  80 116 158 203 239 299 368
#     4  11  23  38  64  96 122 165 211 259 311 377
#     4   9  20  36  61  87 119 163 201 250 309 377
#     4  10  22  40  62  95 125 155 210 267 316 374
#     4  12  22  36  58  90 132 152 198 252 312 366
#     4  11  23  43  66  88 123 172 214 262 318 372
#
# _framework density 20.035225000000001
#
# number of rings (size 3 to 8) (size 9 to 14) (size 15 to 20)
#    0.000    1.600    3.333    2.400    0.933    4.267 
#    0.000    0.000    0.000    1.600    0.000    0.000 
#    0.000    0.000    0.000    0.000    0.000    0.000 
#
# Total GULP energy -371826.496971 kJ/mol
# GULP energy per Si atom -12394.216566 kJ/mol
# Density = 1.998962 g / cm^3
# Si number density = 20.035225 Si / 1000 Ang^3
#
#
#
# Elastic Constant Matrix: (Units=GPa)
#
#
# Indices 1 2 3 4 5 6 
#
# 1 165.4379 37.0932 62.1901 0.0000 -6.4205 0.0000
# 2 37.0932 70.8185 41.5989 0.0000 1.9238 0.0000
# 3 62.1901 41.5989 107.1980 0.0000 -10.5684 0.0000
# 4 0.0000 0.0000 0.0000 25.8675 0.0000 -5.3169
# 5 -6.4205 1.9238 -10.5684 0.0000 28.8777 0.0000
# 6 0.0000 0.0000 0.0000 -5.3169 0.0000 32.1467
#
#
#
# Elastic Compliance Matrix: (Units=1/GPa)
#
#
# Indices 1 2 3 4 5 6 
#
# 1 0.007925 -0.001934 -0.003798 0.000000 0.000501 0.000000
# 2 -0.001934 0.019208 -0.006744 0.000000 -0.004178 0.000000
# 3 -0.003798 -0.006744 0.014638 0.000000 0.004962 0.000000
# 4 0.000000 0.000000 0.000000 0.040019 0.000000 0.006619
# 5 0.000501 -0.004178 0.004962 0.000000 0.036834 0.000000
# 6 0.000000 0.000000 0.000000 0.006619 0.000000 0.032202
#
#
# Mechanical properties :
#
#
# Convention : Reuss Voigt Hill
#
# Bulk Modulus (GPa) = 59.45170 69.46877 64.46023
# Shear Modulus (GPa) = 27.56558 30.88318 29.22438
#
# Velocity S-wave (km/s) = 3.71328 3.93038 3.82337
# Velocity P-wave (km/s) = 6.93704 7.43948 7.19265
#
# Compressibility (1/GPa) = 0.01682038
#
# Stress axis : x y z
#
# Youngs Moduli (GPa) = 126.17833 52.06068 68.31461
#
# Poissons Ratio (x) = 0.10067 0.25946
# Poissons Ratio (y) = 0.24400 0.46071
# Poissons Ratio (z) = 0.47923 0.35109
#
# Static dielectric constant tensor:
#      x y z
#    x 3.611020 0.000000 -0.063440 
#    y 0.000000 3.834480 0.000000 
#    z -0.063440 0.000000 3.422770 
# 
# 
# High freq. dielectric constant tensor:
#      x y z
#    x 1.796850 0.000000 -0.002180 
#    y 0.000000 1.781090 0.000000 
#    z -0.002180 0.000000 1.763990 
# 
# From -- ./inp_files/64427.got.cif
#   From: 2010.06.25/outbox.cif.g09.slc.cpg/sg13_33_cif.got.tgz:64427.got - 2010.06.28 04:50:58.
