data_PCOD8117156
_publ_section_title
;
Structure prediction by ZEFSAII (Michael W. Deem and Ramdas Pophale) SiO2 
 PCOD8117156
Probable space group: P 2/C
;
_chemical_formula_sum "Si O2"
_cell_formula_units_Z 28
_cell_length_a 15.301362
_cell_length_b 9.873991
_cell_length_c 12.894813
_cell_angle_alpha 90.000000
_cell_angle_beta 51.556607
_cell_angle_gamma 90.000000
_cell_volume 1525.889871
_symmetry_space_group_name_H-M "P 2/C"
_symmetry_group_IT_number 13
_symmetry_cell_setting 'monoclinic'
loop_
_space_group_symop_operation_xyz
x,y,z
-x,y,1/2-z
-x,-y,-z
x,-y,1/2+z
loop_
_atom_site_type_symbol
_atom_site_label
_atom_site_fract_x
_atom_site_fract_y
_atom_site_fract_z
Si Si1 0.691476 0.763943 0.136724
Si Si2 0.620964 0.653462 0.392843
Si Si3 0.796272 0.137066 0.272922
Si Si4 0.000000 0.924052 0.750000
Si Si5 0.668227 0.908426 0.488289
Si Si6 0.500000 0.966364 0.250000
Si Si7 0.163287 0.986809 0.973558
Si Si8 0.361755 0.354672 0.047307
O O1 0.684272 0.656421 0.235478
O O2 0.595995 0.874410 0.227593
O O3 0.804919 0.852243 0.056250
O O4 0.672905 0.683744 0.043929
O O5 0.671749 0.766604 0.429073
O O6 0.652211 0.513560 0.424523
O O7 0.489777 0.681747 0.475384
O O8 0.898605 0.164836 0.277173
O O9 0.722350 0.273185 0.314356
O O10 0.712165 0.025298 0.380174
O O11 0.850031 0.085443 0.126729
O O12 0.046989 0.019741 0.622707
O O13 0.544134 0.943565 0.621116
O O14 0.745402 0.899183 0.532557
#
# Coordination Sequence:
#
# PCOD8117156 Si02
#       8
#     4   4   4   2   4   2   4   4
#     4  11  18  37  55  81 115 157 190 234 294 341
#     4  11  23  36  57  84 123 162 190 239 283 348
#     4  11  20  38  62  87 113 151 200 241 296 349
#     4  10  20  38  60  94 112 144 194 262 304 346
#     4  10  21  34  55  88 113 152 197 232 287 344
#     4  10  18  32  54  80 120 152 186 238 270 346
#     4  10  21  35  62  91 113 147 191 256 296 342
#     4  11  23  37  55  86 122 159 199 230 288 360
#
# _framework density 18.349948999999999
#
# number of rings (size 3 to 8) (size 9 to 14) (size 15 to 20)
#    0.000    1.429    7.143    0.429    4.000    2.286 
#    2.571    0.000    0.000    4.286    0.000    0.000 
#    0.000    0.000    0.000    0.000    0.000    0.000 
#
# Total GULP energy -347094.507218 kJ/mol
# GULP energy per Si atom -12396.232401 kJ/mol
# Density = 1.830818 g / cm^3
# Si number density = 18.349949 Si / 1000 Ang^3
#
#
#
# Elastic Constant Matrix: (Units=GPa)
#
#
# Indices 1 2 3 4 5 6 
#
# 1 61.9029 45.4531 35.6852 0.0000 8.0550 0.0000
# 2 45.4531 96.2269 36.6271 0.0000 -0.4038 0.0000
# 3 35.6852 36.6271 125.8176 0.0000 -0.7988 0.0000
# 4 0.0000 0.0000 0.0000 19.7157 0.0000 5.0932
# 5 8.0550 -0.4038 -0.7988 0.0000 26.3759 0.0000
# 6 0.0000 0.0000 0.0000 5.0932 0.0000 20.2174
#
#
#
# Elastic Compliance Matrix: (Units=1/GPa)
#
#
# Indices 1 2 3 4 5 6 
#
# 1 0.028763 -0.011805 -0.004779 0.000000 -0.009110 0.000000
# 2 -0.011805 0.016533 -0.001440 0.000000 0.003815 0.000000
# 3 -0.004779 -0.001440 0.009734 0.000000 0.001732 0.000000
# 4 0.000000 0.000000 0.000000 0.054252 0.000000 -0.013667
# 5 -0.009110 0.003815 0.001732 0.000000 0.040806 0.000000
# 6 0.000000 0.000000 0.000000 -0.013667 0.000000 0.052906
#
#
# Mechanical properties :
#
#
# Convention : Reuss Voigt Hill
#
# Bulk Modulus (GPa) = 52.68761 57.71980 55.20371
# Shear Modulus (GPa) = 20.37744 24.34059 22.35902
#
# Velocity S-wave (km/s) = 3.33602 3.64602 3.49446
# Velocity P-wave (km/s) = 6.60407 7.01769 6.81402
#
# Compressibility (1/GPa) = 0.01897979
#
# Stress axis : x y z
#
# Youngs Moduli (GPa) = 34.76683 60.48625 102.73502
#
# Poissons Ratio (x) = 0.71407 0.49098
# Poissons Ratio (y) = 0.41044 0.14797
# Poissons Ratio (z) = 0.16615 0.08712
#
# Static dielectric constant tensor:
#      x y z
#    x 3.346880 0.000000 -0.027130 
#    y 0.000000 3.212410 0.000000 
#    z -0.027130 0.000000 3.713830 
# 
# 
# High freq. dielectric constant tensor:
#      x y z
#    x 1.703890 0.000000 0.008910 
#    y 0.000000 1.678110 0.000000 
#    z 0.008910 0.000000 1.728080 
# 
# From -- ./inp_files/54874.got.cif
#   From: 2010.06.25/outbox.cif.g09.slc.cpg/sg13_28_cif.got.tgz:54874.got - 2010.06.28 04:50:58.
