data_PCOD8117663
_publ_section_title
;
Structure prediction by ZEFSAII (Michael W. Deem and Ramdas Pophale) SiO2 
 PCOD8117663
Probable space group: P 2/C
;
_chemical_formula_sum "Si O2"
_cell_formula_units_Z 20
_cell_length_a 22.789074
_cell_length_b 8.688806
_cell_length_c 5.179480
_cell_angle_alpha 90.000000
_cell_angle_beta 95.721700
_cell_angle_gamma 90.000000
_cell_volume 1020.478421
_symmetry_space_group_name_H-M "P 2/C"
_symmetry_group_IT_number 13
_symmetry_cell_setting 'monoclinic'
loop_
_space_group_symop_operation_xyz
x,y,z
-x,y,1/2-z
-x,-y,-z
x,-y,1/2+z
loop_
_atom_site_type_symbol
_atom_site_label
_atom_site_fract_x
_atom_site_fract_y
_atom_site_fract_z
Si Si1 0.311580 0.603364 0.160761
Si Si2 0.097078 0.907421 0.096528
Si Si3 0.065525 0.567241 0.035144
Si Si4 0.235643 0.095536 0.645773
Si Si5 0.439883 0.403252 0.793242
O O1 0.302356 0.477509 0.380864
O O2 0.265072 0.738541 0.171118
O O3 0.377361 0.679942 0.210511
O O4 0.166215 0.872965 0.115897
O O5 0.077857 0.977215 0.361617
O O6 0.061925 0.750139 0.042848
O O7 0.099629 0.504979 0.796586
O O8 0.000000 0.500000 0.000000
O O9 0.255455 0.005739 0.398383
O O10 0.500000 0.305389 0.750000
O O11 0.442014 0.548236 0.594174
#
# Coordination Sequence:
#
# PCOD8117663 Si02
#       5
#     4   4   4   4   4
#     4  10  19  31  51  78 101 130 175 217 254 300
#     4  10  21  38  58  78 103 140 177 204 245 312
#     4  10  21  38  56  81 110 134 165 211 259 293
#     4  10  21  36  53  75 106 139 168 207 260 307
#     4   8  14  25  42  66  96 127 163 209 253 294
#
# _framework density 19.598652000000001
#
# number of rings (size 3 to 8) (size 9 to 14) (size 15 to 20)
#    0.000    2.400    0.000    2.400    0.000    1.600 
#    0.000   12.000    0.000    1.200    0.000    0.000 
#    0.000    0.000    0.000    0.000    0.000    0.000 
#
# Total GULP energy -247844.347689 kJ/mol
# GULP energy per Si atom -12392.217384 kJ/mol
# Density = 1.955404 g / cm^3
# Si number density = 19.598652 Si / 1000 Ang^3
#
#
#
# Elastic Constant Matrix: (Units=GPa)
#
#
# Indices 1 2 3 4 5 6 
#
# 1 41.4765 39.5463 16.7043 0.0000 4.2077 0.0000
# 2 39.5463 100.9795 29.3279 0.0000 8.9912 0.0000
# 3 16.7043 29.3279 144.9140 0.0000 2.6838 0.0000
# 4 0.0000 0.0000 0.0000 29.9366 0.0000 -0.0305
# 5 4.2077 8.9912 2.6838 0.0000 10.5250 0.0000
# 6 0.0000 0.0000 0.0000 -0.0305 0.0000 12.5905
#
#
#
# Elastic Compliance Matrix: (Units=1/GPa)
#
#
# Indices 1 2 3 4 5 6 
#
# 1 0.038848 -0.014539 -0.001485 0.000000 -0.002731 0.000000
# 2 -0.014539 0.016776 -0.001569 0.000000 -0.008118 0.000000
# 3 -0.001485 -0.001569 0.007388 0.000000 0.000050 0.000000
# 4 0.000000 0.000000 0.000000 0.033404 0.000000 0.000081
# 5 -0.002731 -0.008118 0.000050 0.000000 0.103027 0.000000
# 6 0.000000 0.000000 0.000000 0.000081 0.000000 0.079425
#
#
# Mechanical properties :
#
#
# Convention : Reuss Voigt Hill
#
# Bulk Modulus (GPa) = 35.93807 50.94745 43.44276
# Shear Modulus (GPa) = 15.46411 24.06317 19.76364
#
# Velocity S-wave (km/s) = 2.81203 3.50780 3.17901
# Velocity P-wave (km/s) = 5.37775 6.51598 5.97403
#
# Compressibility (1/GPa) = 0.02782565
#
# Stress axis : x y z
#
# Youngs Moduli (GPa) = 25.74138 59.61073 135.34775
#
# Poissons Ratio (x) = 0.86671 0.20098
# Poissons Ratio (y) = 0.37427 0.21233
# Poissons Ratio (z) = 0.03822 0.09351
#
# Static dielectric constant tensor:
#      x y z
#    x 3.737630 0.000000 -0.026410 
#    y 0.000000 3.141420 0.000000 
#    z -0.026410 0.000000 3.136210 
# 
# 
# High freq. dielectric constant tensor:
#      x y z
#    x 1.760060 0.000000 -0.000760 
#    y 0.000000 1.719640 0.000000 
#    z -0.000760 0.000000 1.799350 
# 
# From -- ./inp_files/6731.got.cif
#   From: 2010.06.25/outbox.cif.g09.slc.cpg/sg13_4_cif.got.tgz:6731.got - 2010.06.28 04:50:58.
