data_PCOD8117134
_publ_section_title
;
Structure prediction by ZEFSAII (Michael W. Deem and Ramdas Pophale) SiO2 
 PCOD8117134
Probable space group: P 2/C
;
_chemical_formula_sum "Si O2"
_cell_formula_units_Z 28
_cell_length_a 26.350248
_cell_length_b 11.197157
_cell_length_c 26.674693
_cell_angle_alpha 90.000000
_cell_angle_beta 10.533076
_cell_angle_gamma 90.000000
_cell_volume 1438.717389
_symmetry_space_group_name_H-M "P 2/C"
_symmetry_group_IT_number 13
_symmetry_cell_setting 'monoclinic'
loop_
_space_group_symop_operation_xyz
x,y,z
-x,y,1/2-z
-x,-y,-z
x,-y,1/2+z
loop_
_atom_site_type_symbol
_atom_site_label
_atom_site_fract_x
_atom_site_fract_y
_atom_site_fract_z
Si Si1 0.736501 0.347028 0.981244
Si Si2 0.870977 0.042836 0.178025
Si Si3 0.349476 0.609958 0.280324
Si Si4 0.673278 0.800604 0.279156
Si Si5 0.390373 0.671122 0.725858
Si Si6 0.892862 0.604236 0.801898
Si Si7 0.166966 0.783050 0.266967
O O1 0.893966 0.460824 0.804887
O O2 0.000000 0.272750 0.750000
O O3 0.500000 0.387326 0.250000
O O4 0.568076 0.277850 0.100991
O O5 0.590468 0.121214 0.446911
O O6 0.815563 0.923924 0.264544
O O7 0.120544 0.124072 0.957999
O O8 0.000000 0.000000 0.000000
O O9 0.398583 0.680891 0.181011
O O10 0.372995 0.471355 0.243321
O O11 0.067323 0.640059 0.583255
O O12 0.584543 0.650924 0.091248
O O13 0.852770 0.763166 0.153950
O O14 0.549760 0.715853 0.522120
O O15 0.082996 0.724910 0.021844
O O16 0.000000 0.662396 0.750000
#
# Coordination Sequence:
#
# PCOD8117134 Si02
#       7
#     4   4   4   4   4   4   4
#     4  10  18  32  52  75 106 143 180 219 259 309
#     4  10  20  38  58  76  98 139 198 238 254 290
#     4  11  22  34  52  83 116 141 172 213 272 341
#     4  11  22  37  56  79 109 144 183 225 267 312
#     4  11  21  33  52  83 114 140 172 211 271 335
#     4  10  18  33  53  76 107 142 180 220 260 310
#     4  11  21  35  55  78 108 143 180 222 260 310
#
# _framework density 19.461779
#
# number of rings (size 3 to 8) (size 9 to 14) (size 15 to 20)
#    0.000    1.429    0.000   11.571    0.000    1.143 
#    0.000    0.000    0.000    0.000    0.000   35.000 
#    0.000    0.000    0.000    0.000    0.000    0.000 
#
# Total GULP energy -346973.680580 kJ/mol
# GULP energy per Si atom -12391.917164 kJ/mol
# Density = 1.941748 g / cm^3
# Si number density = 19.461779 Si / 1000 Ang^3
#
#
#
# Elastic Constant Matrix: (Units=GPa)
#
#
# Indices 1 2 3 4 5 6 
#
# 1 79.7098 37.6925 20.3449 0.0000 -11.4653 0.0000
# 2 37.6925 73.4154 30.9056 0.0000 -3.3487 0.0000
# 3 20.3449 30.9056 106.0184 0.0000 -7.0294 0.0000
# 4 0.0000 0.0000 0.0000 24.0033 0.0000 -4.7692
# 5 -11.4653 -3.3487 -7.0294 0.0000 38.7584 0.0000
# 6 0.0000 0.0000 0.0000 -4.7692 0.0000 7.1424
#
#
#
# Elastic Compliance Matrix: (Units=1/GPa)
#
#
# Indices 1 2 3 4 5 6 
#
# 1 0.017302 -0.008446 -0.000574 0.000000 0.004284 0.000000
# 2 -0.008446 0.019660 -0.004214 0.000000 -0.001564 0.000000
# 3 -0.000574 -0.004214 0.010866 0.000000 0.001437 0.000000
# 4 0.000000 0.000000 0.000000 0.048034 0.000000 0.032074
# 5 0.004284 -0.001564 0.001437 0.000000 0.027194 0.000000
# 6 0.000000 0.000000 0.000000 0.032074 0.000000 0.161425
#
#
# Mechanical properties :
#
#
# Convention : Reuss Voigt Hill
#
# Bulk Modulus (GPa) = 46.81639 48.55886 47.68763
# Shear Modulus (GPa) = 15.71984 25.32754 20.52369
#
# Velocity S-wave (km/s) = 2.84514 3.61140 3.25093
# Velocity P-wave (km/s) = 5.90770 6.51112 6.21673
#
# Compressibility (1/GPa) = 0.02136004
#
# Stress axis : x y z
#
# Youngs Moduli (GPa) = 57.79611 50.86444 92.02843
#
# Poissons Ratio (x) = 0.42961 0.05283
# Poissons Ratio (y) = 0.48815 0.38781
# Poissons Ratio (z) = 0.03318 0.21435
#
# Static dielectric constant tensor:
#      x y z
#    x 3.662380 0.000000 -0.243660 
#    y 0.000000 3.582720 0.000000 
#    z -0.243660 0.000000 3.902030 
# 
# 
# High freq. dielectric constant tensor:
#      x y z
#    x 1.749070 0.000000 -0.010270 
#    y 0.000000 1.720390 0.000000 
#    z -0.010270 0.000000 1.786580 
# 
# From -- ./inp_files/94126.got.cif
#   From: 2010.06.25/outbox.cif.g09.slc.cpg/sg13_48_cif.got.tgz:94126.got - 2010.06.28 04:50:58.
