data_PCOD8117437
_publ_section_title
;
Structure prediction by ZEFSAII (Michael W. Deem and Ramdas Pophale) SiO2 
 PCOD8117437
Probable space group: P 2/C
;
_chemical_formula_sum "Si O2"
_cell_formula_units_Z 28
_cell_length_a 11.979915
_cell_length_b 10.991849
_cell_length_c 22.449328
_cell_angle_alpha 90.000000
_cell_angle_beta 151.154881
_cell_angle_gamma 90.000000
_cell_volume 1426.180126
_symmetry_space_group_name_H-M "P 2/C"
_symmetry_group_IT_number 13
_symmetry_cell_setting 'monoclinic'
loop_
_space_group_symop_operation_xyz
x,y,z
-x,y,1/2-z
-x,-y,-z
x,-y,1/2+z
loop_
_atom_site_type_symbol
_atom_site_label
_atom_site_fract_x
_atom_site_fract_y
_atom_site_fract_z
Si Si1 0.000000 0.434581 0.750000
Si Si2 0.937402 0.817366 0.880239
Si Si3 0.091091 0.551998 0.103736
Si Si4 0.754878 0.210677 0.872591
Si Si5 0.242704 0.312639 0.968758
Si Si6 0.756134 0.613764 0.725762
Si Si7 0.500000 0.104295 0.250000
Si Si8 0.136347 0.931844 0.484731
O O1 0.146937 0.341770 0.858614
O O2 0.157280 0.523389 0.784461
O O3 0.911622 0.734947 0.808926
O O4 0.693679 0.817201 0.804046
O O5 0.035275 0.948813 0.904852
O O6 0.143661 0.755522 0.015180
O O7 0.256889 0.667759 0.172339
O O8 0.244914 0.454634 0.211038
O O9 0.867219 0.594814 0.035600
O O10 0.000000 0.500000 0.000000
O O11 0.500000 0.152338 0.750000
O O12 0.925344 0.108872 0.927374
O O13 0.200906 0.171511 0.966847
O O14 0.510490 0.338995 0.091386
O O15 0.645693 0.032649 0.369964
#
# Coordination Sequence:
#
# PCOD8117437 Si02
#       8
#     2   4   4   4   4   4   2   4
#     4  10  24  44  66  88 110 152 214 262 322 358
#     4  11  22  33  59  88 124 165 204 238 288 372
#     4  10  21  34  52  91 123 156 197 239 296 375
#     4  10  21  32  49  81 128 166 190 235 285 349
#     4  10  22  41  63  84 117 161 204 256 309 366
#     4  11  22  39  65  85 120 158 206 258 309 364
#     4  10  18  36  56  86 128 172 188 230 288 368
#     4  10  22  35  58  88 122 165 208 231 296 369
#
# _framework density 19.632863
#
# number of rings (size 3 to 8) (size 9 to 14) (size 15 to 20)
#    0.000    1.714    2.857    2.143    6.000    0.000 
#    0.000    2.143    0.000    1.714    0.000    0.000 
#    0.000    0.000    0.000    0.000    0.000    0.000 
#
# Total GULP energy -347009.530571 kJ/mol
# GULP energy per Si atom -12393.197520 kJ/mol
# Density = 1.958818 g / cm^3
# Si number density = 19.632863 Si / 1000 Ang^3
#
#
#
# Elastic Constant Matrix: (Units=GPa)
#
#
# Indices 1 2 3 4 5 6 
#
# 1 63.5569 34.9181 58.0174 0.0000 -10.1782 0.0000
# 2 34.9181 127.4818 69.7647 0.0000 -10.9845 0.0000
# 3 58.0174 69.7647 163.5800 0.0000 0.3478 0.0000
# 4 0.0000 0.0000 0.0000 23.4840 0.0000 -7.4501
# 5 -10.1782 -10.9845 0.3478 0.0000 33.9499 0.0000
# 6 0.0000 0.0000 0.0000 -7.4501 0.0000 21.8198
#
#
#
# Elastic Compliance Matrix: (Units=1/GPa)
#
#
# Indices 1 2 3 4 5 6 
#
# 1 0.025405 -0.001835 -0.008243 0.000000 0.007107 0.000000
# 2 -0.001835 0.010762 -0.003945 0.000000 0.002972 0.000000
# 3 -0.008243 -0.003945 0.010728 0.000000 -0.003858 0.000000
# 4 0.000000 0.000000 0.000000 0.047755 0.000000 0.016305
# 5 0.007107 0.002972 -0.003858 0.000000 0.032587 0.000000
# 6 0.000000 0.000000 0.000000 0.016305 0.000000 0.051397
#
#
# Mechanical properties :
#
#
# Convention : Reuss Voigt Hill
#
# Bulk Modulus (GPa) = 53.05690 75.55766 64.30728
# Shear Modulus (GPa) = 23.47829 28.64532 26.06180
#
# Velocity S-wave (km/s) = 3.46188 3.82389 3.64738
# Velocity P-wave (km/s) = 6.56222 7.62004 7.11083
#
# Compressibility (1/GPa) = 0.01884769
#
# Stress axis : x y z
#
# Youngs Moduli (GPa) = 39.36283 92.91838 93.21823
#
# Poissons Ratio (x) = 0.17053 0.76837
# Poissons Ratio (y) = 0.07224 0.36777
# Poissons Ratio (z) = 0.32446 0.36659
#
# Static dielectric constant tensor:
#      x y z
#    x 3.345430 0.000000 0.003270 
#    y 0.000000 3.756230 0.000000 
#    z 0.003270 0.000000 3.811490 
# 
# 
# High freq. dielectric constant tensor:
#      x y z
#    x 1.722610 0.000000 0.009750 
#    y 0.000000 1.779820 0.000000 
#    z 0.009750 0.000000 1.777800 
# 
# From -- ./inp_files/78621.got.cif
#   From: 2010.06.25/outbox.cif.g09.slc.cpg/sg13_40_cif.got.tgz:78621.got - 2010.06.28 04:50:58.
