data_PCOD8117922
_publ_section_title
;
Structure prediction by ZEFSAII (Michael W. Deem and Ramdas Pophale) SiO2 
 PCOD8117922
Probable space group: P 2/C
;
_chemical_formula_sum "Si O2"
_cell_formula_units_Z 28
_cell_length_a 13.218706
_cell_length_b 5.104080
_cell_length_c 19.750038
_cell_angle_alpha 90.000000
_cell_angle_beta 85.731218
_cell_angle_gamma 90.000000
_cell_volume 1328.825258
_symmetry_space_group_name_H-M "P 2/C"
_symmetry_group_IT_number 13
_symmetry_cell_setting 'monoclinic'
loop_
_space_group_symop_operation_xyz
x,y,z
-x,y,1/2-z
-x,-y,-z
x,-y,1/2+z
loop_
_atom_site_type_symbol
_atom_site_label
_atom_site_fract_x
_atom_site_fract_y
_atom_site_fract_z
Si Si1 0.529983 0.346790 0.432371
Si Si2 0.844440 0.472208 0.872956
Si Si3 0.903475 0.020737 0.300533
Si Si4 0.273436 0.667076 0.503375
Si Si5 0.634356 0.452252 0.807755
Si Si6 0.676151 0.850380 0.579459
Si Si7 0.306384 0.040949 0.266476
O O1 0.500000 0.500000 0.500000
O O2 0.642757 0.243215 0.444237
O O3 0.540168 0.536523 0.365711
O O4 0.446889 0.116632 0.422799
O O5 0.902784 0.196392 0.861049
O O6 0.737074 0.422505 0.844025
O O7 0.911336 0.694266 0.833561
O O8 0.825903 0.561397 0.951915
O O9 0.805147 0.004680 0.258231
O O10 0.000000 0.965614 0.250000
O O11 0.303198 0.445929 0.446952
O O12 0.256666 0.940021 0.465327
O O13 0.625717 0.214995 0.754474
O O14 0.631023 0.721927 0.767746
O O15 0.708248 0.899781 0.654244
#
# Coordination Sequence:
#
# PCOD8117922 Si02
#       7
#     4   4   4   4   4   4   4
#     4   9  20  35  53  77 102 137 184 221 253 297
#     4   9  18  33  55  81 103 133 175 216 264 313
#     4  10  19  34  58  82 105 134 174 223 266 320
#     4  10  20  35  55  76 105 141 178 216 257 309
#     4   9  19  35  53  73 105 138 172 219 262 313
#     4  11  21  34  53  76 106 141 176 218 260 310
#     4  10  21  36  53  78 107 140 174 212 276 322
#
# _framework density 21.071242000000002
#
# number of rings (size 3 to 8) (size 9 to 14) (size 15 to 20)
#    0.000    2.286    0.000    2.571    0.000    9.714 
#    0.000    1.429    0.000    5.143    0.000    0.000 
#    0.000    0.000    0.000    0.000    0.000    0.000 
#
# Total GULP energy -346942.727315 kJ/mol
# GULP energy per Si atom -12390.811690 kJ/mol
# Density = 2.102328 g / cm^3
# Si number density = 21.071242 Si / 1000 Ang^3
#
#
#
# Elastic Constant Matrix: (Units=GPa)
#
#
# Indices 1 2 3 4 5 6 
#
# 1 21.7436 28.2961 29.6226 0.0000 -10.3936 0.0000
# 2 28.2961 127.1122 42.8921 0.0000 -6.3873 0.0000
# 3 29.6226 42.8921 120.3194 0.0000 -11.8091 0.0000
# 4 0.0000 0.0000 0.0000 25.4778 0.0000 -4.6094
# 5 -10.3936 -6.3873 -11.8091 0.0000 26.0033 0.0000
# 6 0.0000 0.0000 0.0000 -4.6094 0.0000 10.6202
#
#
#
# Elastic Compliance Matrix: (Units=1/GPa)
#
#
# Indices 1 2 3 4 5 6 
#
# 1 0.104368 -0.015969 -0.017054 0.000000 0.030049 0.000000
# 2 -0.015969 0.011401 -0.000507 0.000000 -0.003812 0.000000
# 3 -0.017054 -0.000507 0.012570 0.000000 -0.001233 0.000000
# 4 0.000000 0.000000 0.000000 0.042594 0.000000 0.018487
# 5 0.030049 -0.003812 -0.001233 0.000000 0.048971 0.000000
# 6 0.000000 0.000000 0.000000 0.018487 0.000000 0.102184
#
#
# Mechanical properties :
#
#
# Convention : Reuss Voigt Hill
#
# Bulk Modulus (GPa) = 16.31844 52.31077 34.31461
# Shear Modulus (GPa) = 12.20781 23.64457 17.92619
#
# Velocity S-wave (km/s) = 2.40960 3.35345 2.91991
# Velocity P-wave (km/s) = 3.93736 6.31456 5.26196
#
# Compressibility (1/GPa) = 0.06128036
#
# Stress axis : x y z
#
# Youngs Moduli (GPa) = 9.58148 87.70888 79.55712
#
# Poissons Ratio (x) = 1.40060 1.35673
# Poissons Ratio (y) = 0.15300 0.04034
# Poissons Ratio (z) = 0.16340 0.04448
#
# Static dielectric constant tensor:
#      x y z
#    x 3.833060 0.000000 0.061010 
#    y 0.000000 3.948710 0.000000 
#    z 0.061010 0.000000 4.282120 
# 
# 
# High freq. dielectric constant tensor:
#      x y z
#    x 1.772120 0.000000 -0.019350 
#    y 0.000000 1.831800 0.000000 
#    z -0.019350 0.000000 1.839530 
# 
# From -- ./inp_files/67317.got.cif
#   From: 2010.06.25/outbox.cif.g09.slc.cpg/sg13_34_cif.got.tgz:67317.got - 2010.06.28 04:50:58.
