data_PCOD8117553
_publ_section_title
;
Structure prediction by ZEFSAII (Michael W. Deem and Ramdas Pophale) SiO2 
 PCOD8117553
Probable space group: P 2/C
;
_chemical_formula_sum "Si O2"
_cell_formula_units_Z 22
_cell_length_a 11.735944
_cell_length_b 11.180988
_cell_length_c 14.042884
_cell_angle_alpha 90.000000
_cell_angle_beta 35.232541
_cell_angle_gamma 90.000000
_cell_volume 1063.046559
_symmetry_space_group_name_H-M "P 2/C"
_symmetry_group_IT_number 13
_symmetry_cell_setting 'monoclinic'
loop_
_space_group_symop_operation_xyz
x,y,z
-x,y,1/2-z
-x,-y,-z
x,-y,1/2+z
loop_
_atom_site_type_symbol
_atom_site_label
_atom_site_fract_x
_atom_site_fract_y
_atom_site_fract_z
Si Si1 0.599208 0.410608 0.089712
Si Si2 0.753918 0.685008 0.772535
Si Si3 0.783855 0.192862 0.057608
Si Si4 0.500000 0.981368 0.250000
Si Si5 0.000000 0.541345 0.750000
Si Si6 0.000000 0.082130 0.750000
Si Si7 0.636227 0.084461 0.466244
O O1 0.500000 0.477051 0.250000
O O2 0.430932 0.404633 0.122190
O O3 0.637061 0.272840 0.093474
O O4 0.807020 0.466813 0.914566
O O5 0.845812 0.737000 0.611466
O O6 0.671261 0.788650 0.895451
O O7 0.931738 0.619251 0.706057
O O8 0.683544 0.066961 0.152210
O O9 0.972888 0.165868 0.861887
O O10 0.457978 0.892535 0.365836
O O11 0.827179 0.992767 0.848631
O O12 0.500000 0.000000 0.500000
#
# Coordination Sequence:
#
# PCOD8117553 Si02
#       7
#     4   4   4   2   2   2   4
#     4  10  22  43  69  90 124 173 225 273 328 377
#     4  11  22  42  64  92 135 165 216 269 322 386
#     4  10  18  39  65  91 124 167 213 261 307 390
#     4  10  18  38  64  92 126 166 206 246 312 382
#     4  12  26  42  66  96 132 170 218 282 326 378
#     4  10  22  34  62  98 124 166 218 244 320 384
#     4  11  21  39  62  93 130 171 204 257 317 383
#
# _framework density 20.695236999999999
#
# number of rings (size 3 to 8) (size 9 to 14) (size 15 to 20)
#    0.000    1.455    4.545    2.727    0.000    3.636 
#    4.909    1.818    0.000    0.000    0.000    0.000 
#    0.000    0.000    0.000    0.000    0.000    0.000 
#
# Total GULP energy -272617.448946 kJ/mol
# GULP energy per Si atom -12391.702225 kJ/mol
# Density = 2.064813 g / cm^3
# Si number density = 20.695237 Si / 1000 Ang^3
#
#
#
# Elastic Constant Matrix: (Units=GPa)
#
#
# Indices 1 2 3 4 5 6 
#
# 1 151.5690 48.7011 68.2345 0.0000 2.7395 0.0000
# 2 48.7011 69.6787 46.5752 0.0000 8.5751 0.0000
# 3 68.2345 46.5752 159.0682 0.0000 23.9653 0.0000
# 4 0.0000 0.0000 0.0000 19.9364 0.0000 2.6471
# 5 2.7395 8.5751 23.9653 0.0000 25.3037 0.0000
# 6 0.0000 0.0000 0.0000 2.6471 0.0000 29.3835
#
#
#
# Elastic Compliance Matrix: (Units=1/GPa)
#
#
# Indices 1 2 3 4 5 6 
#
# 1 0.009582 -0.005013 -0.003198 0.000000 0.003691 0.000000
# 2 -0.005013 0.020503 -0.003368 0.000000 -0.003215 0.000000
# 3 -0.003198 -0.003368 0.009822 0.000000 -0.007815 0.000000
# 4 0.000000 0.000000 0.000000 0.050767 0.000000 -0.004574
# 5 0.003691 -0.003215 -0.007815 0.000000 0.047612 0.000000
# 6 0.000000 0.000000 0.000000 -0.004574 0.000000 0.034445
#
#
# Mechanical properties :
#
#
# Convention : Reuss Voigt Hill
#
# Bulk Modulus (GPa) = 59.71307 78.59306 69.15307
# Shear Modulus (GPa) = 24.81737 29.37837 27.09787
#
# Velocity S-wave (km/s) = 3.46668 3.77181 3.62246
# Velocity P-wave (km/s) = 6.70373 7.55166 7.14029
#
# Compressibility (1/GPa) = 0.01674675
#
# Stress axis : x y z
#
# Youngs Moduli (GPa) = 104.36625 48.77405 101.81011
#
# Poissons Ratio (x) = 0.24452 0.32562
# Poissons Ratio (y) = 0.52322 0.34292
# Poissons Ratio (z) = 0.33380 0.16428
#
# Static dielectric constant tensor:
#      x y z
#    x 3.943710 0.000000 0.319330 
#    y 0.000000 3.548080 0.000000 
#    z 0.319330 0.000000 4.140860 
# 
# 
# High freq. dielectric constant tensor:
#      x y z
#    x 1.815000 0.000000 0.011490 
#    y 0.000000 1.787700 0.000000 
#    z 0.011490 0.000000 1.821420 
# 
# From -- ./inp_files/46526.got.cif
#   From: 2010.06.25/outbox.cif.g09.slc.cpg/sg13_24_cif.got.tgz:46526.got - 2010.06.28 04:50:58.
