data_PCOD8117132
_publ_section_title
;
Structure prediction by ZEFSAII (Michael W. Deem and Ramdas Pophale) SiO2 
 PCOD8117132
Probable space group: P 2/C
;
_chemical_formula_sum "Si O2"
_cell_formula_units_Z 28
_cell_length_a 15.174341
_cell_length_b 15.157377
_cell_length_c 8.683861
_cell_angle_alpha 90.000000
_cell_angle_beta 124.908942
_cell_angle_gamma 90.000000
_cell_volume 1637.924000
_symmetry_space_group_name_H-M "P 2/C"
_symmetry_group_IT_number 13
_symmetry_cell_setting 'monoclinic'
loop_
_space_group_symop_operation_xyz
x,y,z
-x,y,1/2-z
-x,-y,-z
x,-y,1/2+z
loop_
_atom_site_type_symbol
_atom_site_label
_atom_site_fract_x
_atom_site_fract_y
_atom_site_fract_z
Si Si1 0.626285 0.730872 0.053649
Si Si2 0.216517 0.596347 0.147598
Si Si3 0.627772 0.088517 0.704782
Si Si4 0.000000 0.597764 0.432833
Si Si5 0.627772 0.911483 0.550760
Si Si6 0.783483 0.596347 0.714563
Si Si7 0.626285 0.730871 0.698920
O O1 0.682359 0.657125 0.212990
O O2 0.666449 0.827395 0.145683
O O3 0.657160 0.717098 0.907160
O O4 0.500000 0.720774 0.955603
O O5 0.237990 0.500000 0.237990
O O6 0.109338 0.642194 0.112920
O O7 0.201698 0.587146 0.951698
O O8 0.500000 0.083347 0.578751
O O9 0.675401 1.000000 0.675401
O O10 0.672970 0.096620 0.922970
O O11 0.109339 0.642194 0.605756
O O12 0.000000 0.598614 0.250000
O O13 0.000000 0.500000 0.500000
O O14 0.666450 0.827395 0.687214
O O15 0.682358 0.657124 0.651728
#
# Coordination Sequence:
#
# PCOD8117132 Si02
#       7
#     4   4   4   4   4   4   4
#     4  10  20  33  48  69  98 130 163 198 238 286
#     4  11  21  34  51  71  96 126 161 199 240 284
#     4   9  16  27  44  66  92 123 158 196 237 280
#     4  10  18  32  52  72  93 118 155 200 242 280
#     4   9  16  27  44  66  92 123 158 196 237 280
#     4  11  21  34  51  71  96 126 161 199 240 284
#     4  10  20  33  48  69  98 130 163 198 238 286
#
# _framework density 17.094809999999999
#
# number of rings (size 3 to 8) (size 9 to 14) (size 15 to 20)
#    0.000    2.000    0.000    7.286    0.000    5.714 
#    0.000    0.000    0.000    0.000    0.000    1.000 
#    0.000    0.000    0.000    0.000    0.000    0.000 
#
# Total GULP energy -347187.555921 kJ/mol
# GULP energy per Si atom -12399.555569 kJ/mol
# Density = 1.705590 g / cm^3
# Si number density = 17.094810 Si / 1000 Ang^3
#
#
#
# Elastic Constant Matrix: (Units=GPa)
#
#
# Indices 1 2 3 4 5 6 
#
# 1 82.2818 41.0286 42.7216 0.0000 -22.0928 0.0000
# 2 41.0286 97.6802 41.6433 0.0000 -1.1214 0.0000
# 3 42.7216 41.6433 107.7559 0.0000 -24.4032 0.0000
# 4 0.0000 0.0000 0.0000 20.9372 0.0000 -15.0141
# 5 -22.0928 -1.1214 -24.4032 0.0000 30.0492 0.0000
# 6 0.0000 0.0000 0.0000 -15.0141 0.0000 12.7114
#
#
#
# Elastic Compliance Matrix: (Units=1/GPa)
#
#
# Indices 1 2 3 4 5 6 
#
# 1 0.020584 -0.007507 -0.002323 0.000000 0.012967 0.000000
# 2 -0.007507 0.015433 -0.005033 0.000000 -0.009031 0.000000
# 3 -0.002323 -0.005033 0.014358 0.000000 0.009764 0.000000
# 4 0.000000 0.000000 0.000000 0.312197 0.000000 0.368755
# 5 0.012967 -0.009031 0.009764 0.000000 0.050405 0.000000
# 6 0.000000 0.000000 0.000000 0.368755 0.000000 0.514227
#
#
# Mechanical properties :
#
#
# Convention : Reuss Voigt Hill
#
# Bulk Modulus (GPa) = 48.42980 59.83389 54.13184
# Shear Modulus (GPa) = 5.18773 23.56118 14.37445
#
# Velocity S-wave (km/s) = 1.74392 3.71653 2.90292
# Velocity P-wave (km/s) = 5.69620 7.31396 6.55517
#
# Compressibility (1/GPa) = 0.02064845
#
# Stress axis : x y z
#
# Youngs Moduli (GPa) = 48.58031 64.79816 69.64932
#
# Poissons Ratio (x) = 0.48642 0.16182
# Poissons Ratio (y) = 0.36468 0.35055
# Poissons Ratio (z) = 0.11287 0.32613
#
# Static dielectric constant tensor:
#      x y z
#    x 3.313970 0.000000 -0.057680 
#    y 0.000000 3.135200 0.000000 
#    z -0.057680 0.000000 3.345570 
# 
# 
# High freq. dielectric constant tensor:
#      x y z
#    x 1.646280 0.000000 -0.029220 
#    y 0.000000 1.646180 0.000000 
#    z -0.029220 0.000000 1.662290 
# 
# From -- ./inp_files/16882.got.cif
#   From: 2010.06.25/outbox.cif.g09.slc.cpg/sg13_9_cif.got.tgz:16882.got - 2010.06.28 04:50:58.
