data_PCOD8117982
_publ_section_title
;
Structure prediction by ZEFSAII (Michael W. Deem and Ramdas Pophale) SiO2 
 PCOD8117982
Probable space group: P 2/C
;
_chemical_formula_sum "Si O2"
_cell_formula_units_Z 22
_cell_length_a 7.739627
_cell_length_b 16.287120
_cell_length_c 9.199556
_cell_angle_alpha 90.000000
_cell_angle_beta 93.699635
_cell_angle_gamma 90.000000
_cell_volume 1157.244681
_symmetry_space_group_name_H-M "P 2/C"
_symmetry_group_IT_number 13
_symmetry_cell_setting 'monoclinic'
loop_
_space_group_symop_operation_xyz
x,y,z
-x,y,1/2-z
-x,-y,-z
x,-y,1/2+z
loop_
_atom_site_type_symbol
_atom_site_label
_atom_site_fract_x
_atom_site_fract_y
_atom_site_fract_z
Si Si1 0.803676 0.577189 0.407176
Si Si2 0.230791 0.968803 0.515381
Si Si3 0.551024 0.118950 0.921163
Si Si4 0.000000 0.991005 0.750000
Si Si5 0.512029 0.696972 0.422220
Si Si6 0.805015 0.409431 0.569778
O O1 0.667378 0.637214 0.477262
O O2 0.768008 0.488327 0.470744
O O3 0.771930 0.566967 0.234639
O O4 0.994784 0.615200 0.446903
O O5 0.274397 0.066589 0.539407
O O6 0.117039 0.953579 0.364472
O O7 0.404324 0.917762 0.517390
O O8 0.124631 0.937450 0.651647
O O9 0.500000 0.111641 0.750000
O O10 0.565645 0.212276 0.977803
O O11 0.500000 0.700030 0.250000
O O12 0.328316 0.664481 0.478893
#
# Coordination Sequence:
#
# PCOD8117982 Si02
#       6
#     4   4   4   2   4   4
#     4   9  17  31  52  74 100 132 170 212 255 307
#     4  10  20  36  58  78 108 140 182 216 270 318
#     4  10  19  35  55  78 107 144 177 222 266 322
#     4  10  20  36  56  86 100 136 186 222 262 322
#     4   9  18  32  50  79 102 133 171 216 258 308
#     4   9  17  31  52  74 100 132 170 212 255 307
#
# _framework density 19.010672
#
# number of rings (size 3 to 8) (size 9 to 14) (size 15 to 20)
#    0.000    2.545    1.818    0.545    0.000    0.000 
#    6.545    0.000    8.000    0.000    0.000    0.000 
#    0.000    0.000    0.000    0.000    0.000    0.000 
#
# Total GULP energy -272611.629672 kJ/mol
# GULP energy per Si atom -12391.437712 kJ/mol
# Density = 1.896740 g / cm^3
# Si number density = 19.010672 Si / 1000 Ang^3
#
#
#
# Elastic Constant Matrix: (Units=GPa)
#
#
# Indices 1 2 3 4 5 6 
#
# 1 103.1405 40.8934 28.3315 0.0000 -9.3506 0.0000
# 2 40.8934 96.6135 17.5465 0.0000 1.8206 0.0000
# 3 28.3315 17.5465 66.2325 0.0000 -5.5248 0.0000
# 4 0.0000 0.0000 0.0000 17.0988 0.0000 -1.1582
# 5 -9.3506 1.8206 -5.5248 0.0000 28.0366 0.0000
# 6 0.0000 0.0000 0.0000 -1.1582 0.0000 15.7266
#
#
#
# Elastic Compliance Matrix: (Units=1/GPa)
#
#
# Indices 1 2 3 4 5 6 
#
# 1 0.013078 -0.004887 -0.003975 0.000000 0.003896 0.000000
# 2 -0.004887 0.012746 -0.001516 0.000000 -0.002756 0.000000
# 3 -0.003975 -0.001516 0.017384 0.000000 0.002198 0.000000
# 4 0.000000 0.000000 0.000000 0.058777 0.000000 0.004329
# 5 0.003896 -0.002756 0.002198 0.000000 0.037579 0.000000
# 6 0.000000 0.000000 0.000000 0.004329 0.000000 0.063906
#
#
# Mechanical properties :
#
#
# Convention : Reuss Voigt Hill
#
# Bulk Modulus (GPa) = 44.53910 48.83660 46.68785
# Shear Modulus (GPa) = 21.57875 24.12008 22.84942
#
# Velocity S-wave (km/s) = 3.37276 3.56584 3.47064
# Velocity P-wave (km/s) = 6.21664 6.53440 6.37750
#
# Compressibility (1/GPa) = 0.02245218
#
# Stress axis : x y z
#
# Youngs Moduli (GPa) = 76.46343 78.45360 57.52562
#
# Poissons Ratio (x) = 0.38341 0.22864
# Poissons Ratio (y) = 0.37369 0.08722
# Poissons Ratio (z) = 0.30391 0.11895
#
# Static dielectric constant tensor:
#      x y z
#    x 3.832700 0.000000 -0.100470 
#    y 0.000000 3.466530 0.000000 
#    z -0.100470 0.000000 3.354490 
# 
# 
# High freq. dielectric constant tensor:
#      x y z
#    x 1.759120 0.000000 -0.009580 
#    y 0.000000 1.705980 0.000000 
#    z -0.009580 0.000000 1.721790 
# 
# From -- ./inp_files/12510.got.cif
#   From: 2010.06.25/outbox.cif.g09.slc.cpg/sg13_7_cif.got.tgz:12510.got - 2010.06.28 04:50:58.
