data_PCOD8117560
_publ_section_title
;
Structure prediction by ZEFSAII (Michael W. Deem and Ramdas Pophale) SiO2 
 PCOD8117560
Probable space group: P 2/C
;
_chemical_formula_sum "Si O2"
_cell_formula_units_Z 22
_cell_length_a 22.792241
_cell_length_b 8.939358
_cell_length_c 15.398510
_cell_angle_alpha 90.000000
_cell_angle_beta 161.194829
_cell_angle_gamma 90.000000
_cell_volume 1011.349478
_symmetry_space_group_name_H-M "P 2/C"
_symmetry_group_IT_number 13
_symmetry_cell_setting 'monoclinic'
loop_
_space_group_symop_operation_xyz
x,y,z
-x,y,1/2-z
-x,-y,-z
x,-y,1/2+z
loop_
_atom_site_type_symbol
_atom_site_label
_atom_site_fract_x
_atom_site_fract_y
_atom_site_fract_z
Si Si1 0.877988 0.370072 0.788816
Si Si2 0.000000 0.385814 0.250000
Si Si3 0.646932 0.508279 0.819802
Si Si4 0.492097 0.741097 0.002806
Si Si5 0.837515 0.824177 0.392695
Si Si6 0.096526 0.854804 0.476897
O O1 0.703523 0.447505 0.497171
O O2 0.793725 0.253438 0.739334
O O3 0.000000 0.500000 0.000000
O O4 0.004512 0.280421 0.899187
O O5 0.170877 0.495659 0.483087
O O6 0.011426 0.282074 0.351156
O O7 0.525414 0.634216 0.605408
O O8 0.540222 0.350125 0.659426
O O9 0.312020 0.833566 0.767533
O O10 0.663031 0.842681 0.212574
O O11 0.923386 0.988547 0.498960
O O12 0.000000 0.872748 0.250000
#
# Coordination Sequence:
#
# PCOD8117560 Si02
#       6
#     4   2   4   4   4   4
#     4  12  25  41  69 101 133 171 223 279 330 383
#     4  10  18  38  66  96 128 178 218 264 328 400
#     4  10  20  38  65  99 131 165 224 270 323 381
#     4  10  23  41  70  96 130 174 226 269 325 397
#     4  11  24  42  67  98 135 171 221 274 331 392
#     4  12  24  46  69  96 132 183 220 267 336 411
#
# _framework density 21.753114
#
# number of rings (size 3 to 8) (size 9 to 14) (size 15 to 20)
#    0.000    1.091    4.545    2.182    5.091    0.727 
#    0.000    0.000    4.000    0.000    0.000    0.000 
#    0.000    0.000    0.000    0.000    0.000    0.000 
#
# Total GULP energy -272734.648971 kJ/mol
# GULP energy per Si atom -12397.029499 kJ/mol
# Density = 2.170360 g / cm^3
# Si number density = 21.753114 Si / 1000 Ang^3
#
#
#
# Elastic Constant Matrix: (Units=GPa)
#
#
# Indices 1 2 3 4 5 6 
#
# 1 73.3079 39.1367 33.9904 0.0000 -17.4746 0.0000
# 2 39.1367 104.8414 39.1969 0.0000 -17.9282 0.0000
# 3 33.9904 39.1969 114.4146 0.0000 -21.7768 0.0000
# 4 0.0000 0.0000 0.0000 4.6272 0.0000 -11.6934
# 5 -17.4746 -17.9282 -21.7768 0.0000 42.0026 0.0000
# 6 0.0000 0.0000 0.0000 -11.6934 0.0000 34.1075
#
#
#
# Elastic Compliance Matrix: (Units=1/GPa)
#
#
# Indices 1 2 3 4 5 6 
#
# 1 0.018777 -0.005186 -0.003035 0.000000 0.004024 0.000000
# 2 -0.005186 0.012729 -0.002437 0.000000 0.002012 0.000000
# 3 -0.003035 -0.002437 0.011138 0.000000 0.003471 0.000000
# 4 0.000000 0.000000 0.000000 1.617363 0.000000 0.554494
# 5 0.004024 0.002012 0.003471 0.000000 0.028141 0.000000
# 6 0.000000 0.000000 0.000000 0.554494 0.000000 0.219421
#
#
# Mechanical properties :
#
#
# Convention : Reuss Voigt Hill
#
# Bulk Modulus (GPa) = 46.89155 57.46799 52.17977
# Shear Modulus (GPa) = 2.58265 28.16345 15.37305
#
# Velocity S-wave (km/s) = 1.09079 3.60208 2.66128
# Velocity P-wave (km/s) = 4.81555 6.61631 5.78641
#
# Compressibility (1/GPa) = 0.02132580
#
# Stress axis : x y z
#
# Youngs Moduli (GPa) = 53.25798 78.55781 89.78592
#
# Poissons Ratio (x) = 0.40741 0.27254
# Poissons Ratio (y) = 0.27620 0.21883
# Poissons Ratio (z) = 0.16166 0.19147
#
# Static dielectric constant tensor:
#      x y z
#    x 3.644520 0.000000 -0.158580 
#    y 0.000000 3.957690 0.000000 
#    z -0.158580 0.000000 4.144370 
# 
# 
# High freq. dielectric constant tensor:
#      x y z
#    x 1.829040 0.000000 -0.003720 
#    y 0.000000 1.860430 0.000000 
#    z -0.003720 0.000000 1.868710 
# 
# From -- ./inp_files/58631.got.cif
#   From: 2010.06.25/outbox.cif.g09.slc.cpg/sg13_30_cif.got.tgz:58631.got - 2010.06.28 04:50:58.
