data_PCOD8117106
_publ_section_title
;
Structure prediction by ZEFSAII (Michael W. Deem and Ramdas Pophale) SiO2 
 PCOD8117106
Probable space group: P 2/C
;
_chemical_formula_sum "Si O2"
_cell_formula_units_Z 28
_cell_length_a 19.160234
_cell_length_b 10.280066
_cell_length_c 22.420164
_cell_angle_alpha 90.000000
_cell_angle_beta 159.924372
_cell_angle_gamma 90.000000
_cell_volume 1515.859491
_symmetry_space_group_name_H-M "P 2/C"
_symmetry_group_IT_number 13
_symmetry_cell_setting 'monoclinic'
loop_
_space_group_symop_operation_xyz
x,y,z
-x,y,1/2-z
-x,-y,-z
x,-y,1/2+z
loop_
_atom_site_type_symbol
_atom_site_label
_atom_site_fract_x
_atom_site_fract_y
_atom_site_fract_z
Si Si1 0.853900 0.337866 0.217172
Si Si2 0.428859 0.994838 0.375377
Si Si3 0.783086 0.256411 0.836430
Si Si4 0.491521 0.495865 0.923070
Si Si5 0.718139 0.265249 0.919928
Si Si6 0.778685 0.092777 0.075409
Si Si7 0.234934 0.732895 0.718946
O O1 0.799513 0.225484 0.128245
O O2 0.781092 0.290339 0.223407
O O3 0.097889 0.362375 0.412708
O O4 0.726443 0.464905 0.092717
O O5 0.288402 0.867539 0.258585
O O6 0.615558 0.996370 0.478181
O O7 0.500000 0.000000 0.500000
O O8 0.299374 0.121394 0.255769
O O9 0.653672 0.381246 0.715424
O O10 0.753366 0.217328 0.881276
O O11 0.018810 0.289821 0.012985
O O12 0.402157 0.631726 0.826139
O O13 0.500000 0.500000 0.000000
O O14 0.500000 0.338946 0.750000
O O15 0.708979 0.134246 0.952966
O O16 0.000000 0.021890 0.250000
#
# Coordination Sequence:
#
# PCOD8117106 Si02
#       7
#     4   4   4   4   4   4   4
#     4   9  17  32  53  81 110 146 191 230 275 345
#     4  12  20  35  56  84 118 151 194 244 286 347
#     4  11  21  35  54  85 115 147 197 241 283 337
#     4  10  18  35  54  79 112 149 181 225 289 354
#     4  10  18  31  54  84 110 142 192 249 281 318
#     4  10  19  34  56  82 110 150 195 237 285 337
#     4  10  21  32  53  85 121 148 177 238 301 336
#
# _framework density 18.47137
#
# number of rings (size 3 to 8) (size 9 to 14) (size 15 to 20)
#    0.000    1.714    4.286    1.714    0.000    0.000 
#    0.000    0.000    0.000    4.286   11.143    0.000 
#    0.000    0.000    0.000    0.000    0.000    0.000 
#
# Total GULP energy -346963.474232 kJ/mol
# GULP energy per Si atom -12391.552651 kJ/mol
# Density = 1.842933 g / cm^3
# Si number density = 18.471370 Si / 1000 Ang^3
#
#
#
# Elastic Constant Matrix: (Units=GPa)
#
#
# Indices 1 2 3 4 5 6 
#
# 1 62.3416 16.3682 38.2616 0.0000 2.0804 0.0000
# 2 16.3682 76.8849 35.1981 0.0000 -0.1511 0.0000
# 3 38.2616 35.1981 131.0330 0.0000 13.5404 0.0000
# 4 0.0000 0.0000 0.0000 28.5446 0.0000 5.2928
# 5 2.0804 -0.1511 13.5404 0.0000 39.1814 0.0000
# 6 0.0000 0.0000 0.0000 5.2928 0.0000 21.7675
#
#
#
# Elastic Compliance Matrix: (Units=1/GPa)
#
#
# Indices 1 2 3 4 5 6 
#
# 1 0.019780 -0.001741 -0.005391 0.000000 0.000806 0.000000
# 2 -0.001741 0.015067 -0.003686 0.000000 0.001424 0.000000
# 3 -0.005391 -0.003686 0.010545 0.000000 -0.003372 0.000000
# 4 0.000000 0.000000 0.000000 0.036687 0.000000 -0.008921
# 5 0.000806 0.001424 -0.003372 0.000000 0.026650 0.000000
# 6 0.000000 0.000000 0.000000 -0.008921 0.000000 0.048109
#
#
# Mechanical properties :
#
#
# Convention : Reuss Voigt Hill
#
# Bulk Modulus (GPa) = 42.09742 49.99059 46.04401
# Shear Modulus (GPa) = 26.82493 29.92747 28.37620
#
# Velocity S-wave (km/s) = 3.81497 4.02955 3.92372
# Velocity P-wave (km/s) = 6.49965 6.98371 6.74602
#
# Compressibility (1/GPa) = 0.02375442
#
# Stress axis : x y z
#
# Youngs Moduli (GPa) = 50.55667 66.36801 94.83580
#
# Poissons Ratio (x) = 0.11556 0.51129
# Poissons Ratio (y) = 0.08803 0.34958
# Poissons Ratio (z) = 0.27256 0.24464
#
# Static dielectric constant tensor:
#      x y z
#    x 3.710200 0.000000 0.292190 
#    y 0.000000 3.260780 0.000000 
#    z 0.292190 0.000000 4.053880 
# 
# 
# High freq. dielectric constant tensor:
#      x y z
#    x 1.704260 0.000000 -0.000320 
#    y 0.000000 1.671240 0.000000 
#    z -0.000320 0.000000 1.749810 
# 
# From -- ./inp_files/82211.got.cif
#   From: 2010.06.25/outbox.cif.g09.slc.cpg/sg13_42_cif.got.tgz:82211.got - 2010.06.28 04:50:58.
