data_PCOD8117280
_publ_section_title
;
Structure prediction by ZEFSAII (Michael W. Deem and Ramdas Pophale) SiO2 
 PCOD8117280
Probable space group: P 2/C
;
_chemical_formula_sum "Si O2"
_cell_formula_units_Z 32
_cell_length_a 13.423048
_cell_length_b 14.544908
_cell_length_c 9.448796
_cell_angle_alpha 90.000000
_cell_angle_beta 87.692176
_cell_angle_gamma 90.000000
_cell_volume 1843.258298
_symmetry_space_group_name_H-M "P 2/C"
_symmetry_group_IT_number 13
_symmetry_cell_setting 'monoclinic'
loop_
_space_group_symop_operation_xyz
x,y,z
-x,y,1/2-z
-x,-y,-z
x,-y,1/2+z
loop_
_atom_site_type_symbol
_atom_site_label
_atom_site_fract_x
_atom_site_fract_y
_atom_site_fract_z
Si Si1 0.872658 0.160113 0.856941
Si Si2 0.825690 0.647833 0.856994
Si Si3 0.094955 0.204067 0.946208
Si Si4 0.069652 0.963743 0.617252
Si Si5 0.397693 0.406747 0.426737
Si Si6 0.201469 0.693329 0.956252
Si Si7 0.930669 0.540294 0.383877
Si Si8 0.616455 0.583484 0.894167
O O1 0.843570 0.201106 0.704069
O O2 0.801173 0.204188 0.978748
O O3 0.982042 0.188505 0.904870
O O4 0.859005 0.049462 0.845170
O O5 0.839114 0.694275 0.702283
O O6 0.858859 0.542199 0.836983
O O7 0.709832 0.651772 0.914146
O O8 0.891089 0.699433 0.972679
O O9 0.130525 0.123939 0.053858
O O10 0.000000 0.931319 0.750000
O O11 0.000000 0.000000 0.500000
O O12 0.318940 0.326435 0.455973
O O13 0.364653 0.489529 0.526806
O O14 0.389291 0.444216 0.268844
O O15 0.511017 0.371444 0.450879
O O16 0.135602 0.624698 0.056519
O O17 0.000000 0.575352 0.250000
O O18 0.000000 0.500000 0.500000
#
# Coordination Sequence:
#
# PCOD8117280 Si02
#       8
#     4   4   4   4   4   4   4   4
#     4  10  21  35  49  74 101 136 168 204 246 293
#     4  11  23  35  49  74  98 136 175 207 251 299
#     4  10  22  33  51  73 102 136 167 206 244 296
#     4  10  18  34  52  73 100 132 169 209 252 289
#     4   9  18  34  53  74  94 128 167 218 262 297
#     4  11  23  34  50  72 101 135 173 208 250 301
#     4  12  24  34  43  65 102 140 171 202 239 291
#     4   9  18  34  54  72  97 124 170 218 261 299
#
# _framework density 17.360562999999999
#
# number of rings (size 3 to 8) (size 9 to 14) (size 15 to 20)
#    0.000    1.750    5.000    0.750    7.000    1.000 
#    0.000    0.000    0.000    0.000    0.000    0.875 
#    0.000    0.000    0.000    0.000    0.000    0.000 
#
# Total GULP energy -396576.920296 kJ/mol
# GULP energy per Si atom -12393.028759 kJ/mol
# Density = 1.732105 g / cm^3
# Si number density = 17.360563 Si / 1000 Ang^3
#
#
#
# Elastic Constant Matrix: (Units=GPa)
#
#
# Indices 1 2 3 4 5 6 
#
# 1 57.7332 17.8365 28.7608 0.0000 -7.2222 0.0000
# 2 17.8365 65.5391 27.7156 0.0000 -7.6746 0.0000
# 3 28.7608 27.7156 95.0829 0.0000 -12.3881 0.0000
# 4 0.0000 0.0000 0.0000 31.2001 0.0000 -2.9318
# 5 -7.2222 -7.6746 -12.3881 0.0000 20.6241 0.0000
# 6 0.0000 0.0000 0.0000 -2.9318 0.0000 11.0049
#
#
#
# Elastic Compliance Matrix: (Units=1/GPa)
#
#
# Indices 1 2 3 4 5 6 
#
# 1 0.021250 -0.003271 -0.005059 0.000000 0.003185 0.000000
# 2 -0.003271 0.018174 -0.003880 0.000000 0.003287 0.000000
# 3 -0.005059 -0.003880 0.013843 0.000000 0.005099 0.000000
# 4 0.000000 0.000000 0.000000 0.032874 0.000000 0.008758
# 5 0.003185 0.003287 0.005099 0.000000 0.053889 0.000000
# 6 0.000000 0.000000 0.000000 0.008758 0.000000 0.093202
#
#
# Mechanical properties :
#
#
# Convention : Reuss Voigt Hill
#
# Bulk Modulus (GPa) = 34.66565 40.77567 37.72066
# Shear Modulus (GPa) = 18.70782 22.16863 20.43823
#
# Velocity S-wave (km/s) = 3.28625 3.57733 3.43487
# Velocity P-wave (km/s) = 5.86606 6.37193 6.12422
#
# Compressibility (1/GPa) = 0.02884700
#
# Stress axis : x y z
#
# Youngs Moduli (GPa) = 47.05779 55.02409 72.23942
#
# Poissons Ratio (x) = 0.17997 0.36549
# Poissons Ratio (y) = 0.15391 0.28028
# Poissons Ratio (z) = 0.23809 0.21349
#
# Static dielectric constant tensor:
#      x y z
#    x 3.203820 0.000000 -0.168880 
#    y 0.000000 3.599340 0.000000 
#    z -0.168880 0.000000 3.617360 
# 
# 
# High freq. dielectric constant tensor:
#      x y z
#    x 1.635620 0.000000 -0.005470 
#    y 0.000000 1.649230 0.000000 
#    z -0.005470 0.000000 1.694310 
# 
# From -- ./inp_files/19370.got.cif
#   From: 2010.06.25/outbox.cif.g09.slc.cpg/sg13_10_cif.got.tgz:19370.got - 2010.06.28 04:50:58.
