data_PCOD8117390
_publ_section_title
;
Structure prediction by ZEFSAII (Michael W. Deem and Ramdas Pophale) SiO2 
 PCOD8117390
Probable space group: P 2/C
;
_chemical_formula_sum "Si O2"
_cell_formula_units_Z 20
_cell_length_a 19.247033
_cell_length_b 9.136359
_cell_length_c 18.090820
_cell_angle_alpha 90.000000
_cell_angle_beta 20.884133
_cell_angle_gamma 90.000000
_cell_volume 1134.042905
_symmetry_space_group_name_H-M "P 2/C"
_symmetry_group_IT_number 13
_symmetry_cell_setting 'monoclinic'
loop_
_space_group_symop_operation_xyz
x,y,z
-x,y,1/2-z
-x,-y,-z
x,-y,1/2+z
loop_
_atom_site_type_symbol
_atom_site_label
_atom_site_fract_x
_atom_site_fract_y
_atom_site_fract_z
Si Si1 0.455155 0.192037 0.101921
Si Si2 0.168956 0.620751 0.409463
Si Si3 0.202385 0.069146 0.825267
Si Si4 0.723341 0.574955 0.824177
Si Si5 0.544166 0.547414 0.791437
O O1 0.354192 0.272943 0.132258
O O2 0.450027 0.290034 0.180257
O O3 0.322558 0.051234 0.250905
O O4 0.673351 0.133874 0.867454
O O5 0.172334 0.795938 0.411525
O O6 0.310470 0.558098 0.201708
O O7 0.252388 0.541552 0.400017
O O8 0.950702 0.572597 0.614014
O O9 0.000000 0.000000 0.000000
O O10 0.622975 0.545449 0.001947
O O11 0.500000 0.562339 0.750000
#
# Coordination Sequence:
#
# PCOD8117390 Si02
#       5
#     4   4   4   4   4
#     4  10  20  34  57  84 109 139 187 228 273 325
#     4  10  19  34  58  83 107 138 186 231 272 315
#     4  11  19  32  58  88 106 135 176 238 283 312
#     4  10  18  35  58  82 106 137 187 238 262 313
#     4  11  22  37  55  78 114 151 181 223 274 334
#
# _framework density 17.636016000000001
#
# number of rings (size 3 to 8) (size 9 to 14) (size 15 to 20)
#    0.000    1.600    6.000    1.200    0.000    0.800 
#    0.000    1.000    0.000    0.000    0.000    0.000 
#    0.000    0.000    0.000    0.000    0.000    0.000 
#
# Total GULP energy -247939.210530 kJ/mol
# GULP energy per Si atom -12396.960526 kJ/mol
# Density = 1.759588 g / cm^3
# Si number density = 17.636016 Si / 1000 Ang^3
#
#
#
# Elastic Constant Matrix: (Units=GPa)
#
#
# Indices 1 2 3 4 5 6 
#
# 1 122.5074 52.2349 37.8896 0.0000 -1.7588 0.0000
# 2 52.2349 133.6829 31.7119 0.0000 -9.1261 0.0000
# 3 37.8896 31.7119 75.2495 0.0000 -15.2446 0.0000
# 4 0.0000 0.0000 0.0000 31.4870 0.0000 -5.8531
# 5 -1.7588 -9.1261 -15.2446 0.0000 21.0580 0.0000
# 6 0.0000 0.0000 0.0000 -5.8531 0.0000 18.5950
#
#
#
# Elastic Compliance Matrix: (Units=1/GPa)
#
#
# Indices 1 2 3 4 5 6 
#
# 1 0.011115 -0.003444 -0.004992 0.000000 -0.004178 0.000000
# 2 -0.003444 0.009407 -0.001714 0.000000 0.002548 0.000000
# 3 -0.004992 -0.001714 0.019089 0.000000 0.012660 0.000000
# 4 0.000000 0.000000 0.000000 0.033733 0.000000 0.010618
# 5 -0.004178 0.002548 0.012660 0.000000 0.057408 0.000000
# 6 0.000000 0.000000 0.000000 0.010618 0.000000 0.057120
#
#
# Mechanical properties :
#
#
# Convention : Reuss Voigt Hill
#
# Bulk Modulus (GPa) = 51.78070 63.90140 57.84105
# Shear Modulus (GPa) = 23.29818 28.20155 25.74987
#
# Velocity S-wave (km/s) = 3.63858 4.00320 3.82524
# Velocity P-wave (km/s) = 6.86126 7.59471 7.23728
#
# Compressibility (1/GPa) = 0.01931222
#
# Stress axis : x y z
#
# Youngs Moduli (GPa) = 89.96702 106.30758 52.38494
#
# Poissons Ratio (x) = 0.36615 0.26149
# Poissons Ratio (y) = 0.30987 0.08977
# Poissons Ratio (z) = 0.44908 0.18218
#
# Static dielectric constant tensor:
#      x y z
#    x 2.814840 0.000000 -0.210550 
#    y 0.000000 3.545560 0.000000 
#    z -0.210550 0.000000 3.416580 
# 
# 
# High freq. dielectric constant tensor:
#      x y z
#    x 1.626970 0.000000 -0.026580 
#    y 0.000000 1.700170 0.000000 
#    z -0.026580 0.000000 1.699610 
# 
# From -- ./inp_files/81473.got.cif
#   From: 2010.06.25/outbox.cif.g09.slc.cpg/sg13_41_cif.got.tgz:81473.got - 2010.06.28 04:50:58.
