data_PCOD8117382
_publ_section_title
;
Structure prediction by ZEFSAII (Michael W. Deem and Ramdas Pophale) SiO2 
 PCOD8117382
Probable space group: P 2/C
;
_chemical_formula_sum "Si O2"
_cell_formula_units_Z 28
_cell_length_a 8.979898
_cell_length_b 29.303148
_cell_length_c 5.292476
_cell_angle_alpha 90.000000
_cell_angle_beta 116.972697
_cell_angle_gamma 90.000000
_cell_volume 1241.168798
_symmetry_space_group_name_H-M "P 2/C"
_symmetry_group_IT_number 13
_symmetry_cell_setting 'monoclinic'
loop_
_space_group_symop_operation_xyz
x,y,z
-x,y,1/2-z
-x,-y,-z
x,-y,1/2+z
loop_
_atom_site_type_symbol
_atom_site_label
_atom_site_fract_x
_atom_site_fract_y
_atom_site_fract_z
Si Si1 0.430893 0.051174 0.944398
Si Si2 0.187381 0.518906 0.112549
Si Si3 0.305286 0.383328 0.602042
Si Si4 0.305573 0.328211 0.102669
Si Si5 0.186167 0.807697 0.115280
Si Si6 0.899820 0.908727 0.425896
Si Si7 0.811632 0.230196 0.384108
O O1 0.500000 0.077225 0.750000
O O2 0.231085 0.052420 0.762864
O O3 0.500000 0.076144 0.250000
O O4 0.500000 0.000000 0.000000
O O5 0.278861 0.507105 0.448520
O O6 0.191020 0.572575 0.060027
O O7 0.000000 0.500000 0.000000
O O8 0.500000 0.397143 0.750000
O O9 0.260352 0.362956 0.293662
O O10 0.260181 0.348597 0.793730
O O11 0.500000 0.314519 0.250000
O O12 0.193791 0.283897 0.067165
O O13 0.187912 0.861627 0.061600
O O14 0.278762 0.795781 0.450141
O O15 0.279387 0.783278 0.949979
O O16 0.000541 0.787226 0.000275
O O17 0.000000 0.897822 0.250000
O O18 0.000000 0.927020 0.750000
#
# Coordination Sequence:
#
# PCOD8117382 Si02
#       7
#     4   4   4   4   4   4   4
#     4  10  23  45  65  93 141 174 212 281 343 400
#     4  10  21  38  56  81 114 143 182 250 302 359
#     4  10  21  38  58  80 109 154 201 240 293 367
#     4  10  21  37  57  82 116 155 197 237 291 374
#     4  10  19  35  56  84 120 150 201 255 303 357
#     4  12  21  40  70  99 125 177 230 276 324 401
#     4  10  18  35  56  83 121 149 193 254 307 349
#
# _framework density 22.559381999999999
#
# number of rings (size 3 to 8) (size 9 to 14) (size 15 to 20)
#    0.000    1.714    2.857    2.571    0.000    0.571 
#    0.000   27.857    0.000    0.000    0.000    0.000 
#    0.000    0.000    0.000    0.000    0.000    0.000 
#
# Total GULP energy -346960.418744 kJ/mol
# GULP energy per Si atom -12391.443527 kJ/mol
# Density = 2.250804 g / cm^3
# Si number density = 22.559382 Si / 1000 Ang^3
#
#
#
# Elastic Constant Matrix: (Units=GPa)
#
#
# Indices 1 2 3 4 5 6 
#
# 1 62.7267 45.4748 57.7039 0.0000 -28.3074 0.0000
# 2 45.4748 115.2998 33.8696 0.0000 3.1432 0.0000
# 3 57.7039 33.8696 168.0777 0.0000 -53.4999 0.0000
# 4 0.0000 0.0000 0.0000 21.1910 0.0000 3.9887
# 5 -28.3074 3.1432 -53.4999 0.0000 52.3139 0.0000
# 6 0.0000 0.0000 0.0000 3.9887 0.0000 15.7038
#
#
#
# Elastic Compliance Matrix: (Units=1/GPa)
#
#
# Indices 1 2 3 4 5 6 
#
# 1 0.038076 -0.013965 -0.005090 0.000000 0.016237 0.000000
# 2 -0.013965 0.014832 -0.001310 0.000000 -0.009787 0.000000
# 3 -0.005090 -0.001310 0.010541 0.000000 0.008104 0.000000
# 4 0.000000 0.000000 0.000000 0.049559 0.000000 -0.012588
# 5 0.016237 -0.009787 0.008104 0.000000 0.036777 0.000000
# 6 0.000000 0.000000 0.000000 -0.012588 0.000000 0.066876
#
#
# Mechanical properties :
#
#
# Convention : Reuss Voigt Hill
#
# Bulk Modulus (GPa) = 44.01388 68.91120 56.46254
# Shear Modulus (GPa) = 18.87053 31.77880 25.32467
#
# Velocity S-wave (km/s) = 2.89534 3.75730 3.35412
# Velocity P-wave (km/s) = 5.54346 7.03107 6.33111
#
# Compressibility (1/GPa) = 0.02272010
#
# Stress axis : x y z
#
# Youngs Moduli (GPa) = 26.26341 67.41992 94.87199
#
# Poissons Ratio (x) = 0.94151 0.48286
# Poissons Ratio (y) = 0.36676 0.12427
# Poissons Ratio (z) = 0.13367 0.08831
#
# Static dielectric constant tensor:
#      x y z
#    x 8.071500 0.000000 -7.575130 
#    y 0.000000 3.746740 0.000000 
#    z -7.575130 0.000000 16.423610 
# 
# 
# High freq. dielectric constant tensor:
#      x y z
#    x 1.869460 0.000000 -0.044480 
#    y 0.000000 1.875160 0.000000 
#    z -0.044480 0.000000 1.909270 
# 
# From -- ./inp_files/2753.got.cif
#   From: 2010.06.25/outbox.cif.g09.slc.cpg/sg13_2_cif.got.tgz:2753.got - 2010.06.28 04:50:58.
