data_PCOD8117683
_publ_section_title
;
Structure prediction by ZEFSAII (Michael W. Deem and Ramdas Pophale) SiO2 
 PCOD8117683
Probable space group: P 2/C
;
_chemical_formula_sum "Si O2"
_cell_formula_units_Z 30
_cell_length_a 12.308648
_cell_length_b 5.511896
_cell_length_c 23.772746
_cell_angle_alpha 90.000000
_cell_angle_beta 75.090121
_cell_angle_gamma 90.000000
_cell_volume 1558.536425
_symmetry_space_group_name_H-M "P 2/C"
_symmetry_group_IT_number 13
_symmetry_cell_setting 'monoclinic'
loop_
_space_group_symop_operation_xyz
x,y,z
-x,y,1/2-z
-x,-y,-z
x,-y,1/2+z
loop_
_atom_site_type_symbol
_atom_site_label
_atom_site_fract_x
_atom_site_fract_y
_atom_site_fract_z
Si Si1 0.557526 0.291064 0.803196
Si Si2 0.228000 0.947385 0.870179
Si Si3 0.952017 0.367657 0.158232
Si Si4 0.530529 0.211340 0.180196
Si Si5 0.000000 0.938957 0.750000
Si Si6 0.801429 0.741626 0.231823
Si Si7 0.869206 0.021036 0.502025
Si Si8 0.084363 0.520831 0.041187
O O1 0.500000 0.292433 0.750000
O O2 0.519467 0.539665 0.840251
O O3 0.692275 0.299967 0.784020
O O4 0.519366 0.040570 0.839601
O O5 0.113388 0.800242 0.876883
O O6 0.336629 0.776416 0.849574
O O7 0.213926 0.059547 0.933975
O O8 0.239319 0.156251 0.822578
O O9 0.862142 0.489831 0.211613
O O10 0.030492 0.215547 0.190147
O O11 0.022938 0.552573 0.110086
O O12 0.500000 0.211181 0.250000
O O13 0.887877 0.090874 0.753813
O O14 0.838750 0.763602 0.475300
O O15 0.848036 0.262746 0.466640
O O16 0.000000 0.000000 0.500000
O O17 0.000000 0.500000 0.000000
#
# Coordination Sequence:
#
# PCOD8117683 Si02
#       8
#     4   4   4   4   2   4   4   4
#     4  10  19  33  51  73 108 139 185 225 278 333
#     4  11  20  30  56  75 116 151 177 230 284 344
#     4  11  21  35  54  74 111 157 188 235 276 339
#     4  10  19  32  45  81 104 143 183 217 279 338
#     4  10  26  36  50  84 104 156 210 226 282 342
#     4  11  21  36  53  74 111 159 188 235 277 341
#     4  10  19  32  46  81 105 144 183 217 282 343
#     4  10  19  33  51  75 109 141 187 227 280 338
#
# _framework density 19.248830000000002
#
# number of rings (size 3 to 8) (size 9 to 14) (size 15 to 20)
#    0.000    1.600    5.333    3.600    3.733    0.000 
#    0.000    0.000    0.000    0.000    0.000    0.000 
#    0.000    6.400    0.000    0.000    0.000    0.000 
#
# Total GULP energy -371731.186282 kJ/mol
# GULP energy per Si atom -12391.039543 kJ/mol
# Density = 1.920502 g / cm^3
# Si number density = 19.248830 Si / 1000 Ang^3
#
#
#
# Elastic Constant Matrix: (Units=GPa)
#
#
# Indices 1 2 3 4 5 6 
#
# 1 61.8286 20.5872 32.4407 0.0000 -8.4308 0.0000
# 2 20.5872 152.9219 15.6509 0.0000 -1.2622 0.0000
# 3 32.4407 15.6509 60.2605 0.0000 -12.1497 0.0000
# 4 0.0000 0.0000 0.0000 17.7819 0.0000 -8.8836
# 5 -8.4308 -1.2622 -12.1497 0.0000 15.1264 0.0000
# 6 0.0000 0.0000 0.0000 -8.8836 0.0000 -21.1794
#
#
#
# Elastic Compliance Matrix: (Units=1/GPa)
#
#
# Indices 1 2 3 4 5 6 
#
# 1 0.023234 -0.001946 -0.011245 0.000000 0.003755 0.000000
# 2 -0.001946 0.006894 -0.001009 0.000000 -0.001320 0.000000
# 3 -0.011245 -0.001009 0.025810 0.000000 0.014379 0.000000
# 4 0.000000 0.000000 0.000000 0.046494 0.000000 -0.019502
# 5 0.003755 -0.001320 0.014379 0.000000 0.079642 0.000000
# 6 0.000000 0.000000 0.000000 -0.019502 0.000000 -0.039036
#
#
# Mechanical properties :
#
#
# Convention : Reuss Voigt Hill
#
# Bulk Modulus (GPa) = 36.31520 45.81872 41.06696
# Shear Modulus (GPa) = 27.68297 16.10126 21.89211
#
# Velocity S-wave (km/s) = 3.79643 2.89533 3.37608
# Velocity P-wave (km/s) = 6.17449 5.91881 6.04800
#
# Compressibility (1/GPa) = 0.02753668
#
# Stress axis : x y z
#
# Youngs Moduli (GPa) = 43.04027 145.06153 38.74540
#
# Poissons Ratio (x) = 0.28229 0.43571
# Poissons Ratio (y) = 0.08376 0.03909
# Poissons Ratio (z) = 0.48400 0.14635
#
# Static dielectric constant tensor:
#      x y z
#    x 3.242590 0.000000 -0.221420 
#    y 0.000000 -1.808920 0.000000 
#    z -0.221420 0.000000 3.264370 
# 
# 
# High freq. dielectric constant tensor:
#      x y z
#    x 1.691230 0.000000 -0.032640 
#    y 0.000000 1.779450 0.000000 
#    z -0.032640 0.000000 1.712840 
# 
# From -- ./inp_files/85819.got.cif
#   From: 2010.06.25/outbox.cif.g09.slc.cpg/sg13_43_cif.got.tgz:85819.got - 2010.06.28 04:50:58.
