data_PCOD8117083
_publ_section_title
;
Structure prediction by ZEFSAII (Michael W. Deem and Ramdas Pophale) SiO2 
 PCOD8117083
Probable space group: P 2/C
;
_chemical_formula_sum "Si O2"
_cell_formula_units_Z 28
_cell_length_a 13.569298
_cell_length_b 9.045073
_cell_length_c 22.543561
_cell_angle_alpha 90.000000
_cell_angle_beta 34.188888
_cell_angle_gamma 90.000000
_cell_volume 1554.779317
_symmetry_space_group_name_H-M "P 2/C"
_symmetry_group_IT_number 13
_symmetry_cell_setting 'monoclinic'
loop_
_space_group_symop_operation_xyz
x,y,z
-x,y,1/2-z
-x,-y,-z
x,-y,1/2+z
loop_
_atom_site_type_symbol
_atom_site_label
_atom_site_fract_x
_atom_site_fract_y
_atom_site_fract_z
Si Si1 0.904932 0.343151 0.452983
Si Si2 0.348365 0.401222 0.407769
Si Si3 0.032549 0.914216 0.665214
Si Si4 0.671657 0.080533 0.041506
Si Si5 0.180985 0.917879 0.421039
Si Si6 0.707379 0.968707 0.749727
Si Si7 0.271996 0.357171 0.310789
O O1 0.755406 0.461895 0.512093
O O2 0.849437 0.245946 0.537935
O O3 0.923864 0.243405 0.385247
O O4 0.091302 0.423815 0.374096
O O5 0.315990 0.257715 0.464291
O O6 0.270509 0.373776 0.381741
O O7 0.556842 0.437640 0.302035
O O8 0.863466 0.988568 0.718901
O O9 0.000000 0.888617 0.750000
O O10 0.196771 0.023235 0.574324
O O11 0.475104 0.024886 0.123714
O O12 0.710173 0.015329 0.087014
O O13 0.281025 0.905809 0.307766
O O14 0.000000 0.000000 0.500000
O O15 0.723064 0.815635 0.706462
#
# Coordination Sequence:
#
# PCOD8117083 Si02
#       7
#     4   4   4   4   4   4   4
#     4  10  20  33  53  79 109 143 171 223 271 318
#     4  10  18  31  49  79 110 139 171 203 264 337
#     4  10  22  39  55  74 102 141 191 233 266 308
#     4  10  19  33  56  78 106 142 174 219 267 330
#     4  11  16  31  54  83 113 136 173 209 274 334
#     4  10  18  33  57  79 106 144 173 213 274 330
#     4   9  17  30  50  75 111 144 163 198 265 335
#
# _framework density 18.008987000000001
#
# number of rings (size 3 to 8) (size 9 to 14) (size 15 to 20)
#    0.000    2.000    5.714    0.857    0.000    0.571 
#   10.286    0.714    0.000    7.714    0.000    0.000 
#    0.000    0.000    0.000    0.000    0.000    0.000 
#
# Total GULP energy -347139.082279 kJ/mol
# GULP energy per Si atom -12397.824367 kJ/mol
# Density = 1.796800 g / cm^3
# Si number density = 18.008987 Si / 1000 Ang^3
#
#
#
# Elastic Constant Matrix: (Units=GPa)
#
#
# Indices 1 2 3 4 5 6 
#
# 1 57.3627 29.0229 60.9768 0.0000 0.3733 0.0000
# 2 29.0229 63.4243 56.1532 0.0000 -10.1712 0.0000
# 3 60.9768 56.1532 134.2376 0.0000 -10.8235 0.0000
# 4 0.0000 0.0000 0.0000 27.8804 0.0000 -8.2730
# 5 0.3733 -10.1712 -10.8235 0.0000 35.8875 0.0000
# 6 0.0000 0.0000 0.0000 -8.2730 0.0000 15.6141
#
#
#
# Elastic Compliance Matrix: (Units=1/GPa)
#
#
# Indices 1 2 3 4 5 6 
#
# 1 0.035241 -0.003945 -0.014838 0.000000 -0.005960 0.000000
# 2 -0.003945 0.026066 -0.008725 0.000000 0.004797 0.000000
# 3 -0.014838 -0.008725 0.018093 0.000000 0.003138 0.000000
# 4 0.000000 0.000000 0.000000 0.042559 0.000000 0.022549
# 5 -0.005960 0.004797 0.003138 0.000000 0.030233 0.000000
# 6 0.000000 0.000000 0.000000 0.022549 0.000000 0.075992
#
#
# Mechanical properties :
#
#
# Convention : Reuss Voigt Hill
#
# Bulk Modulus (GPa) = 41.01191 60.81449 50.91320
# Shear Modulus (GPa) = 17.16282 23.13451 20.14867
#
# Velocity S-wave (km/s) = 3.09044 3.58803 3.34849
# Velocity P-wave (km/s) = 5.96296 7.14196 6.57892
#
# Compressibility (1/GPa) = 0.02438316
#
# Stress axis : x y z
#
# Youngs Moduli (GPa) = 28.37617 38.36399 55.27115
#
# Poissons Ratio (x) = 0.15133 0.82014
# Poissons Ratio (y) = 0.11193 0.48225
# Poissons Ratio (z) = 0.42106 0.33473
#
# Static dielectric constant tensor:
#      x y z
#    x 3.355520 0.000000 -0.500380 
#    y 0.000000 3.130090 0.000000 
#    z -0.500380 0.000000 3.566350 
# 
# 
# High freq. dielectric constant tensor:
#      x y z
#    x 1.679090 0.000000 -0.033200 
#    y 0.000000 1.670740 0.000000 
#    z -0.033200 0.000000 1.695810 
# 
# From -- ./inp_files/50089.got.cif
#   From: 2010.06.25/outbox.cif.g09.slc.cpg/sg13_26_cif.got.tgz:50089.got - 2010.06.28 04:50:58.
