data_PCOD8117627
_publ_section_title
;
Structure prediction by ZEFSAII (Michael W. Deem and Ramdas Pophale) SiO2 
 PCOD8117627
Probable space group: P 2/C
;
_chemical_formula_sum "Si O2"
_cell_formula_units_Z 22
_cell_length_a 11.629921
_cell_length_b 11.560520
_cell_length_c 9.901923
_cell_angle_alpha 90.000000
_cell_angle_beta 68.768873
_cell_angle_gamma 90.000000
_cell_volume 1240.934509
_symmetry_space_group_name_H-M "P 2/C"
_symmetry_group_IT_number 13
_symmetry_cell_setting 'monoclinic'
loop_
_space_group_symop_operation_xyz
x,y,z
-x,y,1/2-z
-x,-y,-z
x,-y,1/2+z
loop_
_atom_site_type_symbol
_atom_site_label
_atom_site_fract_x
_atom_site_fract_y
_atom_site_fract_z
Si Si1 0.830218 0.211650 0.136712
Si Si2 0.357997 0.400620 0.275986
Si Si3 0.000000 0.365872 0.250000
Si Si4 0.763907 0.482187 0.907590
Si Si5 0.136408 0.756541 0.183699
Si Si6 0.088433 0.977781 0.336971
O O1 0.698827 0.272696 0.211336
O O2 0.942223 0.286741 0.155261
O O3 0.818263 0.086119 0.212966
O O4 0.853409 0.187775 0.969366
O O5 0.500000 0.389967 0.250000
O O6 0.282844 0.474597 0.418891
O O7 0.341540 0.459070 0.137440
O O8 0.891590 0.446237 0.356655
O O9 0.774947 0.353510 0.839230
O O10 0.161467 0.854147 0.291346
O O11 0.000000 0.704758 0.250000
O O12 0.000000 0.975181 0.250000
O O13 0.000000 0.000000 0.500000
#
# Coordination Sequence:
#
# PCOD8117627 Si02
#       6
#     4   4   2   4   4   4
#     4  10  20  32  51  78 107 140 164 221 257 314
#     4  10  22  38  55  75 103 146 182 211 253 304
#     4  10  20  30  52  86 108 128 176 208 282 314
#     4  10  21  34  57  77 109 136 169 224 259 319
#     4  10  19  30  49  76 112 134 161 202 269 316
#     4  11  19  31  50  76 110 137 165 206 264 328
#
# _framework density 17.728573999999998
#
# number of rings (size 3 to 8) (size 9 to 14) (size 15 to 20)
#    0.000    1.818    5.455    0.545    2.545    2.182 
#    0.000    0.000    0.000    5.455    0.000    0.000 
#    0.000    0.000    0.000    0.000    0.000    0.000 
#
# Total GULP energy -272571.339257 kJ/mol
# GULP energy per Si atom -12389.606330 kJ/mol
# Density = 1.768822 g / cm^3
# Si number density = 17.728574 Si / 1000 Ang^3
#
#
#
# Elastic Constant Matrix: (Units=GPa)
#
#
# Indices 1 2 3 4 5 6 
#
# 1 85.9822 25.4318 0.7290 0.0000 -6.0946 0.0000
# 2 25.4318 89.9747 27.0244 0.0000 1.5964 0.0000
# 3 0.7290 27.0244 48.4887 0.0000 -1.8666 0.0000
# 4 0.0000 0.0000 0.0000 29.4540 0.0000 7.8960
# 5 -6.0946 1.5964 -1.8666 0.0000 16.5954 0.0000
# 6 0.0000 0.0000 0.0000 7.8960 0.0000 13.7479
#
#
#
# Elastic Compliance Matrix: (Units=1/GPa)
#
#
# Indices 1 2 3 4 5 6 
#
# 1 0.013392 -0.004673 0.002621 0.000000 0.005662 0.000000
# 2 -0.004673 0.015055 -0.008479 0.000000 -0.004118 0.000000
# 3 0.002621 -0.008479 0.025488 0.000000 0.004645 0.000000
# 4 0.000000 0.000000 0.000000 0.040130 0.000000 -0.023048
# 5 0.005662 -0.004118 0.004645 0.000000 0.063256 0.000000
# 6 0.000000 0.000000 0.000000 -0.023048 0.000000 0.085976
#
#
# Mechanical properties :
#
#
# Convention : Reuss Voigt Hill
#
# Bulk Modulus (GPa) = 30.41985 36.75733 33.58859
# Shear Modulus (GPa) = 18.16098 23.37683 20.76891
#
# Velocity S-wave (km/s) = 3.20408 3.63519 3.42642
# Velocity P-wave (km/s) = 5.55735 6.19660 5.88566
#
# Compressibility (1/GPa) = 0.03287327
#
# Stress axis : x y z
#
# Youngs Moduli (GPa) = 74.67372 66.42414 39.23368
#
# Poissons Ratio (x) = 0.31039 -0.10283
# Poissons Ratio (y) = 0.34894 0.33265
# Poissons Ratio (z) = -0.19572 0.56320
#
# Static dielectric constant tensor:
#      x y z
#    x 3.034620 0.000000 0.118300 
#    y 0.000000 4.385960 0.000000 
#    z 0.118300 0.000000 3.221980 
# 
# 
# High freq. dielectric constant tensor:
#      x y z
#    x 1.646920 0.000000 0.013590 
#    y 0.000000 1.699490 0.000000 
#    z 0.013590 0.000000 1.688380 
# 
# From -- ./inp_files/15580.got.cif
#   From: 2010.06.25/outbox.cif.g09.slc.cpg/sg13_8_cif.got.tgz:15580.got - 2010.06.28 04:50:58.
