data_PCOD8117791
_publ_section_title
;
Structure prediction by ZEFSAII (Michael W. Deem and Ramdas Pophale) SiO2 
 PCOD8117791
Probable space group: P 2/C
;
_chemical_formula_sum "Si O2"
_cell_formula_units_Z 26
_cell_length_a 15.959267
_cell_length_b 6.557595
_cell_length_c 24.723105
_cell_angle_alpha 90.000000
_cell_angle_beta 34.268084
_cell_angle_gamma 90.000000
_cell_volume 1456.866270
_symmetry_space_group_name_H-M "P 2/C"
_symmetry_group_IT_number 13
_symmetry_cell_setting 'monoclinic'
loop_
_space_group_symop_operation_xyz
x,y,z
-x,y,1/2-z
-x,-y,-z
x,-y,1/2+z
loop_
_atom_site_type_symbol
_atom_site_label
_atom_site_fract_x
_atom_site_fract_y
_atom_site_fract_z
Si Si1 0.500000 0.013044 0.750000
Si Si2 0.829524 0.308394 0.326753
Si Si3 0.338274 0.090770 0.592502
Si Si4 0.655409 0.576201 0.497711
Si Si5 0.644816 0.634138 0.621445
Si Si6 0.343994 0.390442 0.787861
Si Si7 0.680036 0.562339 0.317805
O O1 0.377265 0.153203 0.784753
O O2 0.596614 0.868040 0.658581
O O3 0.728994 0.377863 0.431408
O O4 0.799562 0.436689 0.288423
O O5 0.000000 0.335411 0.250000
O O6 0.791181 0.075322 0.335315
O O7 0.299906 0.232005 0.562187
O O8 0.336336 0.212219 0.649674
O O9 0.500000 0.000000 0.500000
O O10 0.724779 0.617748 0.520572
O O11 0.477353 0.554501 0.594110
O O12 0.502313 0.491363 0.692921
O O13 0.738887 0.524540 0.620404
O O14 0.257965 0.410960 0.776689
#
# Coordination Sequence:
#
# PCOD8117791 Si02
#       7
#     2   4   4   4   4   4   4
#     4   8  14  24  40  72 110 128 154 216 260 294
#     4  11  23  37  51  75 109 139 171 217 266 308
#     4  11  19  30  52  80 101 136 179 211 256 308
#     4  10  19  33  55  77 104 138 174 214 257 312
#     4   8  16  27  45  74 104 132 168 207 264 300
#     4   8  16  27  45  74 104 132 168 207 264 300
#     4  10  19  33  55  77 104 138 174 214 257 312
#
# _framework density 17.846525
#
# number of rings (size 3 to 8) (size 9 to 14) (size 15 to 20)
#    0.000    2.769    3.077    0.923    2.154    4.923 
#    0.000    0.000    0.000    0.923    0.000    3.231 
#    0.000    0.000    0.000    0.000    0.000    0.000 
#
# Total GULP energy -322157.474235 kJ/mol
# GULP energy per Si atom -12390.672086 kJ/mol
# Density = 1.780591 g / cm^3
# Si number density = 17.846525 Si / 1000 Ang^3
#
#
#
# Elastic Constant Matrix: (Units=GPa)
#
#
# Indices 1 2 3 4 5 6 
#
# 1 130.1602 42.6033 45.9553 0.0000 31.9040 0.0000
# 2 42.6033 108.8778 12.5905 0.0000 10.9904 0.0000
# 3 45.9553 12.5905 27.6709 0.0000 9.9487 0.0000
# 4 0.0000 0.0000 0.0000 11.2971 0.0000 -1.6672
# 5 31.9040 10.9904 9.9487 0.0000 40.7333 0.0000
# 6 0.0000 0.0000 0.0000 -1.6672 0.0000 17.7372
#
#
#
# Elastic Compliance Matrix: (Units=1/GPa)
#
#
# Indices 1 2 3 4 5 6 
#
# 1 0.022765 -0.004243 -0.032754 0.000000 -0.008686 0.000000
# 2 -0.004243 0.010593 0.002259 0.000000 -0.000086 0.000000
# 3 -0.032754 0.002259 0.088254 0.000000 0.003490 0.000000
# 4 0.000000 0.000000 0.000000 0.089763 0.000000 0.008437
# 5 -0.008686 -0.000086 0.003490 0.000000 0.030524 0.000000
# 6 0.000000 0.000000 0.000000 0.008437 0.000000 0.057172
#
#
# Mechanical properties :
#
#
# Convention : Reuss Voigt Hill
#
# Bulk Modulus (GPa) = 19.18143 52.11190 35.64667
# Shear Modulus (GPa) = 12.95580 24.99085 18.97333
#
# Velocity S-wave (km/s) = 2.69728 3.74614 3.26412
# Velocity P-wave (km/s) = 4.52457 6.92639 5.85007
#
# Compressibility (1/GPa) = 0.05213374
#
# Stress axis : x y z
#
# Youngs Moduli (GPa) = 43.92645 94.40594 11.33089
#
# Poissons Ratio (x) = 0.40061 0.37114
# Poissons Ratio (y) = 0.18640 -0.02559
# Poissons Ratio (z) = 1.43879 -0.21323
#
# Static dielectric constant tensor:
#      x y z
#    x 4.066900 0.000000 0.821170 
#    y 0.000000 3.644200 0.000000 
#    z 0.821170 0.000000 3.165300 
# 
# 
# High freq. dielectric constant tensor:
#      x y z
#    x 1.688070 0.000000 0.038540 
#    y 0.000000 1.703710 0.000000 
#    z 0.038540 0.000000 1.638420 
# 
# From -- ./inp_files/80517.got.cif
#   From: 2010.06.25/outbox.cif.g09.slc.cpg/sg13_41_cif.got.tgz:80517.got - 2010.06.28 04:50:58.
