data_PCOD8117950
_publ_section_title
;
Structure prediction by ZEFSAII (Michael W. Deem and Ramdas Pophale) SiO2 
 PCOD8117950
Probable space group: P 2/C
;
_chemical_formula_sum "Si O2"
_cell_formula_units_Z 28
_cell_length_a 19.653461
_cell_length_b 8.816906
_cell_length_c 14.843398
_cell_angle_alpha 90.000000
_cell_angle_beta 149.763429
_cell_angle_gamma 90.000000
_cell_volume 1295.238440
_symmetry_space_group_name_H-M "P 2/C"
_symmetry_group_IT_number 13
_symmetry_cell_setting 'monoclinic'
loop_
_space_group_symop_operation_xyz
x,y,z
-x,y,1/2-z
-x,-y,-z
x,-y,1/2+z
loop_
_atom_site_type_symbol
_atom_site_label
_atom_site_fract_x
_atom_site_fract_y
_atom_site_fract_z
Si Si1 0.442885 0.155064 0.473295
Si Si2 0.318187 0.696326 0.152049
Si Si3 0.023390 0.587757 0.435457
Si Si4 0.867697 0.827726 0.158164
Si Si5 0.296888 0.648034 0.671015
Si Si6 0.782103 0.859366 0.639407
Si Si7 0.962995 0.277686 0.113085
O O1 0.547046 0.221375 0.664161
O O2 0.420821 0.270239 0.364458
O O3 0.304360 0.128707 0.369170
O O4 0.500000 0.000000 0.500000
O O5 0.342255 0.515929 0.186152
O O6 0.281972 0.743962 0.007959
O O7 0.197905 0.746992 0.084711
O O8 0.176713 0.645503 0.606862
O O9 0.006585 0.457139 0.340623
O O10 0.000000 0.500000 0.500000
O O11 0.914237 0.719420 0.293852
O O12 0.000000 0.864787 0.250000
O O13 0.795730 0.974614 0.114004
O O14 0.750644 0.746505 0.968029
O O15 0.934412 0.799255 0.842074
O O16 0.000000 0.198220 0.250000
#
# Coordination Sequence:
#
# PCOD8117950 Si02
#       7
#     4   4   4   4   4   4   4
#     4  12  26  42  58  88 130 166 203 255 311 373
#     4  10  21  41  65  88 119 162 208 260 314 369
#     4  10  19  34  59  93 126 155 201 256 306 366
#     4  10  20  38  63  94 127 162 203 256 314 370
#     4  10  22  40  63  86 120 164 208 256 311 371
#     4  11  22  39  64  93 124 164 208 254 311 374
#     4   9  18  36  62  88 115 151 199 253 305 359
#
# _framework density 21.617640999999999
#
# number of rings (size 3 to 8) (size 9 to 14) (size 15 to 20)
#    0.000    1.714    0.000    6.857    0.000    3.429 
#    0.000    8.571    0.000    0.000    0.000    0.000 
#    0.000    0.000    0.000    0.000    0.000    0.000 
#
# Total GULP energy -347007.141396 kJ/mol
# GULP energy per Si atom -12393.112193 kJ/mol
# Density = 2.156844 g / cm^3
# Si number density = 21.617641 Si / 1000 Ang^3
#
#
#
# Elastic Constant Matrix: (Units=GPa)
#
#
# Indices 1 2 3 4 5 6 
#
# 1 87.6111 44.1890 20.2271 0.0000 8.8027 0.0000
# 2 44.1890 123.8420 27.9777 0.0000 0.2158 0.0000
# 3 20.2271 27.9777 66.2069 0.0000 -1.1486 0.0000
# 4 0.0000 0.0000 0.0000 33.5172 0.0000 8.1434
# 5 8.8027 0.2158 -1.1486 0.0000 29.8443 0.0000
# 6 0.0000 0.0000 0.0000 8.1434 0.0000 23.3068
#
#
#
# Elastic Compliance Matrix: (Units=1/GPa)
#
#
# Indices 1 2 3 4 5 6 
#
# 1 0.014833 -0.004692 -0.002626 0.000000 -0.004442 0.000000
# 2 -0.004692 0.010412 -0.002946 0.000000 0.001195 0.000000
# 3 -0.002626 -0.002946 0.017177 0.000000 0.001457 0.000000
# 4 0.000000 0.000000 0.000000 0.032603 0.000000 -0.011392
# 5 -0.004442 0.001195 0.001457 0.000000 0.034865 0.000000
# 6 0.000000 0.000000 0.000000 -0.011392 0.000000 0.046886
#
#
# Mechanical properties :
#
#
# Convention : Reuss Voigt Hill
#
# Bulk Modulus (GPa) = 45.67352 51.38307 48.52829
# Shear Modulus (GPa) = 27.08528 29.68472 28.38500
#
# Velocity S-wave (km/s) = 3.54351 3.70965 3.62753
# Velocity P-wave (km/s) = 6.15757 6.49379 6.32792
#
# Compressibility (1/GPa) = 0.02189453
#
# Stress axis : x y z
#
# Youngs Moduli (GPa) = 67.41680 96.04005 58.21848
#
# Poissons Ratio (x) = 0.45059 0.15289
# Poissons Ratio (y) = 0.31630 0.17151
# Poissons Ratio (z) = 0.17705 0.28293
#
# Static dielectric constant tensor:
#      x y z
#    x 3.904670 0.000000 0.120090 
#    y 0.000000 4.219310 0.000000 
#    z 0.120090 0.000000 3.893040 
# 
# 
# High freq. dielectric constant tensor:
#      x y z
#    x 1.835260 0.000000 0.002310 
#    y 0.000000 1.860990 0.000000 
#    z 0.002310 0.000000 1.843240 
# 
# From -- ./inp_files/57522.got.cif
#   From: 2010.06.25/outbox.cif.g09.slc.cpg/sg13_29_cif.got.tgz:57522.got - 2010.06.28 04:50:58.
