data_PCOD8117914
_publ_section_title
;
Structure prediction by ZEFSAII (Michael W. Deem and Ramdas Pophale) SiO2 
 PCOD8117914
Probable space group: P 2/C
;
_chemical_formula_sum "Si O2"
_cell_formula_units_Z 28
_cell_length_a 25.569156
_cell_length_b 8.764949
_cell_length_c 9.837276
_cell_angle_alpha 90.000000
_cell_angle_beta 139.870674
_cell_angle_gamma 90.000000
_cell_volume 1420.933364
_symmetry_space_group_name_H-M "P 2/C"
_symmetry_group_IT_number 13
_symmetry_cell_setting 'monoclinic'
loop_
_space_group_symop_operation_xyz
x,y,z
-x,y,1/2-z
-x,-y,-z
x,-y,1/2+z
loop_
_atom_site_type_symbol
_atom_site_label
_atom_site_fract_x
_atom_site_fract_y
_atom_site_fract_z
Si Si1 0.504370 0.857152 0.911951
Si Si2 0.190265 0.821968 0.861514
Si Si3 0.351617 0.357109 0.119027
Si Si4 0.090262 0.810433 0.416238
Si Si5 0.087303 0.838143 0.908153
Si Si6 0.804787 0.174315 0.638572
Si Si7 0.342780 0.649600 0.282456
O O1 0.500000 0.919042 0.750000
O O2 0.431715 0.741994 0.797360
O O3 0.589146 0.775163 0.106341
O O4 0.500000 0.000000 0.000000
O O5 0.156821 0.746047 0.655819
O O6 0.112342 0.820219 0.803282
O O7 0.259023 0.717756 0.062099
O O8 0.221167 0.996318 0.907369
O O9 0.277159 0.268788 0.041266
O O10 0.366112 0.507413 0.235587
O O11 0.336459 0.394895 0.929494
O O12 0.129539 0.787725 0.347082
O O13 0.000000 0.733542 0.250000
O O14 0.079539 0.986035 0.436985
O O15 0.000000 0.757055 0.750000
O O16 0.154036 0.766335 0.140727
#
# Coordination Sequence:
#
# PCOD8117914 Si02
#       7
#     4   4   4   4   4   4   4
#     4  10  23  44  68  96 124 150 191 240 290 348
#     4  10  19  34  57  85 118 152 200 248 298 349
#     4  11  24  41  61  87 122 160 198 238 289 350
#     4   9  18  30  53  88 117 148 195 251 306 355
#     4   9  16  30  53  82 115 150 191 251 304 347
#     4  10  19  34  57  85 118 152 200 248 298 349
#     4  11  24  41  61  87 122 160 198 238 289 350
#
# _framework density 19.705358
#
# number of rings (size 3 to 8) (size 9 to 14) (size 15 to 20)
#    0.000    2.000    1.429    2.143    2.000    4.571 
#    0.000    0.000    0.000    5.143    0.000    0.000 
#    0.000    0.000    0.000    0.000    0.000    0.000 
#
# Total GULP energy -347139.820535 kJ/mol
# GULP energy per Si atom -12397.850733 kJ/mol
# Density = 1.966051 g / cm^3
# Si number density = 19.705358 Si / 1000 Ang^3
#
#
#
# Elastic Constant Matrix: (Units=GPa)
#
#
# Indices 1 2 3 4 5 6 
#
# 1 98.0775 38.1655 32.9486 0.0000 -3.9782 0.0000
# 2 38.1655 73.2020 37.8543 0.0000 -13.1849 0.0000
# 3 32.9486 37.8543 100.6681 0.0000 -6.2180 0.0000
# 4 0.0000 0.0000 0.0000 9.2556 0.0000 -15.3196
# 5 -3.9782 -13.1849 -6.2180 0.0000 35.5539 0.0000
# 6 0.0000 0.0000 0.0000 -15.3196 0.0000 14.9715
#
#
#
# Elastic Compliance Matrix: (Units=1/GPa)
#
#
# Indices 1 2 3 4 5 6 
#
# 1 0.013194 -0.005972 -0.002141 0.000000 -0.001113 0.000000
# 2 -0.005972 0.020682 -0.005449 0.000000 0.006048 0.000000
# 3 -0.002141 -0.005449 0.012681 0.000000 -0.000042 0.000000
# 4 0.000000 0.000000 0.000000 -0.155760 0.000000 -0.159381
# 5 -0.001113 0.006048 -0.000042 0.000000 0.030237 0.000000
# 6 0.000000 0.000000 0.000000 -0.159381 0.000000 -0.096293
#
#
# Mechanical properties :
#
#
# Convention : Reuss Voigt Hill
#
# Bulk Modulus (GPa) = 51.46141 54.43159 52.94650
# Shear Modulus (GPa) = -35.29645 22.82148 -6.23749
#
# Velocity S-wave (km/s) = -4.23686 3.40683 -1.78108
# Velocity P-wave (km/s) = 1.49582 6.56948 4.76422
#
# Compressibility (1/GPa) = 0.01943204
#
# Stress axis : x y z
#
# Youngs Moduli (GPa) = 75.79036 48.35225 78.85953
#
# Poissons Ratio (x) = 0.28877 0.16888
# Poissons Ratio (y) = 0.45263 0.42968
# Poissons Ratio (z) = 0.16230 0.26345
#
# Static dielectric constant tensor:
#      x y z
#    x 3.641130 0.000000 -0.001800 
#    y 0.000000 3.217310 0.000000 
#    z -0.001800 0.000000 3.832890 
# 
# 
# High freq. dielectric constant tensor:
#      x y z
#    x 1.782130 0.000000 0.002110 
#    y 0.000000 1.726650 0.000000 
#    z 0.002110 0.000000 1.786860 
# 
# From -- ./inp_files/24581.got.cif
#   From: 2010.06.25/outbox.cif.g09.slc.cpg/sg13_13_cif.got.tgz:24581.got - 2010.06.28 04:50:58.
