data_PCOD8117194
_publ_section_title
;
Structure prediction by ZEFSAII (Michael W. Deem and Ramdas Pophale) SiO2 
 PCOD8117194
Probable space group: P 2/C
;
_chemical_formula_sum "Si O2"
_cell_formula_units_Z 18
_cell_length_a 10.146963
_cell_length_b 14.125632
_cell_length_c 10.387410
_cell_angle_alpha 90.000000
_cell_angle_beta 144.065803
_cell_angle_gamma 90.000000
_cell_volume 873.740737
_symmetry_space_group_name_H-M "P 2/C"
_symmetry_group_IT_number 13
_symmetry_cell_setting 'monoclinic'
loop_
_space_group_symop_operation_xyz
x,y,z
-x,y,1/2-z
-x,-y,-z
x,-y,1/2+z
loop_
_atom_site_type_symbol
_atom_site_label
_atom_site_fract_x
_atom_site_fract_y
_atom_site_fract_z
Si Si1 0.500000 0.569897 0.750000
Si Si2 0.792049 0.493692 0.179751
Si Si3 0.641783 0.985623 0.239227
Si Si4 0.921552 0.353559 0.479861
Si Si5 0.024136 0.860288 0.423477
O O1 0.453634 0.504339 0.585855
O O2 0.273201 0.632679 0.566014
O O3 0.790764 0.393005 0.251514
O O4 0.000000 0.484550 0.250000
O O5 0.853407 0.584220 0.319517
O O6 0.500000 0.947310 0.250000
O O7 0.828453 0.909912 0.348935
O O8 0.745031 0.086499 0.362207
O O9 0.500000 0.000000 0.000000
O O10 0.977655 0.243981 0.517980
O O11 0.000000 0.859699 0.250000
#
# Coordination Sequence:
#
# PCOD8117194 Si02
#       5
#     2   4   4   4   4
#     4  10  18  32  60  86 116 166 206 240 304 360
#     4   9  19  37  56  83 126 164 199 252 300 358
#     4  11  24  45  68  92 128 164 207 265 329 382
#     4  10  21  36  60  87 123 159 206 251 305 361
#     4  11  23  40  69  97 123 162 214 261 316 380
#
# _framework density 20.601078000000001
#
# number of rings (size 3 to 8) (size 9 to 14) (size 15 to 20)
#    0.000    1.778    2.222    2.667    1.556    1.778 
#    4.000    0.000    9.778    0.000    0.000    0.000 
#    0.000    0.000    0.000    0.000    0.000    0.000 
#
# Total GULP energy -223030.961305 kJ/mol
# GULP energy per Si atom -12390.608961 kJ/mol
# Density = 2.055419 g / cm^3
# Si number density = 20.601078 Si / 1000 Ang^3
#
#
#
# Elastic Constant Matrix: (Units=GPa)
#
#
# Indices 1 2 3 4 5 6 
#
# 1 78.2064 39.1397 27.5786 0.0000 -3.1995 0.0000
# 2 39.1397 158.9843 59.4134 0.0000 -12.8826 0.0000
# 3 27.5786 59.4134 145.3278 0.0000 -14.7902 0.0000
# 4 0.0000 0.0000 0.0000 20.5962 0.0000 -5.8156
# 5 -3.1995 -12.8826 -14.7902 0.0000 33.9470 0.0000
# 6 0.0000 0.0000 0.0000 -5.8156 0.0000 18.9148
#
#
#
# Elastic Compliance Matrix: (Units=1/GPa)
#
#
# Indices 1 2 3 4 5 6 
#
# 1 0.014886 -0.003104 -0.001604 0.000000 -0.000474 0.000000
# 2 -0.003104 0.008152 -0.002573 0.000000 0.001680 0.000000
# 3 -0.001604 -0.002573 0.008499 0.000000 0.002576 0.000000
# 4 0.000000 0.000000 0.000000 0.053168 0.000000 0.016347
# 5 -0.000474 0.001680 0.002576 0.000000 0.031173 0.000000
# 6 0.000000 0.000000 0.000000 0.016347 0.000000 0.057895
#
#
# Mechanical properties :
#
#
# Convention : Reuss Voigt Hill
#
# Bulk Modulus (GPa) = 58.90656 70.53133 64.71895
# Shear Modulus (GPa) = 25.77416 31.78407 28.77911
#
# Velocity S-wave (km/s) = 3.54094 3.93216 3.74166
# Velocity P-wave (km/s) = 6.73600 7.41126 7.08168
#
# Compressibility (1/GPa) = 0.01697604
#
# Stress axis : x y z
#
# Youngs Moduli (GPa) = 67.17586 122.67643 117.65689
#
# Poissons Ratio (x) = 0.38074 0.18876
# Poissons Ratio (y) = 0.20849 0.30268
# Poissons Ratio (z) = 0.10777 0.31559
#
# Static dielectric constant tensor:
#      x y z
#    x 4.249330 0.000000 0.078730 
#    y 0.000000 3.510710 0.000000 
#    z 0.078730 0.000000 4.207270 
# 
# 
# High freq. dielectric constant tensor:
#      x y z
#    x 1.821210 0.000000 0.002070 
#    y 0.000000 1.778770 0.000000 
#    z 0.002070 0.000000 1.823030 
# 
# From -- ./inp_files/25812.got.cif
#   From: 2010.06.25/outbox.cif.g09.slc.cpg/sg13_13_cif.got.tgz:25812.got - 2010.06.28 04:50:58.
