data_PCOD8117256
_publ_section_title
;
Structure prediction by ZEFSAII (Michael W. Deem and Ramdas Pophale) SiO2 
 PCOD8117256
Probable space group: P 2/C
;
_chemical_formula_sum "Si O2"
_cell_formula_units_Z 22
_cell_length_a 7.850241
_cell_length_b 8.533637
_cell_length_c 16.913649
_cell_angle_alpha 90.000000
_cell_angle_beta 75.549132
_cell_angle_gamma 90.000000
_cell_volume 1097.216177
_symmetry_space_group_name_H-M "P 2/C"
_symmetry_group_IT_number 13
_symmetry_cell_setting 'monoclinic'
loop_
_space_group_symop_operation_xyz
x,y,z
-x,y,1/2-z
-x,-y,-z
x,-y,1/2+z
loop_
_atom_site_type_symbol
_atom_site_label
_atom_site_fract_x
_atom_site_fract_y
_atom_site_fract_z
Si Si1 0.134875 0.575428 0.602064
Si Si2 0.358681 0.035190 0.416708
Si Si3 0.733677 0.084363 0.404288
Si Si4 0.151681 0.324093 0.478349
Si Si5 0.000000 0.629200 0.250000
Si Si6 0.941763 0.867022 0.129167
O O1 0.239760 0.731193 0.611044
O O2 0.225245 0.466042 0.524175
O O3 0.130692 0.479264 0.684386
O O4 0.939385 0.613024 0.591121
O O5 0.566112 0.026277 0.371382
O O6 0.316330 0.218279 0.435514
O O7 0.315637 0.935246 0.498949
O O8 0.236647 0.965082 0.361995
O O9 0.904428 0.985035 0.359118
O O10 0.006408 0.218784 0.541673
O O11 0.894458 0.740091 0.201380
#
# Coordination Sequence:
#
# PCOD8117256 Si02
#       6
#     4   4   4   4   2   4
#     4  10  18  34  55  86 109 146 185 226 281 338
#     4  10  18  33  58  89 105 142 178 236 286 321
#     4  10  19  32  61  85 110 136 188 231 279 336
#     4   9  17  32  59  81 111 139 180 232 282 325
#     4  10  24  34  60  74 112 164 186 222 292 322
#     4  10  18  38  55  80 108 149 187 230 268 336
#
# _framework density 20.050740999999999
#
# number of rings (size 3 to 8) (size 9 to 14) (size 15 to 20)
#    0.000    2.182    3.636    1.091    0.000    1.455 
#    0.000    0.909    4.000    0.000    0.000    0.000 
#    0.000    0.000    0.000    0.000    0.000    0.000 
#
# Total GULP energy -272698.609740 kJ/mol
# GULP energy per Si atom -12395.391352 kJ/mol
# Density = 2.000510 g / cm^3
# Si number density = 20.050741 Si / 1000 Ang^3
#
#
#
# Elastic Constant Matrix: (Units=GPa)
#
#
# Indices 1 2 3 4 5 6 
#
# 1 135.7420 57.3984 32.1922 0.0000 4.7441 0.0000
# 2 57.3984 144.4786 34.9510 0.0000 1.0140 0.0000
# 3 32.1922 34.9510 55.9930 0.0000 8.2001 0.0000
# 4 0.0000 0.0000 0.0000 28.9285 0.0000 8.0798
# 5 4.7441 1.0140 8.2001 0.0000 6.9358 0.0000
# 6 0.0000 0.0000 0.0000 8.0798 0.0000 24.6506
#
#
#
# Elastic Compliance Matrix: (Units=1/GPa)
#
#
# Indices 1 2 3 4 5 6 
#
# 1 0.009470 -0.002952 -0.003285 0.000000 -0.002162 0.000000
# 2 -0.002952 0.009273 -0.005065 0.000000 0.006652 0.000000
# 3 -0.003285 -0.005065 0.027178 0.000000 -0.029144 0.000000
# 4 0.000000 0.000000 0.000000 0.038052 0.000000 -0.012472
# 5 -0.002162 0.006652 -0.029144 0.000000 0.179144 0.000000
# 6 0.000000 0.000000 0.000000 -0.012472 0.000000 0.044655
#
#
# Mechanical properties :
#
#
# Convention : Reuss Voigt Hill
#
# Bulk Modulus (GPa) = 42.88927 65.03298 53.96112
# Shear Modulus (GPa) = 14.78644 26.21445 20.50044
#
# Velocity S-wave (km/s) = 2.71855 3.61973 3.20101
# Velocity P-wave (km/s) = 5.59382 7.06927 6.37438
#
# Compressibility (1/GPa) = 0.02331586
#
# Stress axis : x y z
#
# Youngs Moduli (GPa) = 105.59703 107.84072 36.79476
#
# Poissons Ratio (x) = 0.31838 0.12087
# Poissons Ratio (y) = 0.31176 0.18636
# Poissons Ratio (z) = 0.34690 0.54621
#
# Static dielectric constant tensor:
#      x y z
#    x 3.517350 0.000000 0.161380 
#    y 0.000000 3.921290 0.000000 
#    z 0.161380 0.000000 3.311070 
# 
# 
# High freq. dielectric constant tensor:
#      x y z
#    x 1.755050 0.000000 0.020020 
#    y 0.000000 1.804790 0.000000 
#    z 0.020020 0.000000 1.743910 
# 
# From -- ./inp_files/62865.got.cif
#   From: 2010.06.25/outbox.cif.g09.slc.cpg/sg13_32_cif.got.tgz:62865.got - 2010.06.28 04:50:58.
