data_PCOD8117276
_publ_section_title
;
Structure prediction by ZEFSAII (Michael W. Deem and Ramdas Pophale) SiO2 
 PCOD8117276
Probable space group: P 2/C
;
_chemical_formula_sum "Si O2"
_cell_formula_units_Z 28
_cell_length_a 16.032535
_cell_length_b 13.590882
_cell_length_c 9.296760
_cell_angle_alpha 90.000000
_cell_angle_beta 132.096106
_cell_angle_gamma 90.000000
_cell_volume 1503.134666
_symmetry_space_group_name_H-M "P 2/C"
_symmetry_group_IT_number 13
_symmetry_cell_setting 'monoclinic'
loop_
_space_group_symop_operation_xyz
x,y,z
-x,y,1/2-z
-x,-y,-z
x,-y,1/2+z
loop_
_atom_site_type_symbol
_atom_site_label
_atom_site_fract_x
_atom_site_fract_y
_atom_site_fract_z
Si Si1 0.083381 0.980728 0.970722
Si Si2 0.744353 0.181209 0.740313
Si Si3 0.276508 0.880219 0.600530
Si Si4 0.420599 0.540242 0.787637
Si Si5 0.644008 0.671211 0.302181
Si Si6 0.428773 0.054512 0.800142
Si Si7 0.611099 0.281385 0.077330
O O1 0.000000 0.951660 0.750000
O O2 0.159111 0.078481 0.029435
O O3 0.153312 0.883603 0.087220
O O4 0.000000 0.000000 0.000000
O O5 0.742223 0.184468 0.564623
O O6 0.741765 0.292275 0.803126
O O7 0.631251 0.140993 0.684239
O O8 0.349248 0.820723 0.802938
O O9 0.344331 0.976724 0.629047
O O10 0.500000 0.577656 0.750000
O O11 0.343529 0.446455 0.657202
O O12 0.347826 0.631173 0.766941
O O13 0.500000 0.500000 0.000000
O O14 0.669124 0.717152 0.488380
O O15 0.522479 0.704063 0.098136
O O16 0.500000 0.101198 0.750000
O O17 0.500000 0.000000 0.000000
#
# Coordination Sequence:
#
# PCOD8117276 Si02
#       7
#     4   4   4   4   4   4   4
#     4  11  24  45  62  77 107 142 187 243 291 338
#     4  11  24  35  55  81 106 142 187 228 276 333
#     4  11  24  36  53  84 103 143 189 226 280 329
#     4  10  18  34  50  75 113 160 194 217 259 315
#     4  10  21  35  51  81 116 154 186 220 265 320
#     4  11  22  33  46  71 113 149 174 208 262 325
#     4  10  22  33  53  79 118 153 186 222 261 324
#
# _framework density 18.627738999999998
#
# number of rings (size 3 to 8) (size 9 to 14) (size 15 to 20)
#    0.000    1.429    5.714    0.857   10.000    0.000 
#    0.000    0.000    0.000    0.000    0.000    2.000 
#    0.000    0.000    0.000    0.000    0.000    0.000 
#
# Total GULP energy -346907.328395 kJ/mol
# GULP energy per Si atom -12389.547443 kJ/mol
# Density = 1.858534 g / cm^3
# Si number density = 18.627739 Si / 1000 Ang^3
#
#
#
# Elastic Constant Matrix: (Units=GPa)
#
#
# Indices 1 2 3 4 5 6 
#
# 1 114.0711 30.1101 29.3958 0.0000 -15.4535 0.0000
# 2 30.1101 81.2424 17.0166 0.0000 -1.5314 0.0000
# 3 29.3958 17.0166 74.7155 0.0000 -16.6151 0.0000
# 4 0.0000 0.0000 0.0000 24.7280 0.0000 -8.7555
# 5 -15.4535 -1.5314 -16.6151 0.0000 31.5077 0.0000
# 6 0.0000 0.0000 0.0000 -8.7555 0.0000 28.6082
#
#
#
# Elastic Compliance Matrix: (Units=1/GPa)
#
#
# Indices 1 2 3 4 5 6 
#
# 1 0.010858 -0.003396 -0.002663 0.000000 0.003756 0.000000
# 2 -0.003396 0.014018 -0.002351 0.000000 -0.002224 0.000000
# 3 -0.002663 -0.002351 0.016598 0.000000 0.007332 0.000000
# 4 0.000000 0.000000 0.000000 0.045355 0.000000 0.013881
# 5 0.003756 -0.002224 0.007332 0.000000 0.037339 0.000000
# 6 0.000000 0.000000 0.000000 0.013881 0.000000 0.039203
#
#
# Mechanical properties :
#
#
# Convention : Reuss Voigt Hill
#
# Bulk Modulus (GPa) = 40.56205 47.00820 43.78513
# Shear Modulus (GPa) = 26.53807 29.86922 28.20364
#
# Velocity S-wave (km/s) = 3.77855 4.00869 3.89532
# Velocity P-wave (km/s) = 6.39210 6.83495 6.61723
#
# Compressibility (1/GPa) = 0.02465359
#
# Stress axis : x y z
#
# Youngs Moduli (GPa) = 92.09886 71.33759 60.24842
#
# Poissons Ratio (x) = 0.24223 0.16046
# Poissons Ratio (y) = 0.31272 0.14166
# Poissons Ratio (z) = 0.24529 0.16773
#
# Static dielectric constant tensor:
#      x y z
#    x 3.525650 0.000000 -0.254310 
#    y 0.000000 4.771510 0.000000 
#    z -0.254310 0.000000 3.338680 
# 
# 
# High freq. dielectric constant tensor:
#      x y z
#    x 1.706050 0.000000 -0.042150 
#    y 0.000000 1.725290 0.000000 
#    z -0.042150 0.000000 1.708730 
# 
# From -- ./inp_files/19320.got.cif
#   From: 2010.06.25/outbox.cif.g09.slc.cpg/sg13_10_cif.got.tgz:19320.got - 2010.06.28 04:50:58.
