data_PCOD8117261
_publ_section_title
;
Structure prediction by ZEFSAII (Michael W. Deem and Ramdas Pophale) SiO2 
 PCOD8117261
Probable space group: P 2/C
;
_chemical_formula_sum "Si O2"
_cell_formula_units_Z 32
_cell_length_a 19.232655
_cell_length_b 9.130373
_cell_length_c 26.930669
_cell_angle_alpha 90.000000
_cell_angle_beta 159.166701
_cell_angle_gamma 90.000000
_cell_volume 1681.891450
_symmetry_space_group_name_H-M "P 2/C"
_symmetry_group_IT_number 13
_symmetry_cell_setting 'monoclinic'
loop_
_space_group_symop_operation_xyz
x,y,z
-x,y,1/2-z
-x,-y,-z
x,-y,1/2+z
loop_
_atom_site_type_symbol
_atom_site_label
_atom_site_fract_x
_atom_site_fract_y
_atom_site_fract_z
Si Si1 0.612122 0.877810 0.627169
Si Si2 0.201461 0.813212 0.601815
Si Si3 0.953979 0.278904 0.400515
Si Si4 0.029856 0.401760 0.616346
Si Si5 0.281158 0.075863 0.589032
Si Si6 0.055026 0.336229 0.838653
Si Si7 0.598713 0.868095 0.915381
Si Si8 0.269727 0.179262 0.828413
O O1 0.757664 0.749277 0.738829
O O2 0.484445 0.934629 0.588826
O O3 0.484280 0.811016 0.496715
O O4 0.749034 0.014515 0.703961
O O5 0.056720 0.794345 0.552125
O O6 0.427650 0.795916 0.767953
O O7 0.145463 0.694034 0.523298
O O8 0.179041 0.971934 0.561848
O O9 0.948934 0.454932 0.403055
O O10 0.145387 0.220915 0.498725
O O11 0.227623 0.299670 0.755739
O O12 0.961822 0.450301 0.626745
O O13 0.500000 0.123136 0.750000
O O14 0.288222 0.994353 0.540206
O O15 0.000000 0.415230 0.750000
O O16 0.897574 0.204031 0.741793
O O17 0.268028 0.267037 0.979612
#
# Coordination Sequence:
#
# PCOD8117261 Si02
#       8
#     4   4   4   4   4   4   4   4
#     4  10  19  35  60  85 104 144 195 239 275 323
#     4  10  20  35  59  81 107 150 188 227 270 338
#     4  11  22  36  55  83 116 146 181 229 285 333
#     4  10  21  36  56  79 113 148 184 224 278 343
#     4  10  20  36  55  83 113 144 182 233 278 328
#     4  10  18  35  58  80 111 148 185 224 274 337
#     4  10  18  33  59  83 107 141 190 226 281 322
#     4   9  20  35  57  81 109 145 191 236 273 327
#
# _framework density 19.026198999999998
#
# number of rings (size 3 to 8) (size 9 to 14) (size 15 to 20)
#    0.750    1.250    2.500    2.250    0.000    2.500 
#    2.250    0.000    8.250    0.000    0.000    0.000 
#    0.000    0.000    0.000    0.000    0.000    0.000 
#
# Total GULP energy -396440.849681 kJ/mol
# GULP energy per Si atom -12388.776553 kJ/mol
# Density = 1.898289 g / cm^3
# Si number density = 19.026199 Si / 1000 Ang^3
#
#
#
# Elastic Constant Matrix: (Units=GPa)
#
#
# Indices 1 2 3 4 5 6 
#
# 1 67.2518 12.4466 20.8369 0.0000 -1.9002 0.0000
# 2 12.4466 79.3216 38.0990 0.0000 1.8376 0.0000
# 3 20.8369 38.0990 69.5530 0.0000 -6.4443 0.0000
# 4 0.0000 0.0000 0.0000 18.3148 0.0000 0.0636
# 5 -1.9002 1.8376 -6.4443 0.0000 28.5309 0.0000
# 6 0.0000 0.0000 0.0000 0.0636 0.0000 13.8002
#
#
#
# Elastic Compliance Matrix: (Units=1/GPa)
#
#
# Indices 1 2 3 4 5 6 
#
# 1 0.016396 -0.000293 -0.004748 0.000000 0.000039 0.000000
# 2 -0.000293 0.017421 -0.009765 0.000000 -0.003347 0.000000
# 3 -0.004748 -0.009765 0.021630 0.000000 0.005198 0.000000
# 4 0.000000 0.000000 0.000000 0.054602 0.000000 -0.000252
# 5 0.000039 -0.003347 0.005198 0.000000 0.036442 0.000000
# 6 0.000000 0.000000 0.000000 -0.000252 0.000000 0.072464
#
#
# Mechanical properties :
#
#
# Convention : Reuss Voigt Hill
#
# Bulk Modulus (GPa) = 38.70663 39.87684 39.29174
# Shear Modulus (GPa) = 19.44185 21.77879 20.61032
#
# Velocity S-wave (km/s) = 3.20010 3.38697 3.29486
# Velocity P-wave (km/s) = 5.83457 6.02494 5.93052
#
# Compressibility (1/GPa) = 0.02583537
#
# Stress axis : x y z
#
# Youngs Moduli (GPa) = 60.99107 57.40347 46.23142
#
# Poissons Ratio (x) = 0.01683 0.21949
# Poissons Ratio (y) = 0.01788 0.45144
# Poissons Ratio (z) = 0.28957 0.56053
#
# Static dielectric constant tensor:
#      x y z
#    x 3.568860 0.000000 -0.160260 
#    y 0.000000 3.025360 0.000000 
#    z -0.160260 0.000000 3.518400 
# 
# 
# High freq. dielectric constant tensor:
#      x y z
#    x 1.738330 0.000000 -0.012320 
#    y 0.000000 1.697770 0.000000 
#    z -0.012320 0.000000 1.749380 
# 
# From -- ./inp_files/97553.got.cif
#   From: 2010.06.25/outbox.cif.g09.slc.cpg/sg13_49_cif.got.tgz:97553.got - 2010.06.28 04:50:58.
