data_PCOD8117371
_publ_section_title
;
Structure prediction by ZEFSAII (Michael W. Deem and Ramdas Pophale) SiO2 
 PCOD8117371
Probable space group: P 2/C
;
_chemical_formula_sum "Si O2"
_cell_formula_units_Z 28
_cell_length_a 15.412685
_cell_length_b 14.878160
_cell_length_c 8.662897
_cell_angle_alpha 90.000000
_cell_angle_beta 47.066187
_cell_angle_gamma 90.000000
_cell_volume 1454.405248
_symmetry_space_group_name_H-M "P 2/C"
_symmetry_group_IT_number 13
_symmetry_cell_setting 'monoclinic'
loop_
_space_group_symop_operation_xyz
x,y,z
-x,y,1/2-z
-x,-y,-z
x,-y,1/2+z
loop_
_atom_site_type_symbol
_atom_site_label
_atom_site_fract_x
_atom_site_fract_y
_atom_site_fract_z
Si Si1 0.668373 0.628221 0.351063
Si Si2 0.790302 0.225961 0.176110
Si Si3 0.129504 0.733092 0.262637
Si Si4 0.560669 0.689795 0.018843
Si Si5 0.938497 0.360870 0.161045
Si Si6 0.280354 0.459797 0.037088
Si Si7 0.979638 0.905515 0.449098
O O1 0.753121 0.713851 0.278758
O O2 0.536728 0.667813 0.493090
O O3 0.679001 0.562862 0.487545
O O4 0.705733 0.569761 0.157136
O O5 0.647098 0.230794 0.350521
O O6 0.836547 0.285116 0.263848
O O7 0.844224 0.264264 0.950695
O O8 0.842423 0.125942 0.139492
O O9 0.036937 0.651053 0.407725
O O10 0.070052 0.826413 0.394644
O O11 0.500000 0.724004 0.250000
O O12 0.635351 0.599493 0.955770
O O13 0.860279 0.452495 0.246295
O O14 0.000000 0.348177 0.250000
O O15 0.000000 0.927122 0.250000
O O16 0.000000 0.000000 0.500000
#
# Coordination Sequence:
#
# PCOD8117371 Si02
#       7
#     4   4   4   4   4   4   4
#     4  11  22  37  55  82 113 158 206 243 291 333
#     4   9  20  37  60  84 116 149 189 235 294 349
#     4  10  21  37  57  84 120 152 191 234 300 358
#     4   9  20  39  58  80 113 152 204 250 281 331
#     4  10  18  35  52  76 112 147 190 238 292 342
#     4  10  22  36  52  79 112 150 206 254 281 333
#     4   9  19  38  61  95 116 144 182 232 288 363
#
# _framework density 19.251857000000001
#
# number of rings (size 3 to 8) (size 9 to 14) (size 15 to 20)
#    0.000    2.286    1.429    1.714    4.000    3.429 
#    0.000    0.000    0.000    0.857    0.000    0.000 
#    0.000    0.000    0.000    0.000    0.000    0.000 
#
# Total GULP energy -346944.386639 kJ/mol
# GULP energy per Si atom -12390.870951 kJ/mol
# Density = 1.920804 g / cm^3
# Si number density = 19.251857 Si / 1000 Ang^3
#
#
#
# Elastic Constant Matrix: (Units=GPa)
#
#
# Indices 1 2 3 4 5 6 
#
# 1 134.7273 62.1013 44.8274 0.0000 -18.3262 0.0000
# 2 62.1013 101.8497 44.7352 0.0000 -11.3707 0.0000
# 3 44.8274 44.7352 93.5823 0.0000 -24.9471 0.0000
# 4 0.0000 0.0000 0.0000 9.9973 0.0000 2.4681
# 5 -18.3262 -11.3707 -24.9471 0.0000 32.3268 0.0000
# 6 0.0000 0.0000 0.0000 2.4681 0.0000 32.4111
#
#
#
# Elastic Compliance Matrix: (Units=1/GPa)
#
#
# Indices 1 2 3 4 5 6 
#
# 1 0.010993 -0.005576 -0.001840 0.000000 0.002850 0.000000
# 2 -0.005576 0.015258 -0.005080 0.000000 -0.001714 0.000000
# 3 -0.001840 -0.005080 0.016671 0.000000 0.010035 0.000000
# 4 0.000000 0.000000 0.000000 0.101943 0.000000 -0.007763
# 5 0.002850 -0.001714 0.010035 0.000000 0.039691 0.000000
# 6 0.000000 0.000000 0.000000 -0.007763 0.000000 0.031445
#
#
# Mechanical properties :
#
#
# Convention : Reuss Voigt Hill
#
# Bulk Modulus (GPa) = 55.77520 70.38747 63.08133
# Shear Modulus (GPa) = 20.24542 26.84673 23.54608
#
# Velocity S-wave (km/s) = 3.24637 3.73835 3.50101
# Velocity P-wave (km/s) = 6.56400 7.43468 7.01287
#
# Compressibility (1/GPa) = 0.01792912
#
# Stress axis : x y z
#
# Youngs Moduli (GPa) = 90.96967 65.53876 59.98518
#
# Poissons Ratio (x) = 0.36545 0.11039
# Poissons Ratio (y) = 0.50726 0.30472
# Poissons Ratio (z) = 0.16741 0.33293
#
# Static dielectric constant tensor:
#      x y z
#    x 3.857690 0.000000 -0.111680 
#    y 0.000000 3.461430 0.000000 
#    z -0.111680 0.000000 3.770250 
# 
# 
# High freq. dielectric constant tensor:
#      x y z
#    x 1.761520 0.000000 -0.005170 
#    y 0.000000 1.698470 0.000000 
#    z -0.005170 0.000000 1.751220 
# 
# From -- ./inp_files/19596.got.cif
#   From: 2010.06.25/outbox.cif.g09.slc.cpg/sg13_10_cif.got.tgz:19596.got - 2010.06.28 04:50:58.
