data_PCOD8117707
_publ_section_title
;
Structure prediction by ZEFSAII (Michael W. Deem and Ramdas Pophale) SiO2 
 PCOD8117707
Probable space group: P 2/C
;
_chemical_formula_sum "Si O2"
_cell_formula_units_Z 32
_cell_length_a 27.086897
_cell_length_b 9.947863
_cell_length_c 21.730061
_cell_angle_alpha 90.000000
_cell_angle_beta 18.133740
_cell_angle_gamma 90.000000
_cell_volume 1822.384344
_symmetry_space_group_name_H-M "P 2/C"
_symmetry_group_IT_number 13
_symmetry_cell_setting 'monoclinic'
loop_
_space_group_symop_operation_xyz
x,y,z
-x,y,1/2-z
-x,-y,-z
x,-y,1/2+z
loop_
_atom_site_type_symbol
_atom_site_label
_atom_site_fract_x
_atom_site_fract_y
_atom_site_fract_z
Si Si1 0.974417 0.657756 0.965609
Si Si2 0.756124 0.185230 0.072287
Si Si3 0.511602 0.406111 0.393663
Si Si4 0.087023 0.185265 0.741388
Si Si5 0.354433 0.342234 0.705541
Si Si6 0.650655 0.040400 0.782648
Si Si7 0.017301 0.040411 0.049397
Si Si8 0.822151 0.406132 0.772575
O O1 0.037826 0.806145 0.874432
O O2 0.115283 0.554423 0.784643
O O3 0.823386 0.617059 0.103235
O O4 0.927118 0.656075 0.093466
O O5 0.640324 0.312124 0.208983
O O6 0.667256 0.053637 0.203370
O O7 0.805677 0.151231 0.944318
O O8 0.907948 0.221529 0.934090
O O9 0.468306 0.343991 0.511116
O O10 0.584894 0.554410 0.315034
O O11 0.361186 0.417207 0.527633
O O12 0.161059 0.312117 0.688256
O O13 0.091461 0.053680 0.779185
O O14 0.362331 0.193872 0.725413
O O15 0.798583 0.024687 0.652825
O O16 0.500000 0.000000 0.000000
O O17 0.000000 0.000000 0.000000
#
# Coordination Sequence:
#
# PCOD8117707 Si02
#       8
#     4   4   4   4   4   4   4   4
#     4   9  18  32  51  78 108 135 171 220 268 312
#     4  10  21  36  54  77 107 143 178 216 268 327
#     4  10  19  32  52  78 106 138 175 218 264 312
#     4  10  21  36  54  77 107 143 178 216 268 327
#     4   9  18  32  51  78 108 135 171 220 268 312
#     4  10  19  33  54  79 107 138 178 224 268 316
#     4  10  19  33  54  79 107 138 178 224 268 316
#     4  10  19  32  52  78 106 138 175 218 264 312
#
# _framework density 17.559412999999999
#
# number of rings (size 3 to 8) (size 9 to 14) (size 15 to 20)
#    0.000    2.250    2.500    0.750    0.000    2.500 
#    0.000    1.250    0.000    4.500    0.000    0.000 
#    0.000    0.000    0.000    0.000    0.000    0.000 
#
# Total GULP energy -396899.396626 kJ/mol
# GULP energy per Si atom -12403.106145 kJ/mol
# Density = 1.751945 g / cm^3
# Si number density = 17.559413 Si / 1000 Ang^3
#
#
#
# Elastic Constant Matrix: (Units=GPa)
#
#
# Indices 1 2 3 4 5 6 
#
# 1 95.4295 69.5575 47.9727 0.0000 3.9309 0.0000
# 2 69.5575 141.2923 69.7187 0.0000 1.0591 0.0000
# 3 47.9727 69.7187 96.4348 0.0000 3.0677 0.0000
# 4 0.0000 0.0000 0.0000 27.8867 0.0000 0.0226
# 5 3.9309 1.0591 3.0677 0.0000 18.0871 0.0000
# 6 0.0000 0.0000 0.0000 0.0226 0.0000 27.8836
#
#
#
# Elastic Compliance Matrix: (Units=1/GPa)
#
#
# Indices 1 2 3 4 5 6 
#
# 1 0.017322 -0.006682 -0.003699 0.000000 -0.002746 0.000000
# 2 -0.006682 0.013589 -0.006557 0.000000 0.001768 0.000000
# 3 -0.003699 -0.006557 0.017004 0.000000 -0.001696 0.000000
# 4 0.000000 0.000000 0.000000 0.035859 0.000000 -0.000029
# 5 -0.002746 0.001768 -0.001696 0.000000 0.056069 0.000000
# 6 0.000000 0.000000 0.000000 -0.000029 0.000000 0.035863
#
#
# Mechanical properties :
#
#
# Convention : Reuss Voigt Hill
#
# Bulk Modulus (GPa) = 71.22484 78.62827 74.92655
# Shear Modulus (GPa) = 23.33605 24.49866 23.91735
#
# Velocity S-wave (km/s) = 3.64947 3.73927 3.69464
# Velocity P-wave (km/s) = 7.64254 7.96985 7.80791
#
# Compressibility (1/GPa) = 0.01404005
#
# Stress axis : x y z
#
# Youngs Moduli (GPa) = 57.73113 73.58975 58.80974
#
# Poissons Ratio (x) = 0.49169 0.21754
# Poissons Ratio (y) = 0.38573 0.38559
# Poissons Ratio (z) = 0.21355 0.48250
#
# Static dielectric constant tensor:
#      x y z
#    x 3.173360 0.000000 -0.119160 
#    y 0.000000 3.429250 0.000000 
#    z -0.119160 0.000000 3.154810 
# 
# 
# High freq. dielectric constant tensor:
#      x y z
#    x 1.666490 0.000000 -0.015430 
#    y 0.000000 1.690190 0.000000 
#    z -0.015430 0.000000 1.664170 
# 
# From -- ./inp_files/82508.got.cif
#   From: 2010.06.25/outbox.cif.g09.slc.cpg/sg13_42_cif.got.tgz:82508.got - 2010.06.28 04:50:58.
