data_PCOD8117253
_publ_section_title
;
Structure prediction by ZEFSAII (Michael W. Deem and Ramdas Pophale) SiO2 
 PCOD8117253
Probable space group: P 2/C
;
_chemical_formula_sum "Si O2"
_cell_formula_units_Z 32
_cell_length_a 14.955039
_cell_length_b 8.210319
_cell_length_c 18.494001
_cell_angle_alpha 90.000000
_cell_angle_beta 140.866894
_cell_angle_gamma 90.000000
_cell_volume 1433.155215
_symmetry_space_group_name_H-M "P 2/C"
_symmetry_group_IT_number 13
_symmetry_cell_setting 'monoclinic'
loop_
_space_group_symop_operation_xyz
x,y,z
-x,y,1/2-z
-x,-y,-z
x,-y,1/2+z
loop_
_atom_site_type_symbol
_atom_site_label
_atom_site_fract_x
_atom_site_fract_y
_atom_site_fract_z
Si Si1 0.924403 0.769444 0.889211
Si Si2 0.366938 0.526940 0.982235
Si Si3 0.104414 0.665636 0.875742
Si Si4 0.985253 0.871342 0.083528
Si Si5 0.234179 0.996928 0.949228
Si Si6 0.468157 0.029748 0.897252
Si Si7 0.623167 0.315454 0.153135
Si Si8 0.245507 0.233932 0.821322
O O1 0.784241 0.665125 0.781409
O O2 0.045985 0.674919 0.920410
O O3 0.923198 0.961999 0.868401
O O4 0.957864 0.765075 0.994870
O O5 0.250067 0.561229 0.970309
O O6 0.390919 0.686364 0.945066
O O7 0.303722 0.408220 0.880599
O O8 0.510090 0.454897 0.108563
O O9 0.134098 0.847596 0.864691
O O10 0.000000 0.587476 0.750000
O O11 0.082322 0.754016 0.193656
O O12 0.832908 0.908694 0.024198
O O13 0.250400 0.118916 0.893689
O O14 0.393133 0.925142 0.064450
O O15 0.417701 0.854990 0.836009
O O16 0.343881 0.165933 0.816502
O O17 0.500000 0.000000 0.000000
#
# Coordination Sequence:
#
# PCOD8117253 Si02
#       8
#     4   4   4   4   4   4   4   4
#     4  10  21  40  65  87 122 171 203 262 319 383
#     4  11  23  33  59  94 123 160 206 254 311 381
#     4  11  21  36  61  89 123 162 205 258 320 380
#     4  10  21  38  64  91 121 158 217 257 318 382
#     4  10  20  35  60  95 117 157 206 270 316 365
#     4  10  18  33  58  87 121 153 196 264 316 350
#     4  11  20  38  58  90 124 162 201 249 318 372
#     4  11  20  35  60  91 123 153 206 269 307 370
#
# _framework density 22.328354000000001
#
# number of rings (size 3 to 8) (size 9 to 14) (size 15 to 20)
#    0.000    1.500    5.000    3.375    1.750    1.000 
#    0.000    1.250    0.000    0.000    0.000    0.000 
#    0.000    0.000    0.000    0.000    0.000    0.000 
#
# Total GULP energy -396442.788553 kJ/mol
# GULP energy per Si atom -12388.837142 kJ/mol
# Density = 2.227753 g / cm^3
# Si number density = 22.328354 Si / 1000 Ang^3
#
#
#
# Elastic Constant Matrix: (Units=GPa)
#
#
# Indices 1 2 3 4 5 6 
#
# 1 151.0018 26.9316 63.2938 0.0000 31.6461 0.0000
# 2 26.9316 48.5665 24.4018 0.0000 9.8596 0.0000
# 3 63.2938 24.4018 71.1030 0.0000 20.6827 0.0000
# 4 0.0000 0.0000 0.0000 31.6452 0.0000 12.2010
# 5 31.6461 9.8596 20.6827 0.0000 35.7519 0.0000
# 6 0.0000 0.0000 0.0000 12.2010 0.0000 27.3385
#
#
#
# Elastic Compliance Matrix: (Units=1/GPa)
#
#
# Indices 1 2 3 4 5 6 
#
# 1 0.011316 -0.001128 -0.008251 0.000000 -0.004932 0.000000
# 2 -0.001128 0.025153 -0.007095 0.000000 -0.001834 0.000000
# 3 -0.008251 -0.007095 0.025430 0.000000 -0.005451 0.000000
# 4 0.000000 0.000000 0.000000 0.038168 0.000000 -0.017034
# 5 -0.004932 -0.001834 -0.005451 0.000000 0.035995 0.000000
# 6 0.000000 0.000000 0.000000 -0.017034 0.000000 0.044181
#
#
# Mechanical properties :
#
#
# Convention : Reuss Voigt Hill
#
# Bulk Modulus (GPa) = 34.54195 55.54729 45.04462
# Shear Modulus (GPa) = 22.43763 29.35004 25.89384
#
# Velocity S-wave (km/s) = 3.17345 3.62950 3.40911
# Velocity P-wave (km/s) = 5.37878 6.51888 5.97608
#
# Compressibility (1/GPa) = 0.02895031
#
# Stress axis : x y z
#
# Youngs Moduli (GPa) = 88.37193 39.75707 39.32432
#
# Poissons Ratio (x) = 0.04484 0.32448
# Poissons Ratio (y) = 0.09968 0.27899
# Poissons Ratio (z) = 0.72919 0.28206
#
# Static dielectric constant tensor:
#      x y z
#    x 4.299590 0.000000 0.728500 
#    y 0.000000 4.206040 0.000000 
#    z 0.728500 0.000000 3.921540 
# 
# 
# High freq. dielectric constant tensor:
#      x y z
#    x 1.866420 0.000000 0.052850 
#    y 0.000000 1.874570 0.000000 
#    z 0.052850 0.000000 1.845100 
# 
# From -- ./inp_files/79834.got.cif
#   From: 2010.06.25/outbox.cif.g09.slc.cpg/sg13_40_cif.got.tgz:79834.got - 2010.06.28 04:50:58.
