data_PCOD8117691
_publ_section_title
;
Structure prediction by ZEFSAII (Michael W. Deem and Ramdas Pophale) SiO2 
 PCOD8117691
Probable space group: P 2/C
;
_chemical_formula_sum "Si O2"
_cell_formula_units_Z 24
_cell_length_a 10.885623
_cell_length_b 23.326831
_cell_length_c 5.197932
_cell_angle_alpha 90.000000
_cell_angle_beta 90.374688
_cell_angle_gamma 90.000000
_cell_volume 1319.867514
_symmetry_space_group_name_H-M "P 2/C"
_symmetry_group_IT_number 13
_symmetry_cell_setting 'monoclinic'
loop_
_space_group_symop_operation_xyz
x,y,z
-x,y,1/2-z
-x,-y,-z
x,-y,1/2+z
loop_
_atom_site_type_symbol
_atom_site_label
_atom_site_fract_x
_atom_site_fract_y
_atom_site_fract_z
Si Si1 0.731876 0.961270 0.268397
Si Si2 0.500000 0.198065 0.250000
Si Si3 0.285690 0.368096 0.743792
Si Si4 0.363922 0.691744 0.744844
Si Si5 0.000000 0.038092 0.750000
Si Si6 0.141665 0.471168 0.749920
Si Si7 0.500000 0.120859 0.750000
Si Si8 0.500000 0.539490 0.250000
O O1 0.867112 0.928962 0.250870
O O2 0.623354 0.916116 0.237319
O O3 0.718419 0.991851 0.543529
O O4 0.621133 0.239007 0.257223
O O5 0.494703 0.159642 0.500073
O O6 0.291308 0.327657 0.495715
O O7 0.156780 0.402097 0.744293
O O8 0.382937 0.419281 0.746771
O O9 0.292702 0.327241 0.990120
O O10 0.500000 0.662825 0.750000
O O11 0.000000 0.000000 0.500000
O O12 0.204957 0.500968 0.502933
O O13 0.000000 0.487219 0.750000
O O14 0.500000 0.500000 0.500000
#
# Coordination Sequence:
#
# PCOD8117691 Si02
#       8
#     4   2   4   4   2   4   2   2
#     4  10  19  32  50  80 113 147 176 214 250 311
#     4  10  22  36  50  78  98 138 168 218 274 306
#     4  12  19  34  52  73  94 132 161 200 252 294
#     4  10  20  36  52  71  97 123 170 212 249 306
#     4   8  16  30  48  70 106 146 182 200 240 294
#     4  10  21  36  51  74 106 135 165 199 245 312
#     4  12  20  32  54  80 110 136 182 214 272 310
#     4  12  20  26  40  68 102 118 142 180 234 298
#
# _framework density 18.183641999999999
#
# number of rings (size 3 to 8) (size 9 to 14) (size 15 to 20)
#    0.500    1.000    1.667    5.500    0.000    0.000 
#    0.000    0.000    0.000    0.000   13.000    0.000 
#    0.000    0.000    0.000    0.000    0.000    0.000 
#
# Total GULP energy -297378.843741 kJ/mol
# GULP energy per Si atom -12390.785156 kJ/mol
# Density = 1.814226 g / cm^3
# Si number density = 18.183642 Si / 1000 Ang^3
#
#
#
# Elastic Constant Matrix: (Units=GPa)
#
#
# Indices 1 2 3 4 5 6 
#
# 1 80.4170 43.0090 28.7484 0.0000 -2.6152 0.0000
# 2 43.0090 90.0248 44.6413 0.0000 -4.9094 0.0000
# 3 28.7484 44.6413 159.5369 0.0000 -6.5469 0.0000
# 4 0.0000 0.0000 0.0000 40.0446 0.0000 2.8303
# 5 -2.6152 -4.9094 -6.5469 0.0000 6.6904 0.0000
# 6 0.0000 0.0000 0.0000 2.8303 0.0000 8.4707
#
#
#
# Elastic Compliance Matrix: (Units=1/GPa)
#
#
# Indices 1 2 3 4 5 6 
#
# 1 0.016816 -0.007578 -0.000904 0.000000 0.000127 0.000000
# 2 -0.007578 0.016563 -0.003013 0.000000 0.006244 0.000000
# 3 -0.000904 -0.003013 0.007469 0.000000 0.004744 0.000000
# 4 0.000000 0.000000 0.000000 0.025576 0.000000 -0.008546
# 5 0.000127 0.006244 0.004744 0.000000 0.158741 0.000000
# 6 0.000000 0.000000 0.000000 -0.008546 0.000000 0.120909
#
#
# Mechanical properties :
#
#
# Convention : Reuss Voigt Hill
#
# Bulk Modulus (GPa) = 56.00176 62.53068 59.26622
# Shear Modulus (GPa) = 13.33275 25.27981 19.30628
#
# Velocity S-wave (km/s) = 2.71076 3.73265 3.26197
# Velocity P-wave (km/s) = 6.37670 7.28286 6.84479
#
# Compressibility (1/GPa) = 0.01785658
#
# Stress axis : x y z
#
# Youngs Moduli (GPa) = 59.46833 60.37553 133.88930
#
# Poissons Ratio (x) = 0.45754 0.12109
# Poissons Ratio (y) = 0.45066 0.40339
# Poissons Ratio (z) = 0.05379 0.18190
#
# Static dielectric constant tensor:
#      x y z
#    x 3.718540 0.000000 -0.003140 
#    y 0.000000 3.072230 0.000000 
#    z -0.003140 0.000000 3.705450 
# 
# 
# High freq. dielectric constant tensor:
#      x y z
#    x 1.692520 0.000000 -0.000520 
#    y 0.000000 1.672040 0.000000 
#    z -0.000520 0.000000 1.736160 
# 
# From -- ./inp_files/3666.got.cif
#   From: 2010.06.25/outbox.cif.g09.slc.cpg/sg13_2_cif.got.tgz:3666.got - 2010.06.28 04:50:58.
