data_PCOD8117590
_publ_section_title
;
Structure prediction by ZEFSAII (Michael W. Deem and Ramdas Pophale) SiO2 
 PCOD8117590
Probable space group: P 2/C
;
_chemical_formula_sum "Si O2"
_cell_formula_units_Z 28
_cell_length_a 9.293392
_cell_length_b 10.623046
_cell_length_c 16.691097
_cell_angle_alpha 90.000000
_cell_angle_beta 120.888591
_cell_angle_gamma 90.000000
_cell_volume 1414.099876
_symmetry_space_group_name_H-M "P 2/C"
_symmetry_group_IT_number 13
_symmetry_cell_setting 'monoclinic'
loop_
_space_group_symop_operation_xyz
x,y,z
-x,y,1/2-z
-x,-y,-z
x,-y,1/2+z
loop_
_atom_site_type_symbol
_atom_site_label
_atom_site_fract_x
_atom_site_fract_y
_atom_site_fract_z
Si Si1 0.500000 0.935689 0.750000
Si Si2 0.274378 0.354110 0.906805
Si Si3 0.000000 0.185123 0.750000
Si Si4 0.522845 0.545598 0.345226
Si Si5 0.854415 0.055140 0.853834
Si Si6 0.026703 0.193961 0.043477
Si Si7 0.864854 0.437265 0.019337
Si Si8 0.400098 0.734009 0.601967
O O1 0.509160 0.847731 0.671941
O O2 0.657563 0.027108 0.804087
O O3 0.123234 0.266480 0.838703
O O4 0.377463 0.400919 0.860198
O O5 0.186725 0.475103 0.921830
O O6 0.397690 0.278676 0.003888
O O7 0.112962 0.098195 0.726499
O O8 0.500000 0.599710 0.250000
O O9 0.700437 0.597332 0.422987
O O10 0.520627 0.394064 0.341938
O O11 0.914106 0.161492 0.933444
O O12 0.960624 0.928354 0.897916
O O13 0.207170 0.247744 0.070696
O O14 0.937651 0.303422 0.070011
O O15 0.000000 0.500000 0.000000
#
# Coordination Sequence:
#
# PCOD8117590 Si02
#       8
#     2   4   2   4   4   4   4   4
#     4  10  22  40  70  90 122 168 228 262 322 376
#     4  11  25  40  65  94 137 170 210 269 341 385
#     4  12  24  46  60  92 136 170 218 276 308 382
#     4  11  24  38  62  98 131 170 207 264 341 392
#     4  10  23  42  63  92 122 178 215 262 314 373
#     4  10  20  40  70  87 128 169 217 257 318 391
#     4  11  20  39  67  98 125 167 210 264 332 394
#     4  10  18  41  64  92 128 169 200 272 326 384
#
# _framework density 19.800581999999999
#
# number of rings (size 3 to 8) (size 9 to 14) (size 15 to 20)
#    0.000    1.429    5.000    1.714    4.000    1.143 
#    5.143    0.714    0.000    0.000    0.000    0.000 
#    0.000    0.000    0.000    0.000    0.000    0.000 
#
# Total GULP energy -347090.377562 kJ/mol
# GULP energy per Si atom -12396.084913 kJ/mol
# Density = 1.975551 g / cm^3
# Si number density = 19.800582 Si / 1000 Ang^3
#
#
#
# Elastic Constant Matrix: (Units=GPa)
#
#
# Indices 1 2 3 4 5 6 
#
# 1 88.8899 28.4270 31.7046 0.0000 -9.5226 0.0000
# 2 28.4270 73.0073 28.7007 0.0000 -9.1843 0.0000
# 3 31.7046 28.7007 102.9471 0.0000 -16.7245 0.0000
# 4 0.0000 0.0000 0.0000 -60.6300 0.0000 -15.2808
# 5 -9.5226 -9.1843 -16.7245 0.0000 31.4816 0.0000
# 6 0.0000 0.0000 0.0000 -15.2808 0.0000 32.3950
#
#
#
# Elastic Compliance Matrix: (Units=1/GPa)
#
#
# Indices 1 2 3 4 5 6 
#
# 1 0.013716 -0.004032 -0.002864 0.000000 0.001451 0.000000
# 2 -0.004032 0.016739 -0.003097 0.000000 0.002018 0.000000
# 3 -0.002864 -0.003097 0.012227 0.000000 0.004726 0.000000
# 4 0.000000 0.000000 0.000000 -0.014741 0.000000 -0.006953
# 5 0.001451 0.002018 0.004726 0.000000 0.035303 0.000000
# 6 0.000000 0.000000 0.000000 -0.006953 0.000000 0.027589
#
#
# Mechanical properties :
#
#
# Convention : Reuss Voigt Hill
#
# Bulk Modulus (GPa) = 44.06240 49.16766 46.61503
# Shear Modulus (GPa) = 42.23511 12.38347 27.30929
#
# Velocity S-wave (km/s) = 4.62348 2.50353 3.71781
# Velocity P-wave (km/s) = 7.12765 5.76561 6.48250
#
# Compressibility (1/GPa) = 0.02269509
#
# Stress axis : x y z
#
# Youngs Moduli (GPa) = 72.90501 59.74198 81.78648
#
# Poissons Ratio (x) = 0.24089 0.23427
# Poissons Ratio (y) = 0.29397 0.25328
# Poissons Ratio (z) = 0.20883 0.18501
#
# Static dielectric constant tensor:
#      x y z
#    x 3.497560 0.000000 0.250120 
#    y 0.000000 3.916770 0.000000 
#    z 0.250120 0.000000 3.718560 
# 
# 
# High freq. dielectric constant tensor:
#      x y z
#    x 1.761400 0.000000 0.014760 
#    y 0.000000 1.778300 0.000000 
#    z 0.014760 0.000000 1.776240 
# 
# From -- ./inp_files/47008.got.cif
#   From: 2010.06.25/outbox.cif.g09.slc.cpg/sg13_24_cif.got.tgz:47008.got - 2010.06.28 04:50:58.
