data_PCOD8117748
_publ_section_title
;
Structure prediction by ZEFSAII (Michael W. Deem and Ramdas Pophale) SiO2 
 PCOD8117748
Probable space group: P 2/C
;
_chemical_formula_sum "Si O2"
_cell_formula_units_Z 26
_cell_length_a 13.679578
_cell_length_b 21.115219
_cell_length_c 5.073113
_cell_angle_alpha 90.000000
_cell_angle_beta 111.178133
_cell_angle_gamma 90.000000
_cell_volume 1366.387408
_symmetry_space_group_name_H-M "P 2/C"
_symmetry_group_IT_number 13
_symmetry_cell_setting 'monoclinic'
loop_
_space_group_symop_operation_xyz
x,y,z
-x,y,1/2-z
-x,-y,-z
x,-y,1/2+z
loop_
_atom_site_type_symbol
_atom_site_label
_atom_site_fract_x
_atom_site_fract_y
_atom_site_fract_z
Si Si1 0.264618 0.657389 0.027781
Si Si2 0.274944 0.044067 0.995619
Si Si3 0.375108 0.711413 0.638650
Si Si4 0.500000 0.956992 0.750000
Si Si5 0.215872 0.820023 0.529633
Si Si6 0.880513 0.769999 0.566435
Si Si7 0.882942 0.458541 0.168008
O O1 0.334426 0.671577 0.350786
O O2 0.340628 0.670205 0.855768
O O3 0.161792 0.700628 0.913074
O O4 0.215169 0.587681 0.980978
O O5 0.255596 0.007409 0.704801
O O6 0.389556 0.079255 0.133732
O O7 0.204677 0.105997 0.943432
O O8 0.500000 0.719070 0.750000
O O9 0.326539 0.782848 0.598450
O O10 0.500000 0.000000 0.500000
O O11 0.182569 0.817519 0.802490
O O12 0.133673 0.786618 0.253922
O O13 0.000000 0.773162 0.750000
O O14 0.872024 0.483254 0.455251
O O15 0.000000 0.427565 0.250000
#
# Coordination Sequence:
#
# PCOD8117748 Si02
#       7
#     4   4   4   2   4   4   4
#     4  10  20  36  57  82 109 144 180 213 272 318
#     4  10  19  33  51  73 104 135 169 212 265 322
#     4  10  21  36  56  80 109 143 180 224 263 311
#     4   8  16  28  44  68  92 126 160 192 244 302
#     4  10  21  34  55  81 102 138 175 216 273 317
#     4  10  20  36  56  79 105 134 176 224 265 313
#     4  10  20  34  56  86 116 144 176 222 273 316
#
# _framework density 19.028279999999999
#
# number of rings (size 3 to 8) (size 9 to 14) (size 15 to 20)
#    0.000    2.154    0.000    3.231    1.077    0.000 
#    0.000    4.615    0.000   18.462    0.000    0.000 
#    0.000    0.000    0.000    0.000    0.000    0.000 
#
# Total GULP energy -322136.598467 kJ/mol
# GULP energy per Si atom -12389.869172 kJ/mol
# Density = 1.898497 g / cm^3
# Si number density = 19.028280 Si / 1000 Ang^3
#
#
#
# Elastic Constant Matrix: (Units=GPa)
#
#
# Indices 1 2 3 4 5 6 
#
# 1 65.1109 36.0367 33.6603 0.0000 9.7813 0.0000
# 2 36.0367 64.1310 13.0315 0.0000 7.9050 0.0000
# 3 33.6603 13.0315 84.8577 0.0000 -5.8306 0.0000
# 4 0.0000 0.0000 0.0000 14.6919 0.0000 0.8685
# 5 9.7813 7.9050 -5.8306 0.0000 41.1729 0.0000
# 6 0.0000 0.0000 0.0000 0.8685 0.0000 13.8037
#
#
#
# Elastic Compliance Matrix: (Units=1/GPa)
#
#
# Indices 1 2 3 4 5 6 
#
# 1 0.028641 -0.013437 -0.009682 0.000000 -0.005595 0.000000
# 2 -0.013437 0.022907 0.001746 0.000000 -0.000959 0.000000
# 3 -0.009682 0.001746 0.015644 0.000000 0.004180 0.000000
# 4 0.000000 0.000000 0.000000 0.068319 0.000000 -0.004299
# 5 -0.005595 -0.000959 0.004180 0.000000 0.026393 0.000000
# 6 0.000000 0.000000 0.000000 -0.004299 0.000000 0.072715
#
#
# Mechanical properties :
#
#
# Convention : Reuss Voigt Hill
#
# Bulk Modulus (GPa) = 40.90504 42.17293 41.53898
# Shear Modulus (GPa) = 17.51233 22.69179 20.10206
#
# Velocity S-wave (km/s) = 3.03699 3.45705 3.25380
# Velocity P-wave (km/s) = 5.81733 6.17627 5.99949
#
# Compressibility (1/GPa) = 0.02444687
#
# Stress axis : x y z
#
# Youngs Moduli (GPa) = 34.91473 43.65492 63.92231
#
# Poissons Ratio (x) = 0.58659 0.61889
# Poissons Ratio (y) = 0.46915 -0.11163
# Poissons Ratio (z) = 0.33804 -0.07624
#
# Static dielectric constant tensor:
#      x y z
#    x 3.571040 0.000000 -0.123550 
#    y 0.000000 3.164900 0.000000 
#    z -0.123550 0.000000 3.659950 
# 
# 
# High freq. dielectric constant tensor:
#      x y z
#    x 1.736380 0.000000 -0.013830 
#    y 0.000000 1.717660 0.000000 
#    z -0.013830 0.000000 1.757110 
# 
# From -- ./inp_files/4206.got.cif
#   From: 2010.06.25/outbox.cif.g09.slc.cpg/sg13_3_cif.got.tgz:4206.got - 2010.06.28 04:50:58.
