data_PCOD8117262
_publ_section_title
;
Structure prediction by ZEFSAII (Michael W. Deem and Ramdas Pophale) SiO2 
 PCOD8117262
Probable space group: P 2/C
;
_chemical_formula_sum "Si O2"
_cell_formula_units_Z 32
_cell_length_a 12.863549
_cell_length_b 8.289960
_cell_length_c 18.976196
_cell_angle_alpha 90.000000
_cell_angle_beta 50.121556
_cell_angle_gamma 90.000000
_cell_volume 1552.915515
_symmetry_space_group_name_H-M "P 2/C"
_symmetry_group_IT_number 13
_symmetry_cell_setting 'monoclinic'
loop_
_space_group_symop_operation_xyz
x,y,z
-x,y,1/2-z
-x,-y,-z
x,-y,1/2+z
loop_
_atom_site_type_symbol
_atom_site_label
_atom_site_fract_x
_atom_site_fract_y
_atom_site_fract_z
Si Si1 0.219930 0.656883 0.509497
Si Si2 0.273590 0.574303 0.722666
Si Si3 0.389657 0.096983 0.854630
Si Si4 0.455338 0.234009 0.395220
Si Si5 0.869336 0.063253 0.095452
Si Si6 0.964086 0.807886 0.688023
Si Si7 0.354656 0.573479 0.057072
Si Si8 0.246746 0.400337 0.389896
O O1 0.348795 0.759003 0.424881
O O2 0.260736 0.556420 0.559724
O O3 0.170893 0.533319 0.470067
O O4 0.098605 0.772270 0.584428
O O5 0.389702 0.711406 0.661734
O O6 0.129420 0.650201 0.763330
O O7 0.296416 0.416595 0.662420
O O8 0.276913 0.515712 0.801679
O O9 0.500000 0.156758 0.750000
O O10 0.450433 0.952036 0.875411
O O11 0.258702 0.043940 0.867793
O O12 0.368015 0.260421 0.506244
O O13 0.388167 0.346159 0.364243
O O14 0.887415 0.059070 0.172924
O O15 0.849768 0.247298 0.078844
O O16 0.000000 0.000000 0.000000
O O17 0.000000 0.877037 0.750000
O O18 0.500000 0.500000 0.000000
#
# Coordination Sequence:
#
# PCOD8117262 Si02
#       8
#     4   4   4   4   4   4   4   4
#     4  11  22  38  59  90 119 159 205 255 310 362
#     4  10  18  33  59  86 112 156 202 247 303 371
#     4  11  22  38  62  90 123 158 207 265 312 372
#     4   9  18  36  59  86 114 155 200 248 312 372
#     4  10  20  39  63  89 120 165 207 255 307 376
#     4  11  21  36  62  84 122 163 203 243 307 378
#     4   9  19  35  58  83 117 154 198 248 302 372
#     4   9  20  34  62  85 117 154 204 251 307 365
#
# _framework density 20.606400000000001
#
# number of rings (size 3 to 8) (size 9 to 14) (size 15 to 20)
#    0.000    2.000    2.500    2.625    0.000    5.000 
#    0.000    2.500    2.750    0.750    0.000    0.000 
#    0.000    0.000    0.000    0.000    0.000    0.000 
#
# Total GULP energy -396606.816165 kJ/mol
# GULP energy per Si atom -12393.963005 kJ/mol
# Density = 2.055950 g / cm^3
# Si number density = 20.606400 Si / 1000 Ang^3
#
#
#
# Elastic Constant Matrix: (Units=GPa)
#
#
# Indices 1 2 3 4 5 6 
#
# 1 81.2785 7.1102 34.6194 0.0000 13.3981 0.0000
# 2 7.1102 42.4303 24.5227 0.0000 8.3602 0.0000
# 3 34.6194 24.5227 129.2735 0.0000 11.0071 0.0000
# 4 0.0000 0.0000 0.0000 31.2448 0.0000 2.0992
# 5 13.3981 8.3602 11.0071 0.0000 41.8504 0.0000
# 6 0.0000 0.0000 0.0000 2.0992 0.0000 13.7214
#
#
#
# Elastic Compliance Matrix: (Units=1/GPa)
#
#
# Indices 1 2 3 4 5 6 
#
# 1 0.014428 0.000415 -0.003623 0.000000 -0.003749 0.000000
# 2 0.000415 0.027173 -0.004902 0.000000 -0.004272 0.000000
# 3 -0.003623 -0.004902 0.009670 0.000000 -0.000404 0.000000
# 4 0.000000 0.000000 0.000000 0.032338 0.000000 -0.004947
# 5 -0.003749 -0.004272 -0.000404 0.000000 0.026055 0.000000
# 6 0.000000 0.000000 0.000000 -0.004947 0.000000 0.073636
#
#
# Mechanical properties :
#
#
# Convention : Reuss Voigt Hill
#
# Bulk Modulus (GPa) = 28.52982 42.83187 35.68084
# Shear Modulus (GPa) = 23.67371 29.81197 26.74284
#
# Velocity S-wave (km/s) = 3.39315 3.80772 3.60640
# Velocity P-wave (km/s) = 5.40615 6.33739 5.89020
#
# Compressibility (1/GPa) = 0.03505105
#
# Stress axis : x y z
#
# Youngs Moduli (GPa) = 69.30765 36.80066 103.41031
#
# Poissons Ratio (x) = -0.01527 0.37470
# Poissons Ratio (y) = -0.02877 0.50693
# Poissons Ratio (z) = 0.25113 0.18040
#
# Static dielectric constant tensor:
#      x y z
#    x 4.080130 0.000000 0.136750 
#    y 0.000000 3.461110 0.000000 
#    z 0.136750 0.000000 4.250680 
# 
# 
# High freq. dielectric constant tensor:
#      x y z
#    x 1.821950 0.000000 0.006170 
#    y 0.000000 1.761770 0.000000 
#    z 0.006170 0.000000 1.812550 
# 
# From -- ./inp_files/78261.got.cif
#   From: 2010.06.25/outbox.cif.g09.slc.cpg/sg13_40_cif.got.tgz:78261.got - 2010.06.28 04:50:58.
