data_PCOD8117013
_publ_section_title
;
Structure prediction by ZEFSAII (Michael W. Deem and Ramdas Pophale) SiO2 
 PCOD8117013
Probable space group: P 2/C
;
_chemical_formula_sum "Si O2"
_cell_formula_units_Z 30
_cell_length_a 10.029670
_cell_length_b 30.774695
_cell_length_c 5.247247
_cell_angle_alpha 90.000000
_cell_angle_beta 95.889534
_cell_angle_gamma 90.000000
_cell_volume 1611.066429
_symmetry_space_group_name_H-M "P 2/C"
_symmetry_group_IT_number 13
_symmetry_cell_setting 'monoclinic'
loop_
_space_group_symop_operation_xyz
x,y,z
-x,y,1/2-z
-x,-y,-z
x,-y,1/2+z
loop_
_atom_site_type_symbol
_atom_site_label
_atom_site_fract_x
_atom_site_fract_y
_atom_site_fract_z
Si Si1 0.000000 0.326617 0.250000
Si Si2 0.855667 0.379062 0.841798
Si Si3 0.159533 0.877515 0.275916
Si Si4 0.346160 0.691545 0.246682
Si Si5 0.840193 0.024404 0.723916
Si Si6 0.767955 0.730219 0.797491
Si Si7 0.156469 0.521431 0.242305
Si Si8 0.159154 0.171606 0.274078
O O1 0.910000 0.293262 0.402360
O O2 0.115820 0.358995 0.376082
O O3 0.735143 0.352227 0.690839
O O4 0.813996 0.429156 0.828303
O O5 0.000000 0.370255 0.750000
O O6 0.214796 0.926532 0.268622
O O7 0.213138 0.856481 0.547292
O O8 0.000000 0.877816 0.250000
O O9 0.213346 0.849989 0.045332
O O10 0.500000 0.678432 0.250000
O O11 0.329880 0.724912 0.478960
O O12 0.292142 0.710886 0.973588
O O13 0.000000 0.024280 0.750000
O O14 0.785218 0.002024 0.456383
O O15 0.784065 0.780588 0.746567
O O16 0.220256 0.508095 0.528013
O O17 0.000000 0.512014 0.250000
O O18 0.000000 0.173228 0.250000
#
# Coordination Sequence:
#
# PCOD8117013 Si02
#       8
#     2   4   4   4   4   4   4   4
#     4  10  20  32  52  84 104 132 178 224 260 310
#     4  10  20  34  57  79 109 137 178 219 263 307
#     4   9  17  26  38  60  91 123 166 218 265 303
#     4  11  24  39  56  79 108 141 177 219 266 316
#     4   9  15  23  35  51  77 120 170 212 248 300
#     4  11  21  36  55  75 105 136 177 218 269 312
#     4   9  19  30  48  76 108 135 165 208 261 311
#     4  10  18  29  45  68  95 126 164 218 266 305
#
# _framework density 18.621205
#
# number of rings (size 3 to 8) (size 9 to 14) (size 15 to 20)
#    0.000    2.133    2.000    2.000    4.667    3.200 
#    0.000    0.000    0.000    0.800    0.000    0.000 
#    0.000    0.000    0.000    0.000    0.000  168.000 
#
# Total GULP energy -371709.972380 kJ/mol
# GULP energy per Si atom -12390.332413 kJ/mol
# Density = 1.857882 g / cm^3
# Si number density = 18.621205 Si / 1000 Ang^3
#
#
#
# Elastic Constant Matrix: (Units=GPa)
#
#
# Indices 1 2 3 4 5 6 
#
# 1 47.5106 39.1098 22.6099 0.0000 -8.5067 0.0000
# 2 39.1098 165.3383 69.7963 0.0000 -2.7802 0.0000
# 3 22.6099 69.7963 145.7714 0.0000 -10.9263 0.0000
# 4 0.0000 0.0000 0.0000 -8.9181 0.0000 92.3206
# 5 -8.5067 -2.7802 -10.9263 0.0000 11.4009 0.0000
# 6 0.0000 0.0000 0.0000 92.3206 0.0000 -226.6828
#
#
#
# Elastic Compliance Matrix: (Units=1/GPa)
#
#
# Indices 1 2 3 4 5 6 
#
# 1 0.030460 -0.006925 0.000181 0.000000 0.021213 0.000000
# 2 -0.006925 0.009188 -0.003819 0.000000 -0.006586 0.000000
# 3 0.000181 -0.003819 0.009266 0.000000 0.008085 0.000000
# 4 0.000000 0.000000 0.000000 0.034866 0.000000 0.014200
# 5 0.021213 -0.006586 0.008085 0.000000 0.109683 0.000000
# 6 0.000000 0.000000 0.000000 0.014200 0.000000 0.001372
#
#
# Mechanical properties :
#
#
# Convention : Reuss Voigt Hill
#
# Bulk Modulus (GPa) = 35.98501 69.07246 52.52873
# Shear Modulus (GPa) = 22.20026 -29.69972 -3.74973
#
# Velocity S-wave (km/s) = 3.45658 -3.99800 -1.42058
# Velocity P-wave (km/s) = 5.94115 3.98270 5.05763
#
# Compressibility (1/GPa) = 0.02778935
#
# Stress axis : x y z
#
# Youngs Moduli (GPa) = 32.82951 108.84325 107.91789
#
# Poissons Ratio (x) = 0.75374 -0.01955
# Poissons Ratio (y) = 0.22734 0.41210
# Poissons Ratio (z) = -0.00595 0.41563
#
# Static dielectric constant tensor:
#      x y z
#    x 2.883620 0.000000 -0.085150 
#    y 0.000000 3.508290 0.000000 
#    z -0.085150 0.000000 4.353600 
# 
# 
# High freq. dielectric constant tensor:
#      x y z
#    x 1.647360 0.000000 -0.010720 
#    y 0.000000 1.734950 0.000000 
#    z -0.010720 0.000000 1.737000 
# 
# From -- ./inp_files/2637.got.cif
#   From: 2010.06.25/outbox.cif.g09.slc.cpg/sg13_2_cif.got.tgz:2637.got - 2010.06.28 04:50:58.
