data_PCOD8117408
_publ_section_title
;
Structure prediction by ZEFSAII (Michael W. Deem and Ramdas Pophale) SiO2 
 PCOD8117408
Probable space group: P 2/C
;
_chemical_formula_sum "Si O2"
_cell_formula_units_Z 32
_cell_length_a 11.652086
_cell_length_b 12.135354
_cell_length_c 19.424503
_cell_angle_alpha 90.000000
_cell_angle_beta 38.244035
_cell_angle_gamma 90.000000
_cell_volume 1700.220493
_symmetry_space_group_name_H-M "P 2/C"
_symmetry_group_IT_number 13
_symmetry_cell_setting 'monoclinic'
loop_
_space_group_symop_operation_xyz
x,y,z
-x,y,1/2-z
-x,-y,-z
x,-y,1/2+z
loop_
_atom_site_type_symbol
_atom_site_label
_atom_site_fract_x
_atom_site_fract_y
_atom_site_fract_z
Si Si1 0.860720 0.723184 0.378967
Si Si2 0.828819 0.279081 0.378973
Si Si3 0.532822 0.376920 0.808136
Si Si4 0.491969 0.846793 0.530093
Si Si5 0.250444 0.177314 0.947010
Si Si6 0.353125 0.499223 0.008909
Si Si7 0.835278 0.204297 0.665357
Si Si8 0.544013 0.960110 0.364550
O O1 0.704122 0.809011 0.431535
O O2 0.759182 0.611249 0.449128
O O3 0.000000 0.702214 0.250000
O O4 0.965409 0.779110 0.394038
O O5 0.646852 0.253844 0.418587
O O6 0.868248 0.201799 0.427989
O O7 0.806019 0.406529 0.410240
O O8 0.000000 0.258738 0.250000
O O9 0.500000 0.432727 0.750000
O O10 0.400815 0.272964 0.877318
O O11 0.735366 0.322929 0.723482
O O12 0.487653 0.474442 0.881333
O O13 0.470668 0.919280 0.472405
O O14 0.430662 0.909445 0.630523
O O15 0.135313 0.178192 0.930045
O O16 0.371010 0.063769 0.894136
O O17 0.500000 0.500000 0.000000
O O18 0.730123 0.100334 0.750141
#
# Coordination Sequence:
#
# PCOD8117408 Si02
#       8
#     4   4   4   4   4   4   4   4
#     4  12  22  35  56  88 119 149 190 244 289 339
#     4  10  20  38  58  82 113 154 192 234 290 346
#     4   8  16  33  56  79 106 152 192 229 277 338
#     4  10  20  36  54  83 115 145 188 238 286 342
#     4   8  17  34  60  82 109 146 199 236 275 344
#     4  11  20  34  56  82 119 148 188 240 288 340
#     4  10  18  35  61  86 110 149 198 241 284 340
#     4   9  17  35  58  80 108 145 189 237 283 330
#
# _framework density 18.821086999999999
#
# number of rings (size 3 to 8) (size 9 to 14) (size 15 to 20)
#    0.000    2.250    2.500    3.000    0.000    0.000 
#    6.750    7.500    2.750    0.000    0.000    0.000 
#    0.000    0.000    0.000    0.000    0.000    0.000 
#
# Total GULP energy -396449.561710 kJ/mol
# GULP energy per Si atom -12389.048803 kJ/mol
# Density = 1.877825 g / cm^3
# Si number density = 18.821087 Si / 1000 Ang^3
#
#
#
# Elastic Constant Matrix: (Units=GPa)
#
#
# Indices 1 2 3 4 5 6 
#
# 1 102.9316 17.0097 38.7269 0.0000 9.4670 0.0000
# 2 17.0097 60.7725 17.8113 0.0000 9.7939 0.0000
# 3 38.7269 17.8113 90.8049 0.0000 11.6387 0.0000
# 4 0.0000 0.0000 0.0000 22.4082 0.0000 1.2045
# 5 9.4670 9.7939 11.6387 0.0000 30.4564 0.0000
# 6 0.0000 0.0000 0.0000 1.2045 0.0000 18.4270
#
#
#
# Elastic Compliance Matrix: (Units=1/GPa)
#
#
# Indices 1 2 3 4 5 6 
#
# 1 0.011836 -0.001764 -0.004525 0.000000 -0.001383 0.000000
# 2 -0.001764 0.018336 -0.002270 0.000000 -0.004481 0.000000
# 3 -0.004525 -0.002270 0.013789 0.000000 -0.003133 0.000000
# 4 0.000000 0.000000 0.000000 0.044784 0.000000 -0.002927
# 5 -0.001383 -0.004481 -0.003133 0.000000 0.035902 0.000000
# 6 0.000000 0.000000 0.000000 -0.002927 0.000000 0.054459
#
#
# Mechanical properties :
#
#
# Convention : Reuss Voigt Hill
#
# Bulk Modulus (GPa) = 37.25226 44.62276 40.93751
# Shear Modulus (GPa) = 24.36982 26.32239 25.34610
#
# Velocity S-wave (km/s) = 3.60226 3.74379 3.67370
# Velocity P-wave (km/s) = 6.09405 6.51524 6.30816
#
# Compressibility (1/GPa) = 0.02684401
#
# Stress axis : x y z
#
# Youngs Moduli (GPa) = 84.48622 54.53791 72.52056
#
# Poissons Ratio (x) = 0.09620 0.32814
# Poissons Ratio (y) = 0.14902 0.16462
# Poissons Ratio (z) = 0.38228 0.12380
#
# Static dielectric constant tensor:
#      x y z
#    x 3.218070 0.000000 -0.310910 
#    y 0.000000 3.528760 0.000000 
#    z -0.310910 0.000000 2.732280 
# 
# 
# High freq. dielectric constant tensor:
#      x y z
#    x 1.731570 0.000000 0.009740 
#    y 0.000000 1.712690 0.000000 
#    z 0.009740 0.000000 1.714440 
# 
# From -- ./inp_files/78471.got.cif
#   From: 2010.06.25/outbox.cif.g09.slc.cpg/sg13_40_cif.got.tgz:78471.got - 2010.06.28 04:50:58.
