data_PCOD8117298
_publ_section_title
;
Structure prediction by ZEFSAII (Michael W. Deem and Ramdas Pophale) SiO2 
 PCOD8117298
Probable space group: P 2/C
;
_chemical_formula_sum "Si O2"
_cell_formula_units_Z 28
_cell_length_a 21.687349
_cell_length_b 9.008957
_cell_length_c 10.243483
_cell_angle_alpha 90.000000
_cell_angle_beta 134.883274
_cell_angle_gamma 90.000000
_cell_volume 1418.066519
_symmetry_space_group_name_H-M "P 2/C"
_symmetry_group_IT_number 13
_symmetry_cell_setting 'monoclinic'
loop_
_space_group_symop_operation_xyz
x,y,z
-x,y,1/2-z
-x,-y,-z
x,-y,1/2+z
loop_
_atom_site_type_symbol
_atom_site_label
_atom_site_fract_x
_atom_site_fract_y
_atom_site_fract_z
Si Si1 0.786822 0.390069 0.572797
Si Si2 0.559061 0.722026 0.501394
Si Si3 0.500000 0.980364 0.250000
Si Si4 0.110997 0.097440 0.048681
Si Si5 0.500000 0.520765 0.750000
Si Si6 0.381452 0.239648 0.126910
Si Si7 0.085879 0.856368 0.217749
Si Si8 0.752572 0.355661 0.229891
O O1 0.721455 0.252945 0.510869
O O2 0.880124 0.313699 0.733824
O O3 0.771780 0.434623 0.398667
O O4 0.774010 0.531614 0.644755
O O5 0.492797 0.590195 0.363115
O O6 0.565292 0.724024 0.663505
O O7 0.652968 0.698800 0.571457
O O8 0.514512 0.877890 0.397091
O O9 0.411705 0.078638 0.124667
O O10 0.185778 0.213618 0.197220
O O11 0.125653 0.948040 0.155123
O O12 0.112311 0.064040 0.894720
O O13 0.017474 0.162762 0.950323
O O14 0.584638 0.622419 0.909202
#
# Coordination Sequence:
#
# PCOD8117298 Si02
#       8
#     4   4   2   4   2   4   4   4
#     4  10  21  37  55  79 110 141 178 219 265 316
#     4  10  20  35  52  75 104 137 174 219 264 312
#     4  10  22  34  52  76 102 134 178 222 264 320
#     4   9  19  36  58  82 110 142 176 216 263 315
#     4  10  18  34  56  72  98 138 178 214 254 322
#     4  10  20  35  52  75 104 137 174 219 264 312
#     4   9  19  36  58  82 110 142 176 216 263 315
#     4  10  21  37  55  79 110 141 178 219 265 316
#
# _framework density 19.745194999999999
#
# number of rings (size 3 to 8) (size 9 to 14) (size 15 to 20)
#    0.000    2.286    1.429    0.857    2.000    1.714 
#    0.000    1.429    0.000    0.000    0.000    0.000 
#    0.000    0.000    0.000    0.000    0.000    0.000 
#
# Total GULP energy -346992.947530 kJ/mol
# GULP energy per Si atom -12392.605269 kJ/mol
# Density = 1.970025 g / cm^3
# Si number density = 19.745195 Si / 1000 Ang^3
#
#
#
# Elastic Constant Matrix: (Units=GPa)
#
#
# Indices 1 2 3 4 5 6 
#
# 1 55.2236 16.8273 0.8965 0.0000 -5.7897 0.0000
# 2 16.8273 86.8716 16.6047 0.0000 -3.0811 0.0000
# 3 0.8965 16.6047 49.7066 0.0000 0.9426 0.0000
# 4 0.0000 0.0000 0.0000 28.2282 0.0000 1.0321
# 5 -5.7897 -3.0811 0.9426 0.0000 27.0869 0.0000
# 6 0.0000 0.0000 0.0000 1.0321 0.0000 35.3268
#
#
#
# Elastic Compliance Matrix: (Units=1/GPa)
#
#
# Indices 1 2 3 4 5 6 
#
# 1 0.019656 -0.003839 0.000857 0.000000 0.003735 0.000000
# 2 -0.003839 0.013111 -0.004326 0.000000 0.000821 0.000000
# 3 0.000857 -0.004326 0.021568 0.000000 -0.001059 0.000000
# 4 0.000000 0.000000 0.000000 0.035463 0.000000 -0.001036
# 5 0.003735 0.000821 -0.001059 0.000000 0.037847 0.000000
# 6 0.000000 0.000000 0.000000 -0.001036 0.000000 0.028337
#
#
# Mechanical properties :
#
#
# Convention : Reuss Voigt Hill
#
# Bulk Modulus (GPa) = 25.17704 28.93984 27.05844
# Shear Modulus (GPa) = 27.19802 28.62661 27.91231
#
# Velocity S-wave (km/s) = 3.71543 3.81176 3.76390
# Velocity P-wave (km/s) = 5.58431 5.83619 5.71164
#
# Compressibility (1/GPa) = 0.03971873
#
# Stress axis : x y z
#
# Youngs Moduli (GPa) = 50.87623 76.27286 46.36536
#
# Poissons Ratio (x) = 0.29279 -0.03974
# Poissons Ratio (y) = 0.19530 0.20058
# Poissons Ratio (z) = -0.04360 0.32996
#
# Static dielectric constant tensor:
#      x y z
#    x 3.631460 0.000000 -0.003640 
#    y 0.000000 3.399740 0.000000 
#    z -0.003640 0.000000 3.615950 
# 
# 
# High freq. dielectric constant tensor:
#      x y z
#    x 1.768290 0.000000 -0.000970 
#    y 0.000000 1.759940 0.000000 
#    z -0.000970 0.000000 1.769550 
# 
# From -- ./inp_files/41532.got.cif
#   From: 2010.06.25/outbox.cif.g09.slc.cpg/sg13_21_cif.got.tgz:41532.got - 2010.06.28 04:50:58.
