data_PCOD8117398
_publ_section_title
;
Structure prediction by ZEFSAII (Michael W. Deem and Ramdas Pophale) SiO2 
 PCOD8117398
Probable space group: P 2/C
;
_chemical_formula_sum "Si O2"
_cell_formula_units_Z 28
_cell_length_a 16.553133
_cell_length_b 6.579536
_cell_length_c 14.139696
_cell_angle_alpha 90.000000
_cell_angle_beta 124.701819
_cell_angle_gamma 90.000000
_cell_volume 1266.058899
_symmetry_space_group_name_H-M "P 2/C"
_symmetry_group_IT_number 13
_symmetry_cell_setting 'monoclinic'
loop_
_space_group_symop_operation_xyz
x,y,z
-x,y,1/2-z
-x,-y,-z
x,-y,1/2+z
loop_
_atom_site_type_symbol
_atom_site_label
_atom_site_fract_x
_atom_site_fract_y
_atom_site_fract_z
Si Si1 0.723851 0.713310 0.879918
Si Si2 0.889550 0.776272 0.693933
Si Si3 0.878368 0.906741 0.336374
Si Si4 0.612175 0.871301 0.318733
Si Si5 0.907795 0.095819 0.551599
Si Si6 0.308496 0.572416 0.982567
Si Si7 0.697916 0.391901 0.714420
O O1 0.729897 0.601254 0.784207
O O2 0.679151 0.936484 0.838000
O O3 0.835457 0.715774 0.991558
O O4 0.664640 0.589580 0.918908
O O5 0.807867 0.608867 0.613517
O O6 0.000000 0.685905 0.750000
O O7 0.868441 0.864870 0.785360
O O8 0.877752 0.980368 0.625874
O O9 0.790588 0.752865 0.252050
O O10 0.982071 0.815002 0.369447
O O11 0.887881 0.932033 0.454961
O O12 0.500000 0.941012 0.250000
O O13 0.643191 0.778711 0.442400
O O14 0.623174 0.719803 0.236275
O O15 0.353841 0.472131 0.917145
#
# Coordination Sequence:
#
# PCOD8117398 Si02
#       7
#     4   4   4   4   4   4   4
#     4  11  22  41  66  91 132 173 216 263 324 385
#     4  10  20  36  61  95 136 177 213 251 312 385
#     4  10  20  34  60  93 130 172 214 255 310 379
#     4  11  26  48  69  91 127 169 215 277 342 383
#     4  10  18  35  59  87 132 180 211 252 308 377
#     4  11  24  40  69  99 129 168 217 267 321 389
#     4  11  24  40  67 102 127 165 220 270 320 394
#
# _framework density 22.115873000000001
#
# number of rings (size 3 to 8) (size 9 to 14) (size 15 to 20)
#    0.000    1.429    2.857    2.571    0.000    4.571 
#    0.000    1.429    0.000    0.000    0.000    0.000 
#    0.000    0.000    0.000    0.000    0.000    0.000 
#
# Total GULP energy -346958.986625 kJ/mol
# GULP energy per Si atom -12391.392379 kJ/mol
# Density = 2.206554 g / cm^3
# Si number density = 22.115873 Si / 1000 Ang^3
#
#
#
# Elastic Constant Matrix: (Units=GPa)
#
#
# Indices 1 2 3 4 5 6 
#
# 1 69.1213 19.7629 15.4808 0.0000 4.6227 0.0000
# 2 19.7629 71.8821 16.8628 0.0000 -0.3476 0.0000
# 3 15.4808 16.8628 72.8356 0.0000 -10.4468 0.0000
# 4 0.0000 0.0000 0.0000 26.7576 0.0000 -9.2955
# 5 4.6227 -0.3476 -10.4468 0.0000 33.1913 0.0000
# 6 0.0000 0.0000 0.0000 -9.2955 0.0000 19.3072
#
#
#
# Elastic Compliance Matrix: (Units=1/GPa)
#
#
# Indices 1 2 3 4 5 6 
#
# 1 0.016473 -0.003820 -0.003091 0.000000 -0.003307 0.000000
# 2 -0.003820 0.015626 -0.002834 0.000000 -0.000196 0.000000
# 3 -0.003091 -0.002834 0.015814 0.000000 0.005378 0.000000
# 4 0.000000 0.000000 0.000000 0.044879 0.000000 0.021607
# 5 -0.003307 -0.000196 0.005378 0.000000 0.032280 0.000000
# 6 0.000000 0.000000 0.000000 0.021607 0.000000 0.062197
#
#
# Mechanical properties :
#
#
# Convention : Reuss Voigt Hill
#
# Bulk Modulus (GPa) = 35.18296 35.33910 35.26103
# Shear Modulus (GPa) = 23.12326 26.63339 24.87833
#
# Velocity S-wave (km/s) = 3.23701 3.47402 3.35760
# Velocity P-wave (km/s) = 5.46936 5.66617 5.56864
#
# Compressibility (1/GPa) = 0.02842285
#
# Stress axis : x y z
#
# Youngs Moduli (GPa) = 60.70548 63.99703 63.23479
#
# Poissons Ratio (x) = 0.24446 0.19547
# Poissons Ratio (y) = 0.23188 0.17920
# Poissons Ratio (z) = 0.18765 0.18136
#
# Static dielectric constant tensor:
#      x y z
#    x 3.871370 0.000000 -0.141410 
#    y 0.000000 3.745540 0.000000 
#    z -0.141410 0.000000 4.094750 
# 
# 
# High freq. dielectric constant tensor:
#      x y z
#    x 1.859660 0.000000 -0.018620 
#    y 0.000000 1.855390 0.000000 
#    z -0.018620 0.000000 1.875530 
# 
# From -- ./inp_files/54695.got.cif
#   From: 2010.06.25/outbox.cif.g09.slc.cpg/sg13_28_cif.got.tgz:54695.got - 2010.06.28 04:50:58.
