data_PCOD8117105
_publ_section_title
;
Structure prediction by ZEFSAII (Michael W. Deem and Ramdas Pophale) SiO2 
 PCOD8117105
Probable space group: P 2/C
;
_chemical_formula_sum "Si O2"
_cell_formula_units_Z 28
_cell_length_a 20.884794
_cell_length_b 8.768172
_cell_length_c 21.541214
_cell_angle_alpha 90.000000
_cell_angle_beta 158.689838
_cell_angle_gamma 90.000000
_cell_volume 1433.553935
_symmetry_space_group_name_H-M "P 2/C"
_symmetry_group_IT_number 13
_symmetry_cell_setting 'monoclinic'
loop_
_space_group_symop_operation_xyz
x,y,z
-x,y,1/2-z
-x,-y,-z
x,-y,1/2+z
loop_
_atom_site_type_symbol
_atom_site_label
_atom_site_fract_x
_atom_site_fract_y
_atom_site_fract_z
Si Si1 0.254931 0.890596 0.933381
Si Si2 0.447062 0.302550 0.007634
Si Si3 0.217678 0.085142 0.733606
Si Si4 0.677779 0.374705 0.102169
Si Si5 0.130143 0.914714 0.952787
Si Si6 0.604920 0.060049 0.221977
Si Si7 0.983054 0.221990 0.429212
O O1 0.300807 0.736241 0.937183
O O2 0.230518 0.847259 0.983880
O O3 0.070103 0.967472 0.744510
O O4 0.415903 0.007717 0.076753
O O5 0.311284 0.162416 0.876669
O O6 0.353153 0.453271 0.950028
O O7 0.515386 0.331036 0.999522
O O8 0.591199 0.237823 0.186843
O O9 0.076760 0.210848 0.580485
O O10 0.348525 0.041871 0.795952
O O11 0.129410 0.934369 0.681249
O O12 0.852999 0.366043 0.304429
O O13 0.120584 0.778769 0.995743
O O14 0.244602 0.050526 0.088784
#
# Coordination Sequence:
#
# PCOD8117105 Si02
#       7
#     4   4   4   4   4   4   4
#     4  10  19  37  58  78 109 141 194 236 272 331
#     4  11  20  31  51  81 115 143 176 220 288 342
#     4  10  18  31  54  82 111 142 180 236 282 329
#     4  10  20  33  50  77 113 151 174 222 279 338
#     4   9  20  33  57  84 102 139 193 236 270 325
#     4  11  19  33  57  83 109 144 184 233 287 322
#     4   9  18  33  53  79 110 141 188 234 276 325
#
# _framework density 19.531877000000001
#
# number of rings (size 3 to 8) (size 9 to 14) (size 15 to 20)
#    0.000    2.000    2.857    2.571    0.000    0.571 
#    0.000    0.000    0.000   17.143    0.000    0.000 
#    0.000    0.000    0.000    0.000    0.000    0.000 
#
# Total GULP energy -346867.681907 kJ/mol
# GULP energy per Si atom -12388.131497 kJ/mol
# Density = 1.948742 g / cm^3
# Si number density = 19.531877 Si / 1000 Ang^3
#
#
#
# Elastic Constant Matrix: (Units=GPa)
#
#
# Indices 1 2 3 4 5 6 
#
# 1 96.9161 25.1626 23.4354 0.0000 -0.2354 0.0000
# 2 25.1626 85.6739 51.3002 0.0000 -6.4087 0.0000
# 3 23.4354 51.3002 96.9156 0.0000 -4.0152 0.0000
# 4 0.0000 0.0000 0.0000 28.9602 0.0000 0.8641
# 5 -0.2354 -6.4087 -4.0152 0.0000 25.3349 0.0000
# 6 0.0000 0.0000 0.0000 0.8641 0.0000 14.1692
#
#
#
# Elastic Compliance Matrix: (Units=1/GPa)
#
#
# Indices 1 2 3 4 5 6 
#
# 1 0.011318 -0.002523 -0.001433 0.000000 -0.000760 0.000000
# 2 -0.002523 0.017866 -0.008718 0.000000 0.003114 0.000000
# 3 -0.001433 -0.008718 0.015288 0.000000 0.000204 0.000000
# 4 0.000000 0.000000 0.000000 0.034593 0.000000 -0.002110
# 5 -0.000760 0.003114 0.000204 0.000000 0.040284 0.000000
# 6 0.000000 0.000000 0.000000 -0.002110 0.000000 0.070705
#
#
# Mechanical properties :
#
#
# Convention : Reuss Voigt Hill
#
# Bulk Modulus (GPa) = 52.28914 53.25577 52.77245
# Shear Modulus (GPa) = 22.54520 25.66667 24.10593
#
# Velocity S-wave (km/s) = 3.40115 3.62897 3.51691
# Velocity P-wave (km/s) = 6.50024 6.69959 6.60067
#
# Compressibility (1/GPa) = 0.01912443
#
# Stress axis : x y z
#
# Youngs Moduli (GPa) = 88.35578 55.97107 65.41115
#
# Poissons Ratio (x) = 0.14122 0.09372
# Poissons Ratio (y) = 0.22292 0.57026
# Poissons Ratio (z) = 0.12660 0.48796
#
# Static dielectric constant tensor:
#      x y z
#    x 3.721830 0.000000 0.030360 
#    y 0.000000 3.185220 0.000000 
#    z 0.030360 0.000000 3.846180 
# 
# 
# High freq. dielectric constant tensor:
#      x y z
#    x 1.759110 0.000000 0.005150 
#    y 0.000000 1.705730 0.000000 
#    z 0.005150 0.000000 1.773510 
# 
# From -- ./inp_files/88896.got.cif
#   From: 2010.06.25/outbox.cif.g09.slc.cpg/sg13_45_cif.got.tgz:88896.got - 2010.06.28 04:50:58.
