data_PCOD8117496
_publ_section_title
;
Structure prediction by ZEFSAII (Michael W. Deem and Ramdas Pophale) SiO2 
 PCOD8117496
Probable space group: P 2/C
;
_chemical_formula_sum "Si O2"
_cell_formula_units_Z 24
_cell_length_a 19.733112
_cell_length_b 6.838588
_cell_length_c 13.948362
_cell_angle_alpha 90.000000
_cell_angle_beta 143.414508
_cell_angle_gamma 90.000000
_cell_volume 1121.882077
_symmetry_space_group_name_H-M "P 2/C"
_symmetry_group_IT_number 13
_symmetry_cell_setting 'monoclinic'
loop_
_space_group_symop_operation_xyz
x,y,z
-x,y,1/2-z
-x,-y,-z
x,-y,1/2+z
loop_
_atom_site_type_symbol
_atom_site_label
_atom_site_fract_x
_atom_site_fract_y
_atom_site_fract_z
Si Si1 0.213449 0.691351 0.639134
Si Si2 0.024861 0.594662 0.881682
Si Si3 0.432605 0.525159 0.581330
Si Si4 0.618122 0.343052 0.675988
Si Si5 0.782789 0.280518 0.148873
Si Si6 0.200147 0.084585 0.527519
O O1 0.101611 0.558429 0.526118
O O2 0.316466 0.547760 0.728669
O O3 0.240161 0.801991 0.770291
O O4 0.191862 0.852725 0.533259
O O5 0.000000 0.502038 0.750000
O O6 0.905302 0.617504 0.798096
O O7 0.088884 0.803996 0.940567
O O8 0.500000 0.614752 0.750000
O O9 0.504711 0.351112 0.612066
O O10 0.409227 0.682140 0.469251
O O11 0.314057 0.439354 0.487093
O O12 0.689480 0.157601 0.790026
O O13 0.784710 0.115013 0.069544
#
# Coordination Sequence:
#
# PCOD8117496 Si02
#       6
#     4   4   4   4   4   4
#     4  10  21  38  61  89 116 153 194 237 290 351
#     4   9  20  37  60  87 117 154 189 237 289 346
#     4  10  18  36  65  82 113 158 192 237 293 340
#     4   9  20  38  61  88 115 151 195 242 288 342
#     4  10  20  37  61  86 117 157 193 237 293 342
#     4  10  20  39  59  85 124 149 186 245 292 339
#
# _framework density 21.392623
#
# number of rings (size 3 to 8) (size 9 to 14) (size 15 to 20)
#    0.000    2.333    1.667    0.500    0.000    2.667 
#    3.000   10.833    0.000    0.000    0.000    0.000 
#    0.000    0.000    0.000    0.000    0.000    0.000 
#
# Total GULP energy -297426.265144 kJ/mol
# GULP energy per Si atom -12392.761048 kJ/mol
# Density = 2.134393 g / cm^3
# Si number density = 21.392623 Si / 1000 Ang^3
#
#
#
# Elastic Constant Matrix: (Units=GPa)
#
#
# Indices 1 2 3 4 5 6 
#
# 1 62.4007 8.0577 2.2177 0.0000 3.7557 0.0000
# 2 8.0577 66.1171 6.0128 0.0000 -6.2675 0.0000
# 3 2.2177 6.0128 76.6861 0.0000 -0.7288 0.0000
# 4 0.0000 0.0000 0.0000 18.4400 0.0000 -8.4501
# 5 3.7557 -6.2675 -0.7288 0.0000 49.5758 0.0000
# 6 0.0000 0.0000 0.0000 -8.4501 0.0000 9.3463
#
#
#
# Elastic Compliance Matrix: (Units=1/GPa)
#
#
# Indices 1 2 3 4 5 6 
#
# 1 0.016401 -0.002113 -0.000323 0.000000 -0.001514 0.000000
# 2 -0.002113 0.015688 -0.001149 0.000000 0.002127 0.000000
# 3 -0.000323 -0.001149 0.013140 0.000000 0.000072 0.000000
# 4 0.000000 0.000000 0.000000 0.092591 0.000000 0.083713
# 5 -0.001514 0.002127 0.000072 0.000000 0.020556 0.000000
# 6 0.000000 0.000000 0.000000 0.083713 0.000000 0.182680
#
#
# Mechanical properties :
#
#
# Convention : Reuss Voigt Hill
#
# Bulk Modulus (GPa) = 26.27433 26.42002 26.34717
# Shear Modulus (GPa) = 13.85377 28.06681 20.96029
#
# Velocity S-wave (km/s) = 2.54755 3.62606 3.13356
# Velocity P-wave (km/s) = 4.57842 5.46882 5.04331
#
# Compressibility (1/GPa) = 0.03805997
#
# Stress axis : x y z
#
# Youngs Moduli (GPa) = 60.97218 63.74203 76.10196
#
# Poissons Ratio (x) = 0.13468 0.02458
# Poissons Ratio (y) = 0.12883 0.08742
# Poissons Ratio (z) = 0.01970 0.07322
#
# Static dielectric constant tensor:
#      x y z
#    x 3.937930 0.000000 0.074000 
#    y 0.000000 3.125310 0.000000 
#    z 0.074000 0.000000 4.291280 
# 
# 
# High freq. dielectric constant tensor:
#      x y z
#    x 1.848080 0.000000 -0.000340 
#    y 0.000000 1.772820 0.000000 
#    z -0.000340 0.000000 1.869030 
# 
# From -- ./inp_files/56631.got.cif
#   From: 2010.06.25/outbox.cif.g09.slc.cpg/sg13_29_cif.got.tgz:56631.got - 2010.06.28 04:50:58.
