data_PCOD8117424
_publ_section_title
;
Structure prediction by ZEFSAII (Michael W. Deem and Ramdas Pophale) SiO2 
 PCOD8117424
Probable space group: P 2/C
;
_chemical_formula_sum "Si O2"
_cell_formula_units_Z 22
_cell_length_a 9.045266
_cell_length_b 14.868247
_cell_length_c 9.082276
_cell_angle_alpha 90.000000
_cell_angle_beta 86.177174
_cell_angle_gamma 90.000000
_cell_volume 1218.732571
_symmetry_space_group_name_H-M "P 2/C"
_symmetry_group_IT_number 13
_symmetry_cell_setting 'monoclinic'
loop_
_space_group_symop_operation_xyz
x,y,z
-x,y,1/2-z
-x,-y,-z
x,-y,1/2+z
loop_
_atom_site_type_symbol
_atom_site_label
_atom_site_fract_x
_atom_site_fract_y
_atom_site_fract_z
Si Si1 0.847406 0.048030 0.467754
Si Si2 0.901906 0.238528 0.396165
Si Si3 0.000000 0.485997 0.750000
Si Si4 0.335028 0.939915 0.806335
Si Si5 0.118523 0.382599 0.481400
Si Si6 0.338896 0.268569 0.304727
O O1 0.867826 0.153672 0.504013
O O2 0.797198 0.042971 0.301348
O O3 0.707513 0.004659 0.557761
O O4 0.000000 0.000000 0.500000
O O5 0.753036 0.281302 0.339797
O O6 0.000000 0.206422 0.250000
O O7 0.981631 0.313515 0.487503
O O8 0.114181 0.426959 0.643456
O O9 0.100675 0.544790 0.852256
O O10 0.500000 0.969304 0.750000
O O11 0.337525 0.835586 0.855974
O O12 0.271965 0.329144 0.441945
O O13 0.500000 0.303537 0.250000
#
# Coordination Sequence:
#
# PCOD8117424 Si02
#       6
#     4   4   2   4   4   4
#     4  11  19  32  52  78 103 138 180 227 251 298
#     4   9  17  33  53  73 105 136 172 211 258 311
#     4  10  20  32  62  74 104 128 172 212 270 312
#     4  10  21  35  52  74 108 148 179 210 264 315
#     4  10  18  36  54  80 100 134 169 213 262 317
#     4   9  17  33  56  76 103 143 175 205 257 320
#
# _framework density 18.051539999999999
#
# number of rings (size 3 to 8) (size 9 to 14) (size 15 to 20)
#    0.000    2.182    2.727    4.364    0.000    0.000 
#    6.545    0.909    0.000    0.000    0.000    0.000 
#    0.000    0.000    0.000    0.000    0.000    0.000 
#
# Total GULP energy -272670.488832 kJ/mol
# GULP energy per Si atom -12394.113129 kJ/mol
# Density = 1.801045 g / cm^3
# Si number density = 18.051540 Si / 1000 Ang^3
#
#
#
# Elastic Constant Matrix: (Units=GPa)
#
#
# Indices 1 2 3 4 5 6 
#
# 1 115.0706 34.3150 27.0990 0.0000 -17.6335 0.0000
# 2 34.3150 99.0122 52.2219 0.0000 -20.0802 0.0000
# 3 27.0990 52.2219 81.1896 0.0000 -16.0712 0.0000
# 4 0.0000 0.0000 0.0000 38.6301 0.0000 -11.3727
# 5 -17.6335 -20.0802 -16.0712 0.0000 26.9951 0.0000
# 6 0.0000 0.0000 0.0000 -11.3727 0.0000 24.5054
#
#
#
# Elastic Compliance Matrix: (Units=1/GPa)
#
#
# Indices 1 2 3 4 5 6 
#
# 1 0.010266 -0.001983 -0.001265 0.000000 0.004478 0.000000
# 2 -0.001983 0.016660 -0.008907 0.000000 0.005795 0.000000
# 3 -0.001265 -0.008907 0.019263 0.000000 0.004016 0.000000
# 4 0.000000 0.000000 0.000000 0.029983 0.000000 0.013915
# 5 0.004478 0.005795 0.004016 0.000000 0.046670 0.000000
# 6 0.000000 0.000000 0.000000 0.013915 0.000000 0.047265
#
#
# Mechanical properties :
#
#
# Convention : Reuss Voigt Hill
#
# Bulk Modulus (GPa) = 45.70419 58.06049 51.88234
# Shear Modulus (GPa) = 24.78817 30.13522 27.46170
#
# Velocity S-wave (km/s) = 3.70968 4.09026 3.90461
# Velocity P-wave (km/s) = 6.61231 7.38516 7.00939
#
# Compressibility (1/GPa) = 0.02187983
#
# Stress axis : x y z
#
# Youngs Moduli (GPa) = 97.41285 60.02443 51.91255
#
# Poissons Ratio (x) = 0.11900 0.06566
# Poissons Ratio (y) = 0.19313 0.46239
# Poissons Ratio (z) = 0.12321 0.53464
#
# Static dielectric constant tensor:
#      x y z
#    x 3.454440 0.000000 -0.095350 
#    y 0.000000 3.498730 0.000000 
#    z -0.095350 0.000000 3.210320 
# 
# 
# High freq. dielectric constant tensor:
#      x y z
#    x 1.695780 0.000000 -0.005750 
#    y 0.000000 1.703320 0.000000 
#    z -0.005750 0.000000 1.671030 
# 
# From -- ./inp_files/12322.got.cif
#   From: 2010.06.25/outbox.cif.g09.slc.cpg/sg13_7_cif.got.tgz:12322.got - 2010.06.28 04:50:58.
