data_PCOD8117562
_publ_section_title
;
Structure prediction by ZEFSAII (Michael W. Deem and Ramdas Pophale) SiO2 
 PCOD8117562
Probable space group: P 2/C
;
_chemical_formula_sum "Si O2"
_cell_formula_units_Z 24
_cell_length_a 14.402326
_cell_length_b 12.949859
_cell_length_c 8.146521
_cell_angle_alpha 90.000000
_cell_angle_beta 142.294631
_cell_angle_gamma 90.000000
_cell_volume 929.261990
_symmetry_space_group_name_H-M "P 2/C"
_symmetry_group_IT_number 13
_symmetry_cell_setting 'monoclinic'
loop_
_space_group_symop_operation_xyz
x,y,z
-x,y,1/2-z
-x,-y,-z
x,-y,1/2+z
loop_
_atom_site_type_symbol
_atom_site_label
_atom_site_fract_x
_atom_site_fract_y
_atom_site_fract_z
Si Si1 0.331852 0.048784 0.975188
Si Si2 0.417910 0.219057 0.853946
Si Si3 0.190067 0.449547 0.797561
Si Si4 0.255843 0.850481 0.709120
Si Si5 0.500000 0.624443 0.750000
Si Si6 0.155474 0.350152 0.411201
Si Si7 0.000000 0.703315 0.250000
O O1 0.500000 0.006994 0.250000
O O2 0.265892 0.115857 0.031835
O O3 0.344104 0.116254 0.826800
O O4 0.227059 0.949684 0.785800
O O5 0.287250 0.266997 0.549779
O O6 0.582852 0.198757 0.004179
O O7 0.438485 0.302267 0.023221
O O8 0.202335 0.427918 0.622524
O O9 0.124483 0.567098 0.720690
O O10 0.093428 0.362272 0.752089
O O11 0.360517 0.447384 0.112611
O O12 0.114509 0.772338 0.523397
O O13 0.000000 0.292557 0.250000
#
# Coordination Sequence:
#
# PCOD8117562 Si02
#       7
#     4   4   4   4   2   4   2
#     4  10  20  41  68  92 128 169 212 271 335 382
#     4  10  18  38  67  90 127 174 214 259 326 394
#     4  11  24  43  68  94 133 175 219 272 327 389
#     4  11  22  42  67  97 129 172 216 270 329 392
#     4  10  18  40  70  90 122 178 222 252 326 400
#     4  11  24  43  66  95 134 176 216 275 329 382
#     4  12  24  44  70  94 134 180 220 260 336 398
#
# _framework density 25.826944999999998
#
# number of rings (size 3 to 8) (size 9 to 14) (size 15 to 20)
#    0.000    1.333    5.000    3.500    0.000    3.333 
#    7.500    0.000    0.000    0.000    0.000    0.000 
#    0.000    0.000    0.000    0.000    0.000    0.000 
#
# Total GULP energy -297567.230385 kJ/mol
# GULP energy per Si atom -12398.634599 kJ/mol
# Density = 2.576816 g / cm^3
# Si number density = 25.826945 Si / 1000 Ang^3
#
#
#
# Elastic Constant Matrix: (Units=GPa)
#
#
# Indices 1 2 3 4 5 6 
#
# 1 77.7698 20.0255 14.2122 0.0000 33.5601 0.0000
# 2 20.0255 88.5401 32.0775 0.0000 26.0562 0.0000
# 3 14.2122 32.0775 107.9960 0.0000 34.0762 0.0000
# 4 0.0000 0.0000 0.0000 49.8066 0.0000 4.7341
# 5 33.5601 26.0562 34.0762 0.0000 38.0046 0.0000
# 6 0.0000 0.0000 0.0000 4.7341 0.0000 -17.2573
#
#
#
# Elastic Compliance Matrix: (Units=1/GPa)
#
#
# Indices 1 2 3 4 5 6 
#
# 1 0.022293 0.000383 0.004528 0.000000 -0.024008 0.000000
# 2 0.000383 0.014355 -0.001537 0.000000 -0.008802 0.000000
# 3 0.004528 -0.001537 0.014014 0.000000 -0.015510 0.000000
# 4 0.000000 0.000000 0.000000 0.019567 0.000000 0.005368
# 5 -0.024008 -0.008802 -0.015510 0.000000 0.067454 0.000000
# 6 0.000000 0.000000 0.000000 0.005368 0.000000 -0.056474
#
#
# Mechanical properties :
#
#
# Convention : Reuss Voigt Hill
#
# Bulk Modulus (GPa) = 17.41885 45.21514 31.31699
# Shear Modulus (GPa) = 53.41976 27.97683 40.69829
#
# Velocity S-wave (km/s) = 4.55287 3.29483 3.97395
# Velocity P-wave (km/s) = 5.86492 5.65858 5.76267
#
# Compressibility (1/GPa) = 0.05740908
#
# Stress axis : x y z
#
# Youngs Moduli (GPa) = 44.85796 69.66325 71.35605
#
# Poissons Ratio (x) = -0.02666 -0.32309
# Poissons Ratio (y) = -0.01717 0.10967
# Poissons Ratio (z) = -0.20311 0.10706
#
# Static dielectric constant tensor:
#      x y z
#    x 4.524570 0.000000 0.236260 
#    y 0.000000 4.721660 0.000000 
#    z 0.236260 0.000000 5.596360 
# 
# 
# High freq. dielectric constant tensor:
#      x y z
#    x 2.024570 0.000000 -0.008160 
#    y 0.000000 2.030780 0.000000 
#    z -0.008160 0.000000 2.046160 
# 
# From -- ./inp_files/19792.got.cif
#   From: 2010.06.25/outbox.cif.g09.slc.cpg/sg13_10_cif.got.tgz:19792.got - 2010.06.28 04:50:58.
