data_PCOD8117753
_publ_section_title
;
Structure prediction by ZEFSAII (Michael W. Deem and Ramdas Pophale) SiO2 
 PCOD8117753
Probable space group: P 2/C
;
_chemical_formula_sum "Si O2"
_cell_formula_units_Z 30
_cell_length_a 6.303472
_cell_length_b 11.303897
_cell_length_c 27.050400
_cell_angle_alpha 90.000000
_cell_angle_beta 56.345053
_cell_angle_gamma 90.000000
_cell_volume 1604.385191
_symmetry_space_group_name_H-M "P 2/C"
_symmetry_group_IT_number 13
_symmetry_cell_setting 'monoclinic'
loop_
_space_group_symop_operation_xyz
x,y,z
-x,y,1/2-z
-x,-y,-z
x,-y,1/2+z
loop_
_atom_site_type_symbol
_atom_site_label
_atom_site_fract_x
_atom_site_fract_y
_atom_site_fract_z
Si Si1 0.013999 0.813187 0.191659
Si Si2 0.539209 0.999983 0.853364
Si Si3 0.431012 0.705079 0.496953
Si Si4 0.840449 0.163490 0.549851
Si Si5 0.065482 0.567677 0.941059
Si Si6 0.500000 0.059826 0.750000
Si Si7 0.348756 0.205839 0.435767
Si Si8 0.959058 0.352834 0.899870
O O1 0.058645 0.693740 0.154115
O O2 0.000000 0.771002 0.250000
O O3 0.744017 0.860067 0.207768
O O4 0.227340 0.916850 0.158258
O O5 0.535116 0.866893 0.875113
O O6 0.270174 0.050770 0.907502
O O7 0.549059 0.982920 0.792834
O O8 0.386467 0.783443 0.453919
O O9 0.492495 0.790029 0.534559
O O10 0.671015 0.619511 0.455091
O O11 0.184546 0.633947 0.544610
O O12 0.082575 0.137981 0.482908
O O13 0.920477 0.252661 0.582031
O O14 0.292249 0.662822 0.920250
O O15 0.124265 0.472750 0.889276
O O16 0.000000 0.500000 0.000000
#
# Coordination Sequence:
#
# PCOD8117753 Si02
#       8
#     4   4   4   4   4   2   4   4
#     4  10  22  37  58  86 107 149 195 241 304 333
#     4  11  21  38  58  84 114 148 193 235 292 341
#     4  10  19  33  51  84 116 153 185 222 273 352
#     4  10  19  33  55  87 116 151 176 226 292 341
#     4  11  20  34  55  83 116 156 190 215 282 345
#     4  10  22  40  62  78 112 144 194 250 282 344
#     4  10  23  34  52  87 119 156 187 222 278 353
#     4  11  19  34  57  81 117 148 184 237 283 336
#
# _framework density 18.698751000000001
#
# number of rings (size 3 to 8) (size 9 to 14) (size 15 to 20)
#    0.000    1.600    6.667    0.800    0.000    2.667 
#    0.000    0.000    0.000    2.400    0.000    0.000 
#    0.000    0.000    0.000    0.000    0.000    0.000 
#
# Total GULP energy -371699.680226 kJ/mol
# GULP energy per Si atom -12389.989341 kJ/mol
# Density = 1.865619 g / cm^3
# Si number density = 18.698751 Si / 1000 Ang^3
#
#
#
# Elastic Constant Matrix: (Units=GPa)
#
#
# Indices 1 2 3 4 5 6 
#
# 1 86.1900 20.3375 23.3976 0.0000 7.8232 0.0000
# 2 20.3375 76.9583 45.1327 0.0000 7.0456 0.0000
# 3 23.3976 45.1327 77.1808 0.0000 13.5365 0.0000
# 4 0.0000 0.0000 0.0000 23.2192 0.0000 1.0061
# 5 7.8232 7.0456 13.5365 0.0000 23.7553 0.0000
# 6 0.0000 0.0000 0.0000 1.0061 0.0000 17.5532
#
#
#
# Elastic Compliance Matrix: (Units=1/GPa)
#
#
# Indices 1 2 3 4 5 6 
#
# 1 0.012898 -0.001737 -0.002488 0.000000 -0.002314 0.000000
# 2 -0.001737 0.020024 -0.011379 0.000000 0.001117 0.000000
# 3 -0.002488 -0.011379 0.021809 0.000000 -0.008233 0.000000
# 4 0.000000 0.000000 0.000000 0.043175 0.000000 -0.002475
# 5 -0.002314 0.001117 -0.008233 0.000000 0.047218 0.000000
# 6 0.000000 0.000000 0.000000 -0.002475 0.000000 0.057112
#
#
# Mechanical properties :
#
#
# Convention : Reuss Voigt Hill
#
# Bulk Modulus (GPa) = 42.51299 46.45164 44.48231
# Shear Modulus (GPa) = 20.72249 23.00297 21.86273
#
# Velocity S-wave (km/s) = 3.33262 3.51121 3.42308
# Velocity P-wave (km/s) = 6.13136 6.42916 6.28203
#
# Compressibility (1/GPa) = 0.02352222
#
# Stress axis : x y z
#
# Youngs Moduli (GPa) = 77.53300 49.94029 45.85346
#
# Poissons Ratio (x) = 0.08677 0.11409
# Poissons Ratio (y) = 0.13471 0.52175
# Poissons Ratio (z) = 0.19291 0.56825
#
# Static dielectric constant tensor:
#      x y z
#    x 3.652560 0.000000 0.048450 
#    y 0.000000 3.346540 0.000000 
#    z 0.048450 0.000000 3.383250 
# 
# 
# High freq. dielectric constant tensor:
#      x y z
#    x 1.744700 0.000000 0.010380 
#    y 0.000000 1.703160 0.000000 
#    z 0.010380 0.000000 1.699180 
# 
# From -- ./inp_files/90476.got.cif
#   From: 2010.06.25/outbox.cif.g09.slc.cpg/sg13_46_cif.got.tgz:90476.got - 2010.06.28 04:50:58.
