data_PCOD8117518
_publ_section_title
;
Structure prediction by ZEFSAII (Michael W. Deem and Ramdas Pophale) SiO2 
 PCOD8117518
Probable space group: P 2/C
;
_chemical_formula_sum "Si O2"
_cell_formula_units_Z 24
_cell_length_a 13.440980
_cell_length_b 9.355681
_cell_length_c 26.928072
_cell_angle_alpha 90.000000
_cell_angle_beta 159.539940
_cell_angle_gamma 90.000000
_cell_volume 1183.658222
_symmetry_space_group_name_H-M "P 2/C"
_symmetry_group_IT_number 13
_symmetry_cell_setting 'monoclinic'
loop_
_space_group_symop_operation_xyz
x,y,z
-x,y,1/2-z
-x,-y,-z
x,-y,1/2+z
loop_
_atom_site_type_symbol
_atom_site_label
_atom_site_fract_x
_atom_site_fract_y
_atom_site_fract_z
Si Si1 0.793948 0.657330 0.948896
Si Si2 0.922611 0.659691 0.624165
Si Si3 0.829690 0.604733 0.857593
Si Si4 0.660081 0.838153 0.977843
Si Si5 0.538518 0.545075 0.574359
Si Si6 0.049761 0.955470 0.716906
O O1 0.892646 0.691699 0.938197
O O2 0.500399 0.571114 0.805616
O O3 0.740777 0.797379 0.958220
O O4 0.022782 0.549742 0.078877
O O5 0.627393 0.580091 0.473862
O O6 0.065703 0.703930 0.638809
O O7 0.134317 0.555539 0.754956
O O8 0.873004 0.806811 0.630414
O O9 0.619527 0.694154 0.990122
O O10 0.375826 0.933200 0.852049
O O11 0.926773 0.924325 0.123341
O O12 0.500000 0.500000 0.500000
O O13 0.000000 0.008162 0.750000
#
# Coordination Sequence:
#
# PCOD8117518 Si02
#       6
#     4   4   4   4   4   4
#     4  10  20  37  64  92 120 150 198 254 316 360
#     4  11  20  38  59  88 118 155 198 249 305 352
#     4  10  18  37  65  91 120 150 191 257 317 355
#     4  11  23  43  58  89 122 164 206 245 303 361
#     4  11  22  36  59  89 119 150 203 253 293 352
#     4  11  24  41  59  83 125 170 202 243 302 366
#
# _framework density 20.276122000000001
#
# number of rings (size 3 to 8) (size 9 to 14) (size 15 to 20)
#    0.000    1.333    5.000    3.000    0.000    2.667 
#    3.000    0.833    0.000    0.000    0.000    0.000 
#    0.000    0.000    0.000    0.000    0.000    0.000 
#
# Total GULP energy -297432.398308 kJ/mol
# GULP energy per Si atom -12393.016596 kJ/mol
# Density = 2.022997 g / cm^3
# Si number density = 20.276122 Si / 1000 Ang^3
#
#
#
# Elastic Constant Matrix: (Units=GPa)
#
#
# Indices 1 2 3 4 5 6 
#
# 1 132.5811 20.4582 29.6275 0.0000 -12.8510 0.0000
# 2 20.4582 59.9898 39.4564 0.0000 -5.8518 0.0000
# 3 29.6275 39.4564 65.8068 0.0000 -12.5045 0.0000
# 4 0.0000 0.0000 0.0000 34.4808 0.0000 -4.1968
# 5 -12.8510 -5.8518 -12.5045 0.0000 26.5740 0.0000
# 6 0.0000 0.0000 0.0000 -4.1968 0.0000 25.8347
#
#
#
# Elastic Compliance Matrix: (Units=1/GPa)
#
#
# Indices 1 2 3 4 5 6 
#
# 1 0.008561 -0.000753 -0.002908 0.000000 0.002606 0.000000
# 2 -0.000753 0.027675 -0.016655 0.000000 -0.002107 0.000000
# 3 -0.002908 -0.016655 0.028033 0.000000 0.008118 0.000000
# 4 0.000000 0.000000 0.000000 0.029587 0.000000 0.004806
# 5 0.002606 -0.002107 0.008118 0.000000 0.042247 0.000000
# 6 0.000000 0.000000 0.000000 0.004806 0.000000 0.039488
#
#
# Mechanical properties :
#
#
# Convention : Reuss Voigt Hill
#
# Bulk Modulus (GPa) = 42.30331 48.60685 45.45508
# Shear Modulus (GPa) = 22.31134 28.63360 25.47247
#
# Velocity S-wave (km/s) = 3.32079 3.76198 3.54825
# Velocity P-wave (km/s) = 5.96761 6.54939 6.26526
#
# Compressibility (1/GPa) = 0.02363881
#
# Stress axis : x y z
#
# Youngs Moduli (GPa) = 116.80706 36.13397 35.67176
#
# Poissons Ratio (x) = 0.02720 0.10373
# Poissons Ratio (y) = 0.08794 0.59410
# Poissons Ratio (z) = 0.33965 0.60180
#
# Static dielectric constant tensor:
#      x y z
#    x 4.742290 0.000000 0.431780 
#    y 0.000000 3.411040 0.000000 
#    z 0.431780 0.000000 4.056470 
# 
# 
# High freq. dielectric constant tensor:
#      x y z
#    x 1.813250 0.000000 -0.000070 
#    y 0.000000 1.753090 0.000000 
#    z -0.000070 0.000000 1.794220 
# 
# From -- ./inp_files/96974.got.cif
#   From: 2010.06.25/outbox.cif.g09.slc.cpg/sg13_49_cif.got.tgz:96974.got - 2010.06.28 04:50:58.
