data_PCOD8117479
_publ_section_title
;
Structure prediction by ZEFSAII (Michael W. Deem and Ramdas Pophale) SiO2 
 PCOD8117479
Probable space group: P 2/C
;
_chemical_formula_sum "Si O2"
_cell_formula_units_Z 26
_cell_length_a 12.290790
_cell_length_b 13.904293
_cell_length_c 9.428310
_cell_angle_alpha 90.000000
_cell_angle_beta 126.801113
_cell_angle_gamma 90.000000
_cell_volume 1290.158580
_symmetry_space_group_name_H-M "P 2/C"
_symmetry_group_IT_number 13
_symmetry_cell_setting 'monoclinic'
loop_
_space_group_symop_operation_xyz
x,y,z
-x,y,1/2-z
-x,-y,-z
x,-y,1/2+z
loop_
_atom_site_type_symbol
_atom_site_label
_atom_site_fract_x
_atom_site_fract_y
_atom_site_fract_z
Si Si1 0.418964 0.884027 0.937236
Si Si2 0.292156 0.798685 0.351500
Si Si3 0.614081 0.587848 0.728386
Si Si4 0.773703 0.765353 0.880351
Si Si5 0.500000 0.010282 0.750000
Si Si6 0.424126 0.625125 0.324631
Si Si7 0.979917 0.900495 0.399163
O O1 0.317858 0.797825 0.825197
O O2 0.408318 0.951715 0.790516
O O3 0.572015 0.852188 0.084101
O O4 0.387038 0.933516 0.064536
O O5 0.283040 0.799028 0.513323
O O6 0.304547 0.691381 0.295921
O O7 0.168449 0.857523 0.186082
O O8 0.500000 0.624764 0.750000
O O9 0.755327 0.648937 0.859293
O O10 0.549628 0.604560 0.525557
O O11 0.648259 0.475306 0.777196
O O12 0.921725 0.812254 0.975163
O O13 0.500000 0.674240 0.250000
O O14 0.000000 0.924803 0.250000
O O15 0.000000 0.000000 0.500000
#
# Coordination Sequence:
#
# PCOD8117479 Si02
#       7
#     4   4   4   4   2   4   4
#     4  11  21  35  57  81 112 145 198 243 298 344
#     4  11  21  39  59  87 118 156 197 244 297 361
#     4  10  18  36  62  90 122 152 190 247 302 355
#     4  11  20  39  62  84 113 162 200 238 297 362
#     4  10  24  32  50  86 110 144 190 256 286 344
#     4  10  21  34  59  96 123 147 190 249 305 348
#     4  10  26  43  61  83 120 162 203 245 299 351
#
# _framework density 20.152560999999999
#
# number of rings (size 3 to 8) (size 9 to 14) (size 15 to 20)
#    0.000    1.538    4.615    0.000    5.385    0.000 
#    2.769    0.769    0.000    0.000    0.000    0.000 
#    0.000    0.000    0.000    0.000    0.000    0.000 
#
# Total GULP energy -322114.578634 kJ/mol
# GULP energy per Si atom -12389.022255 kJ/mol
# Density = 2.010669 g / cm^3
# Si number density = 20.152561 Si / 1000 Ang^3
#
#
#
# Elastic Constant Matrix: (Units=GPa)
#
#
# Indices 1 2 3 4 5 6 
#
# 1 59.1141 31.2389 44.4362 0.0000 11.8637 0.0000
# 2 31.2389 119.0956 47.9540 0.0000 16.5230 0.0000
# 3 44.4362 47.9540 99.9816 0.0000 -1.2848 0.0000
# 4 0.0000 0.0000 0.0000 30.3962 0.0000 3.8942
# 5 11.8637 16.5230 -1.2848 0.0000 39.1190 0.0000
# 6 0.0000 0.0000 0.0000 3.8942 0.0000 23.4527
#
#
#
# Elastic Compliance Matrix: (Units=1/GPa)
#
#
# Indices 1 2 3 4 5 6 
#
# 1 0.028422 -0.001436 -0.012051 0.000000 -0.008409 0.000000
# 2 -0.001436 0.011361 -0.004869 0.000000 -0.004523 0.000000
# 3 -0.012051 -0.004869 0.017774 0.000000 0.006295 0.000000
# 4 0.000000 0.000000 0.000000 0.033614 0.000000 -0.005581
# 5 -0.008409 -0.004523 0.006295 0.000000 0.030230 0.000000
# 6 0.000000 0.000000 0.000000 -0.005581 0.000000 0.043566
#
#
# Mechanical properties :
#
#
# Convention : Reuss Voigt Hill
#
# Bulk Modulus (GPa) = 47.97388 58.38328 53.17858
# Shear Modulus (GPa) = 23.96608 28.89773 26.43191
#
# Velocity S-wave (km/s) = 3.45227 3.79086 3.62552
# Velocity P-wave (km/s) = 6.30459 6.94222 6.63107
#
# Compressibility (1/GPa) = 0.02084468
#
# Stress axis : x y z
#
# Youngs Moduli (GPa) = 35.18434 88.01738 56.26140
#
# Poissons Ratio (x) = 0.12639 0.67801
# Poissons Ratio (y) = 0.05052 0.27395
# Poissons Ratio (z) = 0.42401 0.42857
#
# Static dielectric constant tensor:
#      x y z
#    x 3.533610 0.000000 -0.258180 
#    y 0.000000 4.036570 0.000000 
#    z -0.258180 0.000000 3.944400 
# 
# 
# High freq. dielectric constant tensor:
#      x y z
#    x 1.745160 0.000000 -0.024910 
#    y 0.000000 1.798190 0.000000 
#    z -0.024910 0.000000 1.791090 
# 
# From -- ./inp_files/16604.got.cif
#   From: 2010.06.25/outbox.cif.g09.slc.cpg/sg13_9_cif.got.tgz:16604.got - 2010.06.28 04:50:58.
