data_PCOD8117070
_publ_section_title
;
Structure prediction by ZEFSAII (Michael W. Deem and Ramdas Pophale) SiO2 
 PCOD8117070
Probable space group: P 2/C
;
_chemical_formula_sum "Si O2"
_cell_formula_units_Z 32
_cell_length_a 13.187808
_cell_length_b 8.424381
_cell_length_c 22.384614
_cell_angle_alpha 90.000000
_cell_angle_beta 40.028609
_cell_angle_gamma 90.000000
_cell_volume 1599.506561
_symmetry_space_group_name_H-M "P 2/C"
_symmetry_group_IT_number 13
_symmetry_cell_setting 'monoclinic'
loop_
_space_group_symop_operation_xyz
x,y,z
-x,y,1/2-z
-x,-y,-z
x,-y,1/2+z
loop_
_atom_site_type_symbol
_atom_site_label
_atom_site_fract_x
_atom_site_fract_y
_atom_site_fract_z
Si Si1 0.959054 0.676980 0.081499
Si Si2 0.497915 0.987606 0.430687
Si Si3 0.700783 0.104298 0.657077
Si Si4 0.625504 0.716306 0.084266
Si Si5 0.471349 0.605366 0.828365
Si Si6 0.288354 0.145872 0.252259
Si Si7 0.995410 0.677493 0.926498
Si Si8 0.239561 0.865318 0.965380
O O1 0.790278 0.763814 0.156587
O O2 0.954689 0.503494 0.114220
O O3 0.023562 0.678263 0.984561
O O4 0.079007 0.790011 0.064295
O O5 0.467417 0.803899 0.426937
O O6 0.500000 0.000000 0.500000
O O7 0.665593 0.056690 0.330372
O O8 0.350885 0.085311 0.470049
O O9 0.575266 0.196167 0.670328
O O10 0.635829 0.968825 0.730588
O O11 0.804927 0.010875 0.559198
O O12 0.569830 0.536230 0.108256
O O13 0.815428 0.716327 0.990396
O O14 0.500000 0.534087 0.750000
O O15 0.627325 0.685159 0.783905
O O16 0.328147 0.728717 0.887754
O O17 0.103177 0.187866 0.344736
#
# Coordination Sequence:
#
# PCOD8117070 Si02
#       8
#     4   4   4   4   4   4   4   4
#     4  10  18  30  55  89 131 156 184 225 306 385
#     4  10  25  44  60  82 110 160 216 258 300 341
#     4  10  20  30  52  94 122 158 188 237 307 365
#     4  10  23  36  62  84 124 160 198 241 302 377
#     4  11  20  33  54  88 128 156 193 234 302 372
#     4  11  23  36  58  86 125 155 199 254 300 358
#     4  10  20  35  54  93 125 160 185 237 308 377
#     4  10  18  35  56  83 120 161 194 240 296 364
#
# _framework density 20.006170999999998
#
# number of rings (size 3 to 8) (size 9 to 14) (size 15 to 20)
#    0.000    1.750    3.750    0.375    8.750    0.000 
#    0.000    3.125    0.000    0.000    3.250    0.000 
#    0.000    0.000    0.000    0.000    0.000    0.000 
#
# Total GULP energy -396467.854924 kJ/mol
# GULP energy per Si atom -12389.620466 kJ/mol
# Density = 1.996064 g / cm^3
# Si number density = 20.006171 Si / 1000 Ang^3
#
#
#
# Elastic Constant Matrix: (Units=GPa)
#
#
# Indices 1 2 3 4 5 6 
#
# 1 57.9415 26.8159 35.8942 0.0000 8.1213 0.0000
# 2 26.8159 119.2757 34.2919 0.0000 2.6194 0.0000
# 3 35.8942 34.2919 77.5238 0.0000 8.3056 0.0000
# 4 0.0000 0.0000 0.0000 31.2956 0.0000 -11.4167
# 5 8.1213 2.6194 8.3056 0.0000 25.3007 0.0000
# 6 0.0000 0.0000 0.0000 -11.4167 0.0000 22.5649
#
#
#
# Elastic Compliance Matrix: (Units=1/GPa)
#
#
# Indices 1 2 3 4 5 6 
#
# 1 0.025391 -0.002714 -0.010067 0.000000 -0.004565 0.000000
# 2 -0.002714 0.009900 -0.003219 0.000000 0.000903 0.000000
# 3 -0.010067 -0.003219 0.019280 0.000000 -0.002765 0.000000
# 4 0.000000 0.000000 0.000000 0.039186 0.000000 0.019826
# 5 -0.004565 0.000903 -0.002765 0.000000 0.041804 0.000000
# 6 0.000000 0.000000 0.000000 0.019826 0.000000 0.054348
#
#
# Mechanical properties :
#
#
# Convention : Reuss Voigt Hill
#
# Bulk Modulus (GPa) = 44.30404 49.86056 47.08230
# Shear Modulus (GPa) = 21.79292 26.34816 24.07054
#
# Velocity S-wave (km/s) = 3.30405 3.63299 3.47242
# Velocity P-wave (km/s) = 6.06209 6.52494 6.29777
#
# Compressibility (1/GPa) = 0.02257130
#
# Stress axis : x y z
#
# Youngs Moduli (GPa) = 39.38429 101.01204 51.86621
#
# Poissons Ratio (x) = 0.27415 0.52212
# Poissons Ratio (y) = 0.10689 0.16697
# Poissons Ratio (z) = 0.39647 0.32518
#
# Static dielectric constant tensor:
#      x y z
#    x 3.166590 0.000000 -0.319260 
#    y 0.000000 4.028850 0.000000 
#    z -0.319260 0.000000 3.416610 
# 
# 
# High freq. dielectric constant tensor:
#      x y z
#    x 1.728270 0.000000 -0.044040 
#    y 0.000000 1.810480 0.000000 
#    z -0.044040 0.000000 1.748970 
# 
# From -- ./inp_files/78262.got.cif
#   From: 2010.06.25/outbox.cif.g09.slc.cpg/sg13_40_cif.got.tgz:78262.got - 2010.06.28 04:50:58.
