data_PCOD8117834
_publ_section_title
;
Structure prediction by ZEFSAII (Michael W. Deem and Ramdas Pophale) SiO2 
 PCOD8117834
Probable space group: P 2/C
;
_chemical_formula_sum "Si O2"
_cell_formula_units_Z 26
_cell_length_a 6.046674
_cell_length_b 13.537362
_cell_length_c 17.971414
_cell_angle_alpha 90.000000
_cell_angle_beta 119.475242
_cell_angle_gamma 90.000000
_cell_volume 1280.665596
_symmetry_space_group_name_H-M "P 2/C"
_symmetry_group_IT_number 13
_symmetry_cell_setting 'monoclinic'
loop_
_space_group_symop_operation_xyz
x,y,z
-x,y,1/2-z
-x,-y,-z
x,-y,1/2+z
loop_
_atom_site_type_symbol
_atom_site_label
_atom_site_fract_x
_atom_site_fract_y
_atom_site_fract_z
Si Si1 0.249327 0.877475 0.157766
Si Si2 0.954110 0.613085 0.009128
Si Si3 0.513901 0.750543 0.900521
Si Si4 0.918961 0.297646 0.657222
Si Si5 0.240759 0.098446 0.164273
Si Si6 0.000000 0.212843 0.250000
Si Si7 0.371923 0.243597 0.538227
O O1 0.500000 0.869897 0.250000
O O2 0.033635 0.811657 0.161819
O O3 0.293374 0.843844 0.080302
O O4 0.145302 0.988572 0.129387
O O5 0.008249 0.630294 0.105725
O O6 0.152555 0.674987 0.993434
O O7 0.669219 0.648560 0.939126
O O8 0.000000 0.500000 0.000000
O O9 0.706294 0.831511 0.897753
O O10 0.263898 0.726390 0.807643
O O11 0.429630 0.797172 0.965369
O O12 0.000000 0.341814 0.750000
O O13 0.617662 0.295612 0.612676
O O14 0.500000 0.085723 0.250000
O O15 0.027520 0.146315 0.181234
#
# Coordination Sequence:
#
# PCOD8117834 Si02
#       7
#     4   4   4   4   4   2   4
#     4  10  19  33  58  92 126 164 203 245 296 362
#     4  10  23  42  66  85 119 158 202 258 319 371
#     4  10  21  39  62  87 118 165 206 248 310 356
#     4  10  20  35  63  91 122 157 199 248 311 362
#     4   9  20  34  57  89 124 168 207 243 293 358
#     4  10  20  38  62  80 126 162 206 252 296 354
#     4  10  21  38  62  86 123 160 194 260 302 358
#
# _framework density 20.301942
#
# number of rings (size 3 to 8) (size 9 to 14) (size 15 to 20)
#    0.000    2.154    1.538    0.923    1.077    4.308 
#    0.000   10.769   32.154    0.000    0.000    0.000 
#    0.000    0.000    0.000    0.000    0.000    0.000 
#
# Total GULP energy -322285.276899 kJ/mol
# GULP energy per Si atom -12395.587573 kJ/mol
# Density = 2.025573 g / cm^3
# Si number density = 20.301942 Si / 1000 Ang^3
#
#
#
# Elastic Constant Matrix: (Units=GPa)
#
#
# Indices 1 2 3 4 5 6 
#
# 1 112.3171 46.0146 47.7479 0.0000 -11.8184 0.0000
# 2 46.0146 127.9879 58.3588 0.0000 -8.8941 0.0000
# 3 47.7479 58.3588 104.8520 0.0000 -6.8325 0.0000
# 4 0.0000 0.0000 0.0000 22.3224 0.0000 3.2472
# 5 -11.8184 -8.8941 -6.8325 0.0000 48.7398 0.0000
# 6 0.0000 0.0000 0.0000 3.2472 0.0000 14.5637
#
#
#
# Elastic Compliance Matrix: (Units=1/GPa)
#
#
# Indices 1 2 3 4 5 6 
#
# 1 0.011711 -0.002284 -0.003940 0.000000 0.001871 0.000000
# 2 -0.002284 0.010975 -0.005020 0.000000 0.000745 0.000000
# 3 -0.003940 -0.005020 0.014133 0.000000 0.000110 0.000000
# 4 0.000000 0.000000 0.000000 0.046300 0.000000 -0.010323
# 5 0.001871 0.000745 0.000110 0.000000 0.021122 0.000000
# 6 0.000000 0.000000 0.000000 -0.010323 0.000000 0.070966
#
#
# Mechanical properties :
#
#
# Convention : Reuss Voigt Hill
#
# Bulk Modulus (GPa) = 69.77824 72.15550 70.96687
# Shear Modulus (GPa) = 24.69497 29.99422 27.34459
#
# Velocity S-wave (km/s) = 3.49145 3.84787 3.67399
# Velocity P-wave (km/s) = 7.12029 7.44042 7.28211
#
# Compressibility (1/GPa) = 0.01433111
#
# Stress axis : x y z
#
# Youngs Moduli (GPa) = 85.39178 91.11552 70.75857
#
# Poissons Ratio (x) = 0.20809 0.27878
# Poissons Ratio (y) = 0.19502 0.35520
# Poissons Ratio (z) = 0.33643 0.45740
#
# Static dielectric constant tensor:
#      x y z
#    x 4.084830 0.000000 -0.110440 
#    y 0.000000 3.370840 0.000000 
#    z -0.110440 0.000000 3.908170 
# 
# 
# High freq. dielectric constant tensor:
#      x y z
#    x 1.812800 0.000000 -0.002190 
#    y 0.000000 1.750890 0.000000 
#    z -0.002190 0.000000 1.801470 
# 
# From -- ./inp_files/61326.got.cif
#   From: 2010.06.25/outbox.cif.g09.slc.cpg/sg13_31_cif.got.tgz:61326.got - 2010.06.28 04:50:58.
