data_PCOD8117144
_publ_section_title
;
Structure prediction by ZEFSAII (Michael W. Deem and Ramdas Pophale) SiO2 
 PCOD8117144
Probable space group: P 2/C
;
_chemical_formula_sum "Si O2"
_cell_formula_units_Z 24
_cell_length_a 25.495661
_cell_length_b 9.988651
_cell_length_c 26.022492
_cell_angle_alpha 90.000000
_cell_angle_beta 168.451190
_cell_angle_gamma 90.000000
_cell_volume 1326.758357
_symmetry_space_group_name_H-M "P 2/C"
_symmetry_group_IT_number 13
_symmetry_cell_setting 'monoclinic'
loop_
_space_group_symop_operation_xyz
x,y,z
-x,y,1/2-z
-x,-y,-z
x,-y,1/2+z
loop_
_atom_site_type_symbol
_atom_site_label
_atom_site_fract_x
_atom_site_fract_y
_atom_site_fract_z
Si Si1 0.612707 0.758767 0.750000
Si Si2 0.207701 0.132721 0.250001
Si Si3 0.000000 0.428403 0.750000
Si Si4 0.500000 0.251729 0.250000
Si Si5 0.114377 0.575957 0.250000
Si Si6 0.777272 0.439854 0.250000
Si Si7 0.685260 0.012810 0.750001
O O1 0.554684 0.829613 0.750003
O O2 0.370728 0.668282 0.499710
O O3 0.653012 0.877634 0.749998
O O4 0.871311 0.668283 0.000292
O O5 0.231172 0.281415 0.249999
O O6 0.253793 0.024152 0.250000
O O7 0.424078 0.104358 0.501761
O O8 0.920559 0.104356 0.998243
O O9 0.057292 0.502883 0.749998
O O10 0.749302 0.340954 0.499302
O O11 0.160455 0.467075 0.250000
O O12 0.000000 0.500000 0.500000
O O13 0.500000 0.500000 0.000000
#
# Coordination Sequence:
#
# PCOD8117144 Si02
#       7
#     4   4   2   2   4   4   4
#     4  10  18  32  53  77  99 128 162 203 253 289
#     4  10  21  33  47  71  95 128 163 193 237 286
#     4   8  16  30  48  72  98 128 160 200 248 292
#     4   8  16  28  48  76 100 118 158 208 244 288
#     4  10  19  32  52  76 102 128 163 206 251 298
#     4  12  23  35  52  75 104 132 166 212 255 301
#     4  10  19  33  50  66  97 129 159 194 232 292
#
# _framework density 18.089203000000001
#
# number of rings (size 3 to 8) (size 9 to 14) (size 15 to 20)
#    0.000    2.000    0.000    5.000    0.000    2.667 
#    0.000    0.000    0.000    2.000    0.000    0.000 
#    0.000    0.000    0.000    0.000    0.000    0.000 
#
# Total GULP energy -297330.517937 kJ/mol
# GULP energy per Si atom -12388.771581 kJ/mol
# Density = 1.804803 g / cm^3
# Si number density = 18.089203 Si / 1000 Ang^3
#
#
#
# Elastic Constant Matrix: (Units=GPa)
#
#
# Indices 1 2 3 4 5 6 
#
# 1 91.2858 2.3354 23.8881 0.0000 -0.8297 0.0000
# 2 2.3354 59.7319 36.4935 0.0000 1.3752 0.0000
# 3 23.8881 36.4935 168.4557 0.0000 3.9369 0.0000
# 4 0.0000 0.0000 0.0000 23.7549 0.0000 0.2021
# 5 -0.8297 1.3752 3.9369 0.0000 23.5841 0.0000
# 6 0.0000 0.0000 0.0000 0.2021 0.0000 18.7337
#
#
#
# Elastic Compliance Matrix: (Units=1/GPa)
#
#
# Indices 1 2 3 4 5 6 
#
# 1 0.011407 0.000618 -0.001767 0.000000 0.000660 0.000000
# 2 0.000618 0.019333 -0.004267 0.000000 -0.000393 0.000000
# 3 -0.001767 -0.004267 0.007135 0.000000 -0.001004 0.000000
# 4 0.000000 0.000000 0.000000 0.042100 0.000000 -0.000454
# 5 0.000660 -0.000393 -0.001004 0.000000 0.042615 0.000000
# 6 0.000000 0.000000 0.000000 -0.000454 0.000000 0.053385
#
#
# Mechanical properties :
#
#
# Convention : Reuss Voigt Hill
#
# Bulk Modulus (GPa) = 36.97653 49.43419 43.20536
# Shear Modulus (GPa) = 25.53356 30.33164 27.93260
#
# Velocity S-wave (km/s) = 3.76112 4.09929 3.93384
# Velocity P-wave (km/s) = 6.27271 7.05641 6.67607
#
# Compressibility (1/GPa) = 0.02704418
#
# Stress axis : x y z
#
# Youngs Moduli (GPa) = 87.66403 51.72468 140.16099
#
# Poissons Ratio (x) = -0.03198 0.24766
# Poissons Ratio (y) = -0.05421 0.59803
# Poissons Ratio (z) = 0.15490 0.22070
#
# Static dielectric constant tensor:
#      x y z
#    x 3.957180 0.000000 -0.003240 
#    y 0.000000 2.888350 0.000000 
#    z -0.003240 0.000000 3.876420 
# 
# 
# High freq. dielectric constant tensor:
#      x y z
#    x 1.703150 0.000000 0.001440 
#    y 0.000000 1.650590 0.000000 
#    z 0.001440 0.000000 1.738930 
# 
# From -- ./inp_files/83389.got.cif
#   From: 2010.06.25/outbox.cif.g09.slc.cpg/sg13_42_cif.got.tgz:83389.got - 2010.06.28 04:50:58.
