data_PCOD8117710
_publ_section_title
;
Structure prediction by ZEFSAII (Michael W. Deem and Ramdas Pophale) SiO2 
 PCOD8117710
Probable space group: P 2/C
;
_chemical_formula_sum "Si O2"
_cell_formula_units_Z 22
_cell_length_a 6.829191
_cell_length_b 17.938226
_cell_length_c 8.920045
_cell_angle_alpha 90.000000
_cell_angle_beta 121.443554
_cell_angle_gamma 90.000000
_cell_volume 932.273805
_symmetry_space_group_name_H-M "P 2/C"
_symmetry_group_IT_number 13
_symmetry_cell_setting 'monoclinic'
loop_
_space_group_symop_operation_xyz
x,y,z
-x,y,1/2-z
-x,-y,-z
x,-y,1/2+z
loop_
_atom_site_type_symbol
_atom_site_label
_atom_site_fract_x
_atom_site_fract_y
_atom_site_fract_z
Si Si1 0.660883 0.137397 0.946382
Si Si2 0.825345 0.987586 0.058048
Si Si3 0.746124 0.252083 0.216309
Si Si4 0.730708 0.588503 0.625245
Si Si5 0.500000 0.472722 0.750000
Si Si6 0.109249 0.825511 0.448019
O O1 0.500000 0.165445 0.750000
O O2 0.919193 0.149202 0.992076
O O3 0.606098 0.188046 0.070007
O O4 0.617472 0.048555 0.965469
O O5 0.744845 0.900424 0.040961
O O6 0.000000 0.014610 0.250000
O O7 0.000000 0.000000 0.000000
O O8 0.628314 0.332474 0.142133
O O9 0.739172 0.233702 0.394387
O O10 0.000000 0.256030 0.250000
O O11 0.650271 0.522151 0.699160
O O12 0.659972 0.577893 0.422011
O O13 0.000000 0.589467 0.750000
O O14 0.000000 0.791204 0.250000
#
# Coordination Sequence:
#
# PCOD8117710 Si02
#       6
#     4   4   4   4   2   4
#     4  10  19  32  52  79 105 143 192 238 288 344
#     4   9  16  30  51  68  99 144 186 231 281 338
#     4   9  19  37  58  79 113 154 193 228 296 363
#     4  10  21  41  66  95 128 168 199 249 311 367
#     4  10  22  40  66 100 130 154 210 248 298 378
#     4   9  18  36  53  75 105 147 192 237 288 345
#
# _framework density 23.598219
#
# number of rings (size 3 to 8) (size 9 to 14) (size 15 to 20)
#    0.000    2.545    0.000    3.273    1.273    0.000 
#    3.273   19.091    0.000    0.000    0.000    0.000 
#    0.000    0.000    0.000    0.000    0.000    0.000 
#
# Total GULP energy -272537.731435 kJ/mol
# GULP energy per Si atom -12388.078702 kJ/mol
# Density = 2.354451 g / cm^3
# Si number density = 23.598219 Si / 1000 Ang^3
#
#
#
# Elastic Constant Matrix: (Units=GPa)
#
#
# Indices 1 2 3 4 5 6 
#
# 1 15.1097 18.4385 19.9309 0.0000 -12.4356 0.0000
# 2 18.4385 150.9486 96.1235 0.0000 -2.9078 0.0000
# 3 19.9309 96.1235 228.5222 0.0000 -24.1066 0.0000
# 4 0.0000 0.0000 0.0000 59.4162 0.0000 0.2194
# 5 -12.4356 -2.9078 -24.1066 0.0000 35.2586 0.0000
# 6 0.0000 0.0000 0.0000 0.2194 0.0000 21.4785
#
#
#
# Elastic Compliance Matrix: (Units=1/GPa)
#
#
# Indices 1 2 3 4 5 6 
#
# 1 0.114813 -0.013007 -0.000414 0.000000 0.039139 0.000000
# 2 -0.013007 0.010655 -0.004029 0.000000 -0.006464 0.000000
# 3 -0.000414 -0.004029 0.006527 0.000000 0.003984 0.000000
# 4 0.000000 0.000000 0.000000 0.016831 0.000000 -0.000172
# 5 0.039139 -0.006464 0.003984 0.000000 0.044357 0.000000
# 6 0.000000 0.000000 0.000000 -0.000172 0.000000 0.046560
#
#
# Mechanical properties :
#
#
# Convention : Reuss Voigt Hill
#
# Bulk Modulus (GPa) = 10.29918 73.72957 42.01438
# Shear Modulus (GPa) = 16.28621 40.56984 28.42803
#
# Velocity S-wave (km/s) = 2.62991 4.15081 3.47460
# Velocity P-wave (km/s) = 3.68725 7.36776 5.82579
#
# Compressibility (1/GPa) = 0.09709514
#
# Stress axis : x y z
#
# Youngs Moduli (GPa) = 8.70981 93.85400 153.20660
#
# Poissons Ratio (x) = 1.22077 0.06338
# Poissons Ratio (y) = 0.11329 0.61730
# Poissons Ratio (z) = 0.00360 0.37815
#
# Static dielectric constant tensor:
#      x y z
#    x 4.072200 0.000000 -0.211620 
#    y 0.000000 12.213450 0.000000 
#    z -0.211620 0.000000 4.415210 
# 
# 
# High freq. dielectric constant tensor:
#      x y z
#    x 1.938400 0.000000 -0.014220 
#    y 0.000000 1.921530 0.000000 
#    z -0.014220 0.000000 1.946710 
# 
# From -- ./inp_files/13185.got.cif
#   From: 2010.06.25/outbox.cif.g09.slc.cpg/sg13_7_cif.got.tgz:13185.got - 2010.06.28 04:50:58.
