data_PCOD8117866
_publ_section_title
;
Structure prediction by ZEFSAII (Michael W. Deem and Ramdas Pophale) SiO2 
 PCOD8117866
Probable space group: P 2/C
;
_chemical_formula_sum "Si O2"
_cell_formula_units_Z 28
_cell_length_a 20.540195
_cell_length_b 5.100603
_cell_length_c 21.402742
_cell_angle_alpha 90.000000
_cell_angle_beta 135.052015
_cell_angle_gamma 90.000000
_cell_volume 1584.111978
_symmetry_space_group_name_H-M "P 2/C"
_symmetry_group_IT_number 13
_symmetry_cell_setting 'monoclinic'
loop_
_space_group_symop_operation_xyz
x,y,z
-x,y,1/2-z
-x,-y,-z
x,-y,1/2+z
loop_
_atom_site_type_symbol
_atom_site_label
_atom_site_fract_x
_atom_site_fract_y
_atom_site_fract_z
Si Si1 0.894060 0.249609 0.464392
Si Si2 0.406536 0.052740 0.472443
Si Si3 0.895124 0.087368 0.160800
Si Si4 0.177077 0.583174 0.456352
Si Si5 0.777268 0.880417 0.186325
Si Si6 0.665899 0.430801 0.522750
Si Si7 0.895016 0.754703 0.386674
O O1 0.828907 0.370953 0.473551
O O2 0.885340 0.456194 0.402196
O O3 0.998307 0.208400 0.560065
O O4 0.862691 0.965097 0.417291
O O5 0.320842 0.023804 0.365264
O O6 0.401022 0.331785 0.503166
O O7 0.500000 0.000000 0.500000
O O8 0.397154 0.830759 0.520112
O O9 0.882376 0.339774 0.108512
O O10 0.834775 0.087174 0.183165
O O11 0.000000 0.063344 0.250000
O O12 0.865500 0.842466 0.100538
O O13 0.284873 0.532608 0.511191
O O14 0.751766 0.615692 0.129656
O O15 0.831572 0.795259 0.283839
#
# Coordination Sequence:
#
# PCOD8117866 Si02
#       7
#     4   4   4   4   4   4   4
#     4  10  22  34  50  71 102 151 188 210 249 289
#     4  10  19  34  54  81 107 130 162 213 283 335
#     4  11  21  31  51  76 106 140 171 214 269 313
#     4  11  19  36  49  73 107 137 181 213 257 314
#     4   9  21  32  54  76 110 131 174 219 267 311
#     4   9  19  33  52  80 103 132 167 215 272 323
#     4  10  21  35  49  73 105 143 187 222 242 301
#
# _framework density 17.675519000000001
#
# number of rings (size 3 to 8) (size 9 to 14) (size 15 to 20)
#    0.857    1.143    1.429    2.571    2.000    3.429 
#    0.000    0.000    0.000    0.000    0.000    6.000 
#    0.000    0.000    0.000    0.000    0.000    0.000 
#
# Total GULP energy -346898.684780 kJ/mol
# GULP energy per Si atom -12389.238742 kJ/mol
# Density = 1.763529 g / cm^3
# Si number density = 17.675519 Si / 1000 Ang^3
#
#
#
# Elastic Constant Matrix: (Units=GPa)
#
#
# Indices 1 2 3 4 5 6 
#
# 1 114.7950 22.2389 30.0791 0.0000 6.3785 0.0000
# 2 22.2389 114.5412 5.9880 0.0000 1.3074 0.0000
# 3 30.0791 5.9880 47.6570 0.0000 -1.2463 0.0000
# 4 0.0000 0.0000 0.0000 19.4994 0.0000 2.6250
# 5 6.3785 1.3074 -1.2463 0.0000 20.5001 0.0000
# 6 0.0000 0.0000 0.0000 2.6250 0.0000 32.3533
#
#
#
# Elastic Compliance Matrix: (Units=1/GPa)
#
#
# Indices 1 2 3 4 5 6 
#
# 1 0.011054 -0.001745 -0.006855 0.000000 -0.003745 0.000000
# 2 -0.001745 0.009072 -0.000039 0.000000 -0.000038 0.000000
# 3 -0.006855 -0.000039 0.025411 0.000000 0.003680 0.000000
# 4 0.000000 0.000000 0.000000 0.051850 0.000000 -0.004207
# 5 -0.003745 -0.000038 0.003680 0.000000 0.050172 0.000000
# 6 0.000000 0.000000 0.000000 -0.004207 0.000000 0.031250
#
#
# Mechanical properties :
#
#
# Convention : Reuss Voigt Hill
#
# Bulk Modulus (GPa) = 35.38926 43.73391 39.56159
# Shear Modulus (GPa) = 24.33014 29.04972 26.68993
#
# Velocity S-wave (km/s) = 3.71413 4.05841 3.89008
# Velocity P-wave (km/s) = 6.20146 6.83793 6.52746
#
# Compressibility (1/GPa) = 0.02825716
#
# Stress axis : x y z
#
# Youngs Moduli (GPa) = 90.46878 110.23196 39.35276
#
# Poissons Ratio (x) = 0.19235 0.26977
# Poissons Ratio (y) = 0.15787 0.00155
# Poissons Ratio (z) = 0.62018 0.00435
#
# Static dielectric constant tensor:
#      x y z
#    x 3.343160 0.000000 -0.004700 
#    y 0.000000 3.453340 0.000000 
#    z -0.004700 0.000000 2.854460 
# 
# 
# High freq. dielectric constant tensor:
#      x y z
#    x 1.680460 0.000000 0.001200 
#    y 0.000000 1.705470 0.000000 
#    z 0.001200 0.000000 1.630400 
# 
# From -- ./inp_files/80610.got.cif
#   From: 2010.06.25/outbox.cif.g09.slc.cpg/sg13_41_cif.got.tgz:80610.got - 2010.06.28 04:50:58.
