data_PCOD8117103
_publ_section_title
;
Structure prediction by ZEFSAII (Michael W. Deem and Ramdas Pophale) SiO2 
 PCOD8117103
Probable space group: P 2/C
;
_chemical_formula_sum "Si O2"
_cell_formula_units_Z 32
_cell_length_a 16.880435
_cell_length_b 12.451038
_cell_length_c 21.672170
_cell_angle_alpha 90.000000
_cell_angle_beta 158.871423
_cell_angle_gamma 90.000000
_cell_volume 1641.916936
_symmetry_space_group_name_H-M "P 2/C"
_symmetry_group_IT_number 13
_symmetry_cell_setting 'monoclinic'
loop_
_space_group_symop_operation_xyz
x,y,z
-x,y,1/2-z
-x,-y,-z
x,-y,1/2+z
loop_
_atom_site_type_symbol
_atom_site_label
_atom_site_fract_x
_atom_site_fract_y
_atom_site_fract_z
Si Si1 0.437072 0.436427 0.801286
Si Si2 0.891361 0.861304 0.297222
Si Si3 0.183308 0.501688 0.496789
Si Si4 0.792461 0.595594 0.778604
Si Si5 0.077715 0.931201 0.613527
Si Si6 0.513011 0.207982 0.076951
Si Si7 0.877185 0.739983 0.415584
Si Si8 0.173836 0.718538 0.425511
O O1 0.314615 0.487875 0.654705
O O2 0.370825 0.504301 0.813704
O O3 0.365904 0.311650 0.758041
O O4 0.697715 0.441506 0.975002
O O5 0.915912 0.795986 0.378434
O O6 0.084336 0.827288 0.391426
O O7 0.924085 0.989773 0.328858
O O8 0.655878 0.836450 0.096068
O O9 0.191552 0.628445 0.490393
O O10 0.936947 0.455526 0.327862
O O11 0.647299 0.692395 0.644622
O O12 0.948789 0.642589 0.947125
O O13 0.325435 0.887695 0.785040
O O14 0.912280 0.828241 0.496140
O O15 0.000000 0.000000 0.500000
O O16 0.402759 0.252690 0.059471
O O17 0.000000 0.673436 0.250000
#
# Coordination Sequence:
#
# PCOD8117103 Si02
#       8
#     4   4   4   4   4   4   4   4
#     4  10  18  31  54  78 109 149 185 227 275 335
#     4  10  19  35  58  81 108 144 184 236 285 330
#     4  10  19  32  52  79 109 152 186 221 277 324
#     4  10  18  33  53  80 112 147 184 228 274 335
#     4   9  19  36  58  80 102 138 181 236 286 335
#     4  10  20  35  57  81 112 146 187 226 286 340
#     4   9  18  33  54  78 111 140 185 232 279 333
#     4  10  20  35  52  83 114 144 184 231 268 338
#
# _framework density 19.489414
#
# number of rings (size 3 to 8) (size 9 to 14) (size 15 to 20)
#    0.000    2.250    1.250    3.375    0.000    0.000 
#    2.250    1.875   30.250    0.000    0.000    0.000 
#    0.000    0.000    0.000    0.000    0.000    0.000 
#
# Total GULP energy -396575.545051 kJ/mol
# GULP energy per Si atom -12392.985783 kJ/mol
# Density = 1.944506 g / cm^3
# Si number density = 19.489414 Si / 1000 Ang^3
#
#
#
# Elastic Constant Matrix: (Units=GPa)
#
#
# Indices 1 2 3 4 5 6 
#
# 1 75.7524 44.5758 30.9151 0.0000 21.5996 0.0000
# 2 44.5758 116.3113 40.0531 0.0000 13.0682 0.0000
# 3 30.9151 40.0531 60.6470 0.0000 15.9140 0.0000
# 4 0.0000 0.0000 0.0000 24.9478 0.0000 1.0919
# 5 21.5996 13.0682 15.9140 0.0000 34.7512 0.0000
# 6 0.0000 0.0000 0.0000 1.0919 0.0000 27.9831
#
#
#
# Elastic Compliance Matrix: (Units=1/GPa)
#
#
# Indices 1 2 3 4 5 6 
#
# 1 0.020778 -0.005338 -0.004778 0.000000 -0.008719 0.000000
# 2 -0.005338 0.012526 -0.005895 0.000000 0.001307 0.000000
# 3 -0.004778 -0.005895 0.024387 0.000000 -0.005981 0.000000
# 4 0.000000 0.000000 0.000000 0.040152 0.000000 -0.001567
# 5 -0.008719 0.001307 -0.005981 0.000000 0.036443 0.000000
# 6 0.000000 0.000000 0.000000 -0.001567 0.000000 0.035797
#
#
# Mechanical properties :
#
#
# Convention : Reuss Voigt Hill
#
# Bulk Modulus (GPa) = 38.95657 53.75542 46.35600
# Shear Modulus (GPa) = 23.73460 26.68088 25.20774
#
# Velocity S-wave (km/s) = 3.49351 3.70400 3.60030
# Velocity P-wave (km/s) = 6.02535 6.77751 6.41247
#
# Compressibility (1/GPa) = 0.02566961
#
# Stress axis : x y z
#
# Youngs Moduli (GPa) = 48.12723 79.83093 41.00511
#
# Poissons Ratio (x) = 0.42614 0.19594
# Poissons Ratio (y) = 0.25690 0.24171
# Poissons Ratio (z) = 0.22998 0.47058
#
# Static dielectric constant tensor:
#      x y z
#    x 3.541800 0.000000 0.232570 
#    y 0.000000 3.930920 0.000000 
#    z 0.232570 0.000000 3.704780 
# 
# 
# High freq. dielectric constant tensor:
#      x y z
#    x 1.735740 0.000000 0.004540 
#    y 0.000000 1.762860 0.000000 
#    z 0.004540 0.000000 1.752970 
# 
# From -- ./inp_files/88181.got.cif
#   From: 2010.06.25/outbox.cif.g09.slc.cpg/sg13_45_cif.got.tgz:88181.got - 2010.06.28 04:50:58.
