data_PCOD8117868
_publ_section_title
;
Structure prediction by ZEFSAII (Michael W. Deem and Ramdas Pophale) SiO2 
 PCOD8117868
Probable space group: P 2/C
;
_chemical_formula_sum "Si O2"
_cell_formula_units_Z 22
_cell_length_a 28.756220
_cell_length_b 7.815509
_cell_length_c 5.034821
_cell_angle_alpha 90.000000
_cell_angle_beta 100.701745
_cell_angle_gamma 90.000000
_cell_volume 1111.867449
_symmetry_space_group_name_H-M "P 2/C"
_symmetry_group_IT_number 13
_symmetry_cell_setting 'monoclinic'
loop_
_space_group_symop_operation_xyz
x,y,z
-x,y,1/2-z
-x,-y,-z
x,-y,1/2+z
loop_
_atom_site_type_symbol
_atom_site_label
_atom_site_fract_x
_atom_site_fract_y
_atom_site_fract_z
Si Si1 0.080084 0.389754 0.281668
Si Si2 0.000000 0.119106 0.250000
Si Si3 0.188404 0.612821 0.941230
Si Si4 0.267347 0.114470 0.526639
Si Si5 0.451553 0.388978 0.626759
Si Si6 0.650676 0.382877 0.888898
O O1 0.069321 0.542659 0.475619
O O2 0.134067 0.327451 0.365331
O O3 0.047133 0.230925 0.308352
O O4 0.000000 0.000000 0.500000
O O5 0.200354 0.467818 0.738463
O O6 0.219385 0.780519 0.929122
O O7 0.312014 0.234771 0.522444
O O8 0.268725 0.043048 0.825660
O O9 0.500000 0.281868 0.750000
O O10 0.452784 0.443265 0.320366
O O11 0.401641 0.295310 0.635154
O O12 0.657549 0.536317 0.106038
#
# Coordination Sequence:
#
# PCOD8117868 Si02
#       6
#     4   2   4   4   4   4
#     4  10  21  39  61  81 107 144 183 220 260 312
#     4  12  24  36  56  86 118 146 176 218 264 312
#     4  10  21  39  61  81 103 139 184 222 260 312
#     4  12  24  36  53  79 111 140 170 217 269 315
#     4   8  14  25  45  73  97 121 164 218 258 290
#     4  10  19  34  55  75 101 138 177 214 254 312
#
# _framework density 19.786529000000002
#
# number of rings (size 3 to 8) (size 9 to 14) (size 15 to 20)
#    0.000    1.818    0.000    4.909    0.000    1.455 
#    0.000    0.000    0.000    1.091    0.000    0.000 
#    0.000    0.000    0.000    0.000    0.000    0.000 
#
# Total GULP energy -272779.732245 kJ/mol
# GULP energy per Si atom -12399.078738 kJ/mol
# Density = 1.974149 g / cm^3
# Si number density = 19.786529 Si / 1000 Ang^3
#
#
#
# Elastic Constant Matrix: (Units=GPa)
#
#
# Indices 1 2 3 4 5 6 
#
# 1 151.8239 69.8055 34.0598 0.0000 7.2641 0.0000
# 2 69.8055 71.3169 13.6481 0.0000 8.0486 0.0000
# 3 34.0598 13.6481 83.1124 0.0000 -3.8680 0.0000
# 4 0.0000 0.0000 0.0000 22.6790 0.0000 -7.4534
# 5 7.2641 8.0486 -3.8680 0.0000 28.6132 0.0000
# 6 0.0000 0.0000 0.0000 -7.4534 0.0000 0.4800
#
#
#
# Elastic Compliance Matrix: (Units=1/GPa)
#
#
# Indices 1 2 3 4 5 6 
#
# 1 0.012796 -0.011849 -0.003315 0.000000 -0.000364 0.000000
# 2 -0.011849 0.026027 0.000383 0.000000 -0.004261 0.000000
# 3 -0.003315 0.000383 0.013446 0.000000 0.002551 0.000000
# 4 0.000000 0.000000 0.000000 -0.010746 0.000000 -0.166864
# 5 -0.000364 -0.004261 0.002551 0.000000 0.036585 0.000000
# 6 0.000000 0.000000 0.000000 -0.166864 0.000000 -0.507727
#
#
# Mechanical properties :
#
#
# Convention : Reuss Voigt Hill
#
# Bulk Modulus (GPa) = 44.03693 60.14220 52.08956
# Shear Modulus (GPa) = -12.73918 22.93709 5.09895
#
# Velocity S-wave (km/s) = -2.54014 3.40844 1.60704
# Velocity P-wave (km/s) = 3.70152 6.77875 5.46135
#
# Compressibility (1/GPa) = 0.02270821
#
# Stress axis : x y z
#
# Youngs Moduli (GPa) = 78.15241 38.42120 74.37103
#
# Poissons Ratio (x) = 0.45525 0.24653
# Poissons Ratio (y) = 0.92602 -0.02852
# Poissons Ratio (z) = 0.25906 -0.01473
#
# Static dielectric constant tensor:
#      x y z
#    x 4.099040 0.000000 0.027290 
#    y 0.000000 3.042530 0.000000 
#    z 0.027290 0.000000 3.824190 
# 
# 
# High freq. dielectric constant tensor:
#      x y z
#    x 1.801230 0.000000 -0.001920 
#    y 0.000000 1.719350 0.000000 
#    z -0.001920 0.000000 1.795610 
# 
# From -- ./inp_files/7954.got.cif
#   From: 2010.06.25/outbox.cif.g09.slc.cpg/sg13_4_cif.got.tgz:7954.got - 2010.06.28 04:50:58.
