data_PCOD8117760
_publ_section_title
;
Structure prediction by ZEFSAII (Michael W. Deem and Ramdas Pophale) SiO2 
 PCOD8117760
Probable space group: P 2/C
;
_chemical_formula_sum "Si O2"
_cell_formula_units_Z 28
_cell_length_a 9.957539
_cell_length_b 12.029506
_cell_length_c 16.277576
_cell_angle_alpha 90.000000
_cell_angle_beta 51.943274
_cell_angle_gamma 90.000000
_cell_volume 1535.272279
_symmetry_space_group_name_H-M "P 2/C"
_symmetry_group_IT_number 13
_symmetry_cell_setting 'monoclinic'
loop_
_space_group_symop_operation_xyz
x,y,z
-x,y,1/2-z
-x,-y,-z
x,-y,1/2+z
loop_
_atom_site_type_symbol
_atom_site_label
_atom_site_fract_x
_atom_site_fract_y
_atom_site_fract_z
Si Si1 0.863415 0.186379 0.142830
Si Si2 0.874454 0.439790 0.143826
Si Si3 0.234940 0.569771 0.470049
Si Si4 0.465531 0.583730 0.664987
Si Si5 0.747212 0.818070 0.000600
Si Si6 0.362853 0.965633 0.873041
Si Si7 0.590734 0.183295 0.383087
O O1 0.844710 0.314401 0.119691
O O2 0.801134 0.106128 0.093103
O O3 0.757901 0.163910 0.265250
O O4 0.056432 0.158634 0.093773
O O5 0.835969 0.533410 0.091299
O O6 0.734171 0.455654 0.269943
O O7 0.075316 0.449647 0.094714
O O8 0.405798 0.501965 0.428076
O O9 0.283066 0.698624 0.446520
O O10 0.500000 0.594368 0.750000
O O11 0.493932 0.698930 0.608058
O O12 0.636597 0.823712 0.960486
O O13 0.686743 0.908745 0.088784
O O14 0.500000 0.964235 0.750000
O O15 0.446863 0.909454 0.921461
#
# Coordination Sequence:
#
# PCOD8117760 Si02
#       7
#     4   4   4   4   4   4   4
#     4   9  18  35  55  72  92 128 173 207 237 284
#     4   8  15  29  49  70  92 123 166 208 234 275
#     4   9  17  28  45  72  99 125 159 197 246 296
#     4   9  16  30  51  70  94 133 170 202 240 289
#     4  11  21  31  49  77 105 126 155 206 257 294
#     4  10  20  34  51  71  97 131 167 198 240 300
#     4  10  19  33  52  74  98 126 166 210 246 281
#
# _framework density 18.237808999999999
#
# number of rings (size 3 to 8) (size 9 to 14) (size 15 to 20)
#    0.000    2.571    0.000    4.286    0.000    2.286 
#    0.000    0.000    0.000    0.000    0.000    6.000 
#    0.000    0.000    0.000    0.000    0.000    0.000 
#
# Total GULP energy -346976.774555 kJ/mol
# GULP energy per Si atom -12392.027663 kJ/mol
# Density = 1.819630 g / cm^3
# Si number density = 18.237809 Si / 1000 Ang^3
#
#
#
# Elastic Constant Matrix: (Units=GPa)
#
#
# Indices 1 2 3 4 5 6 
#
# 1 77.1233 46.9327 27.9916 0.0000 -13.1244 0.0000
# 2 46.9327 112.0007 30.7988 0.0000 -10.3231 0.0000
# 3 27.9916 30.7988 35.8497 0.0000 -17.5664 0.0000
# 4 0.0000 0.0000 0.0000 19.8796 0.0000 -10.4488
# 5 -13.1244 -10.3231 -17.5664 0.0000 40.7536 0.0000
# 6 0.0000 0.0000 0.0000 -10.4488 0.0000 19.8479
#
#
#
# Elastic Compliance Matrix: (Units=1/GPa)
#
#
# Indices 1 2 3 4 5 6 
#
# 1 0.020354 -0.005470 -0.010979 0.000000 0.000437 0.000000
# 2 -0.005470 0.013258 -0.008033 0.000000 -0.001866 0.000000
# 3 -0.010979 -0.008033 0.051520 0.000000 0.016637 0.000000
# 4 0.000000 0.000000 0.000000 0.069546 0.000000 0.036612
# 5 0.000437 -0.001866 0.016637 0.000000 0.031377 0.000000
# 6 0.000000 0.000000 0.000000 0.036612 0.000000 0.069657
#
#
# Mechanical properties :
#
#
# Convention : Reuss Voigt Hill
#
# Bulk Modulus (GPa) = 27.64928 48.49110 38.07019
# Shear Modulus (GPa) = 15.78618 24.04627 19.91622
#
# Velocity S-wave (km/s) = 2.94526 3.63503 3.30817
# Velocity P-wave (km/s) = 5.17295 6.65311 5.95916
#
# Compressibility (1/GPa) = 0.03616730
#
# Stress axis : x y z
#
# Youngs Moduli (GPa) = 49.13018 75.42851 19.40978
#
# Poissons Ratio (x) = 0.41257 0.21311
# Poissons Ratio (y) = 0.26873 0.15592
# Poissons Ratio (z) = 0.53942 0.60593
#
# Static dielectric constant tensor:
#      x y z
#    x 3.537900 0.000000 -0.491780 
#    y 0.000000 3.403530 0.000000 
#    z -0.491780 0.000000 3.292190 
# 
# 
# High freq. dielectric constant tensor:
#      x y z
#    x 1.707640 0.000000 -0.029140 
#    y 0.000000 1.705550 0.000000 
#    z -0.029140 0.000000 1.680050 
# 
# From -- ./inp_files/47108.got.cif
#   From: 2010.06.25/outbox.cif.g09.slc.cpg/sg13_24_cif.got.tgz:47108.got - 2010.06.28 04:50:58.
