data_PCOD8117446
_publ_section_title
;
Structure prediction by ZEFSAII (Michael W. Deem and Ramdas Pophale) SiO2 
 PCOD8117446
Probable space group: P 2/C
;
_chemical_formula_sum "Si O2"
_cell_formula_units_Z 32
_cell_length_a 14.880126
_cell_length_b 14.376151
_cell_length_c 9.453474
_cell_angle_alpha 90.000000
_cell_angle_beta 122.678892
_cell_angle_gamma 90.000000
_cell_volume 1702.170373
_symmetry_space_group_name_H-M "P 2/C"
_symmetry_group_IT_number 13
_symmetry_cell_setting 'monoclinic'
loop_
_space_group_symop_operation_xyz
x,y,z
-x,y,1/2-z
-x,-y,-z
x,-y,1/2+z
loop_
_atom_site_type_symbol
_atom_site_label
_atom_site_fract_x
_atom_site_fract_y
_atom_site_fract_z
Si Si1 0.572758 0.457111 0.941147
Si Si2 0.685062 0.644932 0.003156
Si Si3 0.425237 0.964079 0.557900
Si Si4 0.945733 0.384209 0.336519
Si Si5 0.722775 0.691418 0.721723
Si Si6 0.361391 0.837509 0.033365
Si Si7 0.401367 0.206318 0.869549
Si Si8 0.913736 0.407803 0.782747
O O1 0.500000 0.417297 0.750000
O O2 0.500000 0.500000 0.000000
O O3 0.645152 0.540521 0.942127
O O4 0.648900 0.376174 0.064071
O O5 0.610753 0.696997 0.055581
O O6 0.803083 0.645378 0.168181
O O7 0.681927 0.695266 0.848198
O O8 0.500000 0.931581 0.750000
O O9 0.360920 0.875067 0.442877
O O10 0.500000 0.000000 0.500000
O O11 0.348154 0.050339 0.534594
O O12 0.847221 0.333935 0.327266
O O13 0.899854 0.482571 0.240958
O O14 0.000000 0.330281 0.250000
O O15 0.045533 0.394788 0.524783
O O16 0.719567 0.794064 0.649440
O O17 0.477279 0.809265 0.073050
O O18 0.335057 0.795459 0.166623
O O19 0.000000 0.363546 0.750000
#
# Coordination Sequence:
#
# PCOD8117446 Si02
#       8
#     4   4   4   4   4   4   4   4
#     4  12  26  38  51  76 118 161 194 226 271 338
#     4  12  25  38  57  83 111 157 195 236 288 341
#     4  10  18  36  58  81 112 151 191 234 283 326
#     4  10  22  37  61  82 104 146 192 253 297 329
#     4  12  25  38  56  83 115 152 196 234 288 344
#     4  10  22  38  55  84 118 151 188 234 274 338
#     4  10  23  36  57  84 116 153 189 230 278 337
#     4  10  20  39  60  80 108 139 198 253 292 331
#
# _framework density 18.799527999999999
#
# number of rings (size 3 to 8) (size 9 to 14) (size 15 to 20)
#    0.000    1.250    6.250    0.750    8.750    0.000 
#    0.000    0.000    0.000    0.000    0.000    1.750 
#    0.000    0.000    0.000    0.000    0.000    0.000 
#
# Total GULP energy -396670.548710 kJ/mol
# GULP energy per Si atom -12395.954647 kJ/mol
# Density = 1.875674 g / cm^3
# Si number density = 18.799528 Si / 1000 Ang^3
#
#
#
# Elastic Constant Matrix: (Units=GPa)
#
#
# Indices 1 2 3 4 5 6 
#
# 1 57.3127 6.4400 25.6548 0.0000 -8.3904 0.0000
# 2 6.4400 67.9258 29.4182 0.0000 0.6697 0.0000
# 3 25.6548 29.4182 115.1542 0.0000 -12.6217 0.0000
# 4 0.0000 0.0000 0.0000 29.0235 0.0000 -7.8181
# 5 -8.3904 0.6697 -12.6217 0.0000 34.8725 0.0000
# 6 0.0000 0.0000 0.0000 -7.8181 0.0000 13.3360
#
#
#
# Elastic Compliance Matrix: (Units=1/GPa)
#
#
# Indices 1 2 3 4 5 6 
#
# 1 0.019738 -0.000176 -0.003990 0.000000 0.003308 0.000000
# 2 -0.000176 0.016680 -0.004438 0.000000 -0.001969 0.000000
# 3 -0.003990 -0.004438 0.011049 0.000000 0.003124 0.000000
# 4 0.000000 0.000000 0.000000 0.040916 0.000000 0.023987
# 5 0.003308 -0.001969 0.003124 0.000000 0.030640 0.000000
# 6 0.000000 0.000000 0.000000 0.023987 0.000000 0.089047
#
#
# Mechanical properties :
#
#
# Convention : Reuss Voigt Hill
#
# Bulk Modulus (GPa) = 33.04693 40.37986 36.71340
# Shear Modulus (GPa) = 21.24365 27.37174 24.30769
#
# Velocity S-wave (km/s) = 3.36521 3.81987 3.59972
# Velocity P-wave (km/s) = 5.71981 6.40164 6.07031
#
# Compressibility (1/GPa) = 0.03025999
#
# Stress axis : x y z
#
# Youngs Moduli (GPa) = 50.66316 59.95196 90.50560
#
# Poissons Ratio (x) = 0.01055 0.36110
# Poissons Ratio (y) = 0.00892 0.40165
# Poissons Ratio (z) = 0.20214 0.26605
#
# Static dielectric constant tensor:
#      x y z
#    x 3.306590 0.000000 -0.208070 
#    y 0.000000 3.964970 0.000000 
#    z -0.208070 0.000000 3.641140 
# 
# 
# High freq. dielectric constant tensor:
#      x y z
#    x 1.706090 0.000000 -0.027660 
#    y 0.000000 1.706500 0.000000 
#    z -0.027660 0.000000 1.744020 
# 
# From -- ./inp_files/19676.got.cif
#   From: 2010.06.25/outbox.cif.g09.slc.cpg/sg13_10_cif.got.tgz:19676.got - 2010.06.28 04:50:58.
