data_PCOD8117688
_publ_section_title
;
Structure prediction by ZEFSAII (Michael W. Deem and Ramdas Pophale) SiO2 
 PCOD8117688
Probable space group: P 2/C
;
_chemical_formula_sum "Si O2"
_cell_formula_units_Z 30
_cell_length_a 12.759660
_cell_length_b 10.578130
_cell_length_c 13.968113
_cell_angle_alpha 90.000000
_cell_angle_beta 52.175803
_cell_angle_gamma 90.000000
_cell_volume 1489.209204
_symmetry_space_group_name_H-M "P 2/C"
_symmetry_group_IT_number 13
_symmetry_cell_setting 'monoclinic'
loop_
_space_group_symop_operation_xyz
x,y,z
-x,y,1/2-z
-x,-y,-z
x,-y,1/2+z
loop_
_atom_site_type_symbol
_atom_site_label
_atom_site_fract_x
_atom_site_fract_y
_atom_site_fract_z
Si Si1 0.703322 0.340493 0.485890
Si Si2 0.500000 0.221567 0.250000
Si Si3 0.674398 0.637866 0.503963
Si Si4 0.072308 0.668644 0.508125
Si Si5 0.454897 0.193898 0.569470
Si Si6 0.960000 0.604420 0.382522
Si Si7 0.884621 0.808791 0.745142
Si Si8 0.363423 0.941732 0.683795
O O1 0.669323 0.487377 0.492666
O O2 0.778274 0.297574 0.542142
O O3 0.565301 0.267363 0.567887
O O4 0.798272 0.302279 0.343568
O O5 0.439966 0.316852 0.361018
O O6 0.615491 0.129469 0.226719
O O7 0.651200 0.706750 0.414851
O O8 0.817444 0.673579 0.468067
O O9 0.047340 0.536745 0.575126
O O10 0.063556 0.671571 0.397274
O O11 0.956147 0.760206 0.609611
O O12 0.522726 0.116675 0.446237
O O13 0.381816 0.093333 0.680027
O O14 0.000000 0.607274 0.250000
O O15 0.785150 0.921009 0.772464
O O16 0.000000 0.861846 0.750000
#
# Coordination Sequence:
#
# PCOD8117688 Si02
#       8
#     4   2   4   4   4   4   4   4
#     4   9  17  31  53  83 114 143 179 227 283 337
#     4  10  20  34  54  78 106 142 188 228 270 334
#     4  10  19  33  54  81 112 144 178 227 284 337
#     4   9  17  30  51  78 108 144 179 218 269 327
#     4   9  18  33  52  73 103 141 180 223 273 322
#     4  10  19  32  50  77 114 147 178 219 273 332
#     4   9  16  30  55  81 106 140 185 228 270 329
#     4   9  18  33  52  73  99 139 185 225 265 318
#
# _framework density 20.144921
#
# number of rings (size 3 to 8) (size 9 to 14) (size 15 to 20)
#    0.000    2.667    0.000    3.200    0.000    0.000 
#    0.000    9.333    0.000    0.000    0.000   11.200 
#    0.000    0.000    0.000    0.000    0.000    0.000 
#
# Total GULP energy -371754.690647 kJ/mol
# GULP energy per Si atom -12391.823022 kJ/mol
# Density = 2.009907 g / cm^3
# Si number density = 20.144921 Si / 1000 Ang^3
#
#
#
# Elastic Constant Matrix: (Units=GPa)
#
#
# Indices 1 2 3 4 5 6 
#
# 1 155.3504 73.8674 39.9047 0.0000 -1.6519 0.0000
# 2 73.8674 108.9386 33.0516 0.0000 -10.8280 0.0000
# 3 39.9047 33.0516 51.7797 0.0000 8.1859 0.0000
# 4 0.0000 0.0000 0.0000 17.6561 0.0000 -3.8861
# 5 -1.6519 -10.8280 8.1859 0.0000 31.4103 0.0000
# 6 0.0000 0.0000 0.0000 -3.8861 0.0000 9.3299
#
#
#
# Elastic Compliance Matrix: (Units=1/GPa)
#
#
# Indices 1 2 3 4 5 6 
#
# 1 0.010214 -0.005688 -0.004188 0.000000 -0.000332 0.000000
# 2 -0.005688 0.015780 -0.006781 0.000000 0.006908 0.000000
# 3 -0.004188 -0.006781 0.028445 0.000000 -0.009971 0.000000
# 4 0.000000 0.000000 0.000000 0.062354 0.000000 0.025972
# 5 -0.000332 0.006908 -0.009971 0.000000 0.036799 0.000000
# 6 0.000000 0.000000 0.000000 0.025972 0.000000 0.118000
#
#
# Mechanical properties :
#
#
# Convention : Reuss Voigt Hill
#
# Bulk Modulus (GPa) = 47.33876 67.74624 57.54250
# Shear Modulus (GPa) = 16.02824 22.96225 19.49524
#
# Velocity S-wave (km/s) = 2.82378 3.37983 3.11424
# Velocity P-wave (km/s) = 5.84652 6.99525 6.44652
#
# Compressibility (1/GPa) = 0.02112434
#
# Stress axis : x y z
#
# Youngs Moduli (GPa) = 97.90514 63.36967 35.15514
#
# Poissons Ratio (x) = 0.36045 0.14724
# Poissons Ratio (y) = 0.55689 0.23840
# Poissons Ratio (z) = 0.41005 0.42973
#
# Static dielectric constant tensor:
#      x y z
#    x 4.183640 0.000000 -0.016950 
#    y 0.000000 3.545010 0.000000 
#    z -0.016950 0.000000 3.327310 
# 
# 
# High freq. dielectric constant tensor:
#      x y z
#    x 1.807440 0.000000 -0.005240 
#    y 0.000000 1.764980 0.000000 
#    z -0.005240 0.000000 1.755350 
# 
# From -- ./inp_files/51162.got.cif
#   From: 2010.06.25/outbox.cif.g09.slc.cpg/sg13_26_cif.got.tgz:51162.got - 2010.06.28 04:50:58.
