data_PCOD8117316
_publ_section_title
;
Structure prediction by ZEFSAII (Michael W. Deem and Ramdas Pophale) SiO2 
 PCOD8117316
Probable space group: P 2/C
;
_chemical_formula_sum "Si O2"
_cell_formula_units_Z 28
_cell_length_a 11.384455
_cell_length_b 8.797326
_cell_length_c 16.999806
_cell_angle_alpha 90.000000
_cell_angle_beta 121.190633
_cell_angle_gamma 90.000000
_cell_volume 1456.468135
_symmetry_space_group_name_H-M "P 2/C"
_symmetry_group_IT_number 13
_symmetry_cell_setting 'monoclinic'
loop_
_space_group_symop_operation_xyz
x,y,z
-x,y,1/2-z
-x,-y,-z
x,-y,1/2+z
loop_
_atom_site_type_symbol
_atom_site_label
_atom_site_fract_x
_atom_site_fract_y
_atom_site_fract_z
Si Si1 0.730280 0.496584 0.782240
Si Si2 0.860025 0.068386 0.917386
Si Si3 0.297299 0.332728 0.567310
Si Si4 0.963248 0.278874 0.826956
Si Si5 0.655790 0.794160 0.832965
Si Si6 0.438894 0.386851 0.915474
Si Si7 0.251134 0.350675 0.981223
O O1 0.676485 0.397875 0.836699
O O2 0.738728 0.673998 0.807612
O O3 0.618351 0.485523 0.675665
O O4 0.877774 0.436198 0.802874
O O5 0.808404 0.192652 0.963849
O O6 0.879102 0.141915 0.837548
O O7 0.739168 0.949575 0.860749
O O8 0.000000 0.000000 0.000000
O O9 0.442236 0.277094 0.578794
O O10 0.240290 0.467674 0.491815
O O11 0.096880 0.290674 0.928310
O O12 0.000000 0.240756 0.750000
O O13 0.500000 0.820163 0.750000
O O14 0.654630 0.729700 0.921063
O O15 0.315967 0.301900 0.918750
O O16 0.500000 0.500000 0.000000
#
# Coordination Sequence:
#
# PCOD8117316 Si02
#       7
#     4   4   4   4   4   4   4
#     4  10  20  35  64  88 118 152 204 256 303 350
#     4  11  24  41  61  85 127 169 206 244 299 371
#     4   9  21  35  61  88 113 158 205 250 301 358
#     4  11  22  40  62  92 122 161 198 254 308 359
#     4  11  23  41  62  91 124 162 207 248 302 366
#     4  10  18  34  57  91 121 146 195 261 307 346
#     4  10  20  38  64  90 123 152 201 260 309 350
#
# _framework density 19.224588000000001
#
# number of rings (size 3 to 8) (size 9 to 14) (size 15 to 20)
#    0.000    1.714    2.857    3.000    2.000    4.000 
#    0.000    5.714    0.000    0.000    0.000    0.000 
#    0.000    0.000    0.000    0.000    0.000    0.000 
#
# Total GULP energy -347028.070879 kJ/mol
# GULP energy per Si atom -12393.859674 kJ/mol
# Density = 1.918083 g / cm^3
# Si number density = 19.224588 Si / 1000 Ang^3
#
#
#
# Elastic Constant Matrix: (Units=GPa)
#
#
# Indices 1 2 3 4 5 6 
#
# 1 130.6386 63.1350 44.1627 0.0000 -4.7209 0.0000
# 2 63.1350 107.3156 30.4466 0.0000 0.0950 0.0000
# 3 44.1627 30.4466 90.5973 0.0000 3.3980 0.0000
# 4 0.0000 0.0000 0.0000 18.1238 0.0000 5.1998
# 5 -4.7209 0.0950 3.3980 0.0000 43.1134 0.0000
# 6 0.0000 0.0000 0.0000 5.1998 0.0000 31.7011
#
#
#
# Elastic Compliance Matrix: (Units=1/GPa)
#
#
# Indices 1 2 3 4 5 6 
#
# 1 0.011864 -0.005884 -0.003866 0.000000 0.001617 0.000000
# 2 -0.005884 0.013221 -0.001554 0.000000 -0.000551 0.000000
# 3 -0.003866 -0.001554 0.013501 0.000000 -0.001484 0.000000
# 4 0.000000 0.000000 0.000000 0.057901 0.000000 -0.009497
# 5 0.001617 -0.000551 -0.001484 0.000000 0.023490 0.000000
# 6 0.000000 0.000000 0.000000 -0.009497 0.000000 0.033102
#
#
# Mechanical properties :
#
#
# Convention : Reuss Voigt Hill
#
# Bulk Modulus (GPa) = 62.59283 67.11554 64.85418
# Shear Modulus (GPa) = 27.62213 31.30812 29.46513
#
# Velocity S-wave (km/s) = 3.79464 4.03990 3.91919
# Velocity P-wave (km/s) = 7.19920 7.53314 7.36806
#
# Compressibility (1/GPa) = 0.01597627
#
# Stress axis : x y z
#
# Youngs Moduli (GPa) = 84.28975 75.63449 74.07095
#
# Poissons Ratio (x) = 0.44504 0.28638
# Poissons Ratio (y) = 0.49597 0.11513
# Poissons Ratio (z) = 0.32589 0.11756
#
# Static dielectric constant tensor:
#      x y z
#    x 4.319270 0.000000 -0.220000 
#    y 0.000000 3.379580 0.000000 
#    z -0.220000 0.000000 3.569090 
# 
# 
# High freq. dielectric constant tensor:
#      x y z
#    x 1.766050 0.000000 -0.000670 
#    y 0.000000 1.717490 0.000000 
#    z -0.000670 0.000000 1.753090 
# 
# From -- ./inp_files/50100.got.cif
#   From: 2010.06.25/outbox.cif.g09.slc.cpg/sg13_26_cif.got.tgz:50100.got - 2010.06.28 04:50:58.
