data_PCOD8117250
_publ_section_title
;
Structure prediction by ZEFSAII (Michael W. Deem and Ramdas Pophale) SiO2 
 PCOD8117250
Probable space group: P 2/C
;
_chemical_formula_sum "Si O2"
_cell_formula_units_Z 24
_cell_length_a 16.574533
_cell_length_b 10.249106
_cell_length_c 22.197163
_cell_angle_alpha 90.000000
_cell_angle_beta 19.232629
_cell_angle_gamma 90.000000
_cell_volume 1242.093110
_symmetry_space_group_name_H-M "P 2/C"
_symmetry_group_IT_number 13
_symmetry_cell_setting 'monoclinic'
loop_
_space_group_symop_operation_xyz
x,y,z
-x,y,1/2-z
-x,-y,-z
x,-y,1/2+z
loop_
_atom_site_type_symbol
_atom_site_label
_atom_site_fract_x
_atom_site_fract_y
_atom_site_fract_z
Si Si1 0.072802 0.378566 0.370519
Si Si2 0.685510 0.489277 0.564457
Si Si3 0.700791 0.378613 0.742623
Si Si4 0.293270 0.129607 0.260055
Si Si5 0.079718 0.870418 0.366894
Si Si6 0.185028 0.781980 0.065015
O O1 0.256022 0.500037 0.243893
O O2 0.230246 0.246700 0.258225
O O3 0.914241 0.400044 0.422393
O O4 0.901454 0.375616 0.549248
O O5 0.500000 0.514126 0.750000
O O6 0.567418 0.400099 0.595823
O O7 0.760308 0.632182 0.489665
O O8 0.723938 0.246702 0.764612
O O9 0.123983 0.132977 0.437982
O O10 0.244354 0.999982 0.255612
O O11 0.570767 0.140893 0.087538
O O12 0.937283 0.859079 0.404339
O O13 0.000000 0.785429 0.250000
#
# Coordination Sequence:
#
# PCOD8117250 Si02
#       6
#     4   4   4   4   4   4
#     4   9  16  29  55  87 112 139 179 234 285 320
#     4  10  18  33  58  82 112 148 192 236 279 333
#     4   9  16  29  55  87 112 139 179 234 285 320
#     4  10  21  38  61  87 113 145 191 239 283 336
#     4  10  21  38  61  87 113 145 191 239 283 336
#     4  12  24  37  56  82 116 154 188 226 289 347
#
# _framework density 19.322223000000001
#
# number of rings (size 3 to 8) (size 9 to 14) (size 15 to 20)
#    0.000    2.000    3.333    1.500    0.000    2.000 
#    0.000    8.333    0.000    2.000    0.000    0.000 
#    0.000    0.000    0.000    0.000    0.000    0.000 
#
# Total GULP energy -297503.596864 kJ/mol
# GULP energy per Si atom -12395.983203 kJ/mol
# Density = 1.927824 g / cm^3
# Si number density = 19.322223 Si / 1000 Ang^3
#
#
#
# Elastic Constant Matrix: (Units=GPa)
#
#
# Indices 1 2 3 4 5 6 
#
# 1 127.1468 83.7733 67.1964 0.0000 -54.3946 0.0000
# 2 83.7733 176.5554 53.7080 0.0000 -37.8154 0.0000
# 3 67.1964 53.7080 62.4889 0.0000 -26.9252 0.0000
# 4 0.0000 0.0000 0.0000 15.9503 0.0000 -14.2928
# 5 -54.3946 -37.8154 -26.9252 0.0000 42.8449 0.0000
# 6 0.0000 0.0000 0.0000 -14.2928 0.0000 27.3405
#
#
#
# Elastic Compliance Matrix: (Units=1/GPa)
#
#
# Indices 1 2 3 4 5 6 
#
# 1 0.030704 -0.003498 -0.019946 0.000000 0.023359 0.000000
# 2 -0.003498 0.008496 -0.003048 0.000000 0.001142 0.000000
# 3 -0.019946 -0.003048 0.038398 0.000000 -0.003882 0.000000
# 4 0.000000 0.000000 0.000000 0.117946 0.000000 0.061659
# 5 0.023359 0.001142 -0.003882 0.000000 0.051564 0.000000
# 6 0.000000 0.000000 0.000000 0.061659 0.000000 0.068809
#
#
# Mechanical properties :
#
#
# Convention : Reuss Voigt Hill
#
# Bulk Modulus (GPa) = 40.62745 86.17183 63.39964
# Shear Modulus (GPa) = 13.25890 27.99471 20.62681
#
# Velocity S-wave (km/s) = 2.62238 3.81049 3.27083
# Velocity P-wave (km/s) = 5.49919 8.00336 6.86640
#
# Compressibility (1/GPa) = 0.02461390
#
# Stress axis : x y z
#
# Youngs Moduli (GPa) = 32.56904 117.70904 26.04287
#
# Poissons Ratio (x) = 0.41176 0.51944
# Poissons Ratio (y) = 0.11393 0.07938
# Poissons Ratio (z) = 0.64961 0.35880
#
# Static dielectric constant tensor:
#      x y z
#    x 3.614290 0.000000 -0.388230 
#    y 0.000000 3.723720 0.000000 
#    z -0.388230 0.000000 3.304410 
# 
# 
# High freq. dielectric constant tensor:
#      x y z
#    x 1.752010 0.000000 -0.032000 
#    y 0.000000 1.753830 0.000000 
#    z -0.032000 0.000000 1.726460 
# 
# From -- ./inp_files/80137.got.cif
#   From: 2010.06.25/outbox.cif.g09.slc.cpg/sg13_41_cif.got.tgz:80137.got - 2010.06.28 04:50:58.
