data_PCOD8117351
_publ_section_title
;
Structure prediction by ZEFSAII (Michael W. Deem and Ramdas Pophale) SiO2 
 PCOD8117351
Probable space group: P 2/C
;
_chemical_formula_sum "Si O2"
_cell_formula_units_Z 30
_cell_length_a 4.979155
_cell_length_b 15.311939
_cell_length_c 19.186448
_cell_angle_alpha 90.000000
_cell_angle_beta 85.486464
_cell_angle_gamma 90.000000
_cell_volume 1458.248295
_symmetry_space_group_name_H-M "P 2/C"
_symmetry_group_IT_number 13
_symmetry_cell_setting 'monoclinic'
loop_
_space_group_symop_operation_xyz
x,y,z
-x,y,1/2-z
-x,-y,-z
x,-y,1/2+z
loop_
_atom_site_type_symbol
_atom_site_label
_atom_site_fract_x
_atom_site_fract_y
_atom_site_fract_z
Si Si1 0.412048 0.261840 0.120420
Si Si2 0.094198 0.205465 0.588513
Si Si3 0.054809 0.833833 0.933078
Si Si4 0.747732 0.390590 0.964686
Si Si5 0.215553 0.417125 0.053283
Si Si6 0.157724 0.035566 0.318942
Si Si7 0.500000 0.819999 0.750000
Si Si8 0.568932 0.852907 0.170638
O O1 0.720284 0.235072 0.099167
O O2 0.337369 0.364287 0.116170
O O3 0.323500 0.239078 0.201367
O O4 0.233814 0.211659 0.067436
O O5 0.095241 0.153868 0.515053
O O6 0.195646 0.305594 0.583255
O O7 0.293431 0.150240 0.633166
O O8 0.800465 0.205834 0.630723
O O9 0.016282 0.928034 0.892941
O O10 0.823099 0.481415 0.924333
O O11 0.431269 0.398910 0.987120
O O12 0.927842 0.382101 0.031343
O O13 0.341049 0.953570 0.332249
O O14 0.000000 0.015266 0.250000
O O15 0.329049 0.121199 0.303988
O O16 0.500000 0.820414 0.250000
#
# Coordination Sequence:
#
# PCOD8117351 Si02
#       8
#     4   4   4   4   4   4   2   4
#     4  11  19  36  57  96 125 163 197 244 312 375
#     4  12  23  42  63  94 125 159 212 265 318 354
#     4  11  23  36  64  93 128 159 199 263 312 369
#     4  10  20  34  60  94 119 163 196 252 304 362
#     4  10  18  34  60  91 130 154 201 241 303 379
#     4  11  22  42  61  88 126 163 213 247 314 378
#     4  10  22  34  64  84 124 160 206 248 304 376
#     4  12  27  43  65  85 117 168 217 264 309 381
#
# _framework density 20.572628999999999
#
# number of rings (size 3 to 8) (size 9 to 14) (size 15 to 20)
#    0.000    1.067    4.667    2.800    0.000    1.067 
#    0.000    0.000    1.467    0.000    6.933    0.000 
#    0.000    0.000    0.000    0.000    0.000    0.000 
#
# Total GULP energy -371649.080586 kJ/mol
# GULP energy per Si atom -12388.302686 kJ/mol
# Density = 2.052581 g / cm^3
# Si number density = 20.572629 Si / 1000 Ang^3
#
#
#
# Elastic Constant Matrix: (Units=GPa)
#
#
# Indices 1 2 3 4 5 6 
#
# 1 65.2013 4.6945 16.8450 0.0000 6.0913 0.0000
# 2 4.6945 88.7868 53.7142 0.0000 3.2106 0.0000
# 3 16.8450 53.7142 108.7977 0.0000 9.2855 0.0000
# 4 0.0000 0.0000 0.0000 28.7677 0.0000 6.3687
# 5 6.0913 3.2106 9.2855 0.0000 37.0460 0.0000
# 6 0.0000 0.0000 0.0000 6.3687 0.0000 27.9738
#
#
#
# Elastic Compliance Matrix: (Units=1/GPa)
#
#
# Indices 1 2 3 4 5 6 
#
# 1 0.016180 0.000896 -0.002773 0.000000 -0.002043 0.000000
# 2 0.000896 0.016123 -0.008141 0.000000 0.000496 0.000000
# 3 -0.002773 -0.008141 0.013837 0.000000 -0.002307 0.000000
# 4 0.000000 0.000000 0.000000 0.036606 0.000000 -0.008334
# 5 -0.002043 0.000496 -0.002307 0.000000 0.027865 0.000000
# 6 0.000000 0.000000 0.000000 -0.008334 0.000000 0.037645
#
#
# Mechanical properties :
#
#
# Convention : Reuss Voigt Hill
#
# Bulk Modulus (GPa) = 38.30916 45.92148 42.11532
# Shear Modulus (GPa) = 28.24975 31.25964 29.75470
#
# Velocity S-wave (km/s) = 3.70965 3.90228 3.80718
# Velocity P-wave (km/s) = 6.08363 6.53252 6.31206
#
# Compressibility (1/GPa) = 0.02610342
#
# Stress axis : x y z
#
# Youngs Moduli (GPa) = 61.80497 62.02417 72.27072
#
# Poissons Ratio (x) = -0.05558 0.20042
# Poissons Ratio (y) = -0.05538 0.58835
# Poissons Ratio (z) = 0.17140 0.50494
#
# Static dielectric constant tensor:
#      x y z
#    x 3.817830 0.000000 0.060540 
#    y 0.000000 3.839950 0.000000 
#    z 0.060540 0.000000 3.749960 
# 
# 
# High freq. dielectric constant tensor:
#      x y z
#    x 1.818150 0.000000 0.009300 
#    y 0.000000 1.803580 0.000000 
#    z 0.009300 0.000000 1.782380 
# 
# From -- ./inp_files/61409.got.cif
#   From: 2010.06.25/outbox.cif.g09.slc.cpg/sg13_31_cif.got.tgz:61409.got - 2010.06.28 04:50:58.
