data_PCOD8117573
_publ_section_title
;
Structure prediction by ZEFSAII (Michael W. Deem and Ramdas Pophale) SiO2 
 PCOD8117573
Probable space group: P 2/C
;
_chemical_formula_sum "Si O2"
_cell_formula_units_Z 28
_cell_length_a 9.511579
_cell_length_b 9.553570
_cell_length_c 15.458069
_cell_angle_alpha 90.000000
_cell_angle_beta 118.031413
_cell_angle_gamma 90.000000
_cell_volume 1239.886098
_symmetry_space_group_name_H-M "P 2/C"
_symmetry_group_IT_number 13
_symmetry_cell_setting 'monoclinic'
loop_
_space_group_symop_operation_xyz
x,y,z
-x,y,1/2-z
-x,-y,-z
x,-y,1/2+z
loop_
_atom_site_type_symbol
_atom_site_label
_atom_site_fract_x
_atom_site_fract_y
_atom_site_fract_z
Si Si1 0.184373 0.989896 0.315000
Si Si2 0.698748 0.311977 0.612882
Si Si3 0.164240 0.194253 0.455954
Si Si4 0.810433 0.806901 0.825462
Si Si5 0.384234 0.361216 0.099800
Si Si6 0.402326 0.325629 0.636499
Si Si7 0.247011 0.389513 0.332665
O O1 0.219352 0.826908 0.328324
O O2 0.000000 0.019861 0.250000
O O3 0.238549 0.066402 0.420003
O O4 0.259696 0.061314 0.250423
O O5 0.715141 0.331935 0.515546
O O6 0.513255 0.312662 0.584068
O O7 0.782220 0.444290 0.683289
O O8 0.256350 0.217245 0.574552
O O9 0.195397 0.337966 0.412544
O O10 0.977983 0.163963 0.423393
O O11 0.672158 0.758140 0.850066
O O12 0.858456 0.684952 0.770917
O O13 0.342218 0.513852 0.127963
O O14 0.570479 0.348323 0.135737
O O15 0.500000 0.278967 0.750000
#
# Coordination Sequence:
#
# PCOD8117573 Si02
#       7
#     4   4   4   4   4   4   4
#     4   9  22  43  62  91 134 173 210 262 321 381
#     4  11  21  40  64  91 126 169 212 264 317 372
#     4  10  20  42  63  89 128 168 213 259 318 377
#     4  10  22  39  66  93 126 172 209 258 321 383
#     4  11  20  39  64  95 125 166 209 267 321 372
#     4  11  22  41  64  92 128 164 212 271 316 372
#     4  10  18  39  67  91 124 162 215 264 310 380
#
# _framework density 22.582719999999998
#
# number of rings (size 3 to 8) (size 9 to 14) (size 15 to 20)
#    0.000    1.714    2.857    4.286    0.000    2.286 
#    5.143    1.429    0.000    0.000    0.000    0.000 
#    0.000    0.000    0.000    0.000    0.000    0.000 
#
# Total GULP energy -347071.155848 kJ/mol
# GULP energy per Si atom -12395.398423 kJ/mol
# Density = 2.253132 g / cm^3
# Si number density = 22.582720 Si / 1000 Ang^3
#
#
#
# Elastic Constant Matrix: (Units=GPa)
#
#
# Indices 1 2 3 4 5 6 
#
# 1 52.1308 18.4003 15.6746 0.0000 -7.0408 0.0000
# 2 18.4003 138.5586 41.9517 0.0000 0.4639 0.0000
# 3 15.6746 41.9517 129.8575 0.0000 0.6970 0.0000
# 4 0.0000 0.0000 0.0000 29.7051 0.0000 -1.9293
# 5 -7.0408 0.4639 0.6970 0.0000 26.8819 0.0000
# 6 0.0000 0.0000 0.0000 -1.9293 0.0000 18.9361
#
#
#
# Elastic Compliance Matrix: (Units=1/GPa)
#
#
# Indices 1 2 3 4 5 6 
#
# 1 0.021316 -0.002285 -0.001865 0.000000 0.005671 0.000000
# 2 -0.002285 0.008245 -0.002384 0.000000 -0.000679 0.000000
# 3 -0.001865 -0.002384 0.008700 0.000000 -0.000673 0.000000
# 4 0.000000 0.000000 0.000000 0.033888 0.000000 0.003453
# 5 0.005671 -0.000679 -0.000673 0.000000 0.038714 0.000000
# 6 0.000000 0.000000 0.000000 0.003453 0.000000 0.053161
#
#
# Mechanical properties :
#
#
# Convention : Reuss Voigt Hill
#
# Bulk Modulus (GPa) = 39.69564 52.51114 46.10339
# Shear Modulus (GPa) = 26.95570 31.40597 29.18084
#
# Velocity S-wave (km/s) = 3.45866 3.73327 3.59858
# Velocity P-wave (km/s) = 5.79360 6.47196 6.14215
#
# Compressibility (1/GPa) = 0.02519169
#
# Stress axis : x y z
#
# Youngs Moduli (GPa) = 46.91364 121.29000 114.94651
#
# Poissons Ratio (x) = 0.27714 0.21440
# Poissons Ratio (y) = 0.10720 0.27404
# Poissons Ratio (z) = 0.08750 0.28916
#
# Static dielectric constant tensor:
#      x y z
#    x 3.746630 0.000000 -0.042260 
#    y 0.000000 4.009190 0.000000 
#    z -0.042260 0.000000 4.070960 
# 
# 
# High freq. dielectric constant tensor:
#      x y z
#    x 1.867700 0.000000 -0.002260 
#    y 0.000000 1.880610 0.000000 
#    z -0.002260 0.000000 1.888880 
# 
# From -- ./inp_files/50170.got.cif
#   From: 2010.06.25/outbox.cif.g09.slc.cpg/sg13_26_cif.got.tgz:50170.got - 2010.06.28 04:50:58.
