data_PCOD8117618
_publ_section_title
;
Structure prediction by ZEFSAII (Michael W. Deem and Ramdas Pophale) SiO2 
 PCOD8117618
Probable space group: P 2/C
;
_chemical_formula_sum "Si O2"
_cell_formula_units_Z 26
_cell_length_a 12.206511
_cell_length_b 11.227981
_cell_length_c 18.827751
_cell_angle_alpha 90.000000
_cell_angle_beta 39.536672
_cell_angle_gamma 90.000000
_cell_volume 1642.627808
_symmetry_space_group_name_H-M "P 2/C"
_symmetry_group_IT_number 13
_symmetry_cell_setting 'monoclinic'
loop_
_space_group_symop_operation_xyz
x,y,z
-x,y,1/2-z
-x,-y,-z
x,-y,1/2+z
loop_
_atom_site_type_symbol
_atom_site_label
_atom_site_fract_x
_atom_site_fract_y
_atom_site_fract_z
Si Si1 1.000000 0.687579 0.494038
Si Si2 0.651271 0.227162 0.627437
Si Si3 0.349742 0.588046 0.494224
Si Si4 0.349743 0.588046 0.656034
Si Si5 0.651270 0.772838 0.721292
Si Si6 0.500000 0.000000 0.750000
Si Si7 0.000000 0.502652 0.382197
O O1 0.830414 0.765703 0.589821
O O2 1.000000 0.636390 0.413748
O O3 0.169586 0.765703 0.420235
O O4 0.000000 0.583216 0.550901
O O5 0.500000 0.289270 0.750000
O O6 0.655977 0.291010 0.548839
O O7 0.612356 0.085102 0.641295
O O8 0.383911 0.626894 0.558044
O O9 0.499999 0.500000 0.391868
O O10 0.169335 0.518081 0.580146
O O11 0.344023 0.708990 0.704816
O O12 0.169336 0.518080 0.750519
O O13 0.500000 0.710730 0.750000
O O14 0.612356 0.914898 0.746349
#
# Coordination Sequence:
#
# PCOD8117618 Si02
#       7
#     4   4   4   4   4   2   4
#     4   9  16  27  50  71  91 128 154 192 250 283
#     4   9  18  33  48  69  98 123 166 205 236 282
#     4  10  19  30  48  73 100 128 153 193 251 300
#     4  10  19  30  48  73 100 128 153 193 251 300
#     4   9  18  33  48  69  98 123 166 205 236 282
#     4   8  20  34  48  68  98 124 170 220 228 260
#     4   9  17  28  44  75 100 119 155 191 235 305
#
# _framework density 15.828296
#
# number of rings (size 3 to 8) (size 9 to 14) (size 15 to 20)
#    0.923    1.846    0.000    2.308    0.000    3.692 
#    0.000    0.769    0.000    0.000    0.000    0.000 
#    0.000    0.000    0.000    0.000    0.000    0.000 
#
# Total GULP energy -322173.138377 kJ/mol
# GULP energy per Si atom -12391.274553 kJ/mol
# Density = 1.579227 g / cm^3
# Si number density = 15.828296 Si / 1000 Ang^3
#
#
#
# Elastic Constant Matrix: (Units=GPa)
#
#
# Indices 1 2 3 4 5 6 
#
# 1 74.9405 43.0302 40.3183 0.0000 -10.6938 0.0000
# 2 43.0302 105.4342 43.9828 0.0000 -1.3733 0.0000
# 3 40.3183 43.9828 97.2325 0.0000 -21.4441 0.0000
# 4 0.0000 0.0000 0.0000 24.5992 0.0000 -4.0456
# 5 -10.6938 -1.3733 -21.4441 0.0000 36.5186 0.0000
# 6 0.0000 0.0000 0.0000 -4.0456 0.0000 21.7931
#
#
#
# Elastic Compliance Matrix: (Units=1/GPa)
#
#
# Indices 1 2 3 4 5 6 
#
# 1 0.019817 -0.006006 -0.004906 0.000000 0.002696 0.000000
# 2 -0.006006 0.013817 -0.004633 0.000000 -0.003960 0.000000
# 3 -0.004906 -0.004633 0.016151 0.000000 0.007873 0.000000
# 4 0.000000 0.000000 0.000000 0.041932 0.000000 0.007784
# 5 0.002696 -0.003960 0.007873 0.000000 0.032647 0.000000
# 6 0.000000 0.000000 0.000000 0.007784 0.000000 0.047331
#
#
# Mechanical properties :
#
#
# Convention : Reuss Voigt Hill
#
# Bulk Modulus (GPa) = 53.48951 59.14110 56.31531
# Shear Modulus (GPa) = 23.92172 26.60057 25.26115
#
# Velocity S-wave (km/s) = 3.89180 4.10392 3.99927
# Velocity P-wave (km/s) = 7.35267 7.73961 7.54862
#
# Compressibility (1/GPa) = 0.01869525
#
# Stress axis : x y z
#
# Youngs Moduli (GPa) = 50.46285 72.37538 61.91645
#
# Poissons Ratio (x) = 0.43469 0.30374
# Poissons Ratio (y) = 0.30308 0.28685
# Poissons Ratio (z) = 0.24755 0.33530
#
# Static dielectric constant tensor:
#      x y z
#    x 2.929690 0.000000 -0.221060 
#    y 0.000000 2.742800 0.000000 
#    z -0.221060 0.000000 3.083030 
# 
# 
# High freq. dielectric constant tensor:
#      x y z
#    x 1.601990 0.000000 -0.018270 
#    y 0.000000 1.579350 0.000000 
#    z -0.018270 0.000000 1.614660 
# 
# From -- ./inp_files/78366.got.cif
#   From: 2010.06.25/outbox.cif.g09.slc.cpg/sg13_40_cif.got.tgz:78366.got - 2010.06.28 04:50:58.
