data_PCOD8117054
_publ_section_title
;
Structure prediction by ZEFSAII (Michael W. Deem and Ramdas Pophale) SiO2 
 PCOD8117054
Probable space group: P 2/C
;
_chemical_formula_sum "Si O2"
_cell_formula_units_Z 18
_cell_length_a 7.419967
_cell_length_b 8.245748
_cell_length_c 17.635760
_cell_angle_alpha 90.000000
_cell_angle_beta 65.998016
_cell_angle_gamma 90.000000
_cell_volume 985.711171
_symmetry_space_group_name_H-M "P 2/C"
_symmetry_group_IT_number 13
_symmetry_cell_setting 'monoclinic'
loop_
_space_group_symop_operation_xyz
x,y,z
-x,y,1/2-z
-x,-y,-z
x,-y,1/2+z
loop_
_atom_site_type_symbol
_atom_site_label
_atom_site_fract_x
_atom_site_fract_y
_atom_site_fract_z
Si Si1 0.522723 0.187161 0.833720
Si Si2 0.897121 0.917540 0.087910
Si Si3 0.111109 0.310886 0.659585
Si Si4 0.000000 0.381747 0.250000
Si Si5 0.702027 0.127210 0.247623
O O1 0.500000 0.247233 0.750000
O O2 0.303641 0.171013 0.905715
O O3 0.652524 0.306329 0.864114
O O4 0.638385 0.015398 0.816099
O O5 0.048382 0.782334 0.094450
O O6 0.844346 0.055261 0.158175
O O7 0.000000 0.000000 0.000000
O O8 0.000000 0.224211 0.750000
O O9 0.042827 0.500673 0.669823
O O10 0.190641 0.271479 0.227975
O O11 0.500000 0.203214 0.250000
#
# Coordination Sequence:
#
# PCOD8117054 Si02
#       5
#     4   4   4   2   4
#     4   9  16  32  54  75  96 130 177 211 237 291
#     4  10  20  34  53  77 102 130 168 214 253 287
#     4  10  18  31  53  75  99 129 169 206 244 296
#     4  10  18  30  52  78  98 130 170 204 244 298
#     4   9  17  30  51  74  96 129 169 207 242 295
#
# _framework density 18.260926999999999
#
# number of rings (size 3 to 8) (size 9 to 14) (size 15 to 20)
#    0.667    2.222    4.444    1.333    0.000    3.556 
#    0.000    1.111    0.000    6.667    0.000    0.000 
#    0.000    0.000    0.000    0.000    0.000    0.000 
#
# Total GULP energy -222997.917675 kJ/mol
# GULP energy per Si atom -12388.773204 kJ/mol
# Density = 1.821936 g / cm^3
# Si number density = 18.260927 Si / 1000 Ang^3
#
#
#
# Elastic Constant Matrix: (Units=GPa)
#
#
# Indices 1 2 3 4 5 6 
#
# 1 111.0567 42.0704 6.9886 0.0000 -17.5518 0.0000
# 2 42.0704 65.3519 3.8065 0.0000 6.4714 0.0000
# 3 6.9886 3.8065 42.4975 0.0000 -9.9092 0.0000
# 4 0.0000 0.0000 0.0000 14.3316 0.0000 -1.1907
# 5 -17.5518 6.4714 -9.9092 0.0000 20.2954 0.0000
# 6 0.0000 0.0000 0.0000 -1.1907 0.0000 19.0243
#
#
#
# Elastic Compliance Matrix: (Units=1/GPa)
#
#
# Indices 1 2 3 4 5 6 
#
# 1 0.017032 -0.013175 0.003152 0.000000 0.020470 0.000000
# 2 -0.013175 0.026321 -0.005422 0.000000 -0.022434 0.000000
# 3 0.003152 -0.005422 0.027689 0.000000 0.017974 0.000000
# 4 0.000000 0.000000 0.000000 0.070141 0.000000 0.004390
# 5 0.020470 -0.022434 0.017974 0.000000 0.082904 0.000000
# 6 0.000000 0.000000 0.000000 0.004390 0.000000 0.052839
#
#
# Mechanical properties :
#
#
# Convention : Reuss Voigt Hill
#
# Bulk Modulus (GPa) = 24.90523 36.07082 30.48802
# Shear Modulus (GPa) = 15.56667 21.79962 18.68315
#
# Velocity S-wave (km/s) = 2.92286 3.45887 3.20210
# Velocity P-wave (km/s) = 5.00589 5.97893 5.51391
#
# Compressibility (1/GPa) = 0.04015221
#
# Stress axis : x y z
#
# Youngs Moduli (GPa) = 58.71263 37.99315 36.11529
#
# Poissons Ratio (x) = 0.50056 -0.11384
# Poissons Ratio (y) = 0.77354 0.19581
# Poissons Ratio (z) = -0.18507 0.20599
#
# Static dielectric constant tensor:
#      x y z
#    x 3.581060 0.000000 -0.251310 
#    y 0.000000 3.129840 0.000000 
#    z -0.251310 0.000000 2.889470 
# 
# 
# High freq. dielectric constant tensor:
#      x y z
#    x 1.724420 0.000000 -0.023980 
#    y 0.000000 1.687350 0.000000 
#    z -0.023980 0.000000 1.654470 
# 
# From -- ./inp_files/74789.got.cif
#   From: 2010.06.25/outbox.cif.g09.slc.cpg/sg13_38_cif.got.tgz:74789.got - 2010.06.28 04:50:58.
