data_PCOD8117942
_publ_section_title
;
Structure prediction by ZEFSAII (Michael W. Deem and Ramdas Pophale) SiO2 
 PCOD8117942
Probable space group: P 2/C
;
_chemical_formula_sum "Si O2"
_cell_formula_units_Z 28
_cell_length_a 11.885058
_cell_length_b 8.886412
_cell_length_c 14.296006
_cell_angle_alpha 90.000000
_cell_angle_beta 67.713952
_cell_angle_gamma 90.000000
_cell_volume 1397.095249
_symmetry_space_group_name_H-M "P 2/C"
_symmetry_group_IT_number 13
_symmetry_cell_setting 'monoclinic'
loop_
_space_group_symop_operation_xyz
x,y,z
-x,y,1/2-z
-x,-y,-z
x,-y,1/2+z
loop_
_atom_site_type_symbol
_atom_site_label
_atom_site_fract_x
_atom_site_fract_y
_atom_site_fract_z
Si Si1 0.090197 0.893557 0.651303
Si Si2 0.223278 0.903916 0.427809
Si Si3 0.471389 0.958775 0.904497
Si Si4 0.812372 0.550311 0.063566
Si Si5 0.002225 0.566294 0.852863
Si Si6 0.613951 0.666982 0.656562
Si Si7 0.726110 0.899139 0.748633
O O1 0.137512 0.969468 0.539838
O O2 0.009907 0.747116 0.650304
O O3 0.212387 0.858013 0.672017
O O4 0.000000 0.989714 0.750000
O O5 0.199995 0.728348 0.423747
O O6 0.365686 0.931394 0.401976
O O7 0.189980 0.989062 0.341494
O O8 0.427183 0.785166 0.910331
O O9 0.593984 0.977617 0.804765
O O10 0.500000 0.000000 0.000000
O O11 0.680650 0.475532 0.089607
O O12 0.872920 0.483408 0.137931
O O13 0.890225 0.502651 0.948535
O O14 0.000000 0.494242 0.750000
O O15 0.500000 0.603571 0.750000
O O16 0.708530 0.745805 0.697449
#
# Coordination Sequence:
#
# PCOD8117942 Si02
#       7
#     4   4   4   4   4   4   4
#     4  10  19  34  59  82 109 153 194 225 275 343
#     4  10  21  36  58  85 114 147 187 243 287 333
#     4  10  19  38  60  80 114 152 190 233 288 340
#     4  10  20  38  59  87 115 146 191 238 284 333
#     4   9  19  37  61  79 112 157 184 227 283 341
#     4   9  19  33  57  83 111 151 189 228 282 349
#     4  10  20  37  60  82 113 155 190 229 287 341
#
# _framework density 20.041581000000001
#
# number of rings (size 3 to 8) (size 9 to 14) (size 15 to 20)
#    0.000    2.286    1.429    3.000    0.000    1.714 
#    2.571    4.286    0.000    0.000    0.000    0.000 
#    0.000    0.000    0.000    0.000    0.000    0.000 
#
# Total GULP energy -346972.140991 kJ/mol
# GULP energy per Si atom -12391.862178 kJ/mol
# Density = 1.999597 g / cm^3
# Si number density = 20.041581 Si / 1000 Ang^3
#
#
#
# Elastic Constant Matrix: (Units=GPa)
#
#
# Indices 1 2 3 4 5 6 
#
# 1 53.8830 23.3565 25.5973 0.0000 -10.2928 0.0000
# 2 23.3565 59.4910 39.4414 0.0000 -10.0845 0.0000
# 3 25.5973 39.4414 129.8973 0.0000 -9.5248 0.0000
# 4 0.0000 0.0000 0.0000 21.7574 0.0000 -8.2068
# 5 -10.2928 -10.0845 -9.5248 0.0000 38.6228 0.0000
# 6 0.0000 0.0000 0.0000 -8.2068 0.0000 29.4829
#
#
#
# Elastic Compliance Matrix: (Units=1/GPa)
#
#
# Indices 1 2 3 4 5 6 
#
# 1 0.023402 -0.007093 -0.002176 0.000000 0.003848 0.000000
# 2 -0.007093 0.023818 -0.005618 0.000000 0.002943 0.000000
# 3 -0.002176 -0.005618 0.009861 0.000000 0.000385 0.000000
# 4 0.000000 0.000000 0.000000 0.051353 0.000000 0.014295
# 5 0.003848 0.002943 0.000385 0.000000 0.027780 0.000000
# 6 0.000000 0.000000 0.000000 0.014295 0.000000 0.037897
#
#
# Mechanical properties :
#
#
# Convention : Reuss Voigt Hill
#
# Bulk Modulus (GPa) = 36.62087 46.67353 41.64720
# Shear Modulus (GPa) = 23.47549 28.29770 25.88660
#
# Velocity S-wave (km/s) = 3.42620 3.76167 3.59784
# Velocity P-wave (km/s) = 5.82785 6.49660 6.17129
#
# Compressibility (1/GPa) = 0.02730683
#
# Stress axis : x y z
#
# Youngs Moduli (GPa) = 42.73150 41.98543 101.40646
#
# Poissons Ratio (x) = 0.29780 0.22063
# Poissons Ratio (y) = 0.30310 0.56974
# Poissons Ratio (z) = 0.09297 0.23589
#
# Static dielectric constant tensor:
#      x y z
#    x 3.726230 0.000000 -0.121020 
#    y 0.000000 3.223330 0.000000 
#    z -0.121020 0.000000 4.282700 
# 
# 
# High freq. dielectric constant tensor:
#      x y z
#    x 1.789940 0.000000 -0.008670 
#    y 0.000000 1.737330 0.000000 
#    z -0.008670 0.000000 1.800350 
# 
# From -- ./inp_files/49981.got.cif
#   From: 2010.06.25/outbox.cif.g09.slc.cpg/sg13_25_cif.got.tgz:49981.got - 2010.06.28 04:50:58.
