data_PCOD8117429
_publ_section_title
;
Structure prediction by ZEFSAII (Michael W. Deem and Ramdas Pophale) SiO2 
 PCOD8117429
Probable space group: P 2/C
;
_chemical_formula_sum "Si O2"
_cell_formula_units_Z 20
_cell_length_a 27.940061
_cell_length_b 5.100663
_cell_length_c 17.195261
_cell_angle_alpha 90.000000
_cell_angle_beta 22.923355
_cell_angle_gamma 90.000000
_cell_volume 954.485995
_symmetry_space_group_name_H-M "P 2/C"
_symmetry_group_IT_number 13
_symmetry_cell_setting 'monoclinic'
loop_
_space_group_symop_operation_xyz
x,y,z
-x,y,1/2-z
-x,-y,-z
x,-y,1/2+z
loop_
_atom_site_type_symbol
_atom_site_label
_atom_site_fract_x
_atom_site_fract_y
_atom_site_fract_z
Si Si1 0.442514 0.580086 0.254116
Si Si2 0.820361 0.534992 0.305675
Si Si3 0.057824 0.702167 0.013999
Si Si4 0.461542 0.914717 0.972586
Si Si5 0.192810 0.792357 0.329711
O O1 0.500000 0.494866 0.250000
O O2 0.295283 0.599133 0.479589
O O3 0.473488 0.358448 0.144813
O O4 0.499485 0.859127 0.145746
O O5 0.776662 0.756229 0.308350
O O6 0.910385 0.660632 0.236345
O O7 0.897450 0.311559 0.143700
O O8 0.130815 0.477213 0.953907
O O9 0.092213 0.983244 0.996532
O O10 0.315689 0.869178 0.190781
O O11 0.500000 0.000000 0.000000
#
# Coordination Sequence:
#
# PCOD8117429 Si02
#       5
#     4   4   4   4   4
#     4  12  23  39  65  91 120 154 213 258 293 355
#     4   9  20  32  59  90 117 142 200 256 297 339
#     4   9  19  31  57  90 117 145 186 261 304 339
#     4  12  26  41  59  87 129 168 194 246 319 373
#     4  10  18  36  55  82 116 154 195 233 298 360
#
# _framework density 20.953685
#
# number of rings (size 3 to 8) (size 9 to 14) (size 15 to 20)
#    1.200    0.400    2.000    4.200    2.800    0.000 
#    0.000    0.000    0.000    7.200    0.000    0.000 
#    0.000    0.000    0.000    0.000    0.000    0.000 
#
# Total GULP energy -247904.509616 kJ/mol
# GULP energy per Si atom -12395.225481 kJ/mol
# Density = 2.090599 g / cm^3
# Si number density = 20.953685 Si / 1000 Ang^3
#
#
#
# Elastic Constant Matrix: (Units=GPa)
#
#
# Indices 1 2 3 4 5 6 
#
# 1 78.4846 4.2839 27.6348 0.0000 -21.4680 0.0000
# 2 4.2839 94.4960 0.4722 0.0000 -3.1339 0.0000
# 3 27.6348 0.4722 74.5576 0.0000 -28.2056 0.0000
# 4 0.0000 0.0000 0.0000 23.6852 0.0000 -3.7293
# 5 -21.4680 -3.1339 -28.2056 0.0000 29.4206 0.0000
# 6 0.0000 0.0000 0.0000 -3.7293 0.0000 25.9608
#
#
#
# Elastic Compliance Matrix: (Units=1/GPa)
#
#
# Indices 1 2 3 4 5 6 
#
# 1 0.016204 -0.000409 -0.002427 0.000000 0.009454 0.000000
# 2 -0.000409 0.010646 0.000628 0.000000 0.001438 0.000000
# 3 -0.002427 0.000628 0.021439 0.000000 0.018849 0.000000
# 4 0.000000 0.000000 0.000000 0.043197 0.000000 0.006205
# 5 0.009454 0.001438 0.018849 0.000000 0.059112 0.000000
# 6 0.000000 0.000000 0.000000 0.006205 0.000000 0.039411
#
#
# Mechanical properties :
#
#
# Convention : Reuss Voigt Hill
#
# Bulk Modulus (GPa) = 22.79337 34.70223 28.74780
# Shear Modulus (GPa) = 23.91782 30.15649 27.03715
#
# Velocity S-wave (km/s) = 3.38222 3.79779 3.59601
# Velocity P-wave (km/s) = 5.11411 5.98567 5.56698
#
# Compressibility (1/GPa) = 0.04387240
#
# Stress axis : x y z
#
# Youngs Moduli (GPa) = 61.71276 93.93608 46.64420
#
# Poissons Ratio (x) = 0.03842 0.11321
# Poissons Ratio (y) = 0.02524 -0.02929
# Poissons Ratio (z) = 0.14979 -0.05899
#
# Static dielectric constant tensor:
#      x y z
#    x 3.416780 0.000000 -0.277380 
#    y 0.000000 3.761210 0.000000 
#    z -0.277380 0.000000 3.702540 
# 
# 
# High freq. dielectric constant tensor:
#      x y z
#    x 1.783910 0.000000 -0.039780 
#    y 0.000000 1.826600 0.000000 
#    z -0.039780 0.000000 1.807120 
# 
# From -- ./inp_files/71977.got.cif
#   From: 2010.06.25/outbox.cif.g09.slc.cpg/sg13_36_cif.got.tgz:71977.got - 2010.06.28 04:50:58.
