data_PCOD8117157
_publ_section_title
;
Structure prediction by ZEFSAII (Michael W. Deem and Ramdas Pophale) SiO2 
 PCOD8117157
Probable space group: P 2/C
;
_chemical_formula_sum "Si O2"
_cell_formula_units_Z 16
_cell_length_a 4.985807
_cell_length_b 8.711942
_cell_length_c 19.749183
_cell_angle_alpha 90.000000
_cell_angle_beta 114.829717
_cell_angle_gamma 90.000000
_cell_volume 778.529055
_symmetry_space_group_name_H-M "P 2/C"
_symmetry_group_IT_number 13
_symmetry_cell_setting 'monoclinic'
loop_
_space_group_symop_operation_xyz
x,y,z
-x,y,1/2-z
-x,-y,-z
x,-y,1/2+z
loop_
_atom_site_type_symbol
_atom_site_label
_atom_site_fract_x
_atom_site_fract_y
_atom_site_fract_z
Si Si1 0.851387 0.408939 0.667991
Si Si2 0.680216 0.937090 0.456977
Si Si3 0.312671 0.074499 0.796883
Si Si4 0.220917 0.409017 0.571434
O O1 0.768619 0.237344 0.679958
O O2 0.543035 0.492715 0.613426
O O3 0.000000 0.490727 0.750000
O O4 0.081252 0.398141 0.631042
O O5 0.519825 0.009972 0.373671
O O6 0.710915 0.753921 0.455943
O O7 0.500000 0.000000 0.500000
O O8 0.000000 0.000000 0.500000
O O9 0.500000 0.097374 0.750000
O O10 0.000000 0.985980 0.750000
O O11 0.000000 0.500000 0.500000
#
# Coordination Sequence:
#
# PCOD8117157 Si02
#       4
#     4   4   4   4
#     4  10  18  33  56  82 107 139 187 237 274 319
#     4  11  21  35  56  82 110 143 181 227 277 331
#     4  10  18  32  54  81 105 135 182 233 271 313
#     4  11  22  36  56  83 113 147 182 229 284 337
#
# _framework density 20.551577999999999
#
# number of rings (size 3 to 8) (size 9 to 14) (size 15 to 20)
#    0.000    1.500    0.000   12.000    0.000    0.000 
#    0.000    0.000    0.000   15.000    0.000    0.000 
#    0.000    0.000    0.000    0.000    0.000    0.000 
#
# Total GULP energy -198227.848140 kJ/mol
# GULP energy per Si atom -12389.240509 kJ/mol
# Density = 2.050480 g / cm^3
# Si number density = 20.551578 Si / 1000 Ang^3
#
#
#
# Elastic Constant Matrix: (Units=GPa)
#
#
# Indices 1 2 3 4 5 6 
#
# 1 169.8168 31.9048 79.0722 0.0000 8.7100 0.0000
# 2 31.9048 39.1559 43.7401 0.0000 1.6020 0.0000
# 3 79.0722 43.7401 188.4991 0.0000 26.4324 0.0000
# 4 0.0000 0.0000 0.0000 17.5637 0.0000 8.4754
# 5 8.7100 1.6020 26.4324 0.0000 73.6562 0.0000
# 6 0.0000 0.0000 0.0000 8.4754 0.0000 23.1991
#
#
#
# Elastic Compliance Matrix: (Units=1/GPa)
#
#
# Indices 1 2 3 4 5 6 
#
# 1 0.007674 -0.003582 -0.002392 0.000000 0.000029 0.000000
# 2 -0.003582 0.036500 -0.007281 0.000000 0.002243 0.000000
# 3 -0.002392 -0.007281 0.008357 0.000000 -0.002558 0.000000
# 4 0.000000 0.000000 0.000000 0.069121 0.000000 -0.025252
# 5 0.000029 0.002243 -0.002558 0.000000 0.014442 0.000000
# 6 0.000000 0.000000 0.000000 -0.025252 0.000000 0.052331
#
#
# Mechanical properties :
#
#
# Convention : Reuss Voigt Hill
#
# Bulk Modulus (GPa) = 38.43255 78.54510 58.48882
# Shear Modulus (GPa) = 22.36051 39.06746 30.71398
#
# Velocity S-wave (km/s) = 3.30209 4.36471 3.87005
# Velocity P-wave (km/s) = 5.76884 7.98138 6.96355
#
# Compressibility (1/GPa) = 0.02601961
#
# Stress axis : x y z
#
# Youngs Moduli (GPa) = 130.31042 27.39739 119.66420
#
# Poissons Ratio (x) = 0.09814 0.28623
# Poissons Ratio (y) = 0.46678 0.87133
# Poissons Ratio (z) = 0.31170 0.19949
#
# Static dielectric constant tensor:
#      x y z
#    x 5.143140 0.000000 1.506900 
#    y 0.000000 3.184540 0.000000 
#    z 1.506900 0.000000 5.388710 
# 
# 
# High freq. dielectric constant tensor:
#      x y z
#    x 1.839640 0.000000 0.016070 
#    y 0.000000 1.723390 0.000000 
#    z 0.016070 0.000000 1.841680 
# 
# From -- ./inp_files/60304.got.cif
#   From: 2010.06.25/outbox.cif.g09.slc.cpg/sg13_31_cif.got.tgz:60304.got - 2010.06.28 04:50:58.
