data_PCOD8117380
_publ_section_title
;
Structure prediction by ZEFSAII (Michael W. Deem and Ramdas Pophale) SiO2 
 PCOD8117380
Probable space group: P 2/C
;
_chemical_formula_sum "Si O2"
_cell_formula_units_Z 24
_cell_length_a 13.854229
_cell_length_b 9.553845
_cell_length_c 17.573111
_cell_angle_alpha 90.000000
_cell_angle_beta 33.692292
_cell_angle_gamma 90.000000
_cell_volume 1290.306293
_symmetry_space_group_name_H-M "P 2/C"
_symmetry_group_IT_number 13
_symmetry_cell_setting 'monoclinic'
loop_
_space_group_symop_operation_xyz
x,y,z
-x,y,1/2-z
-x,-y,-z
x,-y,1/2+z
loop_
_atom_site_type_symbol
_atom_site_label
_atom_site_fract_x
_atom_site_fract_y
_atom_site_fract_z
Si Si1 0.980957 0.782637 0.349547
Si Si2 0.981395 0.448353 0.347175
Si Si3 0.689910 0.416433 0.645580
Si Si4 0.176464 0.174237 0.861912
Si Si5 0.832398 0.668540 0.642655
Si Si6 0.307231 0.103030 0.352071
O O1 0.980188 0.615363 0.353022
O O2 0.801262 0.841972 0.503495
O O3 0.000000 0.835799 0.250000
O O4 0.148806 0.838170 0.288449
O O5 0.798861 0.384731 0.497482
O O6 0.000000 0.393955 0.250000
O O7 0.146215 0.380139 0.284180
O O8 0.500000 0.474768 0.750000
O O9 0.668326 0.278840 0.713507
O O10 0.809100 0.529036 0.609454
O O11 0.205080 0.025511 0.881636
O O12 0.001599 0.246908 0.006054
O O13 0.675460 0.775671 0.724895
O O14 0.500000 0.057890 0.250000
#
# Coordination Sequence:
#
# PCOD8117380 Si02
#       6
#     4   4   4   4   4   4
#     4  10  19  35  57  80 105 143 182 216 268 322
#     4  10  19  34  55  82 109 139 179 220 268 320
#     4  11  19  33  56  82 108 136 180 227 264 307
#     4  10  19  37  55  79 106 151 179 209 265 332
#     4  10  18  35  56  79 104 142 182 213 261 321
#     4  11  22  36  56  83 108 140 183 223 262 314
#
# _framework density 18.600235000000001
#
# number of rings (size 3 to 8) (size 9 to 14) (size 15 to 20)
#    0.000    1.667    5.000    4.000    0.000    0.000 
#    0.000   10.833    0.000    0.000    0.000    0.000 
#    0.000    0.000    0.000    0.000    0.000    0.000 
#
# Total GULP energy -297346.908075 kJ/mol
# GULP energy per Si atom -12389.454503 kJ/mol
# Density = 1.855790 g / cm^3
# Si number density = 18.600235 Si / 1000 Ang^3
#
#
#
# Elastic Constant Matrix: (Units=GPa)
#
#
# Indices 1 2 3 4 5 6 
#
# 1 152.8458 45.3969 70.9064 0.0000 22.3151 0.0000
# 2 45.3969 89.9293 25.3161 0.0000 15.2790 0.0000
# 3 70.9064 25.3161 66.5009 0.0000 7.2894 0.0000
# 4 0.0000 0.0000 0.0000 13.7738 0.0000 -3.4749
# 5 22.3151 15.2790 7.2894 0.0000 31.4464 0.0000
# 6 0.0000 0.0000 0.0000 -3.4749 0.0000 36.9551
#
#
#
# Elastic Compliance Matrix: (Units=1/GPa)
#
#
# Indices 1 2 3 4 5 6 
#
# 1 0.014647 -0.002429 -0.014039 0.000000 -0.005959 0.000000
# 2 -0.002429 0.013702 -0.002140 0.000000 -0.004438 0.000000
# 3 -0.014039 -0.002140 0.030388 0.000000 0.003958 0.000000
# 4 0.000000 0.000000 0.000000 0.074366 0.000000 0.006993
# 5 -0.005959 -0.004438 0.003958 0.000000 0.037268 0.000000
# 6 0.000000 0.000000 0.000000 0.006993 0.000000 0.027717
#
#
# Mechanical properties :
#
#
# Convention : Reuss Voigt Hill
#
# Bulk Modulus (GPa) = 46.46772 65.83497 56.15134
# Shear Modulus (GPa) = 20.62042 27.61216 24.11629
#
# Velocity S-wave (km/s) = 3.33319 3.85711 3.60468
# Velocity P-wave (km/s) = 6.31270 7.43693 6.89775
#
# Compressibility (1/GPa) = 0.02152031
#
# Stress axis : x y z
#
# Youngs Moduli (GPa) = 68.27304 72.97947 32.90821
#
# Poissons Ratio (x) = 0.17728 0.46201
# Poissons Ratio (y) = 0.16585 0.07042
# Poissons Ratio (z) = 0.95851 0.15616
#
# Static dielectric constant tensor:
#      x y z
#    x 4.123140 0.000000 0.083410 
#    y 0.000000 3.605160 0.000000 
#    z 0.083410 0.000000 3.055510 
# 
# 
# High freq. dielectric constant tensor:
#      x y z
#    x 1.740690 0.000000 -0.004320 
#    y 0.000000 1.729780 0.000000 
#    z -0.004320 0.000000 1.668680 
# 
# From -- ./inp_files/68084.got.cif
#   From: 2010.06.25/outbox.cif.g09.slc.cpg/sg13_35_cif.got.tgz:68084.got - 2010.06.28 04:50:58.
