data_PCOD8117381
_publ_section_title
;
Structure prediction by ZEFSAII (Michael W. Deem and Ramdas Pophale) SiO2 
 PCOD8117381
Probable space group: P 2/C
;
_chemical_formula_sum "Si O2"
_cell_formula_units_Z 20
_cell_length_a 22.155938
_cell_length_b 8.611671
_cell_length_c 5.338671
_cell_angle_alpha 90.000000
_cell_angle_beta 68.234136
_cell_angle_gamma 90.000000
_cell_volume 945.996238
_symmetry_space_group_name_H-M "P 2/C"
_symmetry_group_IT_number 13
_symmetry_cell_setting 'monoclinic'
loop_
_space_group_symop_operation_xyz
x,y,z
-x,y,1/2-z
-x,-y,-z
x,-y,1/2+z
loop_
_atom_site_type_symbol
_atom_site_label
_atom_site_fract_x
_atom_site_fract_y
_atom_site_fract_z
Si Si1 0.927294 0.436189 0.108281
Si Si2 0.574599 0.597087 0.635300
Si Si3 0.105510 0.086948 0.358210
Si Si4 0.690983 0.185862 0.954999
Si Si5 0.743314 0.151592 0.374498
O O1 0.891013 0.497300 0.415825
O O2 0.928727 0.252119 0.100353
O O3 0.000000 0.500000 0.000000
O O4 0.500000 0.651158 0.750000
O O5 0.590704 0.499806 0.360711
O O6 0.617129 0.754037 0.569631
O O7 0.182956 0.097217 0.237081
O O8 0.081612 0.006246 0.650588
O O9 0.727487 0.250585 0.648950
O O10 0.695630 0.998672 0.947129
O O11 0.727903 0.250245 0.147411
#
# Coordination Sequence:
#
# PCOD8117381 Si02
#       5
#     4   4   4   4   4
#     4  10  23  45  64  90 135 164 202 264 311 366
#     4  10  21  37  55  78 115 160 203 242 291 366
#     4  12  21  40  69  96 122 170 212 255 317 382
#     4  10  18  35  56  82 115 147 188 251 294 348
#     4  10  19  35  58  82 118 142 189 249 303 354
#
# _framework density 21.141731
#
# number of rings (size 3 to 8) (size 9 to 14) (size 15 to 20)
#    0.000    1.600    4.000    2.400    0.000    0.000 
#    0.000   22.000    0.000    0.000    0.000    0.000 
#    0.000    0.000    0.000    0.000    0.000    0.000 
#
# Total GULP energy -247861.797565 kJ/mol
# GULP energy per Si atom -12393.089878 kJ/mol
# Density = 2.109361 g / cm^3
# Si number density = 21.141731 Si / 1000 Ang^3
#
#
#
# Elastic Constant Matrix: (Units=GPa)
#
#
# Indices 1 2 3 4 5 6 
#
# 1 69.4764 59.0464 65.4687 0.0000 15.2616 0.0000
# 2 59.0464 117.4135 41.6233 0.0000 3.7586 0.0000
# 3 65.4687 41.6233 149.3170 0.0000 73.2883 0.0000
# 4 0.0000 0.0000 0.0000 30.4028 0.0000 -1.2355
# 5 15.2616 3.7586 73.2883 0.0000 48.7258 0.0000
# 6 0.0000 0.0000 0.0000 -1.2355 0.0000 33.0282
#
#
#
# Elastic Compliance Matrix: (Units=1/GPa)
#
#
# Indices 1 2 3 4 5 6 
#
# 1 0.070073 -0.015632 -0.061835 0.000000 0.072265 0.000000
# 2 -0.015632 0.015389 0.002840 0.000000 -0.000563 0.000000
# 3 -0.061835 0.002840 0.090233 0.000000 -0.116571 0.000000
# 4 0.000000 0.000000 0.000000 0.032942 0.000000 0.001232
# 5 0.072265 -0.000563 -0.116571 0.000000 0.173266 0.000000
# 6 0.000000 0.000000 0.000000 0.001232 0.000000 0.030323
#
#
# Mechanical properties :
#
#
# Convention : Reuss Voigt Hill
#
# Bulk Modulus (GPa) = 37.81910 74.27595 56.04753
# Shear Modulus (GPa) = 8.76742 33.76926 21.26834
#
# Velocity S-wave (km/s) = 2.03862 4.00093 3.17517
# Velocity P-wave (km/s) = 4.84443 7.52010 6.32536
#
# Compressibility (1/GPa) = 0.02644166
#
# Stress axis : x y z
#
# Youngs Moduli (GPa) = 14.27090 64.98136 11.08241
#
# Poissons Ratio (x) = 1.01577 0.68529
# Poissons Ratio (y) = 0.22308 -0.03148
# Poissons Ratio (z) = 0.88245 -0.18458
#
# Static dielectric constant tensor:
#      x y z
#    x 2.626970 0.000000 -1.564680 
#    y 0.000000 3.480170 0.000000 
#    z -1.564680 0.000000 0.758960 
# 
# 
# High freq. dielectric constant tensor:
#      x y z
#    x 1.820050 0.000000 0.032670 
#    y 0.000000 1.792580 0.000000 
#    z 0.032670 0.000000 1.861610 
# 
# From -- ./inp_files/6690.got.cif
#   From: 2010.06.25/outbox.cif.g09.slc.cpg/sg13_4_cif.got.tgz:6690.got - 2010.06.28 04:50:58.
