data_PCOD8117778
_publ_section_title
;
Structure prediction by ZEFSAII (Michael W. Deem and Ramdas Pophale) SiO2 
 PCOD8117778
Probable space group: P 2/C
;
_chemical_formula_sum "Si O2"
_cell_formula_units_Z 26
_cell_length_a 35.076260
_cell_length_b 7.881100
_cell_length_c 5.162161
_cell_angle_alpha 90.000000
_cell_angle_beta 111.374803
_cell_angle_gamma 90.000000
_cell_volume 1328.869033
_symmetry_space_group_name_H-M "P 2/C"
_symmetry_group_IT_number 13
_symmetry_cell_setting 'monoclinic'
loop_
_space_group_symop_operation_xyz
x,y,z
-x,y,1/2-z
-x,-y,-z
x,-y,1/2+z
loop_
_atom_site_type_symbol
_atom_site_label
_atom_site_fract_x
_atom_site_fract_y
_atom_site_fract_z
Si Si1 0.903725 0.613292 0.784760
Si Si2 0.981920 0.807815 0.955355
Si Si3 0.188367 0.606625 0.985126
Si Si4 0.747021 0.106217 0.854750
Si Si5 0.500000 0.385855 0.250000
Si Si6 0.654813 0.107441 0.679130
Si Si7 0.412098 0.612750 0.494392
O O1 0.912206 0.481474 0.575242
O O2 0.932741 0.781189 0.834957
O O3 0.857334 0.682713 0.658338
O O4 0.000000 0.713001 0.750000
O O5 0.000000 0.712745 0.250000
O O6 0.000000 0.000000 0.000000
O O7 0.194924 0.542769 0.293576
O O8 0.221108 0.748503 0.001026
O O9 0.700993 0.178568 0.768867
O O10 0.754164 0.042506 0.580685
O O11 0.500000 0.500000 0.500000
O O12 0.543750 0.286670 0.365033
O O13 0.624248 0.258739 0.545242
O O14 0.647085 0.961334 0.448370
O O15 0.408492 0.464803 0.698702
#
# Coordination Sequence:
#
# PCOD8117778 Si02
#       7
#     4   4   4   4   2   4   4
#     4  10  21  37  57  81 108 140 173 213 264 308
#     4  10  21  37  53  78 110 136 174 215 253 298
#     4  10  21  38  59  84 113 140 179 227 268 315
#     4  10  21  38  56  82 111 147 181 217 272 331
#     4   8  16  30  48  72 104 136 174 232 274 316
#     4  10  21  36  53  76 114 143 175 225 278 322
#     4  10  19  33  54  78 103 140 189 226 271 326
#
# _framework density 19.565508999999999
#
# number of rings (size 3 to 8) (size 9 to 14) (size 15 to 20)
#    0.000    2.154    0.000    2.769    0.000    3.077 
#    5.538    0.769    0.000    0.000    0.000    0.000 
#    0.000    0.000    0.000    0.000    0.000    0.000 
#
# Total GULP energy -322177.995117 kJ/mol
# GULP energy per Si atom -12391.461351 kJ/mol
# Density = 1.952098 g / cm^3
# Si number density = 19.565509 Si / 1000 Ang^3
#
#
#
# Elastic Constant Matrix: (Units=GPa)
#
#
# Indices 1 2 3 4 5 6 
#
# 1 130.7691 53.4401 51.8918 0.0000 26.0724 0.0000
# 2 53.4401 51.4880 17.9517 0.0000 30.5947 0.0000
# 3 51.8918 17.9517 105.6554 0.0000 -1.9499 0.0000
# 4 0.0000 0.0000 0.0000 9.4892 0.0000 0.1559
# 5 26.0724 30.5947 -1.9499 0.0000 52.9708 0.0000
# 6 0.0000 0.0000 0.0000 0.1559 0.0000 10.5724
#
#
#
# Elastic Compliance Matrix: (Units=1/GPa)
#
#
# Indices 1 2 3 4 5 6 
#
# 1 0.015598 -0.014808 -0.005132 0.000000 0.000686 0.000000
# 2 -0.014808 0.046985 -0.001077 0.000000 -0.019889 0.000000
# 3 -0.005132 -0.001077 0.012235 0.000000 0.003599 0.000000
# 4 0.000000 0.000000 0.000000 0.105408 0.000000 -0.001554
# 5 0.000686 -0.019889 0.003599 0.000000 0.030160 0.000000
# 6 0.000000 0.000000 0.000000 -0.001554 0.000000 0.094609
#
#
# Mechanical properties :
#
#
# Convention : Reuss Voigt Hill
#
# Bulk Modulus (GPa) = 30.50367 59.38662 44.94514
# Shear Modulus (GPa) = 13.96809 25.58174 19.77492
#
# Velocity S-wave (km/s) = 2.67482 3.61985 3.18260
# Velocity P-wave (km/s) = 5.01636 6.92024 6.04374
#
# Compressibility (1/GPa) = 0.03278294
#
# Stress axis : x y z
#
# Youngs Moduli (GPa) = 64.10956 21.28328 81.73355
#
# Poissons Ratio (x) = 0.31517 0.41948
# Poissons Ratio (y) = 0.94934 0.08805
# Poissons Ratio (z) = 0.32903 0.02293
#
# Static dielectric constant tensor:
#      x y z
#    x 15.723180 0.000000 -28.934050 
#    y 0.000000 2.942520 0.000000 
#    z -28.934050 0.000000 75.577850 
# 
# 
# High freq. dielectric constant tensor:
#      x y z
#    x 1.785150 0.000000 -0.006380 
#    y 0.000000 1.708060 0.000000 
#    z -0.006380 0.000000 1.793880 
# 
# From -- ./inp_files/8068.got.cif
#   From: 2010.06.25/outbox.cif.g09.slc.cpg/sg13_5_cif.got.tgz:8068.got - 2010.06.28 04:50:58.
