data_PCOD8117104
_publ_section_title
;
Structure prediction by ZEFSAII (Michael W. Deem and Ramdas Pophale) SiO2 
 PCOD8117104
Probable space group: P 2/C
;
_chemical_formula_sum "Si O2"
_cell_formula_units_Z 32
_cell_length_a 27.484807
_cell_length_b 9.314485
_cell_length_c 20.803834
_cell_angle_alpha 90.000000
_cell_angle_beta 160.776891
_cell_angle_gamma 90.000000
_cell_volume 1753.547050
_symmetry_space_group_name_H-M "P 2/C"
_symmetry_group_IT_number 13
_symmetry_cell_setting 'monoclinic'
loop_
_space_group_symop_operation_xyz
x,y,z
-x,y,1/2-z
-x,-y,-z
x,-y,1/2+z
loop_
_atom_site_type_symbol
_atom_site_label
_atom_site_fract_x
_atom_site_fract_y
_atom_site_fract_z
Si Si1 0.850346 0.417858 0.241944
Si Si2 0.472989 0.360314 0.643945
Si Si3 0.588529 0.149390 0.537669
Si Si4 0.555980 0.823214 0.508008
Si Si5 0.219640 0.383657 0.151141
Si Si6 0.633159 0.639305 0.796166
Si Si7 0.153178 0.643228 0.159630
Si Si8 0.076964 0.418830 0.782190
O O1 0.863639 0.576613 0.290393
O O2 0.853913 0.445387 0.169664
O O3 0.987448 0.314911 0.430993
O O4 0.702675 0.347450 0.082997
O O5 0.500000 0.305447 0.750000
O O6 0.529306 0.255896 0.657440
O O7 0.535362 0.520642 0.711382
O O8 0.557568 0.175624 0.574293
O O9 0.463252 0.218109 0.335118
O O10 0.746195 0.216286 0.715549
O O11 0.595737 0.981235 0.532657
O O12 0.708543 0.747771 0.720401
O O13 0.318686 0.423601 0.212797
O O14 0.222890 0.524302 0.199156
O O15 0.051085 0.340574 0.919902
O O16 0.781652 0.680782 0.022148
O O17 0.000000 0.481439 0.750000
#
# Coordination Sequence:
#
# PCOD8117104 Si02
#       8
#     4   4   4   4   4   4   4   4
#     4  10  19  31  52  80 109 133 172 225 272 322
#     4  12  21  34  54  80 113 139 171 225 278 325
#     4  10  20  36  58  79 105 147 187 230 258 324
#     4  10  21  36  55  80 110 144 188 221 274 321
#     4   9  17  32  56  78 106 136 174 230 268 316
#     4  10  18  31  54  82 103 138 182 218 271 325
#     4  10  18  32  55  79 104 133 180 226 268 310
#     4   9  18  31  50  80 107 133 173 223 278 325
#
# _framework density 18.248726000000001
#
# number of rings (size 3 to 8) (size 9 to 14) (size 15 to 20)
#    0.000    2.000    3.750    0.750    0.000    2.000 
#    0.000    2.500    2.750    0.000    0.000    0.000 
#    0.000    0.000    0.000    0.000    0.000    0.000 
#
# Total GULP energy -396527.861195 kJ/mol
# GULP energy per Si atom -12391.495662 kJ/mol
# Density = 1.820719 g / cm^3
# Si number density = 18.248726 Si / 1000 Ang^3
#
#
#
# Elastic Constant Matrix: (Units=GPa)
#
#
# Indices 1 2 3 4 5 6 
#
# 1 71.8395 16.2963 23.6757 0.0000 -10.8139 0.0000
# 2 16.2963 68.3187 24.4932 0.0000 -4.8053 0.0000
# 3 23.6757 24.4932 86.3031 0.0000 2.5513 0.0000
# 4 0.0000 0.0000 0.0000 16.9367 0.0000 3.0999
# 5 -10.8139 -4.8053 2.5513 0.0000 31.7951 0.0000
# 6 0.0000 0.0000 0.0000 3.0999 0.0000 19.4020
#
#
#
# Elastic Compliance Matrix: (Units=1/GPa)
#
#
# Indices 1 2 3 4 5 6 
#
# 1 0.016607 -0.002081 -0.004133 0.000000 0.005665 0.000000
# 2 -0.002081 0.016816 -0.004266 0.000000 0.002176 0.000000
# 3 -0.004133 -0.004266 0.014025 0.000000 -0.003176 0.000000
# 4 0.000000 0.000000 0.000000 0.060822 0.000000 -0.009718
# 5 0.005665 0.002176 -0.003176 0.000000 0.033962 0.000000
# 6 0.000000 0.000000 0.000000 -0.009718 0.000000 0.053094
#
#
# Mechanical properties :
#
#
# Convention : Reuss Voigt Hill
#
# Bulk Modulus (GPa) = 37.75171 39.48798 38.61984
# Shear Modulus (GPa) = 22.21091 24.42650 23.31871
#
# Velocity S-wave (km/s) = 3.49251 3.66256 3.57855
# Velocity P-wave (km/s) = 6.08241 6.29059 6.18738
#
# Compressibility (1/GPa) = 0.02648887
#
# Stress axis : x y z
#
# Youngs Moduli (GPa) = 60.21645 59.46664 71.29960
#
# Poissons Ratio (x) = 0.12376 0.29465
# Poissons Ratio (y) = 0.12532 0.30415
# Poissons Ratio (z) = 0.24885 0.25368
#
# Static dielectric constant tensor:
#      x y z
#    x 3.632290 0.000000 -0.057200 
#    y 0.000000 2.881660 0.000000 
#    z -0.057200 0.000000 3.642620 
# 
# 
# High freq. dielectric constant tensor:
#      x y z
#    x 1.727800 0.000000 0.001590 
#    y 0.000000 1.643180 0.000000 
#    z 0.001590 0.000000 1.720020 
# 
# From -- ./inp_files/82535.got.cif
#   From: 2010.06.25/outbox.cif.g09.slc.cpg/sg13_42_cif.got.tgz:82535.got - 2010.06.28 04:50:58.
