data_PCOD8117637
_publ_section_title
;
Structure prediction by ZEFSAII (Michael W. Deem and Ramdas Pophale) SiO2 
 PCOD8117637
Probable space group: P 2/C
;
_chemical_formula_sum "Si O2"
_cell_formula_units_Z 32
_cell_length_a 13.946104
_cell_length_b 9.738848
_cell_length_c 14.178616
_cell_angle_alpha 90.000000
_cell_angle_beta 60.826114
_cell_angle_gamma 90.000000
_cell_volume 1681.436116
_symmetry_space_group_name_H-M "P 2/C"
_symmetry_group_IT_number 13
_symmetry_cell_setting 'monoclinic'
loop_
_space_group_symop_operation_xyz
x,y,z
-x,y,1/2-z
-x,-y,-z
x,-y,1/2+z
loop_
_atom_site_type_symbol
_atom_site_label
_atom_site_fract_x
_atom_site_fract_y
_atom_site_fract_z
Si Si1 0.624623 0.309659 0.692126
Si Si2 0.160714 0.204779 0.457187
Si Si3 0.813684 0.899344 0.078995
Si Si4 0.246074 0.592878 0.199557
Si Si5 0.860485 0.676441 0.723637
Si Si6 0.053325 0.198328 0.819879
Si Si7 0.726051 0.463045 0.026018
Si Si8 0.103676 0.317934 0.088479
O O1 0.500000 0.258404 0.750000
O O2 0.698849 0.181715 0.621790
O O3 0.661179 0.336056 0.782170
O O4 0.631270 0.447448 0.623411
O O5 0.152257 0.205629 0.347674
O O6 0.255736 0.312261 0.439258
O O7 0.047559 0.244664 0.564372
O O8 0.199031 0.049603 0.460658
O O9 0.866407 0.904439 0.159652
O O10 0.902096 0.815590 0.974787
O O11 0.218620 0.449898 0.264302
O O12 0.131247 0.676708 0.248298
O O13 0.298406 0.562692 0.072425
O O14 0.837322 0.727802 0.841403
O O15 0.984331 0.621118 0.662085
O O16 0.000000 0.131513 0.750000
O O17 0.833237 0.556716 0.991120
#
# Coordination Sequence:
#
# PCOD8117637 Si02
#       8
#     4   4   4   4   4   4   4   4
#     4  10  22  42  64  79 105 149 193 245 296 333
#     4  12  21  34  54  84 120 153 184 229 270 337
#     4  10  23  38  52  81 117 153 194 226 278 337
#     4  10  20  35  56  90 114 145 185 234 282 338
#     4  10  19  30  54  81 117 148 186 222 275 330
#     4  11  21  32  53  85 123 162 186 209 271 341
#     4  10  20  36  59  85 111 143 186 238 281 332
#     4   9  19  34  50  80 117 155 180 219 272 342
#
# _framework density 19.031351000000001
#
# number of rings (size 3 to 8) (size 9 to 14) (size 15 to 20)
#    0.000    1.750    3.750    1.125    1.750    2.500 
#    0.000    0.625    0.000    0.750    0.000    0.000 
#    0.000    0.000    0.000    0.000    0.000    0.000 
#
# Total GULP energy -396487.212689 kJ/mol
# GULP energy per Si atom -12390.225397 kJ/mol
# Density = 1.898803 g / cm^3
# Si number density = 19.031351 Si / 1000 Ang^3
#
#
#
# Elastic Constant Matrix: (Units=GPa)
#
#
# Indices 1 2 3 4 5 6 
#
# 1 80.7719 28.8310 34.0646 0.0000 -1.6613 0.0000
# 2 28.8310 92.6864 25.1751 0.0000 7.0273 0.0000
# 3 34.0646 25.1751 71.5316 0.0000 12.6698 0.0000
# 4 0.0000 0.0000 0.0000 17.4174 0.0000 3.5487
# 5 -1.6613 7.0273 12.6698 0.0000 26.6331 0.0000
# 6 0.0000 0.0000 0.0000 3.5487 0.0000 14.6613
#
#
#
# Elastic Compliance Matrix: (Units=1/GPa)
#
#
# Indices 1 2 3 4 5 6 
#
# 1 0.017125 -0.003618 -0.007907 0.000000 0.005784 0.000000
# 2 -0.003618 0.012732 -0.002318 0.000000 -0.002482 0.000000
# 3 -0.007907 -0.002318 0.020246 0.000000 -0.009513 0.000000
# 4 0.000000 0.000000 0.000000 0.060392 0.000000 -0.014618
# 5 0.005784 -0.002482 -0.009513 0.000000 0.043088 0.000000
# 6 0.000000 0.000000 0.000000 -0.014618 0.000000 0.071745
#
#
# Mechanical properties :
#
#
# Convention : Reuss Voigt Hill
#
# Bulk Modulus (GPa) = 44.60761 46.79234 45.69998
# Shear Modulus (GPa) = 19.19474 22.20365 20.69919
#
# Velocity S-wave (km/s) = 3.17927 3.41939 3.30151
# Velocity P-wave (km/s) = 6.08004 6.34271 6.21276
#
# Compressibility (1/GPa) = 0.02241770
#
# Stress axis : x y z
#
# Youngs Moduli (GPa) = 58.39261 78.53965 49.39246
#
# Poissons Ratio (x) = 0.28416 0.39053
# Poissons Ratio (y) = 0.21127 0.11451
# Poissons Ratio (z) = 0.46169 0.18209
#
# Static dielectric constant tensor:
#      x y z
#    x 3.156700 0.000000 0.288750 
#    y 0.000000 3.260360 0.000000 
#    z 0.288750 0.000000 3.660810 
# 
# 
# High freq. dielectric constant tensor:
#      x y z
#    x 1.705830 0.000000 0.029110 
#    y 0.000000 1.722540 0.000000 
#    z 0.029110 0.000000 1.743490 
# 
# From -- ./inp_files/53045.got.cif
#   From: 2010.06.25/outbox.cif.g09.slc.cpg/sg13_27_cif.got.tgz:53045.got - 2010.06.28 04:50:58.
