data_PCOD8117815
_publ_section_title
;
Structure prediction by ZEFSAII (Michael W. Deem and Ramdas Pophale) SiO2 
 PCOD8117815
Probable space group: P 2/C
;
_chemical_formula_sum "Si O2"
_cell_formula_units_Z 24
_cell_length_a 10.935592
_cell_length_b 22.471939
_cell_length_c 13.169762
_cell_angle_alpha 90.000000
_cell_angle_beta 158.553501
_cell_angle_gamma 90.000000
_cell_volume 1183.328417
_symmetry_space_group_name_H-M "P 2/C"
_symmetry_group_IT_number 13
_symmetry_cell_setting 'monoclinic'
loop_
_space_group_symop_operation_xyz
x,y,z
-x,y,1/2-z
-x,-y,-z
x,-y,1/2+z
loop_
_atom_site_type_symbol
_atom_site_label
_atom_site_fract_x
_atom_site_fract_y
_atom_site_fract_z
Si Si1 0.878825 0.028690 0.045362
Si Si2 0.901141 0.903153 0.289854
Si Si3 0.880731 0.257413 0.044498
Si Si4 0.737517 0.448174 0.141402
Si Si5 0.815909 0.140151 0.304735
Si Si6 0.755792 0.622542 0.357781
O O1 0.000000 0.045639 0.250000
O O2 0.907492 0.089637 0.004998
O O3 0.500000 0.006123 0.750000
O O4 0.090000 0.972208 0.165328
O O5 0.000000 0.900137 0.250000
O O6 0.157568 0.860648 0.551644
O O7 0.528463 0.878836 0.012255
O O8 0.000000 0.277785 0.250000
O O9 0.110979 0.204316 0.184537
O O10 0.500000 0.234787 0.750000
O O11 0.912154 0.311096 0.986016
O O12 0.000000 0.464034 0.250000
O O13 0.953553 0.426424 0.404329
O O14 0.500000 0.500000 0.000000
O O15 0.475122 0.394056 0.916515
O O16 0.500000 0.617132 0.250000
#
# Coordination Sequence:
#
# PCOD8117815 Si02
#       6
#     4   4   4   4   4   4
#     4  11  21  36  55  80 107 131 167 226 294 354
#     4  11  23  38  53  72 102 143 185 224 272 342
#     4  11  21  36  57  85 113 141 180 232 287 340
#     4  10  19  33  56  85 116 152 190 230 274 329
#     4  12  22  36  57  80 104 137 179 231 283 334
#     4   9  18  33  54  80 113 146 177 217 273 333
#
# _framework density 20.281773999999999
#
# number of rings (size 3 to 8) (size 9 to 14) (size 15 to 20)
#    0.000    1.333    0.000    9.500    0.000    0.000 
#    0.000    0.000    0.000    6.000    0.000    0.000 
#    0.000    0.000    0.000    0.000    0.000    0.000 
#
# Total GULP energy -297331.747683 kJ/mol
# GULP energy per Si atom -12388.822820 kJ/mol
# Density = 2.023561 g / cm^3
# Si number density = 20.281774 Si / 1000 Ang^3
#
#
#
# Elastic Constant Matrix: (Units=GPa)
#
#
# Indices 1 2 3 4 5 6 
#
# 1 34.5305 29.4936 12.2460 0.0000 -2.0057 0.0000
# 2 29.4936 126.1968 34.3631 0.0000 17.3685 0.0000
# 3 12.2460 34.3631 104.0120 0.0000 0.6302 0.0000
# 4 0.0000 0.0000 0.0000 40.0741 0.0000 5.2790
# 5 -2.0057 17.3685 0.6302 0.0000 31.7863 0.0000
# 6 0.0000 0.0000 0.0000 5.2790 0.0000 22.8665
#
#
#
# Elastic Compliance Matrix: (Units=1/GPa)
#
#
# Indices 1 2 3 4 5 6 
#
# 1 0.038073 -0.009582 -0.001363 0.000000 0.007665 0.000000
# 2 -0.009582 0.011883 -0.002755 0.000000 -0.007043 0.000000
# 3 -0.001363 -0.002755 0.010678 0.000000 0.001208 0.000000
# 4 0.000000 0.000000 0.000000 0.025736 0.000000 -0.005942
# 5 0.007665 -0.007043 0.001208 0.000000 0.035768 0.000000
# 6 0.000000 0.000000 0.000000 -0.005942 0.000000 0.045104
#
#
# Mechanical properties :
#
#
# Convention : Reuss Voigt Hill
#
# Bulk Modulus (GPa) = 30.09058 46.32722 38.20890
# Shear Modulus (GPa) = 24.30489 31.52115 27.91302
#
# Velocity S-wave (km/s) = 3.46549 3.94656 3.71382
# Velocity P-wave (km/s) = 5.55710 6.60746 6.10491
#
# Compressibility (1/GPa) = 0.03323299
#
# Stress axis : x y z
#
# Youngs Moduli (GPa) = 26.26557 84.15373 93.65314
#
# Poissons Ratio (x) = 0.80633 0.12769
# Poissons Ratio (y) = 0.25167 0.25802
# Poissons Ratio (z) = 0.03581 0.23185
#
# Static dielectric constant tensor:
#      x y z
#    x 3.912130 0.000000 -0.825580 
#    y 0.000000 4.363690 0.000000 
#    z -0.825580 0.000000 4.881320 
# 
# 
# High freq. dielectric constant tensor:
#      x y z
#    x 1.759700 0.000000 -0.023590 
#    y 0.000000 1.778370 0.000000 
#    z -0.023590 0.000000 1.821510 
# 
# From -- ./inp_files/51701.got.cif
#   From: 2010.06.25/outbox.cif.g09.slc.cpg/sg13_26_cif.got.tgz:51701.got - 2010.06.28 04:50:58.
