data_PCOD8117102
_publ_section_title
;
Structure prediction by ZEFSAII (Michael W. Deem and Ramdas Pophale) SiO2 
 PCOD8117102
Probable space group: P 2/C
;
_chemical_formula_sum "Si O2"
_cell_formula_units_Z 32
_cell_length_a 17.799864
_cell_length_b 13.422561
_cell_length_c 10.176625
_cell_angle_alpha 90.000000
_cell_angle_beta 132.750654
_cell_angle_gamma 90.000000
_cell_volume 1785.410565
_symmetry_space_group_name_H-M "P 2/C"
_symmetry_group_IT_number 13
_symmetry_cell_setting 'monoclinic'
loop_
_space_group_symop_operation_xyz
x,y,z
-x,y,1/2-z
-x,-y,-z
x,-y,1/2+z
loop_
_atom_site_type_symbol
_atom_site_label
_atom_site_fract_x
_atom_site_fract_y
_atom_site_fract_z
Si Si1 0.892852 0.601231 0.457816
Si Si2 0.127484 0.957616 0.018490
Si Si3 0.436359 0.121386 0.049206
Si Si4 0.124545 0.576867 0.757749
Si Si5 0.427280 0.104477 0.543338
Si Si6 0.256623 0.752996 0.925019
Si Si7 0.905540 0.909504 0.793772
Si Si8 0.260810 0.224968 0.716072
O O1 0.867740 0.559914 0.574832
O O2 0.860989 0.523665 0.306974
O O3 0.827462 0.699404 0.342589
O O4 0.013857 0.624904 0.591353
O O5 0.223553 0.887787 0.153950
O O6 0.141781 0.055543 0.124069
O O7 0.117846 0.988256 0.853239
O O8 0.027258 0.896794 0.949436
O O9 0.500000 0.155830 0.250000
O O10 0.388533 0.010102 0.013774
O O11 0.513317 0.117821 0.019931
O O12 0.352602 0.209232 0.928894
O O13 0.220154 0.646648 0.824079
O O14 0.500000 0.133453 0.750000
O O15 0.332279 0.182062 0.425112
O O16 0.305119 0.738981 0.127734
O O17 0.146340 0.807002 0.811473
#
# Coordination Sequence:
#
# PCOD8117102 Si02
#       8
#     4   4   4   4   4   4   4   4
#     4   9  18  34  56  78 105 133 167 208 257 307
#     4   9  17  29  45  67  99 132 162 194 241 295
#     4  10  21  35  52  76 105 134 171 217 258 292
#     4   9  18  34  55  80 104 133 167 209 254 308
#     4  10  19  35  54  74 101 138 175 211 251 301
#     4  10  18  31  54  75  96 132 176 204 243 306
#     4   9  17  29  44  68 100 131 161 197 237 295
#     4  10  18  32  53  74  97 133 171 208 250 301
#
# _framework density 17.923048999999999
#
# number of rings (size 3 to 8) (size 9 to 14) (size 15 to 20)
#    0.000    2.500    1.250    1.500    0.000    3.000 
#    4.500    0.000    0.000    7.500    0.000    0.000 
#    0.000    0.000    0.000    0.000    0.000    0.000 
#
# Total GULP energy -396463.465443 kJ/mol
# GULP energy per Si atom -12389.483295 kJ/mol
# Density = 1.788226 g / cm^3
# Si number density = 17.923049 Si / 1000 Ang^3
#
#
#
# Elastic Constant Matrix: (Units=GPa)
#
#
# Indices 1 2 3 4 5 6 
#
# 1 48.1536 18.2074 23.8876 0.0000 -1.8506 0.0000
# 2 18.2074 53.8321 40.0568 0.0000 7.2333 0.0000
# 3 23.8876 40.0568 104.5769 0.0000 -5.4963 0.0000
# 4 0.0000 0.0000 0.0000 31.3693 0.0000 5.4568
# 5 -1.8506 7.2333 -5.4963 0.0000 26.3149 0.0000
# 6 0.0000 0.0000 0.0000 5.4568 0.0000 29.8951
#
#
#
# Elastic Compliance Matrix: (Units=1/GPa)
#
#
# Indices 1 2 3 4 5 6 
#
# 1 0.024852 -0.006557 -0.003012 0.000000 0.002921 0.000000
# 2 -0.006557 0.030189 -0.010643 0.000000 -0.010982 0.000000
# 3 -0.003012 -0.010643 0.014630 0.000000 0.005769 0.000000
# 4 0.000000 0.000000 0.000000 0.032924 0.000000 -0.006010
# 5 0.002921 -0.010982 0.005769 0.000000 0.042430 0.000000
# 6 0.000000 0.000000 0.000000 -0.006010 0.000000 0.034547
#
#
# Mechanical properties :
#
#
# Convention : Reuss Voigt Hill
#
# Bulk Modulus (GPa) = 34.19021 41.20735 37.69878
# Shear Modulus (GPa) = 21.76312 25.80992 23.78652
#
# Velocity S-wave (km/s) = 3.48839 3.79890 3.64696
# Velocity P-wave (km/s) = 5.94497 6.50257 6.23001
#
# Compressibility (1/GPa) = 0.02924814
#
# Stress axis : x y z
#
# Youngs Moduli (GPa) = 40.23745 33.12432 68.35203
#
# Poissons Ratio (x) = 0.21720 0.20585
# Poissons Ratio (y) = 0.26385 0.72747
# Poissons Ratio (z) = 0.12118 0.35254
#
# Static dielectric constant tensor:
#      x y z
#    x 3.136710 0.000000 -0.015360 
#    y 0.000000 3.038210 0.000000 
#    z -0.015360 0.000000 3.374950 
# 
# 
# High freq. dielectric constant tensor:
#      x y z
#    x 1.681850 0.000000 -0.002590 
#    y 0.000000 1.656180 0.000000 
#    z -0.002590 0.000000 1.699420 
# 
# From -- ./inp_files/40699.got.cif
#   From: 2010.06.25/outbox.cif.g09.slc.cpg/sg13_21_cif.got.tgz:40699.got - 2010.06.28 04:50:58.
