data_PCOD8117114
_publ_section_title
;
Structure prediction by ZEFSAII (Michael W. Deem and Ramdas Pophale) SiO2 
 PCOD8117114
Probable space group: P 2/C
;
_chemical_formula_sum "Si O2"
_cell_formula_units_Z 18
_cell_length_a 8.939034
_cell_length_b 18.831199
_cell_length_c 5.127682
_cell_angle_alpha 90.000000
_cell_angle_beta 76.663003
_cell_angle_gamma 90.000000
_cell_volume 839.877469
_symmetry_space_group_name_H-M "P 2/C"
_symmetry_group_IT_number 13
_symmetry_cell_setting 'monoclinic'
loop_
_space_group_symop_operation_xyz
x,y,z
-x,y,1/2-z
-x,-y,-z
x,-y,1/2+z
loop_
_atom_site_type_symbol
_atom_site_label
_atom_site_fract_x
_atom_site_fract_y
_atom_site_fract_z
Si Si1 0.168341 0.315166 0.628626
Si Si2 0.771221 0.047452 0.077705
Si Si3 0.000000 0.548753 0.250000
Si Si4 0.500000 0.849273 0.750000
Si Si5 0.000000 0.863789 0.750000
Si Si6 0.730027 0.759126 0.931824
O O1 0.151575 0.400735 0.666115
O O2 0.226728 0.294381 0.319895
O O3 0.000000 0.280274 0.750000
O O4 0.286825 0.286164 0.797325
O O5 0.635238 0.103242 0.074721
O O6 0.934934 0.088430 0.033707
O O7 0.756027 0.011884 0.367189
O O8 0.000000 0.500000 0.500000
O O9 0.569128 0.798647 0.946972
O O10 0.138373 0.817804 0.579124
#
# Coordination Sequence:
#
# PCOD8117114 Si02
#       6
#     4   4   2   2   2   4
#     4  10  20  34  59  85 123 142 181 239 273 313
#     4  11  24  39  55  77 109 141 188 236 291 345
#     4  10  18  31  56  93 124 150 182 220 282 320
#     4  10  26  38  62  78 112 154 190 232 286 352
#     4  10  20  35  58  79 104 144 184 238 292 350
#     4  11  21  38  55  87 113 147 190 236 289 327
#
# _framework density 21.431698000000001
#
# number of rings (size 3 to 8) (size 9 to 14) (size 15 to 20)
#    0.667    0.889    2.222    2.667    0.000   11.556 
#    0.000    0.000    0.000    0.000    0.000   15.556 
#    0.000    0.000    0.000    0.000    0.000    0.000 
#
# Total GULP energy -223117.570854 kJ/mol
# GULP energy per Si atom -12395.420603 kJ/mol
# Density = 2.138292 g / cm^3
# Si number density = 21.431698 Si / 1000 Ang^3
#
#
#
# Elastic Constant Matrix: (Units=GPa)
#
#
# Indices 1 2 3 4 5 6 
#
# 1 99.6789 50.1011 26.9360 0.0000 32.3659 0.0000
# 2 50.1011 138.6698 52.4087 0.0000 24.6541 0.0000
# 3 26.9360 52.4087 111.7115 0.0000 20.7332 0.0000
# 4 0.0000 0.0000 0.0000 26.3321 0.0000 22.5655
# 5 32.3659 24.6541 20.7332 0.0000 25.5193 0.0000
# 6 0.0000 0.0000 0.0000 22.5655 0.0000 19.6552
#
#
#
# Elastic Compliance Matrix: (Units=1/GPa)
#
#
# Indices 1 2 3 4 5 6 
#
# 1 0.018087 -0.003243 0.000985 0.000000 -0.020607 0.000000
# 2 -0.003243 0.010215 -0.003465 0.000000 -0.002941 0.000000
# 3 0.000985 -0.003465 0.011717 0.000000 -0.007421 0.000000
# 4 0.000000 0.000000 0.000000 2.350529 0.000000 -2.698561
# 5 -0.020607 -0.002941 -0.007421 0.000000 0.074192 0.000000
# 6 0.000000 0.000000 0.000000 -2.698561 0.000000 3.149001
#
#
# Mechanical properties :
#
#
# Convention : Reuss Voigt Hill
#
# Bulk Modulus (GPa) = 34.99774 67.66129 51.32951
# Shear Modulus (GPa) = 0.88736 29.00896 14.94816
#
# Velocity S-wave (km/s) = 0.64416 3.68306 2.64385
# Velocity P-wave (km/s) = 4.11322 7.05165 5.77254
#
# Compressibility (1/GPa) = 0.02857328
#
# Stress axis : x y z
#
# Youngs Moduli (GPa) = 55.28732 97.89056 85.34631
#
# Poissons Ratio (x) = 0.31751 -0.08406
# Poissons Ratio (y) = 0.17932 0.29570
# Poissons Ratio (z) = -0.05445 0.33916
#
# Static dielectric constant tensor:
#      x y z
#    x 3.928430 0.000000 0.361600 
#    y 0.000000 3.955910 0.000000 
#    z 0.361600 0.000000 3.611300 
# 
# 
# High freq. dielectric constant tensor:
#      x y z
#    x 1.823710 0.000000 0.021290 
#    y 0.000000 1.837900 0.000000 
#    z 0.021290 0.000000 1.841100 
# 
# From -- ./inp_files/1386.got.cif
#   From: 2010.06.25/outbox.cif.g09.slc.cpg/sg13_1_cif.got.tgz:1386.got - 2010.06.28 04:50:58.
