data_PCOD8117392
_publ_section_title
;
Structure prediction by ZEFSAII (Michael W. Deem and Ramdas Pophale) SiO2 
 PCOD8117392
Probable space group: P 2/C
;
_chemical_formula_sum "Si O2"
_cell_formula_units_Z 24
_cell_length_a 7.203651
_cell_length_b 8.179300
_cell_length_c 19.930806
_cell_angle_alpha 90.000000
_cell_angle_beta 115.949017
_cell_angle_gamma 90.000000
_cell_volume 1055.946996
_symmetry_space_group_name_H-M "P 2/C"
_symmetry_group_IT_number 13
_symmetry_cell_setting 'monoclinic'
loop_
_space_group_symop_operation_xyz
x,y,z
-x,y,1/2-z
-x,-y,-z
x,-y,1/2+z
loop_
_atom_site_type_symbol
_atom_site_label
_atom_site_fract_x
_atom_site_fract_y
_atom_site_fract_z
Si Si1 0.629571 0.271286 0.702113
Si Si2 0.589670 0.227555 0.967737
Si Si3 0.664624 0.135153 0.452708
Si Si4 0.744514 0.587945 0.774313
Si Si5 0.991774 0.364936 0.443664
Si Si6 0.351975 0.088638 0.288994
O O1 0.500000 0.273498 0.750000
O O2 0.481318 0.302782 0.614679
O O3 0.782840 0.429277 0.732077
O O4 0.745245 0.093635 0.711771
O O5 0.698318 0.054304 0.972124
O O6 0.393535 0.223713 0.986454
O O7 0.768974 0.327976 0.033339
O O8 0.871187 0.207693 0.453357
O O9 0.474753 0.155645 0.372094
O O10 0.500000 0.605004 0.750000
O O11 0.880373 0.560837 0.861405
O O12 0.811688 0.764876 0.752742
O O13 0.000000 0.500000 0.500000
O O14 0.500000 0.056722 0.250000
#
# Coordination Sequence:
#
# PCOD8117392 Si02
#       6
#     4   4   4   4   4   4
#     4   9  18  34  60  87 118 160 212 248 310 380
#     4  10  23  40  66  97 119 169 215 261 320 373
#     4  10  21  42  65  90 131 160 211 266 317 378
#     4  10  18  35  58  84 120 165 205 247 313 375
#     4  12  23  38  62  96 128 163 209 260 319 376
#     4   9  16  33  62  83 111 171 201 247 314 365
#
# _framework density 22.728413
#
# number of rings (size 3 to 8) (size 9 to 14) (size 15 to 20)
#    0.000    2.000    3.333    2.500    0.000    0.667 
#    3.000    0.833    0.000    3.000    0.000    0.000 
#    0.000    0.000    0.000    0.000    0.000    0.000 
#
# Total GULP energy -297321.665692 kJ/mol
# GULP energy per Si atom -12388.402737 kJ/mol
# Density = 2.267668 g / cm^3
# Si number density = 22.728413 Si / 1000 Ang^3
#
#
#
# Elastic Constant Matrix: (Units=GPa)
#
#
# Indices 1 2 3 4 5 6 
#
# 1 34.1767 12.1594 32.4358 0.0000 6.7131 0.0000
# 2 12.1594 160.1674 42.2624 0.0000 22.7761 0.0000
# 3 32.4358 42.2624 162.1345 0.0000 23.9540 0.0000
# 4 0.0000 0.0000 0.0000 47.2886 0.0000 2.7531
# 5 6.7131 22.7761 23.9540 0.0000 27.7142 0.0000
# 6 0.0000 0.0000 0.0000 2.7531 0.0000 2.0444
#
#
#
# Elastic Compliance Matrix: (Units=1/GPa)
#
#
# Indices 1 2 3 4 5 6 
#
# 1 0.036372 -0.000631 -0.006749 0.000000 -0.002459 0.000000
# 2 -0.000631 0.007265 -0.001041 0.000000 -0.004918 0.000000
# 3 -0.006749 -0.001041 0.008508 0.000000 -0.004863 0.000000
# 4 0.000000 0.000000 0.000000 0.022946 0.000000 -0.030900
# 5 -0.002459 -0.004918 -0.004863 0.000000 0.044923 0.000000
# 6 0.000000 0.000000 0.000000 -0.030900 0.000000 0.530749
#
#
# Mechanical properties :
#
#
# Convention : Reuss Voigt Hill
#
# Bulk Modulus (GPa) = 28.32536 58.91040 43.61788
# Shear Modulus (GPa) = 7.35973 33.38419 20.37196
#
# Velocity S-wave (km/s) = 1.80143 3.83669 2.99711
# Velocity P-wave (km/s) = 4.10079 6.75296 5.58654
#
# Compressibility (1/GPa) = 0.03530406
#
# Stress axis : x y z
#
# Youngs Moduli (GPa) = 27.49362 137.63811 117.54105
#
# Poissons Ratio (x) = 0.08683 0.79325
# Poissons Ratio (y) = 0.01734 0.12236
# Poissons Ratio (z) = 0.18555 0.14328
#
# Static dielectric constant tensor:
#      x y z
#    x 3.882540 0.000000 -0.380380 
#    y 0.000000 8.064190 0.000000 
#    z -0.380380 0.000000 4.526570 
# 
# 
# High freq. dielectric constant tensor:
#      x y z
#    x 1.839300 0.000000 -0.002320 
#    y 0.000000 1.920840 0.000000 
#    z -0.002320 0.000000 1.908520 
# 
# From -- ./inp_files/63450.got.cif
#   From: 2010.06.25/outbox.cif.g09.slc.cpg/sg13_32_cif.got.tgz:63450.got - 2010.06.28 04:50:58.
