data_PCOD8117896
_publ_section_title
;
Structure prediction by ZEFSAII (Michael W. Deem and Ramdas Pophale) SiO2 
 PCOD8117896
Probable space group: P 2/C
;
_chemical_formula_sum "Si O2"
_cell_formula_units_Z 24
_cell_length_a 10.162746
_cell_length_b 14.753370
_cell_length_c 8.275400
_cell_angle_alpha 90.000000
_cell_angle_beta 99.473521
_cell_angle_gamma 90.000000
_cell_volume 1223.848142
_symmetry_space_group_name_H-M "P 2/C"
_symmetry_group_IT_number 13
_symmetry_cell_setting 'monoclinic'
loop_
_space_group_symop_operation_xyz
x,y,z
-x,y,1/2-z
-x,-y,-z
x,-y,1/2+z
loop_
_atom_site_type_symbol
_atom_site_label
_atom_site_fract_x
_atom_site_fract_y
_atom_site_fract_z
Si Si1 0.500000 0.155488 0.750000
Si Si2 0.500000 0.275230 0.250000
Si Si3 0.565192 0.327349 0.927682
Si Si4 0.000000 0.468273 0.750000
Si Si5 0.351555 0.026774 0.922751
Si Si6 0.740719 0.865936 0.793251
Si Si7 0.000000 0.766287 0.750000
Si Si8 0.865076 0.383776 0.018099
O O1 0.562140 0.217971 0.904994
O O2 0.372407 0.096130 0.778204
O O3 0.509344 0.339871 0.412899
O O4 0.367420 0.214322 0.235122
O O5 0.500000 0.371325 0.750000
O O6 0.708853 0.370136 0.974087
O O7 0.077705 0.402250 0.646683
O O8 0.108775 0.530393 0.861619
O O9 0.274825 0.936149 0.857136
O O10 0.270766 0.077873 0.044369
O O11 0.500000 0.000000 0.000000
O O12 0.888633 0.826398 0.814691
O O13 0.934244 0.706058 0.597702
#
# Coordination Sequence:
#
# PCOD8117896 Si02
#       8
#     2   2   4   2   4   4   2   4
#     4  10  19  34  56  95 118 168 222 264 315 372
#     4  12  19  38  66  89 128 166 230 272 317 382
#     4  10  22  37  66 101 126 167 223 278 313 383
#     4   9  22  42  74  93 124 182 194 245 342 434
#     4  12  20  34  58  83 122 171 221 278 313 378
#     4  12  23  37  58  92 120 178 225 273 334 371
#     4  11  26  40  64  93 134 168 214 281 324 386
#     4  10  21  45  67  96 131 164 214 257 325 413
#
# _framework density 19.610275999999999
#
# number of rings (size 3 to 8) (size 9 to 14) (size 15 to 20)
#    0.500    0.667    6.667    0.000    0.000    3.333 
#    3.000    0.833    0.000    0.000    0.000    0.000 
#    0.000    0.000    0.000    0.000    0.000    0.000 
#
# Total GULP energy -297470.824885 kJ/mol
# GULP energy per Si atom -12394.617704 kJ/mol
# Density = 1.956564 g / cm^3
# Si number density = 19.610276 Si / 1000 Ang^3
#
#
#
# Elastic Constant Matrix: (Units=GPa)
#
#
# Indices 1 2 3 4 5 6 
#
# 1 141.7263 49.6506 61.9137 0.0000 -8.9688 0.0000
# 2 49.6506 59.2798 36.8250 0.0000 -10.9619 0.0000
# 3 61.9137 36.8250 142.7026 0.0000 -22.0492 0.0000
# 4 0.0000 0.0000 0.0000 117.9906 0.0000 32.3969
# 5 -8.9688 -10.9619 -22.0492 0.0000 31.3345 0.0000
# 6 0.0000 0.0000 0.0000 32.3969 0.0000 39.7786
#
#
#
# Elastic Compliance Matrix: (Units=1/GPa)
#
#
# Indices 1 2 3 4 5 6 
#
# 1 0.010935 -0.007573 -0.003047 0.000000 -0.001664 0.000000
# 2 -0.007573 0.025745 -0.002582 0.000000 0.005022 0.000000
# 3 -0.003047 -0.002582 0.009785 0.000000 0.005110 0.000000
# 4 0.000000 0.000000 0.000000 0.010916 0.000000 -0.008891
# 5 -0.001664 0.005022 0.005110 0.000000 0.036790 0.000000
# 6 0.000000 0.000000 0.000000 -0.008891 0.000000 0.032380
#
#
# Mechanical properties :
#
#
# Convention : Reuss Voigt Hill
#
# Bulk Modulus (GPa) = 49.84852 71.16527 60.50689
# Shear Modulus (GPa) = 31.31987 50.84205 41.08096
#
# Velocity S-wave (km/s) = 4.00073 5.09730 4.58194
# Velocity P-wave (km/s) = 6.84221 8.42686 7.67554
#
# Compressibility (1/GPa) = 0.02006078
#
# Stress axis : x y z
#
# Youngs Moduli (GPa) = 91.45086 38.84266 102.19321
#
# Poissons Ratio (x) = 0.29417 0.31138
# Poissons Ratio (y) = 0.69260 0.26384
# Poissons Ratio (z) = 0.27864 0.10028
#
# Static dielectric constant tensor:
#      x y z
#    x 3.607630 0.000000 -0.296450 
#    y 0.000000 3.622760 0.000000 
#    z -0.296450 0.000000 4.017450 
# 
# 
# High freq. dielectric constant tensor:
#      x y z
#    x 1.743150 0.000000 -0.012010 
#    y 0.000000 1.756840 0.000000 
#    z -0.012010 0.000000 1.782570 
# 
# From -- ./inp_files/12608.got.cif
#   From: 2010.06.25/outbox.cif.g09.slc.cpg/sg13_7_cif.got.tgz:12608.got - 2010.06.28 04:50:58.
