data_PCOD8117833
_publ_section_title
;
Structure prediction by ZEFSAII (Michael W. Deem and Ramdas Pophale) SiO2 
 PCOD8117833
Probable space group: P 2/C
;
_chemical_formula_sum "Si O2"
_cell_formula_units_Z 20
_cell_length_a 5.240318
_cell_length_b 10.446864
_cell_length_c 16.696257
_cell_angle_alpha 90.000000
_cell_angle_beta 98.732521
_cell_angle_gamma 90.000000
_cell_volume 903.439136
_symmetry_space_group_name_H-M "P 2/C"
_symmetry_group_IT_number 13
_symmetry_cell_setting 'monoclinic'
loop_
_space_group_symop_operation_xyz
x,y,z
-x,y,1/2-z
-x,-y,-z
x,-y,1/2+z
loop_
_atom_site_type_symbol
_atom_site_label
_atom_site_fract_x
_atom_site_fract_y
_atom_site_fract_z
Si Si1 0.906567 0.512495 0.404041
Si Si2 0.587243 0.410638 0.077769
Si Si3 0.276892 0.996445 0.605392
Si Si4 0.230472 0.750008 0.198703
Si Si5 0.244210 0.873400 0.932480
O O1 0.662141 0.417081 0.375422
O O2 0.831412 0.657497 0.379058
O O3 0.000000 0.500000 0.500000
O O4 0.158076 0.467691 0.365099
O O5 0.665070 0.271507 0.049686
O O6 0.500000 0.500000 0.000000
O O7 0.252053 0.105387 0.670236
O O8 0.258571 0.053956 0.516463
O O9 0.560057 0.932352 0.624552
O O10 0.051425 0.891076 0.611338
O O11 0.500000 0.705965 0.250000
O O12 0.000000 0.738824 0.250000
#
# Coordination Sequence:
#
# PCOD8117833 Si02
#       5
#     4   4   4   4   4
#     4  10  21  37  62  90 122 163 214 266 315 375
#     4  10  19  33  58  90 123 156 200 259 315 359
#     4  10  21  37  58  89 123 156 204 260 313 376
#     4  12  25  42  65  93 130 171 214 267 335 401
#     4  10  20  35  61  92 119 153 205 265 317 364
#
# _framework density 22.137626000000001
#
# number of rings (size 3 to 8) (size 9 to 14) (size 15 to 20)
#    0.000    1.600    0.000    6.000    0.000    9.600 
#    0.000    0.000    0.000   24.000    0.000    0.000 
#    0.000    0.000    0.000    0.000    0.000    0.000 
#
# Total GULP energy -247800.189527 kJ/mol
# GULP energy per Si atom -12390.009476 kJ/mol
# Density = 2.208724 g / cm^3
# Si number density = 22.137626 Si / 1000 Ang^3
#
#
#
# Elastic Constant Matrix: (Units=GPa)
#
#
# Indices 1 2 3 4 5 6 
#
# 1 236.6252 69.6724 34.9748 0.0000 18.6649 0.0000
# 2 69.6724 143.9317 27.6278 0.0000 3.7291 0.0000
# 3 34.9748 27.6278 53.1137 0.0000 1.8501 0.0000
# 4 0.0000 0.0000 0.0000 56.1996 0.0000 -20.1158
# 5 18.6649 3.7291 1.8501 0.0000 21.6528 0.0000
# 6 0.0000 0.0000 0.0000 -20.1158 0.0000 67.0500
#
#
#
# Elastic Compliance Matrix: (Units=1/GPa)
#
#
# Indices 1 2 3 4 5 6 
#
# 1 0.005533 -0.002109 -0.002400 0.000000 -0.004201 0.000000
# 2 -0.002109 0.008543 -0.003076 0.000000 0.000609 0.000000
# 3 -0.002400 -0.003076 0.021983 0.000000 0.000721 0.000000
# 4 0.000000 0.000000 0.000000 0.019934 0.000000 0.005981
# 5 -0.004201 0.000609 0.000721 0.000000 0.049639 0.000000
# 6 0.000000 0.000000 0.000000 0.005981 0.000000 0.016708
#
#
# Mechanical properties :
#
#
# Convention : Reuss Voigt Hill
#
# Bulk Modulus (GPa) = 47.87307 77.58007 62.72657
# Shear Modulus (GPa) = 34.60800 49.07352 41.84076
#
# Velocity S-wave (km/s) = 3.95816 4.71334 4.35216
# Velocity P-wave (km/s) = 6.52392 8.04620 7.32471
#
# Compressibility (1/GPa) = 0.02088857
#
# Stress axis : x y z
#
# Youngs Moduli (GPa) = 180.72706 117.05072 45.48919
#
# Poissons Ratio (x) = 0.24684 0.10919
# Poissons Ratio (y) = 0.38113 0.13995
# Poissons Ratio (z) = 0.43379 0.36010
#
# Static dielectric constant tensor:
#      x y z
#    x 0.550460 0.000000 0.122390 
#    y 0.000000 3.953090 0.000000 
#    z 0.122390 0.000000 3.426010 
# 
# 
# High freq. dielectric constant tensor:
#      x y z
#    x 1.918780 0.000000 0.007180 
#    y 0.000000 1.867410 0.000000 
#    z 0.007180 0.000000 1.812660 
# 
# From -- ./inp_files/73128.got.cif
#   From: 2010.06.25/outbox.cif.g09.slc.cpg/sg13_37_cif.got.tgz:73128.got - 2010.06.28 04:50:58.
