data_PCOD8117820
_publ_section_title
;
Structure prediction by ZEFSAII (Michael W. Deem and Ramdas Pophale) SiO2 
 PCOD8117820
Probable space group: P 2/C
;
_chemical_formula_sum "Si O2"
_cell_formula_units_Z 26
_cell_length_a 10.058273
_cell_length_b 19.082872
_cell_length_c 12.171606
_cell_angle_alpha 90.000000
_cell_angle_beta 36.654039
_cell_angle_gamma 90.000000
_cell_volume 1394.684995
_symmetry_space_group_name_H-M "P 2/C"
_symmetry_group_IT_number 13
_symmetry_cell_setting 'monoclinic'
loop_
_space_group_symop_operation_xyz
x,y,z
-x,y,1/2-z
-x,-y,-z
x,-y,1/2+z
loop_
_atom_site_type_symbol
_atom_site_label
_atom_site_fract_x
_atom_site_fract_y
_atom_site_fract_z
Si Si1 0.417405 0.941192 0.974364
Si Si2 0.846604 0.674710 0.247000
Si Si3 0.114094 0.073210 0.401059
Si Si4 0.559926 0.563639 0.538659
Si Si5 0.860403 0.437015 0.041494
Si Si6 0.000000 0.028053 0.250000
Si Si7 0.856518 0.170427 0.736301
O O1 0.617039 0.924905 0.754710
O O2 0.362743 0.873432 0.085678
O O3 0.500000 0.000000 0.000000
O O4 0.188920 0.973821 0.073478
O O5 0.624827 0.631436 0.424135
O O6 0.783473 0.751967 0.243702
O O7 0.000000 0.685061 0.250000
O O8 0.980890 0.630615 0.067106
O O9 0.085577 0.080596 0.287631
O O10 0.997164 0.135465 0.544571
O O11 0.000000 0.000000 0.500000
O O12 0.500000 0.500000 0.500000
O O13 0.343039 0.585779 0.748374
O O14 0.764770 0.542139 0.483961
O O15 0.000000 0.500000 0.000000
O O16 0.000000 0.176627 0.750000
#
# Coordination Sequence:
#
# PCOD8117820 Si02
#       7
#     4   4   4   4   4   2   4
#     4  10  19  36  54  81 107 142 190 231 278 333
#     4   9  20  35  54  82 117 141 175 231 286 329
#     4  11  21  35  56  82 108 145 190 234 281 335
#     4  10  19  33  57  86 112 145 186 228 276 334
#     4  10  19  33  57  86 111 146 186 227 278 333
#     4  10  20  36  54  82 108 140 196 234 280 332
#     4  11  21  37  55  83 115 145 183 235 290 334
#
# _framework density 18.642202000000001
#
# number of rings (size 3 to 8) (size 9 to 14) (size 15 to 20)
#    0.000    1.846    5.385    0.000    0.000    3.692 
#    0.000    3.077    0.000    9.231    0.000    0.000 
#    0.000    0.000    0.000    0.000    0.000    0.000 
#
# Total GULP energy -322194.559440 kJ/mol
# GULP energy per Si atom -12392.098440 kJ/mol
# Density = 1.859977 g / cm^3
# Si number density = 18.642202 Si / 1000 Ang^3
#
#
#
# Elastic Constant Matrix: (Units=GPa)
#
#
# Indices 1 2 3 4 5 6 
#
# 1 59.5419 39.8829 26.9351 0.0000 -2.1916 0.0000
# 2 39.8829 170.9978 73.0793 0.0000 0.1309 0.0000
# 3 26.9351 73.0793 163.1022 0.0000 -6.3466 0.0000
# 4 0.0000 0.0000 0.0000 24.9783 0.0000 0.8293
# 5 -2.1916 0.1309 -6.3466 0.0000 24.2732 0.0000
# 6 0.0000 0.0000 0.0000 0.8293 0.0000 20.9942
#
#
#
# Elastic Compliance Matrix: (Units=1/GPa)
#
#
# Indices 1 2 3 4 5 6 
#
# 1 0.020255 -0.004107 -0.001448 0.000000 0.001472 0.000000
# 2 -0.004107 0.008085 -0.002991 0.000000 -0.001196 0.000000
# 3 -0.001448 -0.002991 0.007785 0.000000 0.001921 0.000000
# 4 0.000000 0.000000 0.000000 0.040087 0.000000 -0.001583
# 5 0.001472 -0.001196 0.001921 0.000000 0.041839 0.000000
# 6 0.000000 0.000000 0.000000 -0.001583 0.000000 0.047695
#
#
# Mechanical properties :
#
#
# Convention : Reuss Voigt Hill
#
# Bulk Modulus (GPa) = 52.53637 74.82626 63.68132
# Shear Modulus (GPa) = 26.42967 30.96543 28.69755
#
# Velocity S-wave (km/s) = 3.76936 4.08001 3.92776
# Velocity P-wave (km/s) = 6.86926 7.90067 7.40295
#
# Compressibility (1/GPa) = 0.01903443
#
# Stress axis : x y z
#
# Youngs Moduli (GPa) = 49.37136 123.68611 128.45143
#
# Poissons Ratio (x) = 0.50793 0.18595
# Poissons Ratio (y) = 0.20275 0.38419
# Poissons Ratio (z) = 0.07147 0.36994
#
# Static dielectric constant tensor:
#      x y z
#    x 3.722230 0.000000 -0.134730 
#    y 0.000000 3.621800 0.000000 
#    z -0.134730 0.000000 4.002050 
# 
# 
# High freq. dielectric constant tensor:
#      x y z
#    x 1.704860 0.000000 0.001990 
#    y 0.000000 1.704570 0.000000 
#    z 0.001990 0.000000 1.745210 
# 
# From -- ./inp_files/51566.got.cif
#   From: 2010.06.25/outbox.cif.g09.slc.cpg/sg13_26_cif.got.tgz:51566.got - 2010.06.28 04:50:58.
