data_PCOD8117203
_publ_section_title
;
Structure prediction by ZEFSAII (Michael W. Deem and Ramdas Pophale) SiO2 
 PCOD8117203
Probable space group: P 2/C
;
_chemical_formula_sum "Si O2"
_cell_formula_units_Z 24
_cell_length_a 13.529026
_cell_length_b 16.112031
_cell_length_c 8.899780
_cell_angle_alpha 90.000000
_cell_angle_beta 143.956990
_cell_angle_gamma 90.000000
_cell_volume 1141.466413
_symmetry_space_group_name_H-M "P 2/C"
_symmetry_group_IT_number 13
_symmetry_cell_setting 'monoclinic'
loop_
_space_group_symop_operation_xyz
x,y,z
-x,y,1/2-z
-x,-y,-z
x,-y,1/2+z
loop_
_atom_site_type_symbol
_atom_site_label
_atom_site_fract_x
_atom_site_fract_y
_atom_site_fract_z
Si Si1 0.733020 0.704042 0.889108
Si Si2 0.000000 0.005491 0.750000
Si Si3 0.824152 0.102566 0.797977
Si Si4 0.118864 0.560945 0.054502
Si Si5 0.500000 0.832328 0.750000
Si Si6 0.324199 0.532128 0.574043
Si Si7 0.981060 0.725372 0.466779
O O1 0.595610 0.774628 0.748366
O O2 0.652339 0.611328 0.784522
O O3 0.871373 0.702112 0.188169
O O4 0.823224 0.727454 0.842641
O O5 0.855140 0.952871 0.484868
O O6 0.909409 0.063869 0.756827
O O7 0.627810 0.113374 0.510653
O O8 0.917102 0.188105 0.954973
O O9 0.282032 0.567802 0.358388
O O10 0.177763 0.528012 0.962248
O O11 0.039534 0.652406 0.935297
O O12 0.000000 0.500000 0.000000
O O13 0.500000 0.485993 0.750000
#
# Coordination Sequence:
#
# PCOD8117203 Si02
#       7
#     4   2   4   4   2   4   4
#     4   9  16  30  55  82 116 154 201 242 289 354
#     4  10  22  42  64  86 122 160 198 240 320 378
#     4  10  21  39  63  91 118 155 198 252 305 377
#     4  11  21  36  57  81 115 162 207 244 290 356
#     4  10  18  32  62  96 120 152 202 258 304 356
#     4  11  21  35  52  81 118 159 200 254 298 344
#     4   9  18  34  56  83 115 156 201 244 294 364
#
# _framework density 21.025586000000001
#
# number of rings (size 3 to 8) (size 9 to 14) (size 15 to 20)
#    0.000    2.000    2.500    3.000    0.000    0.667 
#    3.000    0.000    0.000    0.000    2.167    0.000 
#    0.000    0.000    0.000    0.000    0.000    0.000 
#
# Total GULP energy -297346.997944 kJ/mol
# GULP energy per Si atom -12389.458248 kJ/mol
# Density = 2.097773 g / cm^3
# Si number density = 21.025586 Si / 1000 Ang^3
#
#
#
# Elastic Constant Matrix: (Units=GPa)
#
#
# Indices 1 2 3 4 5 6 
#
# 1 79.9475 27.0472 43.3852 0.0000 11.2931 0.0000
# 2 27.0472 118.4234 36.7578 0.0000 4.5126 0.0000
# 3 43.3852 36.7578 83.5035 0.0000 11.0385 0.0000
# 4 0.0000 0.0000 0.0000 26.6407 0.0000 3.7057
# 5 11.2931 4.5126 11.0385 0.0000 37.0797 0.0000
# 6 0.0000 0.0000 0.0000 3.7057 0.0000 24.2879
#
#
#
# Elastic Compliance Matrix: (Units=1/GPa)
#
#
# Indices 1 2 3 4 5 6 
#
# 1 0.017885 -0.001400 -0.008305 0.000000 -0.002804 0.000000
# 2 -0.001400 0.009891 -0.003668 0.000000 0.000315 0.000000
# 3 -0.008305 -0.003668 0.018229 0.000000 -0.002451 0.000000
# 4 0.000000 0.000000 0.000000 0.038350 0.000000 -0.005851
# 5 -0.002804 0.000315 -0.002451 0.000000 0.028514 0.000000
# 6 0.000000 0.000000 0.000000 -0.005851 0.000000 0.042066
#
#
# Mechanical properties :
#
#
# Convention : Reuss Voigt Hill
#
# Bulk Modulus (GPa) = 51.92609 55.13943 53.53276
# Shear Modulus (GPa) = 26.58139 29.24727 27.91433
#
# Velocity S-wave (km/s) = 3.55947 3.73370 3.64763
# Velocity P-wave (km/s) = 6.45317 6.69845 6.57695
#
# Compressibility (1/GPa) = 0.01925814
#
# Stress axis : x y z
#
# Youngs Moduli (GPa) = 55.91247 101.10657 54.85668
#
# Poissons Ratio (x) = 0.14155 0.45561
# Poissons Ratio (y) = 0.07828 0.20121
# Poissons Ratio (z) = 0.46438 0.37085
#
# Static dielectric constant tensor:
#      x y z
#    x 3.808330 0.000000 0.058820 
#    y 0.000000 3.934190 0.000000 
#    z 0.058820 0.000000 3.892310 
# 
# 
# High freq. dielectric constant tensor:
#      x y z
#    x 1.812150 0.000000 0.011440 
#    y 0.000000 1.818430 0.000000 
#    z 0.011440 0.000000 1.816010 
# 
# From -- ./inp_files/37602.got.cif
#   From: 2010.06.25/outbox.cif.g09.slc.cpg/sg13_19_cif.got.tgz:37602.got - 2010.06.28 04:50:58.
