data_PCOD8117269
_publ_section_title
;
Structure prediction by ZEFSAII (Michael W. Deem and Ramdas Pophale) SiO2 
 PCOD8117269
Probable space group: P 2/C
;
_chemical_formula_sum "Si O2"
_cell_formula_units_Z 28
_cell_length_a 9.433176
_cell_length_b 11.642612
_cell_length_c 14.297521
_cell_angle_alpha 90.000000
_cell_angle_beta 106.927204
_cell_angle_gamma 90.000000
_cell_volume 1502.220675
_symmetry_space_group_name_H-M "P 2/C"
_symmetry_group_IT_number 13
_symmetry_cell_setting 'monoclinic'
loop_
_space_group_symop_operation_xyz
x,y,z
-x,y,1/2-z
-x,-y,-z
x,-y,1/2+z
loop_
_atom_site_type_symbol
_atom_site_label
_atom_site_fract_x
_atom_site_fract_y
_atom_site_fract_z
Si Si1 0.920754 0.521120 0.637450
Si Si2 0.836494 0.861882 0.683120
Si Si3 0.128897 0.910951 0.018473
Si Si4 0.027648 0.325237 0.988516
Si Si5 0.656807 0.039353 0.309578
Si Si6 0.654719 0.298655 0.372110
Si Si7 0.661267 0.634138 0.667308
O O1 0.975770 0.398846 0.607879
O O2 0.743595 0.529043 0.628389
O O3 0.000000 0.549807 0.750000
O O4 0.959489 0.613905 0.565873
O O5 0.829355 0.918162 0.581215
O O6 0.765122 0.951083 0.741878
O O7 0.746510 0.746786 0.652842
O O8 0.000000 0.830631 0.750000
O O9 0.068404 0.789036 0.044693
O O10 0.271458 0.950668 0.104105
O O11 0.000000 0.000000 0.000000
O O12 0.201288 0.302586 0.036538
O O13 0.500000 0.984518 0.250000
O O14 0.623535 0.165441 0.344717
O O15 0.511289 0.353842 0.396411
O O16 0.676876 0.374770 0.282787
#
# Coordination Sequence:
#
# PCOD8117269 Si02
#       7
#     4   4   4   4   4   4   4
#     4  11  22  39  63  85 118 162 201 257 304 360
#     4  11  19  34  59  87 117 160 202 245 306 361
#     4  12  22  37  63  90 122 162 204 256 305 368
#     4  11  23  38  61  91 118 156 214 248 298 370
#     4  11  22  38  58  93 128 161 204 259 308 366
#     4  10  18  35  61  90 120 150 203 257 297 372
#     4  10  18  33  61  88 115 152 201 252 298 356
#
# _framework density 18.639073
#
# number of rings (size 3 to 8) (size 9 to 14) (size 15 to 20)
#    0.000    1.143    8.571    1.286    0.000    1.143 
#    2.571    0.000    0.000    0.000    0.000    0.000 
#    0.000    0.000    0.000    0.000    0.000    0.000 
#
# Total GULP energy -347038.883129 kJ/mol
# GULP energy per Si atom -12394.245826 kJ/mol
# Density = 1.859665 g / cm^3
# Si number density = 18.639073 Si / 1000 Ang^3
#
#
#
# Elastic Constant Matrix: (Units=GPa)
#
#
# Indices 1 2 3 4 5 6 
#
# 1 116.8517 28.4402 37.7652 0.0000 -4.1871 0.0000
# 2 28.4402 79.1548 29.5659 0.0000 -9.8744 0.0000
# 3 37.7652 29.5659 71.9627 0.0000 -7.8778 0.0000
# 4 0.0000 0.0000 0.0000 16.1548 0.0000 10.8723
# 5 -4.1871 -9.8744 -7.8778 0.0000 35.2205 0.0000
# 6 0.0000 0.0000 0.0000 10.8723 0.0000 -4.6602
#
#
#
# Elastic Compliance Matrix: (Units=1/GPa)
#
#
# Indices 1 2 3 4 5 6 
#
# 1 0.010583 -0.002079 -0.004741 0.000000 -0.000385 0.000000
# 2 -0.002079 0.015623 -0.004998 0.000000 0.003015 0.000000
# 3 -0.004741 -0.004998 0.018680 0.000000 0.002213 0.000000
# 4 0.000000 0.000000 0.000000 0.024085 0.000000 0.056190
# 5 -0.000385 0.003015 0.002213 0.000000 0.029687 0.000000
# 6 0.000000 0.000000 0.000000 0.056190 0.000000 -0.083490
#
#
# Mechanical properties :
#
#
# Convention : Reuss Voigt Hill
#
# Bulk Modulus (GPa) = 47.06098 51.05688 49.05893
# Shear Modulus (GPa) = 108.96226 20.82286 64.89256
#
# Velocity S-wave (km/s) = 7.65415 3.34602 5.90685
# Velocity P-wave (km/s) = 10.16946 6.50997 8.53808
#
# Compressibility (1/GPa) = 0.02124902
#
# Stress axis : x y z
#
# Youngs Moduli (GPa) = 94.49545 64.00643 53.53340
#
# Poissons Ratio (x) = 0.13309 0.25383
# Poissons Ratio (y) = 0.19649 0.26754
# Poissons Ratio (z) = 0.44805 0.31988
#
# Static dielectric constant tensor:
#      x y z
#    x 3.852020 0.000000 -0.317230 
#    y 0.000000 3.451550 0.000000 
#    z -0.317230 0.000000 2.850700 
# 
# 
# High freq. dielectric constant tensor:
#      x y z
#    x 1.744890 0.000000 -0.002820 
#    y 0.000000 1.696760 0.000000 
#    z -0.002820 0.000000 1.710490 
# 
# From -- ./inp_files/46998.got.cif
#   From: 2010.06.25/outbox.cif.g09.slc.cpg/sg13_24_cif.got.tgz:46998.got - 2010.06.28 04:50:58.
