data_PCOD8117123
_publ_section_title
;
Structure prediction by ZEFSAII (Michael W. Deem and Ramdas Pophale) SiO2 
 PCOD8117123
Probable space group: P 2/C
;
_chemical_formula_sum "Si O2"
_cell_formula_units_Z 20
_cell_length_a 27.528089
_cell_length_b 6.749090
_cell_length_c 5.355117
_cell_angle_alpha 90.000000
_cell_angle_beta 125.716726
_cell_angle_gamma 90.000000
_cell_volume 807.792504
_symmetry_space_group_name_H-M "P 2/C"
_symmetry_group_IT_number 13
_symmetry_cell_setting 'monoclinic'
loop_
_space_group_symop_operation_xyz
x,y,z
-x,y,1/2-z
-x,-y,-z
x,-y,1/2+z
loop_
_atom_site_type_symbol
_atom_site_label
_atom_site_fract_x
_atom_site_fract_y
_atom_site_fract_z
Si Si1 0.371935 0.784283 0.370713
Si Si2 0.321908 0.229783 0.220602
Si Si3 0.868700 0.272720 0.353017
Si Si4 0.500000 0.632471 0.750000
Si Si5 0.000000 0.373654 0.750000
Si Si6 0.181205 0.280041 0.796717
O O1 0.349638 0.670851 0.554202
O O2 0.443703 0.781556 0.581040
O O3 0.343035 0.001800 0.288148
O O4 0.347641 0.670485 0.050932
O O5 0.251950 0.267769 0.004666
O O6 0.940147 0.243136 0.570525
O O7 0.842055 0.169791 0.522334
O O8 0.846035 0.499626 0.282478
O O9 0.843309 0.169653 0.025401
O O10 0.500000 0.500000 0.500000
O O11 0.000000 0.500000 0.500000
#
# Coordination Sequence:
#
# PCOD8117123 Si02
#       6
#     4   4   4   2   2   4
#     4  10  23  43  65  91 116 158 204 241 296 354
#     4  10  21  39  64  89 119 158 207 244 289 359
#     4  10  19  30  48  79 123 162 201 254 301 345
#     4  12  26  48  66  94 128 150 192 246 310 368
#     4  12  16  30  48  70 118 172 212 246 298 358
#     4  10  18  32  47  80 117 156 195 247 304 344
#
# _framework density 24.758832000000002
#
# number of rings (size 3 to 8) (size 9 to 14) (size 15 to 20)
#    0.000    1.600    4.000    2.400    0.000    3.200 
#   21.600    0.000    0.000    0.000    0.000    0.000 
#    0.000  108.800    0.000    0.000    0.000    0.000 
#
# Total GULP energy -247765.700706 kJ/mol
# GULP energy per Si atom -12388.285035 kJ/mol
# Density = 2.470248 g / cm^3
# Si number density = 24.758832 Si / 1000 Ang^3
#
#
#
# Elastic Constant Matrix: (Units=GPa)
#
#
# Indices 1 2 3 4 5 6 
#
# 1 211.5376 -9.8257 91.0359 0.0000 -15.6035 0.0000
# 2 -9.8257 64.4890 -15.8274 0.0000 18.8468 0.0000
# 3 91.0359 -15.8274 169.6686 0.0000 -24.9281 0.0000
# 4 0.0000 0.0000 0.0000 -21.9985 0.0000 23.2080
# 5 -15.6035 18.8468 -24.9281 0.0000 104.1382 0.0000
# 6 0.0000 0.0000 0.0000 23.2080 0.0000 -20.4720
#
#
#
# Elastic Compliance Matrix: (Units=1/GPa)
#
#
# Indices 1 2 3 4 5 6 
#
# 1 0.006149 0.000099 -0.003272 0.000000 0.000120 0.000000
# 2 0.000099 0.016586 0.001094 0.000000 -0.002725 0.000000
# 3 -0.003272 0.001094 0.007929 0.000000 0.001210 0.000000
# 4 0.000000 0.000000 0.000000 0.231955 0.000000 0.262955
# 5 0.000120 -0.002725 0.001210 0.000000 0.010403 0.000000
# 6 0.000000 0.000000 0.000000 0.262955 0.000000 0.249251
#
#
# Mechanical properties :
#
#
# Convention : Reuss Voigt Hill
#
# Bulk Modulus (GPa) = 37.72837 64.05120 50.88979
# Shear Modulus (GPa) = 9.34110 37.68771 23.51440
#
# Velocity S-wave (km/s) = 1.94449 3.90576 3.08513
# Velocity P-wave (km/s) = 4.50697 6.80192 5.76970
#
# Compressibility (1/GPa) = 0.02650525
#
# Stress axis : x y z
#
# Youngs Moduli (GPa) = 162.62726 60.29020 126.11203
#
# Poissons Ratio (x) = -0.00595 0.41269
# Poissons Ratio (y) = -0.01604 -0.13796
# Poissons Ratio (z) = 0.53218 -0.06595
#
# Static dielectric constant tensor:
#      x y z
#    x 0.763760 0.000000 4.027600 
#    y 0.000000 3.781180 0.000000 
#    z 4.027600 0.000000 0.295260 
# 
# 
# High freq. dielectric constant tensor:
#      x y z
#    x 2.011590 0.000000 -0.023680 
#    y 0.000000 1.956590 0.000000 
#    z -0.023680 0.000000 2.014140 
# 
# From -- ./inp_files/7367.got.cif
#   From: 2010.06.25/outbox.cif.g09.slc.cpg/sg13_4_cif.got.tgz:7367.got - 2010.06.28 04:50:58.
