data_PCOD8117654
_publ_section_title
;
Structure prediction by ZEFSAII (Michael W. Deem and Ramdas Pophale) SiO2 
 PCOD8117654
Probable space group: P 2/C
;
_chemical_formula_sum "Si O2"
_cell_formula_units_Z 32
_cell_length_a 16.118220
_cell_length_b 14.063057
_cell_length_c 11.810513
_cell_angle_alpha 90.000000
_cell_angle_beta 141.524044
_cell_angle_gamma 90.000000
_cell_volume 1665.658351
_symmetry_space_group_name_H-M "P 2/C"
_symmetry_group_IT_number 13
_symmetry_cell_setting 'monoclinic'
loop_
_space_group_symop_operation_xyz
x,y,z
-x,y,1/2-z
-x,-y,-z
x,-y,1/2+z
loop_
_atom_site_type_symbol
_atom_site_label
_atom_site_fract_x
_atom_site_fract_y
_atom_site_fract_z
Si Si1 0.776973 0.344798 0.738185
Si Si2 0.035843 0.687105 0.664276
Si Si3 0.389242 0.832239 0.471382
Si Si4 0.789039 0.986589 0.308821
Si Si5 0.147708 0.675418 0.433517
Si Si6 0.045024 0.096415 0.177652
Si Si7 0.854016 0.541274 0.866089
Si Si8 0.687192 0.150644 0.351237
O O1 0.659633 0.268227 0.635998
O O2 0.785178 0.350021 0.612271
O O3 0.746179 0.454931 0.741080
O O4 0.910385 0.311269 0.944544
O O5 0.000000 0.644802 0.750000
O O6 0.086811 0.793972 0.733816
O O7 0.157681 0.625126 0.740722
O O8 0.339409 0.919833 0.342095
O O9 0.330474 0.852590 0.532897
O O10 0.548033 0.832627 0.638790
O O11 0.916920 0.918499 0.461222
O O12 0.823014 0.045972 0.231325
O O13 0.758907 0.055803 0.382391
O O14 0.154319 0.581161 0.516426
O O15 0.220115 0.759730 0.579078
O O16 0.000000 0.711314 0.250000
O O17 0.000000 0.053426 0.250000
O O18 0.000000 0.500000 0.000000
#
# Coordination Sequence:
#
# PCOD8117654 Si02
#       8
#     4   4   4   4   4   4   4   4
#     4  10  21  34  56  78 114 151 179 231 280 335
#     4  10  19  31  49  78 117 142 176 223 284 341
#     4  10  21  41  54  80 111 153 197 233 278 324
#     4  11  20  34  59  78 114 146 191 228 286 337
#     4  11  20  35  57  85 112 138 184 234 287 335
#     4  10  21  33  50  86 115 143 174 231 293 334
#     4  10  20  30  53  85 110 138 179 221 287 335
#     4  10  23  36  60  81 109 150 196 237 271 339
#
# _framework density 19.211621999999998
#
# number of rings (size 3 to 8) (size 9 to 14) (size 15 to 20)
#    0.000    1.750    3.750    1.875    3.500    1.500 
#    0.000    0.625    0.000    0.000    0.000    0.000 
#    0.000    0.000    0.000    0.000    0.000    0.000 
#
# Total GULP energy -396605.803913 kJ/mol
# GULP energy per Si atom -12393.931372 kJ/mol
# Density = 1.916790 g / cm^3
# Si number density = 19.211622 Si / 1000 Ang^3
#
#
#
# Elastic Constant Matrix: (Units=GPa)
#
#
# Indices 1 2 3 4 5 6 
#
# 1 57.7276 35.7858 16.6231 0.0000 -11.2860 0.0000
# 2 35.7858 127.9283 49.0583 0.0000 1.5911 0.0000
# 3 16.6231 49.0583 70.6082 0.0000 0.3345 0.0000
# 4 0.0000 0.0000 0.0000 25.7613 0.0000 -6.7525
# 5 -11.2860 1.5911 0.3345 0.0000 29.7475 0.0000
# 6 0.0000 0.0000 0.0000 -6.7525 0.0000 20.2896
#
#
#
# Elastic Compliance Matrix: (Units=1/GPa)
#
#
# Indices 1 2 3 4 5 6 
#
# 1 0.023290 -0.006148 -0.001255 0.000000 0.009179 0.000000
# 2 -0.006148 0.012286 -0.007075 0.000000 -0.002910 0.000000
# 3 -0.001255 -0.007075 0.019375 0.000000 -0.000316 0.000000
# 4 0.000000 0.000000 0.000000 0.042528 0.000000 0.014154
# 5 0.009179 -0.002910 -0.000316 0.000000 0.037258 0.000000
# 6 0.000000 0.000000 0.000000 0.014154 0.000000 0.053997
#
#
# Mechanical properties :
#
#
# Convention : Reuss Voigt Hill
#
# Bulk Modulus (GPa) = 38.46865 51.02205 44.74535
# Shear Modulus (GPa) = 22.08924 25.47947 23.78436
#
# Velocity S-wave (km/s) = 3.39453 3.64573 3.52237
# Velocity P-wave (km/s) = 5.95238 6.65863 6.31539
#
# Compressibility (1/GPa) = 0.02599519
#
# Stress axis : x y z
#
# Youngs Moduli (GPa) = 42.93738 81.39350 51.61191
#
# Poissons Ratio (x) = 0.50039 0.06478
# Poissons Ratio (y) = 0.26397 0.36516
# Poissons Ratio (z) = 0.05389 0.57587
#
# Static dielectric constant tensor:
#      x y z
#    x 3.425980 0.000000 -0.182380 
#    y 0.000000 4.077130 0.000000 
#    z -0.182380 0.000000 3.351390 
# 
# 
# High freq. dielectric constant tensor:
#      x y z
#    x 1.729140 0.000000 -0.023860 
#    y 0.000000 1.765030 0.000000 
#    z -0.023860 0.000000 1.720820 
# 
# From -- ./inp_files/37513.got.cif
#   From: 2010.06.25/outbox.cif.g09.slc.cpg/sg13_19_cif.got.tgz:37513.got - 2010.06.28 04:50:58.
