data_PCOD8117649
_publ_section_title
;
Structure prediction by ZEFSAII (Michael W. Deem and Ramdas Pophale) SiO2 
 PCOD8117649
Probable space group: P 2/C
;
_chemical_formula_sum "Si O2"
_cell_formula_units_Z 28
_cell_length_a 16.516155
_cell_length_b 13.855023
_cell_length_c 8.963819
_cell_angle_alpha 90.000000
_cell_angle_beta 133.620049
_cell_angle_gamma 90.000000
_cell_volume 1484.930600
_symmetry_space_group_name_H-M "P 2/C"
_symmetry_group_IT_number 13
_symmetry_cell_setting 'monoclinic'
loop_
_space_group_symop_operation_xyz
x,y,z
-x,y,1/2-z
-x,-y,-z
x,-y,1/2+z
loop_
_atom_site_type_symbol
_atom_site_label
_atom_site_fract_x
_atom_site_fract_y
_atom_site_fract_z
Si Si1 0.603964 0.630470 0.067078
Si Si2 0.406451 0.577941 0.002326
Si Si3 0.599845 0.059543 0.220589
Si Si4 0.242606 0.016832 0.812133
Si Si5 0.500000 0.775498 0.750000
Si Si6 0.129674 0.117100 0.392362
Si Si7 0.304337 0.737098 0.034883
Si Si8 0.500000 0.112563 0.750000
O O1 0.472713 0.607701 0.937182
O O2 0.671546 0.679497 0.284284
O O3 0.655542 0.526009 0.089091
O O4 0.603086 0.706621 0.930282
O O5 0.500000 0.578844 0.250000
O O6 0.310262 0.657742 0.910912
O O7 0.682963 0.060417 0.185912
O O8 0.530267 0.159032 0.142721
O O9 0.672583 0.066783 0.465814
O O10 0.519747 0.960571 0.131608
O O11 0.146695 0.964523 0.787426
O O12 0.187659 0.090476 0.624154
O O13 0.182474 0.216130 0.396896
O O14 0.000000 0.134691 0.250000
O O15 0.390726 0.822379 0.103938
#
# Coordination Sequence:
#
# PCOD8117649 Si02
#       8
#     4   4   4   4   2   4   4   2
#     4  10  19  31  48  75 110 136 173 215 266 323
#     4   9  18  32  49  75 104 139 173 214 266 327
#     4  10  23  30  50  80 117 143 181 212 263 324
#     4  10  20  38  52  76 109 146 182 226 264 298
#     4  11  22  25  46  78 114 149 170 207 260 330
#     4  11  23  39  58  78 104 146 195 231 265 314
#     4  11  20  34  57  75 106 149 177 218 273 326
#     4  11  18  33  50  78 116 145 176 207 258 332
#
# _framework density 18.856100999999999
#
# number of rings (size 3 to 8) (size 9 to 14) (size 15 to 20)
#    0.000    1.714    5.714    1.286    4.000    1.143 
#    0.000    0.000    0.000    0.857    0.000    0.000 
#    0.000    0.000    0.000    0.000    0.000    0.000 
#
# Total GULP energy -346987.018533 kJ/mol
# GULP energy per Si atom -12392.393519 kJ/mol
# Density = 1.881318 g / cm^3
# Si number density = 18.856101 Si / 1000 Ang^3
#
#
#
# Elastic Constant Matrix: (Units=GPa)
#
#
# Indices 1 2 3 4 5 6 
#
# 1 97.3712 42.8024 22.7961 0.0000 10.0389 0.0000
# 2 42.8024 134.2585 22.4494 0.0000 1.9526 0.0000
# 3 22.7961 22.4494 44.7987 0.0000 -2.8912 0.0000
# 4 0.0000 0.0000 0.0000 23.8141 0.0000 -9.4515
# 5 10.0389 1.9526 -2.8912 0.0000 30.3135 0.0000
# 6 0.0000 0.0000 0.0000 -9.4515 0.0000 31.4692
#
#
#
# Elastic Compliance Matrix: (Units=1/GPa)
#
#
# Indices 1 2 3 4 5 6 
#
# 1 0.013514 -0.003315 -0.005525 0.000000 -0.004789 0.000000
# 2 -0.003315 0.008968 -0.002791 0.000000 0.000254 0.000000
# 3 -0.005525 -0.002791 0.026827 0.000000 0.004568 0.000000
# 4 0.000000 0.000000 0.000000 0.047675 0.000000 0.014319
# 5 -0.004789 0.000254 0.004568 0.000000 0.034994 0.000000
# 6 0.000000 0.000000 0.000000 0.014319 0.000000 0.036078
#
#
# Mechanical properties :
#
#
# Convention : Reuss Voigt Hill
#
# Bulk Modulus (GPa) = 38.39058 50.28047 44.33552
# Shear Modulus (GPa) = 25.00007 29.67804 27.33905
#
# Velocity S-wave (km/s) = 3.64515 3.97157 3.81186
# Velocity P-wave (km/s) = 6.17415 6.91046 6.55265
#
# Compressibility (1/GPa) = 0.02604806
#
# Stress axis : x y z
#
# Youngs Moduli (GPa) = 73.99533 111.50602 37.27629
#
# Poissons Ratio (x) = 0.36964 0.20594
# Poissons Ratio (y) = 0.24530 0.10403
# Poissons Ratio (z) = 0.40880 0.31119
#
# Static dielectric constant tensor:
#      x y z
#    x 3.508820 0.000000 -0.408270 
#    y 0.000000 3.767630 0.000000 
#    z -0.408270 0.000000 3.447160 
# 
# 
# High freq. dielectric constant tensor:
#      x y z
#    x 1.706720 0.000000 -0.047320 
#    y 0.000000 1.740890 0.000000 
#    z -0.047320 0.000000 1.717210 
# 
# From -- ./inp_files/19452.got.cif
#   From: 2010.06.25/outbox.cif.g09.slc.cpg/sg13_10_cif.got.tgz:19452.got - 2010.06.28 04:50:58.
