data_PCOD8117098
_publ_section_title
;
Structure prediction by ZEFSAII (Michael W. Deem and Ramdas Pophale) SiO2 
 PCOD8117098
Probable space group: P 2/C
;
_chemical_formula_sum "Si O2"
_cell_formula_units_Z 30
_cell_length_a 17.687793
_cell_length_b 16.622410
_cell_length_c 9.925549
_cell_angle_alpha 90.000000
_cell_angle_beta 32.676718
_cell_angle_gamma 90.000000
_cell_volume 1575.557143
_symmetry_space_group_name_H-M "P 2/C"
_symmetry_group_IT_number 13
_symmetry_cell_setting 'monoclinic'
loop_
_space_group_symop_operation_xyz
x,y,z
-x,y,1/2-z
-x,-y,-z
x,-y,1/2+z
loop_
_atom_site_type_symbol
_atom_site_label
_atom_site_fract_x
_atom_site_fract_y
_atom_site_fract_z
Si Si1 0.334240 0.933308 0.848347
Si Si2 0.333396 0.241178 0.723064
Si Si3 0.333396 0.241178 0.276749
Si Si4 0.179651 0.463920 0.230522
Si Si5 0.334240 0.066692 0.648934
Si Si6 0.000000 0.500000 0.250000
Si Si7 0.664664 0.694705 0.003003
Si Si8 0.665657 0.633647 0.501514
O O1 0.270438 0.844754 0.916265
O O2 0.500000 0.929202 0.579331
O O3 0.268714 0.000000 0.846929
O O4 0.294723 0.960276 0.057916
O O5 0.500000 0.236232 0.469366
O O6 0.270438 0.155246 0.772422
O O7 0.272905 0.260124 0.961221
O O8 0.286569 0.314160 0.698096
O O9 0.286569 0.314160 0.442197
O O10 0.272906 0.260124 0.220064
O O11 0.093500 0.449492 0.218974
O O12 0.093497 0.449492 0.500528
O O13 0.302106 0.399393 0.046840
O O14 0.246504 0.552204 0.130244
O O15 0.500000 0.702416 0.250000
O O16 0.500000 0.614197 0.750000
#
# Coordination Sequence:
#
# PCOD8117098 Si02
#       8
#     4   4   4   4   4   2   4   4
#     4   9  16  25  38  57  87 132 176 200 224 276
#     4   9  17  28  41  65  98 130 164 204 246 283
#     4   9  17  28  41  65  98 130 164 204 246 283
#     4  11  21  38  54  74  97 131 170 202 250 299
#     4   9  16  25  38  57  87 132 176 200 224 276
#     4  10  24  38  54  70  96 130 166 212 252 290
#     4  10  20  31  49  75 102 129 165 210 248 292
#     4  10  18  31  53  73  98 131 165 208 250 294
#
# _framework density 19.040883999999998
#
# number of rings (size 3 to 8) (size 9 to 14) (size 15 to 20)
#    0.000    2.400    1.333    2.000    1.867    0.000 
#    0.000    5.333    0.000    0.000    0.000    0.000 
#    0.000    0.000    0.000   84.000    0.000   37.333 
#
# Total GULP energy -371701.595895 kJ/mol
# GULP energy per Si atom -12390.053196 kJ/mol
# Density = 1.899755 g / cm^3
# Si number density = 19.040884 Si / 1000 Ang^3
#
#
#
# Elastic Constant Matrix: (Units=GPa)
#
#
# Indices 1 2 3 4 5 6 
#
# 1 83.3965 43.0183 42.2263 0.0000 41.8382 0.0000
# 2 43.0183 138.9074 36.2588 0.0000 22.9868 0.0000
# 3 42.2263 36.2588 60.8291 0.0000 34.9060 0.0000
# 4 0.0000 0.0000 0.0000 14.1868 0.0000 14.0207
# 5 41.8382 22.9868 34.9060 0.0000 38.0070 0.0000
# 6 0.0000 0.0000 0.0000 14.0207 0.0000 18.3100
#
#
#
# Elastic Compliance Matrix: (Units=1/GPa)
#
#
# Indices 1 2 3 4 5 6 
#
# 1 0.028794 -0.003866 -0.001769 0.000000 -0.027734 0.000000
# 2 -0.003866 0.009064 -0.004261 0.000000 0.002687 0.000000
# 3 -0.001769 -0.004261 0.037234 0.000000 -0.029672 0.000000
# 4 0.000000 0.000000 0.000000 0.289797 0.000000 -0.221909
# 5 -0.027734 0.002687 -0.029672 0.000000 0.082466 0.000000
# 6 0.000000 0.000000 0.000000 -0.221909 0.000000 0.224539
#
#
# Mechanical properties :
#
#
# Convention : Reuss Voigt Hill
#
# Bulk Modulus (GPa) = 18.08330 58.45997 38.27164
# Shear Modulus (GPa) = 7.04106 24.87607 15.95856
#
# Velocity S-wave (km/s) = 1.92507 3.61841 2.89817
# Velocity P-wave (km/s) = 3.80249 6.94451 5.59844
#
# Compressibility (1/GPa) = 0.05529963
#
# Stress axis : x y z
#
# Youngs Moduli (GPa) = 34.72894 110.32797 26.85686
#
# Poissons Ratio (x) = 0.42653 0.04752
# Poissons Ratio (y) = 0.13426 0.11444
# Poissons Ratio (z) = 0.06145 0.47012
#
# Static dielectric constant tensor:
#      x y z
#    x 3.506360 0.000000 0.538620 
#    y 0.000000 3.534520 0.000000 
#    z 0.538620 0.000000 3.347950 
# 
# 
# High freq. dielectric constant tensor:
#      x y z
#    x 1.721560 0.000000 0.051420 
#    y 0.000000 1.742520 0.000000 
#    z 0.051420 0.000000 1.706440 
# 
# From -- ./inp_files/17088.got.cif
#   From: 2010.06.25/outbox.cif.g09.slc.cpg/sg13_9_cif.got.tgz:17088.got - 2010.06.28 04:50:58.
