data_PCOD8117974
_publ_section_title
;
Structure prediction by ZEFSAII (Michael W. Deem and Ramdas Pophale) SiO2 
 PCOD8117974
Probable space group: P 2/C
;
_chemical_formula_sum "Si O2"
_cell_formula_units_Z 26
_cell_length_a 6.422210
_cell_length_b 10.811338
_cell_length_c 24.244615
_cell_angle_alpha 90.000000
_cell_angle_beta 62.499926
_cell_angle_gamma 90.000000
_cell_volume 1493.165241
_symmetry_space_group_name_H-M "P 2/C"
_symmetry_group_IT_number 13
_symmetry_cell_setting 'monoclinic'
loop_
_space_group_symop_operation_xyz
x,y,z
-x,y,1/2-z
-x,-y,-z
x,-y,1/2+z
loop_
_atom_site_type_symbol
_atom_site_label
_atom_site_fract_x
_atom_site_fract_y
_atom_site_fract_z
Si Si1 0.583423 0.322381 0.030454
Si Si2 0.293055 0.095557 0.037157
Si Si3 0.911966 0.234399 0.537270
Si Si4 0.500000 0.874440 0.250000
Si Si5 0.774646 0.256480 0.809279
Si Si6 0.497025 0.417971 0.922140
Si Si7 0.969391 0.916586 0.139356
O O1 0.386122 0.216317 0.057871
O O2 0.519048 0.433411 0.079954
O O3 0.608925 0.376840 0.966171
O O4 0.831253 0.264633 0.017216
O O5 0.087840 0.038795 0.099911
O O6 0.195188 0.130170 0.989221
O O7 0.500000 0.000000 0.000000
O O8 0.759700 0.359200 0.554712
O O9 0.916166 0.182291 0.598359
O O10 0.422037 0.789558 0.208783
O O11 0.725852 0.953454 0.200815
O O12 0.672803 0.373396 0.853671
O O13 0.845799 0.143887 0.840904
O O14 0.000000 0.307903 0.750000
#
# Coordination Sequence:
#
# PCOD8117974 Si02
#       7
#     4   4   4   2   4   4   4
#     4  10  21  33  52  82 110 147 174 217 282 333
#     4  11  22  33  53  83 113 146 178 221 279 335
#     4  11  19  33  55  83 109 145 175 221 287 325
#     4  10  22  34  54  80 104 144 182 224 276 312
#     4  10  20  35  55  82 104 141 183 226 278 310
#     4  10  19  35  53  78 113 137 180 227 268 333
#     4  11  20  34  55  80 113 140 183 228 270 332
#
# _framework density 17.412672000000001
#
# number of rings (size 3 to 8) (size 9 to 14) (size 15 to 20)
#    0.000    1.538    4.615    1.846    0.000    0.000 
#    0.000    0.000    0.000    4.615    0.000    1.077 
#    0.000    0.000    0.000    0.000    0.000    0.000 
#
# Total GULP energy -322415.477713 kJ/mol
# GULP energy per Si atom -12400.595297 kJ/mol
# Density = 1.737304 g / cm^3
# Si number density = 17.412672 Si / 1000 Ang^3
#
#
#
# Elastic Constant Matrix: (Units=GPa)
#
#
# Indices 1 2 3 4 5 6 
#
# 1 103.4009 43.8498 39.1940 0.0000 1.7811 0.0000
# 2 43.8498 106.1558 48.4319 0.0000 -6.1359 0.0000
# 3 39.1940 48.4319 91.6751 0.0000 -11.7375 0.0000
# 4 0.0000 0.0000 0.0000 27.3114 0.0000 -5.6018
# 5 1.7811 -6.1359 -11.7375 0.0000 37.3354 0.0000
# 6 0.0000 0.0000 0.0000 -5.6018 0.0000 24.1697
#
#
#
# Elastic Compliance Matrix: (Units=1/GPa)
#
#
# Indices 1 2 3 4 5 6 
#
# 1 0.012704 -0.003647 -0.003812 0.000000 -0.002404 0.000000
# 2 -0.003647 0.013459 -0.005465 0.000000 0.000668 0.000000
# 3 -0.003812 -0.005465 0.015977 0.000000 0.004306 0.000000
# 4 0.000000 0.000000 0.000000 0.038442 0.000000 0.008910
# 5 -0.002404 0.000668 0.004306 0.000000 0.028363 0.000000
# 6 0.000000 0.000000 0.000000 0.008910 0.000000 0.043439
#
#
# Mechanical properties :
#
#
# Convention : Reuss Voigt Hill
#
# Bulk Modulus (GPa) = 61.38920 62.68702 62.03811
# Shear Modulus (GPa) = 27.22360 29.08037 28.15198
#
# Velocity S-wave (km/s) = 3.95832 4.09108 4.02525
# Velocity P-wave (km/s) = 7.49820 7.64165 7.57027
#
# Compressibility (1/GPa) = 0.01628951
#
# Stress axis : x y z
#
# Youngs Moduli (GPa) = 78.71308 74.30043 62.59086
#
# Poissons Ratio (x) = 0.27100 0.23862
# Poissons Ratio (y) = 0.28710 0.34209
# Poissons Ratio (z) = 0.30009 0.40609
#
# Static dielectric constant tensor:
#      x y z
#    x 3.512390 0.000000 -0.013760 
#    y 0.000000 3.172480 0.000000 
#    z -0.013760 0.000000 3.253190 
# 
# 
# High freq. dielectric constant tensor:
#      x y z
#    x 1.696670 0.000000 -0.000050 
#    y 0.000000 1.649590 0.000000 
#    z -0.000050 0.000000 1.660270 
# 
# From -- ./inp_files/73378.got.cif
#   From: 2010.06.25/outbox.cif.g09.slc.cpg/sg13_37_cif.got.tgz:73378.got - 2010.06.28 04:50:58.
