data_PCOD8117161
_publ_section_title
;
Structure prediction by ZEFSAII (Michael W. Deem and Ramdas Pophale) SiO2 
 PCOD8117161
Probable space group: P 2/C
;
_chemical_formula_sum "Si O2"
_cell_formula_units_Z 28
_cell_length_a 14.803199
_cell_length_b 9.254358
_cell_length_c 10.792949
_cell_angle_alpha 90.000000
_cell_angle_beta 65.247839
_cell_angle_gamma 90.000000
_cell_volume 1342.730239
_symmetry_space_group_name_H-M "P 2/C"
_symmetry_group_IT_number 13
_symmetry_cell_setting 'monoclinic'
loop_
_space_group_symop_operation_xyz
x,y,z
-x,y,1/2-z
-x,-y,-z
x,-y,1/2+z
loop_
_atom_site_type_symbol
_atom_site_label
_atom_site_fract_x
_atom_site_fract_y
_atom_site_fract_z
Si Si1 0.804765 0.908004 0.090576
Si Si2 0.595625 0.700857 0.932100
Si Si3 0.412023 0.393901 0.654985
Si Si4 0.387268 0.910054 0.789047
Si Si5 0.730083 0.685565 0.480240
Si Si6 0.730495 0.622168 0.056828
Si Si7 0.115909 0.085168 0.682999
O O1 0.809142 0.733043 0.073993
O O2 0.852150 0.959777 0.194423
O O3 0.688534 0.955874 0.156459
O O4 0.861184 0.966678 0.936323
O O5 0.560043 0.564162 0.869328
O O6 0.611642 0.849111 0.850468
O O7 0.503078 0.716159 0.079805
O O8 0.702504 0.673328 0.934581
O O9 0.320362 0.363245 0.616684
O O10 0.375634 0.368756 0.814174
O O11 0.500000 0.960609 0.750000
O O12 0.349706 0.781380 0.899435
O O13 0.767081 0.544567 0.536981
O O14 0.829752 0.769950 0.390319
O O15 0.000000 0.116915 0.750000
#
# Coordination Sequence:
#
# PCOD8117161 Si02
#       7
#     4   4   4   4   4   4   4
#     4  11  25  43  66  98 130 168 212 267 326 389
#     4  10  20  30  55  86 121 173 214 245 295 362
#     4  10  18  32  54  84 123 164 211 252 293 357
#     4  11  21  37  57  90 132 172 209 252 308 380
#     4  10  21  38  63  89 123 166 209 260 315 372
#     4  11  21  37  58  90 128 165 208 261 313 374
#     4  11  24  48  72  93 121 166 216 273 333 390
#
# _framework density 20.853034999999998
#
# number of rings (size 3 to 8) (size 9 to 14) (size 15 to 20)
#    0.000    1.429    4.286    1.714    0.000    1.143 
#    0.000    4.286    0.000    0.000    0.000    0.000 
#    0.000    0.000    0.000    0.000    0.000    0.000 
#
# Total GULP energy -347001.110745 kJ/mol
# GULP energy per Si atom -12392.896812 kJ/mol
# Density = 2.080557 g / cm^3
# Si number density = 20.853035 Si / 1000 Ang^3
#
#
#
# Elastic Constant Matrix: (Units=GPa)
#
#
# Indices 1 2 3 4 5 6 
#
# 1 94.6862 26.0138 40.4966 0.0000 -9.4279 0.0000
# 2 26.0138 87.7511 27.1564 0.0000 -5.2665 0.0000
# 3 40.4966 27.1564 93.3441 0.0000 -0.8729 0.0000
# 4 0.0000 0.0000 0.0000 20.1871 0.0000 8.0614
# 5 -9.4279 -5.2665 -0.8729 0.0000 39.9100 0.0000
# 6 0.0000 0.0000 0.0000 8.0614 0.0000 16.4035
#
#
#
# Elastic Compliance Matrix: (Units=1/GPa)
#
#
# Indices 1 2 3 4 5 6 
#
# 1 0.013717 -0.002268 -0.005265 0.000000 0.002826 0.000000
# 2 -0.002268 0.012998 -0.002787 0.000000 0.001119 0.000000
# 3 -0.005265 -0.002787 0.013796 0.000000 -0.001310 0.000000
# 4 0.000000 0.000000 0.000000 0.061632 0.000000 -0.030289
# 5 0.002826 0.001119 -0.001310 0.000000 0.025843 0.000000
# 6 0.000000 0.000000 0.000000 -0.030289 0.000000 0.075848
#
#
# Mechanical properties :
#
#
# Convention : Reuss Voigt Hill
#
# Bulk Modulus (GPa) = 50.32346 51.45723 50.89035
# Shear Modulus (GPa) = 21.63594 27.44110 24.53852
#
# Velocity S-wave (km/s) = 3.22459 3.63151 3.43408
# Velocity P-wave (km/s) = 6.16837 6.50488 6.33886
#
# Compressibility (1/GPa) = 0.01987145
#
# Stress axis : x y z
#
# Youngs Moduli (GPa) = 72.90017 76.93633 72.48539
#
# Poissons Ratio (x) = 0.17445 0.38164
# Poissons Ratio (y) = 0.16530 0.20203
# Poissons Ratio (z) = 0.38382 0.21444
#
# Static dielectric constant tensor:
#      x y z
#    x 3.411310 0.000000 0.178040 
#    y 0.000000 3.820450 0.000000 
#    z 0.178040 0.000000 3.987840 
# 
# 
# High freq. dielectric constant tensor:
#      x y z
#    x 1.784400 0.000000 0.019970 
#    y 0.000000 1.812130 0.000000 
#    z 0.019970 0.000000 1.826240 
# 
# From -- ./inp_files/36246.got.cif
#   From: 2010.06.25/outbox.cif.g09.slc.cpg/sg13_19_cif.got.tgz:36246.got - 2010.06.28 04:50:58.
