data_PCOD8117641
_publ_section_title
;
Structure prediction by ZEFSAII (Michael W. Deem and Ramdas Pophale) SiO2 
 PCOD8117641
Probable space group: P 2/C
;
_chemical_formula_sum "Si O2"
_cell_formula_units_Z 32
_cell_length_a 12.501637
_cell_length_b 27.616546
_cell_length_c 5.212732
_cell_angle_alpha 90.000000
_cell_angle_beta 85.152992
_cell_angle_gamma 90.000000
_cell_volume 1793.270340
_symmetry_space_group_name_H-M "P 2/C"
_symmetry_group_IT_number 13
_symmetry_cell_setting 'monoclinic'
loop_
_space_group_symop_operation_xyz
x,y,z
-x,y,1/2-z
-x,-y,-z
x,-y,1/2+z
loop_
_atom_site_type_symbol
_atom_site_label
_atom_site_fract_x
_atom_site_fract_y
_atom_site_fract_z
Si Si1 0.255228 0.280268 0.815941
Si Si2 0.121038 0.520268 0.442175
Si Si3 0.127926 0.972592 0.730297
Si Si4 0.752238 0.607214 0.200573
Si Si5 0.619504 0.605739 0.739860
Si Si6 0.871822 0.863110 0.770131
Si Si7 0.617241 0.718781 0.715965
Si Si8 0.873792 0.190516 0.767859
O O1 0.217168 0.336216 0.829069
O O2 0.341746 0.271534 0.577179
O O3 0.154089 0.246931 0.765824
O O4 0.303974 0.261778 0.076415
O O5 0.178213 0.510903 0.704127
O O6 0.136172 0.576640 0.354474
O O7 0.000000 0.500000 0.500000
O O8 0.171047 0.917870 0.744167
O O9 0.000000 0.972858 0.750000
O O10 0.172365 0.997163 0.462636
O O11 0.692727 0.594288 0.477747
O O12 0.675788 0.587944 0.988777
O O13 0.500000 0.582052 0.750000
O O14 0.604657 0.662576 0.775601
O O15 0.826587 0.831651 0.540803
O O16 0.000000 0.862266 0.750000
O O17 0.826188 0.840482 0.041750
O O18 0.500000 0.743752 0.750000
O O19 0.000000 0.186189 0.750000
#
# Coordination Sequence:
#
# PCOD8117641 Si02
#       8
#     4   4   4   4   4   4   4   4
#     4  10  19  31  49  73  98 124 162 198 230 278
#     4  10  21  38  57  73  93 123 160 193 242 289
#     4   9  15  23  37  58  79 104 155 215 249 271
#     4  10  19  33  54  75  98 123 156 199 234 278
#     4   9  17  30  52  79 102 124 147 182 235 289
#     4   9  17  28  42  56  84 127 165 199 242 283
#     4   9  17  30  49  73  98 121 152 194 241 286
#     4  10  19  31  43  61  93 133 168 194 228 277
#
# _framework density 17.844493
#
# number of rings (size 3 to 8) (size 9 to 14) (size 15 to 20)
#    0.000    2.500    0.000    3.000    0.000    6.000 
#    2.250    0.000    5.500    7.500    0.000    0.000 
#    0.000    0.000    0.000    0.000    0.000  157.500 
#
# Total GULP energy -396497.101634 kJ/mol
# GULP energy per Si atom -12390.534426 kJ/mol
# Density = 1.780388 g / cm^3
# Si number density = 17.844493 Si / 1000 Ang^3
#
#
#
# Elastic Constant Matrix: (Units=GPa)
#
#
# Indices 1 2 3 4 5 6 
#
# 1 33.3035 31.5725 21.2424 0.0000 2.4982 0.0000
# 2 31.5725 105.1271 51.9040 0.0000 -0.3323 0.0000
# 3 21.2424 51.9040 149.2868 0.0000 9.6394 0.0000
# 4 0.0000 0.0000 0.0000 24.3596 0.0000 1.1555
# 5 2.4982 -0.3323 9.6394 0.0000 13.8973 0.0000
# 6 0.0000 0.0000 0.0000 1.1555 0.0000 4.5576
#
#
#
# Elastic Compliance Matrix: (Units=1/GPa)
#
#
# Indices 1 2 3 4 5 6 
#
# 1 0.043084 -0.012265 -0.001410 0.000000 -0.007060 0.000000
# 2 -0.012265 0.015112 -0.003847 0.000000 0.005234 0.000000
# 3 -0.001410 -0.003847 0.008612 0.000000 -0.005812 0.000000
# 4 0.000000 0.000000 0.000000 0.041551 0.000000 -0.010534
# 5 -0.007060 0.005234 -0.005812 0.000000 0.077382 0.000000
# 6 0.000000 0.000000 0.000000 -0.010534 0.000000 0.222087
#
#
# Mechanical properties :
#
#
# Convention : Reuss Voigt Hill
#
# Bulk Modulus (GPa) = 31.48341 55.23947 43.36144
# Shear Modulus (GPa) = 11.02635 20.76279 15.89457
#
# Velocity S-wave (km/s) = 2.48848 3.41477 2.98774
# Velocity P-wave (km/s) = 5.09296 6.82428 6.02117
#
# Compressibility (1/GPa) = 0.03176276
#
# Stress axis : x y z
#
# Youngs Moduli (GPa) = 23.21065 66.17409 116.11852
#
# Poissons Ratio (x) = 0.81164 0.16376
# Poissons Ratio (y) = 0.28468 0.44668
# Poissons Ratio (z) = 0.03273 0.25455
#
# Static dielectric constant tensor:
#      x y z
#    x 3.153730 0.000000 0.998180 
#    y 0.000000 3.259990 0.000000 
#    z 0.998180 0.000000 7.689270 
# 
# 
# High freq. dielectric constant tensor:
#      x y z
#    x 1.632750 0.000000 0.005020 
#    y 0.000000 1.671680 0.000000 
#    z 0.005020 0.000000 1.723380 
# 
# From -- ./inp_files/4369.got.cif
#   From: 2010.06.25/outbox.cif.g09.slc.cpg/sg13_3_cif.got.tgz:4369.got - 2010.06.28 04:50:58.
