data_PCOD8117432
_publ_section_title
;
Structure prediction by ZEFSAII (Michael W. Deem and Ramdas Pophale) SiO2 
 PCOD8117432
Probable space group: P 2/C
;
_chemical_formula_sum "Si O2"
_cell_formula_units_Z 22
_cell_length_a 6.559084
_cell_length_b 7.798534
_cell_length_c 19.849124
_cell_angle_alpha 90.000000
_cell_angle_beta 85.116638
_cell_angle_gamma 90.000000
_cell_volume 1011.621791
_symmetry_space_group_name_H-M "P 2/C"
_symmetry_group_IT_number 13
_symmetry_cell_setting 'monoclinic'
loop_
_space_group_symop_operation_xyz
x,y,z
-x,y,1/2-z
-x,-y,-z
x,-y,1/2+z
loop_
_atom_site_type_symbol
_atom_site_label
_atom_site_fract_x
_atom_site_fract_y
_atom_site_fract_z
Si Si1 0.158223 0.627591 0.963897
Si Si2 0.000000 0.731343 0.750000
Si Si3 0.847517 0.547159 0.165212
Si Si4 0.774649 0.741855 0.399863
Si Si5 0.593206 0.869597 0.179362
Si Si6 0.964527 0.071128 0.121802
O O1 0.267564 0.526120 0.898988
O O2 0.034961 0.788760 0.936757
O O3 0.301132 0.684239 0.022759
O O4 0.000000 0.500000 0.000000
O O5 0.832383 0.602582 0.721839
O O6 0.074569 0.853903 0.686660
O O7 0.737201 0.712299 0.198083
O O8 0.085655 0.596839 0.141134
O O9 0.574718 0.792941 0.365320
O O10 0.912670 0.908960 0.407559
O O11 0.500000 0.948583 0.250000
O O12 0.727701 0.018996 0.142240
#
# Coordination Sequence:
#
# PCOD8117432 Si02
#       6
#     4   2   4   4   4   4
#     4   9  19  38  60  82 110 147 186 228 278 326
#     4  10  18  36  56  74 112 146 172 228 276 308
#     4   9  20  37  57  81 109 143 187 229 272 332
#     4  10  20  37  59  80 111 148 180 229 283 322
#     4  11  22  36  56  84 113 146 186 225 275 332
#     4  10  21  37  58  84 112 145 188 227 269 335
#
# _framework density 21.747257999999999
#
# number of rings (size 3 to 8) (size 9 to 14) (size 15 to 20)
#    0.000    2.182    0.000    2.727    0.000    4.364 
#    0.000   23.636    0.000    0.000    0.000    0.000 
#    0.000    0.000    0.000    0.000    0.000    0.000 
#
# Total GULP energy -272570.093011 kJ/mol
# GULP energy per Si atom -12389.549682 kJ/mol
# Density = 2.169776 g / cm^3
# Si number density = 21.747258 Si / 1000 Ang^3
#
#
#
# Elastic Constant Matrix: (Units=GPa)
#
#
# Indices 1 2 3 4 5 6 
#
# 1 64.7741 19.6543 35.7819 0.0000 5.0975 0.0000
# 2 19.6543 97.4133 31.5661 0.0000 -3.0142 0.0000
# 3 35.7819 31.5661 136.3454 0.0000 17.3834 0.0000
# 4 0.0000 0.0000 0.0000 45.0382 0.0000 3.5560
# 5 5.0975 -3.0142 17.3834 0.0000 23.9701 0.0000
# 6 0.0000 0.0000 0.0000 3.5560 0.0000 14.4265
#
#
#
# Elastic Compliance Matrix: (Units=1/GPa)
#
#
# Indices 1 2 3 4 5 6 
#
# 1 0.018569 -0.002441 -0.004149 0.000000 -0.001247 0.000000
# 2 -0.002441 0.011707 -0.002560 0.000000 0.003848 0.000000
# 3 -0.004149 -0.002560 0.009856 0.000000 -0.006587 0.000000
# 4 0.000000 0.000000 0.000000 0.022644 0.000000 -0.005582
# 5 -0.001247 0.003848 -0.006587 0.000000 0.047245 0.000000
# 6 0.000000 0.000000 0.000000 -0.005582 0.000000 0.070693
#
#
# Mechanical properties :
#
#
# Convention : Reuss Voigt Hill
#
# Bulk Modulus (GPa) = 45.80599 52.50414 49.15507
# Shear Modulus (GPa) = 24.23771 30.78901 27.51336
#
# Velocity S-wave (km/s) = 3.34206 3.76675 3.56074
# Velocity P-wave (km/s) = 6.00009 6.56606 6.28945
#
# Compressibility (1/GPa) = 0.02183121
#
# Stress axis : x y z
#
# Youngs Moduli (GPa) = 53.85326 85.42124 101.46304
#
# Poissons Ratio (x) = 0.20848 0.42099
# Poissons Ratio (y) = 0.13143 0.25978
# Poissons Ratio (z) = 0.22345 0.21871
#
# Static dielectric constant tensor:
#      x y z
#    x 3.472130 0.000000 -0.017700 
#    y 0.000000 4.239570 0.000000 
#    z -0.017700 0.000000 4.888850 
# 
# 
# High freq. dielectric constant tensor:
#      x y z
#    x 1.794390 0.000000 0.007220 
#    y 0.000000 1.876470 0.000000 
#    z 0.007220 0.000000 1.876000 
# 
# From -- ./inp_files/73092.got.cif
#   From: 2010.06.25/outbox.cif.g09.slc.cpg/sg13_37_cif.got.tgz:73092.got - 2010.06.28 04:50:58.
