data_PCOD8117317
_publ_section_title
;
Structure prediction by ZEFSAII (Michael W. Deem and Ramdas Pophale) SiO2 
 PCOD8117317
Probable space group: P 2/C
;
_chemical_formula_sum "Si O2"
_cell_formula_units_Z 28
_cell_length_a 24.438362
_cell_length_b 9.706720
_cell_length_c 8.606260
_cell_angle_alpha 90.000000
_cell_angle_beta 138.124300
_cell_angle_gamma 90.000000
_cell_volume 1362.765946
_symmetry_space_group_name_H-M "P 2/C"
_symmetry_group_IT_number 13
_symmetry_cell_setting 'monoclinic'
loop_
_space_group_symop_operation_xyz
x,y,z
-x,y,1/2-z
-x,-y,-z
x,-y,1/2+z
loop_
_atom_site_type_symbol
_atom_site_label
_atom_site_fract_x
_atom_site_fract_y
_atom_site_fract_z
Si Si1 0.152728 0.316258 0.776130
Si Si2 0.094844 0.069283 0.476011
Si Si3 0.677908 0.366949 0.461862
Si Si4 0.837514 0.819537 0.702484
Si Si5 0.325993 0.330006 0.681390
Si Si6 0.905381 0.422984 0.520425
Si Si7 0.497773 0.350542 0.427007
O O1 0.100282 0.179842 0.627660
O O2 0.137303 0.366153 0.916401
O O3 0.132460 0.431167 0.604849
O O4 0.249085 0.280959 0.963404
O O5 0.138534 0.127997 0.416419
O O6 0.000000 0.032455 0.250000
O O7 0.142797 0.931956 0.625019
O O8 0.685113 0.360233 0.661422
O O9 0.686769 0.527895 0.437368
O O10 0.593039 0.293223 0.220943
O O11 0.740994 0.782770 0.511877
O O12 0.891571 0.683547 0.850327
O O13 0.419082 0.270677 0.842518
O O14 0.000000 0.446191 0.750000
O O15 0.500000 0.367502 0.250000
O O16 0.500000 0.500000 0.500000
#
# Coordination Sequence:
#
# PCOD8117317 Si02
#       7
#     4   4   4   4   4   4   4
#     4  12  22  38  61  88 120 154 200 248 299 360
#     4  12  25  43  61  84 116 161 208 253 301 359
#     4  10  18  34  57  91 122 150 189 237 299 350
#     4  12  24  42  61  84 117 157 207 249 302 361
#     4  10  19  35  58  90 122 154 191 239 300 357
#     4  12  24  39  59  88 120 158 198 253 305 350
#     4   8  16  29  53  85 121 152 179 233 289 357
#
# _framework density 20.54645
#
# number of rings (size 3 to 8) (size 9 to 14) (size 15 to 20)
#    0.000    1.143    2.857    5.143    0.000    0.000 
#    0.000    0.000    0.000    0.857    0.000    0.000 
#    0.000    0.000    0.000    0.000    0.000    0.000 
#
# Total GULP energy -347048.888099 kJ/mol
# GULP energy per Si atom -12394.603146 kJ/mol
# Density = 2.049968 g / cm^3
# Si number density = 20.546450 Si / 1000 Ang^3
#
#
#
# Elastic Constant Matrix: (Units=GPa)
#
#
# Indices 1 2 3 4 5 6 
#
# 1 90.3842 12.6506 42.5055 0.0000 30.5435 0.0000
# 2 12.6506 66.1674 37.5047 0.0000 19.5030 0.0000
# 3 42.5055 37.5047 111.6055 0.0000 34.3765 0.0000
# 4 0.0000 0.0000 0.0000 247.2350 0.0000 20.5258
# 5 30.5435 19.5030 34.3765 0.0000 36.1524 0.0000
# 6 0.0000 0.0000 0.0000 20.5258 0.0000 23.6912
#
#
#
# Elastic Compliance Matrix: (Units=1/GPa)
#
#
# Indices 1 2 3 4 5 6 
#
# 1 0.016311 0.002254 -0.003324 0.000000 -0.011836 0.000000
# 2 0.002254 0.019884 -0.005162 0.000000 -0.007723 0.000000
# 3 -0.003324 -0.005162 0.014479 0.000000 -0.008174 0.000000
# 4 0.000000 0.000000 0.000000 0.004358 0.000000 -0.003776
# 5 -0.011836 -0.007723 -0.008174 0.000000 0.049600 0.000000
# 6 0.000000 0.000000 0.000000 -0.003776 0.000000 0.045481
#
#
# Mechanical properties :
#
#
# Convention : Reuss Voigt Hill
#
# Bulk Modulus (GPa) = 26.17031 50.38650 38.27841
# Shear Modulus (GPa) = 28.52031 73.11546 50.81789
#
# Velocity S-wave (km/s) = 3.72975 5.97183 4.97864
# Velocity P-wave (km/s) = 5.59579 8.49275 7.19165
#
# Compressibility (1/GPa) = 0.03821123
#
# Stress axis : x y z
#
# Youngs Moduli (GPa) = 61.30704 50.29068 69.06755
#
# Poissons Ratio (x) = -0.11337 0.22959
# Poissons Ratio (y) = -0.13820 0.35651
# Poissons Ratio (z) = 0.20379 0.25959
#
# Static dielectric constant tensor:
#      x y z
#    x 4.011830 0.000000 0.357310 
#    y 0.000000 3.529360 0.000000 
#    z 0.357310 0.000000 4.399520 
# 
# 
# High freq. dielectric constant tensor:
#      x y z
#    x 1.813870 0.000000 0.008610 
#    y 0.000000 1.759560 0.000000 
#    z 0.008610 0.000000 1.830130 
# 
# From -- ./inp_files/24617.got.cif
#   From: 2010.06.25/outbox.cif.g09.slc.cpg/sg13_13_cif.got.tgz:24617.got - 2010.06.28 04:50:58.
