data_PCOD8117192
_publ_section_title
;
Structure prediction by ZEFSAII (Michael W. Deem and Ramdas Pophale) SiO2 
 PCOD8117192
Probable space group: P 2/C
;
_chemical_formula_sum "Si O2"
_cell_formula_units_Z 30
_cell_length_a 8.818358
_cell_length_b 11.289238
_cell_length_c 15.763672
_cell_angle_alpha 90.000000
_cell_angle_beta 58.467056
_cell_angle_gamma 90.000000
_cell_volume 1337.588140
_symmetry_space_group_name_H-M "P 2/C"
_symmetry_group_IT_number 13
_symmetry_cell_setting 'monoclinic'
loop_
_space_group_symop_operation_xyz
x,y,z
-x,y,1/2-z
-x,-y,-z
x,-y,1/2+z
loop_
_atom_site_type_symbol
_atom_site_label
_atom_site_fract_x
_atom_site_fract_y
_atom_site_fract_z
Si Si1 0.699175 0.004344 0.473135
Si Si2 0.844442 0.745402 0.905858
Si Si3 0.227074 0.805990 0.809604
Si Si4 0.788459 0.753768 0.487985
Si Si5 0.436556 0.347133 0.131210
Si Si6 0.168856 0.700707 0.392822
Si Si7 0.301147 0.054877 0.830550
Si Si8 0.500000 0.459391 0.750000
O O1 0.789231 0.117813 0.402009
O O2 0.712623 0.022390 0.568293
O O3 0.500000 0.000000 0.500000
O O4 0.792026 0.875100 0.430429
O O5 0.733804 0.651778 0.881605
O O6 0.053229 0.741750 0.820980
O O7 0.809255 0.707837 0.012742
O O8 0.229355 0.781368 0.907815
O O9 0.400966 0.754769 0.712098
O O10 0.225913 0.947679 0.795290
O O11 0.608410 0.680020 0.521462
O O12 0.964588 0.670608 0.424296
O O13 0.468343 0.468055 0.172932
O O14 0.186873 0.829411 0.344842
O O15 0.317585 0.613898 0.312454
O O16 0.500000 0.087544 0.750000
#
# Coordination Sequence:
#
# PCOD8117192 Si02
#       8
#     4   4   4   4   4   4   4   2
#     4  10  18  32  59  97 132 157 189 249 315 390
#     4  10  22  37  62  93 127 158 203 258 325 375
#     4  10  19  36  60  97 123 157 198 253 314 387
#     4  10  19  37  63  91 123 161 206 246 316 379
#     4  12  22  39  63  92 124 164 210 268 314 367
#     4  10  23  43  63  88 119 170 215 260 304 378
#     4  10  19  34  63  89 127 165 201 243 315 382
#     4  12  26  44  66  84 122 168 234 266 306 362
#
# _framework density 22.428429000000001
#
# number of rings (size 3 to 8) (size 9 to 14) (size 15 to 20)
#    0.000    1.600    3.333    2.800    0.000    4.267 
#    0.000    0.000    2.933    1.600    0.000    0.000 
#    0.000    0.000    0.000    0.000    0.000    0.000 
#
# Total GULP energy -371698.687807 kJ/mol
# GULP energy per Si atom -12389.956260 kJ/mol
# Density = 2.237738 g / cm^3
# Si number density = 22.428429 Si / 1000 Ang^3
#
#
#
# Elastic Constant Matrix: (Units=GPa)
#
#
# Indices 1 2 3 4 5 6 
#
# 1 118.3968 35.7119 18.0541 0.0000 -30.2351 0.0000
# 2 35.7119 88.9994 30.5064 0.0000 -11.4539 0.0000
# 3 18.0541 30.5064 47.6769 0.0000 -31.8867 0.0000
# 4 0.0000 0.0000 0.0000 22.5481 0.0000 -3.3535
# 5 -30.2351 -11.4539 -31.8867 0.0000 36.9456 0.0000
# 6 0.0000 0.0000 0.0000 -3.3535 0.0000 28.9094
#
#
#
# Elastic Compliance Matrix: (Units=1/GPa)
#
#
# Indices 1 2 3 4 5 6 
#
# 1 0.013912 -0.007472 0.013194 0.000000 0.020456 0.000000
# 2 -0.007472 0.019553 -0.022984 0.000000 -0.019891 0.000000
# 3 0.013194 -0.022984 0.078390 0.000000 0.071328 0.000000
# 4 0.000000 0.000000 0.000000 0.045128 0.000000 0.005235
# 5 0.020456 -0.019891 0.071328 0.000000 0.099203 0.000000
# 6 0.000000 0.000000 0.000000 0.005235 0.000000 0.035198
#
#
# Mechanical properties :
#
#
# Convention : Reuss Voigt Hill
#
# Bulk Modulus (GPa) = 12.93161 47.06866 30.00013
# Shear Modulus (GPa) = 14.21728 29.06733 21.64231
#
# Velocity S-wave (km/s) = 2.52046 3.60391 3.10973
# Velocity P-wave (km/s) = 3.77472 6.19268 5.12825
#
# Compressibility (1/GPa) = 0.07732990
#
# Stress axis : x y z
#
# Youngs Moduli (GPa) = 71.88048 51.14326 12.75678
#
# Poissons Ratio (x) = 0.38216 -0.16832
# Poissons Ratio (y) = 0.53711 0.29321
# Poissons Ratio (z) = -0.94842 1.17550
#
# Static dielectric constant tensor:
#      x y z
#    x 4.234110 0.000000 -0.263760 
#    y 0.000000 4.004310 0.000000 
#    z -0.263760 0.000000 4.042930 
# 
# 
# High freq. dielectric constant tensor:
#      x y z
#    x 1.895130 0.000000 -0.019180 
#    y 0.000000 1.859300 0.000000 
#    z -0.019180 0.000000 1.870020 
# 
# From -- ./inp_files/64438.got.cif
#   From: 2010.06.25/outbox.cif.g09.slc.cpg/sg13_33_cif.got.tgz:64438.got - 2010.06.28 04:50:58.
