data_PCOD8117133
_publ_section_title
;
Structure prediction by ZEFSAII (Michael W. Deem and Ramdas Pophale) SiO2 
 PCOD8117133
Probable space group: P 2/C
;
_chemical_formula_sum "Si O2"
_cell_formula_units_Z 30
_cell_length_a 9.500763
_cell_length_b 8.880223
_cell_length_c 24.081113
_cell_angle_alpha 90.000000
_cell_angle_beta 125.791214
_cell_angle_gamma 90.000000
_cell_volume 1648.018049
_symmetry_space_group_name_H-M "P 2/C"
_symmetry_group_IT_number 13
_symmetry_cell_setting 'monoclinic'
loop_
_space_group_symop_operation_xyz
x,y,z
-x,y,1/2-z
-x,-y,-z
x,-y,1/2+z
loop_
_atom_site_type_symbol
_atom_site_label
_atom_site_fract_x
_atom_site_fract_y
_atom_site_fract_z
Si Si1 0.004555 0.883843 0.332027
Si Si2 0.890515 0.214405 0.138309
Si Si3 0.104300 0.786428 0.986906
Si Si4 0.552586 0.380734 0.930150
Si Si5 0.235406 0.278905 0.797490
Si Si6 0.846212 0.128075 0.513872
Si Si7 0.498932 0.293661 0.456314
Si Si8 0.000000 0.548021 0.750000
O O1 0.812992 0.826112 0.267210
O O2 0.145133 0.786705 0.331581
O O3 0.032402 0.858098 0.403679
O O4 0.028818 0.058343 0.321514
O O5 0.948437 0.243281 0.088540
O O6 0.682526 0.211111 0.098343
O O7 0.970542 0.351827 0.189463
O O8 0.174545 0.956224 0.010570
O O9 0.250146 0.665077 0.037695
O O10 0.936703 0.768206 0.987770
O O11 0.439549 0.295841 0.856602
O O12 0.526375 0.560719 0.923373
O O13 0.491259 0.329310 0.976566
O O14 0.165969 0.447867 0.772963
O O15 0.651075 0.178172 0.478549
#
# Coordination Sequence:
#
# PCOD8117133 Si02
#       8
#     4   4   4   4   4   4   4   2
#     4   9  19  30  54  75 107 133 176 205 266 302
#     4  10  19  34  52  85  98 137 170 223 255 314
#     4   9  22  34  57  74 110 132 181 213 265 301
#     4  10  19  34  50  83 103 138 171 221 255 310
#     4  10  19  32  50  80 106 138 166 223 251 318
#     4  10  19  38  52  80 101 144 169 222 256 315
#     4  10  20  31  56  76 111 129 177 215 265 299
#     4  10  18  32  52  74 112 132 170 212 266 306
#
# _framework density 18.203683000000002
#
# number of rings (size 3 to 8) (size 9 to 14) (size 15 to 20)
#    0.000    2.400    2.667    0.800    1.867    2.133 
#    0.000    0.667    0.000    0.800    0.000    0.000 
#    0.000    0.000    0.000    0.000    0.000    0.000 
#
# Total GULP energy -371881.026506 kJ/mol
# GULP energy per Si atom -12396.034217 kJ/mol
# Density = 1.816225 g / cm^3
# Si number density = 18.203683 Si / 1000 Ang^3
#
#
#
# Elastic Constant Matrix: (Units=GPa)
#
#
# Indices 1 2 3 4 5 6 
#
# 1 60.0430 18.2540 17.9360 0.0000 -11.9142 0.0000
# 2 18.2540 92.1163 41.3954 0.0000 2.7505 0.0000
# 3 17.9360 41.3954 89.6764 0.0000 4.8808 0.0000
# 4 0.0000 0.0000 0.0000 26.9816 0.0000 5.1430
# 5 -11.9142 2.7505 4.8808 0.0000 15.3205 0.0000
# 6 0.0000 0.0000 0.0000 5.1430 0.0000 17.2760
#
#
#
# Elastic Compliance Matrix: (Units=1/GPa)
#
#
# Indices 1 2 3 4 5 6 
#
# 1 0.022760 -0.003243 -0.004122 0.000000 0.019595 0.000000
# 2 -0.003243 0.014162 -0.005712 0.000000 -0.003245 0.000000
# 3 -0.004122 -0.005712 0.014991 0.000000 -0.006955 0.000000
# 4 0.000000 0.000000 0.000000 0.039292 0.000000 -0.011697
# 5 0.019595 -0.003245 -0.006955 0.000000 0.083308 0.000000
# 6 0.000000 0.000000 0.000000 -0.011697 0.000000 0.061366
#
#
# Mechanical properties :
#
#
# Convention : Reuss Voigt Hill
#
# Bulk Modulus (GPa) = 38.82070 44.11184 41.46627
# Shear Modulus (GPa) = 18.47610 22.86564 20.67087
#
# Velocity S-wave (km/s) = 3.18931 3.54799 3.37342
# Velocity P-wave (km/s) = 5.91052 6.40854 6.16456
#
# Compressibility (1/GPa) = 0.02575945
#
# Stress axis : x y z
#
# Youngs Moduli (GPa) = 43.93666 70.60970 66.70695
#
# Poissons Ratio (x) = 0.22899 0.27494
# Poissons Ratio (y) = 0.14249 0.38104
# Poissons Ratio (z) = 0.18109 0.40334
#
# Static dielectric constant tensor:
#      x y z
#    x 3.092940 0.000000 0.021690 
#    y 0.000000 3.470210 0.000000 
#    z 0.021690 0.000000 3.506400 
# 
# 
# High freq. dielectric constant tensor:
#      x y z
#    x 1.669800 0.000000 0.005610 
#    y 0.000000 1.714020 0.000000 
#    z 0.005610 0.000000 1.706460 
# 
# From -- ./inp_files/80945.got.cif
#   From: 2010.06.25/outbox.cif.g09.slc.cpg/sg13_41_cif.got.tgz:80945.got - 2010.06.28 04:50:58.
