data_PCOD8117255
_publ_section_title
;
Structure prediction by ZEFSAII (Michael W. Deem and Ramdas Pophale) SiO2 
 PCOD8117255
Probable space group: P 2/C
;
_chemical_formula_sum "Si O2"
_cell_formula_units_Z 28
_cell_length_a 9.182124
_cell_length_b 9.383998
_cell_length_c 29.092595
_cell_angle_alpha 90.000000
_cell_angle_beta 33.526925
_cell_angle_gamma 90.000000
_cell_volume 1384.558162
_symmetry_space_group_name_H-M "P 2/C"
_symmetry_group_IT_number 13
_symmetry_cell_setting 'monoclinic'
loop_
_space_group_symop_operation_xyz
x,y,z
-x,y,1/2-z
-x,-y,-z
x,-y,1/2+z
loop_
_atom_site_type_symbol
_atom_site_label
_atom_site_fract_x
_atom_site_fract_y
_atom_site_fract_z
Si Si1 0.637252 0.743951 0.392515
Si Si2 0.805302 0.032677 0.915265
Si Si3 0.982596 0.262267 0.938178
Si Si4 0.793196 0.616430 0.573079
Si Si5 0.039579 0.454274 0.637029
Si Si6 0.542116 0.362158 0.820385
Si Si7 0.068096 0.259189 0.086681
O O1 0.824446 0.872827 0.363180
O O2 0.657770 0.731158 0.332197
O O3 0.337588 0.759701 0.487626
O O4 0.738189 0.594089 0.385929
O O5 0.916125 0.118669 0.929409
O O6 0.978613 0.887505 0.872180
O O7 0.500000 0.000000 0.000000
O O8 0.896984 0.399329 0.930894
O O9 0.294286 0.273227 0.866682
O O10 0.798735 0.261997 0.032337
O O11 0.525403 0.525788 0.647469
O O12 0.000000 0.500000 0.500000
O O13 0.848756 0.695558 0.606898
O O14 0.760669 0.382708 0.723880
O O15 0.058665 0.624481 0.629768
#
# Coordination Sequence:
#
# PCOD8117255 Si02
#       7
#     4   4   4   4   4   4   4
#     4  10  20  38  57  85 118 154 195 242 295 357
#     4   9  22  37  58  86 116 154 194 240 294 356
#     4  10  19  37  59  82 114 157 201 232 293 356
#     4  10  18  33  58  88 116 146 194 254 289 334
#     4  11  21  33  62  86 113 153 196 247 290 352
#     4  11  20  35  60  88 115 149 201 247 298 343
#     4  11  19  37  59  88 118 148 197 246 294 345
#
# _framework density 20.223058999999999
#
# number of rings (size 3 to 8) (size 9 to 14) (size 15 to 20)
#    0.000    1.714    5.714    1.286    0.000    2.857 
#    0.000    0.000   12.571    8.571    0.000    0.000 
#    0.000    0.000    0.000    0.000    0.000    0.000 
#
# Total GULP energy -346890.620215 kJ/mol
# GULP energy per Si atom -12388.950722 kJ/mol
# Density = 2.017703 g / cm^3
# Si number density = 20.223059 Si / 1000 Ang^3
#
#
#
# Elastic Constant Matrix: (Units=GPa)
#
#
# Indices 1 2 3 4 5 6 
#
# 1 101.6314 60.8794 2.7560 0.0000 7.0716 0.0000
# 2 60.8794 144.2395 12.2198 0.0000 8.2312 0.0000
# 3 2.7560 12.2198 32.4902 0.0000 11.9618 0.0000
# 4 0.0000 0.0000 0.0000 12.4506 0.0000 -4.9410
# 5 7.0716 8.2312 11.9618 0.0000 13.3769 0.0000
# 6 0.0000 0.0000 0.0000 -4.9410 0.0000 34.9625
#
#
#
# Elastic Compliance Matrix: (Units=1/GPa)
#
#
# Indices 1 2 3 4 5 6 
#
# 1 0.013603 -0.005647 0.003486 0.000000 -0.006834 0.000000
# 2 -0.005647 0.009586 -0.003062 0.000000 -0.000175 0.000000
# 3 0.003486 -0.003062 0.047138 0.000000 -0.042110 0.000000
# 4 0.000000 0.000000 0.000000 0.085089 0.000000 0.012025
# 5 -0.006834 -0.000175 -0.042110 0.000000 0.116131 0.000000
# 6 0.000000 0.000000 0.000000 0.012025 0.000000 0.030302
#
#
# Mechanical properties :
#
#
# Convention : Reuss Voigt Hill
#
# Bulk Modulus (GPa) = 16.69980 47.78575 32.24278
# Shear Modulus (GPa) = 15.04873 25.65839 20.35356
#
# Velocity S-wave (km/s) = 2.73085 3.56584 3.17591
# Velocity P-wave (km/s) = 4.26838 6.37450 5.42464
#
# Compressibility (1/GPa) = 0.05988096
#
# Stress axis : x y z
#
# Youngs Moduli (GPa) = 73.51325 104.32254 21.21446
#
# Poissons Ratio (x) = 0.58909 -0.07395
# Poissons Ratio (y) = 0.41511 0.06495
# Poissons Ratio (z) = -0.25625 0.31940
#
# Static dielectric constant tensor:
#      x y z
#    x 4.048280 0.000000 0.219660 
#    y 0.000000 3.708220 0.000000 
#    z 0.219660 0.000000 3.621800 
# 
# 
# High freq. dielectric constant tensor:
#      x y z
#    x 1.801840 0.000000 0.006180 
#    y 0.000000 1.777940 0.000000 
#    z 0.006180 0.000000 1.756110 
# 
# From -- ./inp_files/75337.got.cif
#   From: 2010.06.25/outbox.cif.g09.slc.cpg/sg13_38_cif.got.tgz:75337.got - 2010.06.28 04:50:58.
