data_PCOD8117471
_publ_section_title
;
Structure prediction by ZEFSAII (Michael W. Deem and Ramdas Pophale) SiO2 
 PCOD8117471
Probable space group: P 2/C
;
_chemical_formula_sum "Si O2"
_cell_formula_units_Z 30
_cell_length_a 10.756240
_cell_length_b 9.013482
_cell_length_c 20.911825
_cell_angle_alpha 90.000000
_cell_angle_beta 133.057027
_cell_angle_gamma 90.000000
_cell_volume 1481.388574
_symmetry_space_group_name_H-M "P 2/C"
_symmetry_group_IT_number 13
_symmetry_cell_setting 'monoclinic'
loop_
_space_group_symop_operation_xyz
x,y,z
-x,y,1/2-z
-x,-y,-z
x,-y,1/2+z
loop_
_atom_site_type_symbol
_atom_site_label
_atom_site_fract_x
_atom_site_fract_y
_atom_site_fract_z
Si Si1 0.923422 0.102791 0.384916
Si Si2 0.000000 0.231520 0.750000
Si Si3 0.513662 0.110519 0.091397
Si Si4 0.219309 0.991109 0.405428
Si Si5 0.630523 0.306628 0.238663
Si Si6 0.130005 0.208513 0.569058
Si Si7 0.497749 0.155023 0.677782
Si Si8 0.204336 0.382511 0.712878
O O1 0.752394 0.168982 0.296523
O O2 0.980832 0.207747 0.464231
O O3 0.878934 0.938187 0.391019
O O4 0.069790 0.090574 0.382926
O O5 0.147119 0.128097 0.830351
O O6 0.073385 0.339949 0.722022
O O7 0.527056 0.260840 0.138091
O O8 0.653160 0.107646 0.083822
O O9 0.556364 0.969340 0.149811
O O10 0.322518 0.099790 0.996282
O O11 0.500000 0.341263 0.250000
O O12 0.751718 0.445163 0.267332
O O13 0.308564 0.211456 0.593819
O O14 0.117469 0.347155 0.613322
O O15 0.500000 0.087314 0.750000
O O16 0.620656 0.294988 0.717069
#
# Coordination Sequence:
#
# PCOD8117471 Si02
#       8
#     4   2   4   4   4   4   4   4
#     4  11  22  38  66  95 124 155 211 272 307 361
#     4  12  22  42  64  90 128 166 212 254 318 376
#     4  11  22  40  66  93 125 160 208 265 310 370
#     4  11  23  40  67  99 122 159 215 267 315 370
#     4  12  26  42  61  94 129 166 207 259 313 374
#     4  10  20  37  63  93 120 161 208 258 311 364
#     4  10  18  36  61  87 117 163 208 249 306 366
#     4  11  24  40  61  88 129 175 203 248 311 383
#
# _framework density 20.251269000000001
#
# number of rings (size 3 to 8) (size 9 to 14) (size 15 to 20)
#    0.000    1.067    4.000    4.800    1.867    1.600 
#    0.000    2.000    0.000    0.000    0.000    0.000 
#    0.000    0.000    0.000    0.000    0.000    0.000 
#
# Total GULP energy -372074.606921 kJ/mol
# GULP energy per Si atom -12402.486897 kJ/mol
# Density = 2.020518 g / cm^3
# Si number density = 20.251269 Si / 1000 Ang^3
#
#
#
# Elastic Constant Matrix: (Units=GPa)
#
#
# Indices 1 2 3 4 5 6 
#
# 1 102.2993 13.4687 2.5992 0.0000 3.4799 0.0000
# 2 13.4687 60.6681 23.7787 0.0000 -11.9868 0.0000
# 3 2.5992 23.7787 85.7447 0.0000 -2.8939 0.0000
# 4 0.0000 0.0000 0.0000 22.1452 0.0000 2.0257
# 5 3.4799 -11.9868 -2.8939 0.0000 28.4839 0.0000
# 6 0.0000 0.0000 0.0000 2.0257 0.0000 24.6406
#
#
#
# Elastic Compliance Matrix: (Units=1/GPa)
#
#
# Indices 1 2 3 4 5 6 
#
# 1 0.010231 -0.002916 0.000416 0.000000 -0.002435 0.000000
# 2 -0.002916 0.020965 -0.005434 0.000000 0.008627 0.000000
# 3 0.000416 -0.005434 0.013123 0.000000 -0.001005 0.000000
# 4 0.000000 0.000000 0.000000 0.045499 0.000000 -0.003740
# 5 -0.002435 0.008627 -0.001005 0.000000 0.038933 0.000000
# 6 0.000000 0.000000 0.000000 -0.003740 0.000000 0.040891
#
#
# Mechanical properties :
#
#
# Convention : Reuss Voigt Hill
#
# Bulk Modulus (GPa) = 35.14727 36.48948 35.81838
# Shear Modulus (GPa) = 25.64184 28.97829 27.31007
#
# Velocity S-wave (km/s) = 3.56221 3.78688 3.67626
# Velocity P-wave (km/s) = 5.85768 6.09738 5.97873
#
# Compressibility (1/GPa) = 0.02845171
#
# Stress axis : x y z
#
# Youngs Moduli (GPa) = 97.73888 47.69880 76.20157
#
# Poissons Ratio (x) = 0.13907 -0.03172
# Poissons Ratio (y) = 0.28497 0.41411
# Poissons Ratio (z) = -0.04068 0.25922
#
# Static dielectric constant tensor:
#      x y z
#    x 3.905610 0.000000 -0.010150 
#    y 0.000000 3.279760 0.000000 
#    z -0.010150 0.000000 3.915320 
# 
# 
# High freq. dielectric constant tensor:
#      x y z
#    x 1.805610 0.000000 0.004000 
#    y 0.000000 1.753930 0.000000 
#    z 0.004000 0.000000 1.802070 
# 
# From -- ./inp_files/86404.got.cif
#   From: 2010.06.25/outbox.cif.g09.slc.cpg/sg13_44_cif.got.tgz:86404.got - 2010.06.28 04:50:58.
