data_PCOD8117728
_publ_section_title
;
Structure prediction by ZEFSAII (Michael W. Deem and Ramdas Pophale) SiO2 
 PCOD8117728
Probable space group: P 2/C
;
_chemical_formula_sum "Si O2"
_cell_formula_units_Z 20
_cell_length_a 8.780158
_cell_length_b 11.458310
_cell_length_c 20.368921
_cell_angle_alpha 90.000000
_cell_angle_beta 153.149881
_cell_angle_gamma 90.000000
_cell_volume 925.551894
_symmetry_space_group_name_H-M "P 2/C"
_symmetry_group_IT_number 13
_symmetry_cell_setting 'monoclinic'
loop_
_space_group_symop_operation_xyz
x,y,z
-x,y,1/2-z
-x,-y,-z
x,-y,1/2+z
loop_
_atom_site_type_symbol
_atom_site_label
_atom_site_fract_x
_atom_site_fract_y
_atom_site_fract_z
Si Si1 0.343987 0.111514 0.620650
Si Si2 0.234783 0.524712 0.453190
Si Si3 0.069773 0.244178 0.702796
Si Si4 0.218701 0.342908 0.267127
Si Si5 0.681686 0.862961 0.935320
O O1 0.500000 0.073369 0.750000
O O2 0.541321 0.218925 0.664450
O O3 0.959099 0.153274 0.483843
O O4 0.397063 0.000625 0.593065
O O5 0.500000 0.500000 0.500000
O O6 0.441831 0.576653 0.594261
O O7 0.970882 0.618605 0.323497
O O8 0.014687 0.405506 0.378557
O O9 0.000000 0.206328 0.750000
O O10 0.818257 0.172005 0.559433
O O11 0.348009 0.215809 0.292311
O O12 0.000000 0.330035 0.250000
#
# Coordination Sequence:
#
# PCOD8117728 Si02
#       5
#     4   4   4   4   4
#     4   9  19  37  55  73 106 145 178 219 276 323
#     4   9  17  32  52  79 113 144 172 216 276 321
#     4  10  19  32  55  82 106 139 181 224 268 318
#     4   9  17  31  54  80 109 141 179 220 264 321
#     4   9  19  36  54  75 106 146 180 218 271 323
#
# _framework density 21.608726999999998
#
# number of rings (size 3 to 8) (size 9 to 14) (size 15 to 20)
#    0.000    2.800    0.000    1.800    0.000    1.600 
#    0.000   23.000    0.000    8.400    0.000    0.000 
#    0.000    0.000    0.000    0.000    0.000    0.000 
#
# Total GULP energy -247788.317209 kJ/mol
# GULP energy per Si atom -12389.415860 kJ/mol
# Density = 2.155954 g / cm^3
# Si number density = 21.608727 Si / 1000 Ang^3
#
#
#
# Elastic Constant Matrix: (Units=GPa)
#
#
# Indices 1 2 3 4 5 6 
#
# 1 55.5586 39.6785 21.8857 0.0000 7.6428 0.0000
# 2 39.6785 116.0929 50.9062 0.0000 26.5113 0.0000
# 3 21.8857 50.9062 74.4610 0.0000 31.3873 0.0000
# 4 0.0000 0.0000 0.0000 47.6284 0.0000 21.0873
# 5 7.6428 26.5113 31.3873 0.0000 29.7256 0.0000
# 6 0.0000 0.0000 0.0000 21.0873 0.0000 24.0608
#
#
#
# Elastic Compliance Matrix: (Units=1/GPa)
#
#
# Indices 1 2 3 4 5 6 
#
# 1 0.024384 -0.007706 -0.003880 0.000000 0.004700 0.000000
# 2 -0.007706 0.014976 -0.005728 0.000000 -0.005327 0.000000
# 3 -0.003880 -0.005728 0.028676 0.000000 -0.024173 0.000000
# 4 0.000000 0.000000 0.000000 0.034309 0.000000 -0.030069
# 5 0.004700 -0.005327 -0.024173 0.000000 0.062707 0.000000
# 6 0.000000 0.000000 0.000000 -0.030069 0.000000 0.067914
#
#
# Mechanical properties :
#
#
# Convention : Reuss Voigt Hill
#
# Bulk Modulus (GPa) = 29.93327 52.33929 41.13628
# Shear Modulus (GPa) = 17.93854 29.19243 23.56548
#
# Velocity S-wave (km/s) = 2.88436 3.67952 3.30594
# Velocity P-wave (km/s) = 4.99752 6.50583 5.80090
#
# Compressibility (1/GPa) = 0.03340765
#
# Stress axis : x y z
#
# Youngs Moduli (GPa) = 41.00992 66.77463 34.87288
#
# Poissons Ratio (x) = 0.51458 0.13530
# Poissons Ratio (y) = 0.31603 0.19975
# Poissons Ratio (z) = 0.15912 0.38248
#
# Static dielectric constant tensor:
#      x y z
#    x 3.540900 0.000000 0.200410 
#    y 0.000000 4.057190 0.000000 
#    z 0.200410 0.000000 4.367070 
# 
# 
# High freq. dielectric constant tensor:
#      x y z
#    x 1.805710 0.000000 0.013180 
#    y 0.000000 1.848860 0.000000 
#    z 0.013180 0.000000 1.857140 
# 
# From -- ./inp_files/85087.got.cif
#   From: 2010.06.25/outbox.cif.g09.slc.cpg/sg13_43_cif.got.tgz:85087.got - 2010.06.28 04:50:58.
