data_PCOD8117746
_publ_section_title
;
Structure prediction by ZEFSAII (Michael W. Deem and Ramdas Pophale) SiO2 
 PCOD8117746
Probable space group: P 2/C
;
_chemical_formula_sum "Si O2"
_cell_formula_units_Z 28
_cell_length_a 5.171403
_cell_length_b 34.966077
_cell_length_c 10.055717
_cell_angle_alpha 90.000000
_cell_angle_beta 120.949062
_cell_angle_gamma 90.000000
_cell_volume 1559.429304
_symmetry_space_group_name_H-M "P 2/C"
_symmetry_group_IT_number 13
_symmetry_cell_setting 'monoclinic'
loop_
_space_group_symop_operation_xyz
x,y,z
-x,y,1/2-z
-x,-y,-z
x,-y,1/2+z
loop_
_atom_site_type_symbol
_atom_site_label
_atom_site_fract_x
_atom_site_fract_y
_atom_site_fract_z
Si Si1 0.142045 0.471232 0.642045
Si Si2 0.849735 0.974328 0.349732
Si Si3 0.857259 0.694838 0.357259
Si Si4 0.846357 0.163400 0.346360
Si Si5 0.853009 0.387966 0.853009
Si Si6 0.847511 0.747153 0.847514
Si Si7 0.150670 0.886209 0.150673
O O1 0.500000 0.477439 0.750000
O O2 0.058591 0.428878 0.558587
O O3 0.000000 0.477439 0.750000
O O4 0.000000 0.500000 0.500000
O O5 0.500000 0.984541 0.250000
O O6 0.902480 0.930254 0.402460
O O7 0.000000 0.984545 0.250000
O O8 0.000000 0.000000 0.500000
O O9 0.500000 0.700204 0.250000
O O10 0.944020 0.652735 0.444017
O O11 0.000000 0.700204 0.250000
O O12 0.988469 0.726507 0.488473
O O13 0.500000 0.151289 0.250000
O O14 0.885417 0.208108 0.385436
O O15 0.000000 0.151293 0.250000
O O16 0.003468 0.140444 0.503461
O O17 0.500000 0.387717 0.750000
O O18 0.000000 0.387719 0.750000
O O19 0.500000 0.734861 0.750000
O O20 0.000000 0.734865 0.750000
O O21 0.500000 0.876134 0.250000
O O22 0.000000 0.876130 0.250000
#
# Coordination Sequence:
#
# PCOD8117746 Si02
#       7
#     4   4   4   4   4   4   4
#     4  10  19  33  51  72  99 130 163 203 247 292
#     4  10  21  36  54  78 106 136 169 209 253 298
#     4  10  19  33  54  76  95 128 174 205 236 296
#     4  10  21  36  54  75 102 137 171 200 247 309
#     4   8  16  30  48  69  96 127 160 200 244 289
#     4  10  21  36  51  74 107 134 159 205 259 296
#     4  10  21  36  54  78 106 132 168 216 254 284
#
# _framework density 17.955287999999999
#
# number of rings (size 3 to 8) (size 9 to 14) (size 15 to 20)
#    0.000    2.286    0.000    2.571    0.000    2.286 
#    0.000    1.429    0.000    0.000    0.000    0.000 
#    0.000    0.000    0.000    0.000    0.000    0.000 
#
# Total GULP energy -347025.488481 kJ/mol
# GULP energy per Si atom -12393.767446 kJ/mol
# Density = 1.791442 g / cm^3
# Si number density = 17.955288 Si / 1000 Ang^3
#
#
#
# Elastic Constant Matrix: (Units=GPa)
#
#
# Indices 1 2 3 4 5 6 
#
# 1 172.5734 51.4649 68.6232 0.0000 -6.0952 0.0000
# 2 51.4649 96.2252 86.3551 0.0000 2.9530 0.0000
# 3 68.6232 86.3551 127.4667 0.0000 2.2506 0.0000
# 4 0.0000 0.0000 0.0000 37.6256 0.0000 2.1968
# 5 -6.0952 2.9530 2.2506 0.0000 16.8245 0.0000
# 6 0.0000 0.0000 0.0000 2.1968 0.0000 11.7655
#
#
#
# Elastic Compliance Matrix: (Units=1/GPa)
#
#
# Indices 1 2 3 4 5 6 
#
# 1 0.007598 -0.001131 -0.003384 0.000000 0.003404 0.000000
# 2 -0.001131 0.026764 -0.017474 0.000000 -0.002770 0.000000
# 3 -0.003384 -0.017474 0.021524 0.000000 -0.001038 0.000000
# 4 0.000000 0.000000 0.000000 0.026871 0.000000 -0.005017
# 5 0.003404 -0.002770 -0.001038 0.000000 0.061295 0.000000
# 6 0.000000 0.000000 0.000000 -0.005017 0.000000 0.085931
#
#
# Mechanical properties :
#
#
# Convention : Reuss Voigt Hill
#
# Bulk Modulus (GPa) = 83.98516 89.90574 86.94545
# Shear Modulus (GPa) = 17.99017 25.89793 21.94405
#
# Velocity S-wave (km/s) = 3.16878 3.80196 3.49972
# Velocity P-wave (km/s) = 7.76301 8.33390 8.05352
#
# Compressibility (1/GPa) = 0.01190687
#
# Stress axis : x y z
#
# Youngs Moduli (GPa) = 131.61550 37.36412 46.46057
#
# Poissons Ratio (x) = 0.04225 0.15724
# Poissons Ratio (y) = 0.14884 0.81185
# Poissons Ratio (z) = 0.44544 0.65290
#
# Static dielectric constant tensor:
#      x y z
#    x 3.951420 0.000000 -0.083170 
#    y 0.000000 3.723630 0.000000 
#    z -0.083170 0.000000 2.971830 
# 
# 
# High freq. dielectric constant tensor:
#      x y z
#    x 1.726960 0.000000 -0.005050 
#    y 0.000000 1.709030 0.000000 
#    z -0.005050 0.000000 1.667410 
# 
# From -- ./inp_files/10362.got.cif
#   From: 2010.06.25/outbox.cif.g09.slc.cpg/sg13_6_cif.got.tgz:10362.got - 2010.06.28 04:50:58.
